MODEL 1
REMARK VINA RESULT:    -4.908      0.000      0.000
REMARK INTER + INTRA:          -7.611
REMARK INTER:                  -7.203
REMARK INTRA:                  -0.408
REMARK UNBOUND:                -0.408
REMARK SMILES O=C([O-])CCCCCCCC(=O)[O-]
REMARK SMILES IDX 7 1 6 2 5 3 4 4 2 5 1 6 3 7 8 8 9 9 10 10 11 11 12 12 13 13
REMARK H PARENT
REMARK Flexibility Score: inf
ROOT
ATOM      1  C   UNL     1       6.025   8.292  -4.525  1.00  0.00     0.000 C 
ENDROOT
BRANCH   1   2
ATOM      2  C   UNL     1       5.688   9.749  -4.184  1.00  0.00     0.000 C 
BRANCH   2   3
ATOM      3  C   UNL     1       4.266   9.868  -3.617  1.00  0.00     0.006 C 
BRANCH   3   4
ATOM      4  C   UNL     1       3.487   8.551  -3.717  1.00  0.00     0.053 C 
BRANCH   4   5
ATOM      5  C   UNL     1       3.480   7.810  -2.415  1.00  0.00     0.041 C 
ATOM      6  O   UNL     1       2.808   6.752  -2.290  1.00  0.00    -0.550 OA
ATOM      7  O   UNL     1       4.190   8.307  -1.329  1.00  0.00    -0.550 OA
ENDBRANCH   4   5
ENDBRANCH   3   4
ENDBRANCH   2   3
ENDBRANCH   1   2
BRANCH   1   8
ATOM      8  C   UNL     1       7.110   7.745  -3.591  1.00  0.00     0.000 C 
BRANCH   8   9
ATOM      9  C   UNL     1       7.648   8.846  -2.666  1.00  0.00     0.006 C 
BRANCH   9  10
ATOM     10  C   UNL     1       8.885   8.393  -1.879  1.00  0.00     0.053 C 
BRANCH  10  11
ATOM     11  C   UNL     1       8.520   7.885  -0.517  1.00  0.00     0.041 C 
ATOM     12  O   UNL     1       8.557   8.656   0.477  1.00  0.00    -0.550 OA
ATOM     13  O   UNL     1       8.171   6.552  -0.342  1.00  0.00    -0.550 OA
ENDBRANCH  10  11
ENDBRANCH   9  10
ENDBRANCH   8   9
ENDBRANCH   1   8
TORSDOF 8
ENDMDL
MODEL 2
REMARK VINA RESULT:    -4.320      2.555      5.046
REMARK INTER + INTRA:          -6.748
REMARK INTER:                  -6.138
REMARK INTRA:                  -0.611
REMARK UNBOUND:                -0.408
REMARK SMILES O=C([O-])CCCCCCCC(=O)[O-]
REMARK SMILES IDX 7 1 6 2 5 3 4 4 2 5 1 6 3 7 8 8 9 9 10 10 11 11 12 12 13 13
REMARK H PARENT
REMARK Flexibility Score: inf
ROOT
ATOM      1  C   UNL     1       4.674   8.817  -2.752  1.00  0.00     0.000 C 
ENDROOT
BRANCH   1   2
ATOM      2  C   UNL     1       5.786   9.188  -1.765  1.00  0.00     0.000 C 
BRANCH   2   3
ATOM      3  C   UNL     1       7.096   9.505  -2.502  1.00  0.00     0.006 C 
BRANCH   3   4
ATOM      4  C   UNL     1       8.334   9.124  -1.680  1.00  0.00     0.053 C 
BRANCH   4   5
ATOM      5  C   UNL     1       8.347   7.665  -1.341  1.00  0.00     0.041 C 
ATOM      6  O   UNL     1       8.499   7.292  -0.148  1.00  0.00    -0.550 OA
ATOM      7  O   UNL     1       8.224   6.716  -2.348  1.00  0.00    -0.550 OA
ENDBRANCH   4   5
ENDBRANCH   3   4
ENDBRANCH   2   3
ENDBRANCH   1   2
BRANCH   1   8
ATOM      8  C   UNL     1       4.603   9.824  -3.906  1.00  0.00     0.000 C 
BRANCH   8   9
ATOM      9  C   UNL     1       4.236   9.127  -5.224  1.00  0.00     0.006 C 
BRANCH   9  10
ATOM     10  C   UNL     1       5.389   9.151  -6.236  1.00  0.00     0.053 C 
BRANCH  10  11
ATOM     11  C   UNL     1       6.032   7.804  -6.375  1.00  0.00     0.041 C 
ATOM     12  O   UNL     1       6.033   7.216  -7.488  1.00  0.00    -0.550 OA
ATOM     13  O   UNL     1       6.601   7.187  -5.270  1.00  0.00    -0.550 OA
ENDBRANCH  10  11
ENDBRANCH   9  10
ENDBRANCH   8   9
ENDBRANCH   1   8
TORSDOF 8
ENDMDL
MODEL 3
REMARK VINA RESULT:    -4.307      9.896     11.282
REMARK INTER + INTRA:          -6.729
REMARK INTER:                  -5.956
REMARK INTRA:                  -0.774
REMARK UNBOUND:                -0.408
REMARK SMILES O=C([O-])CCCCCCCC(=O)[O-]
REMARK SMILES IDX 7 1 6 2 5 3 4 4 2 5 1 6 3 7 8 8 9 9 10 10 11 11 12 12 13 13
REMARK H PARENT
REMARK Flexibility Score: inf
ROOT
ATOM      1  C   UNL     1       9.056  -2.727  -0.452  1.00  0.00     0.000 C 
ENDROOT
BRANCH   1   2
ATOM      2  C   UNL     1       9.188  -1.762  -1.636  1.00  0.00     0.000 C 
BRANCH   2   3
ATOM      3  C   UNL     1       7.882  -0.988  -1.865  1.00  0.00     0.006 C 
BRANCH   3   4
ATOM      4  C   UNL     1       7.976   0.466  -1.388  1.00  0.00     0.053 C 
BRANCH   4   5
ATOM      5  C   UNL     1       7.448   0.628   0.005  1.00  0.00     0.041 C 
ATOM      6  O   UNL     1       6.459  -0.049   0.392  1.00  0.00    -0.550 OA
ATOM      7  O   UNL     1       8.029   1.551   0.866  1.00  0.00    -0.550 OA
ENDBRANCH   4   5
ENDBRANCH   3   4
ENDBRANCH   2   3
ENDBRANCH   1   2
BRANCH   1   8
ATOM      8  C   UNL     1       9.717  -2.150   0.805  1.00  0.00     0.000 C 
BRANCH   8   9
ATOM      9  C   UNL     1       8.769  -2.228   2.011  1.00  0.00     0.006 C 
BRANCH   9  10
ATOM     10  C   UNL     1       7.678  -3.291   1.826  1.00  0.00     0.053 C 
BRANCH  10  11
ATOM     11  C   UNL     1       7.928  -4.498   2.679  1.00  0.00     0.041 C 
ATOM     12  O   UNL     1       7.246  -4.689   3.719  1.00  0.00    -0.550 OA
ATOM     13  O   UNL     1       8.935  -5.392   2.342  1.00  0.00    -0.550 OA
ENDBRANCH  10  11
ENDBRANCH   9  10
ENDBRANCH   8   9
ENDBRANCH   1   8
TORSDOF 8
ENDMDL
MODEL 4
REMARK VINA RESULT:    -4.305     14.343     16.004
REMARK INTER + INTRA:          -6.727
REMARK INTER:                  -6.439
REMARK INTRA:                  -0.288
REMARK UNBOUND:                -0.408
REMARK SMILES O=C([O-])CCCCCCCC(=O)[O-]
REMARK SMILES IDX 7 1 6 2 5 3 4 4 2 5 1 6 3 7 8 8 9 9 10 10 11 11 12 12 13 13
REMARK H PARENT
REMARK Flexibility Score: inf
ROOT
ATOM      1  C   UNL     1      -3.251  -3.290   5.245  1.00  0.00     0.000 C 
ENDROOT
BRANCH   1   2
ATOM      2  C   UNL     1      -3.674  -1.817   5.281  1.00  0.00     0.000 C 
BRANCH   2   3
ATOM      3  C   UNL     1      -2.450  -0.892   5.352  1.00  0.00     0.006 C 
BRANCH   3   4
ATOM      4  C   UNL     1      -2.839   0.573   5.584  1.00  0.00     0.053 C 
BRANCH   4   5
ATOM      5  C   UNL     1      -1.770   1.512   5.115  1.00  0.00     0.041 C 
ATOM      6  O   UNL     1      -2.054   2.705   4.829  1.00  0.00    -0.550 OA
ATOM      7  O   UNL     1      -0.466   1.059   4.963  1.00  0.00    -0.550 OA
ENDBRANCH   4   5
ENDBRANCH   3   4
ENDBRANCH   2   3
ENDBRANCH   1   2
BRANCH   1   8
ATOM      8  C   UNL     1      -1.779  -3.450   5.640  1.00  0.00     0.000 C 
BRANCH   8   9
ATOM      9  C   UNL     1      -1.573  -4.702   6.504  1.00  0.00     0.006 C 
BRANCH   9  10
ATOM     10  C   UNL     1      -0.107  -4.891   6.916  1.00  0.00     0.053 C 
BRANCH  10  11
ATOM     11  C   UNL     1       0.023  -5.231   8.369  1.00  0.00     0.041 C 
ATOM     12  O   UNL     1       0.031  -6.433   8.740  1.00  0.00    -0.550 OA
ATOM     13  O   UNL     1       0.102  -4.218   9.316  1.00  0.00    -0.550 OA
ENDBRANCH  10  11
ENDBRANCH   9  10
ENDBRANCH   8   9
ENDBRANCH   1   8
TORSDOF 8
ENDMDL
MODEL 5
REMARK VINA RESULT:    -4.274      2.188      2.854
REMARK INTER + INTRA:          -6.680
REMARK INTER:                  -6.065
REMARK INTRA:                  -0.615
REMARK UNBOUND:                -0.408
REMARK SMILES O=C([O-])CCCCCCCC(=O)[O-]
REMARK SMILES IDX 7 1 6 2 5 3 4 4 2 5 1 6 3 7 8 8 9 9 10 10 11 11 12 12 13 13
REMARK H PARENT
REMARK Flexibility Score: inf
ROOT
ATOM      1  C   UNL     1       4.743   8.579  -1.494  1.00  0.00     0.000 C 
ENDROOT
BRANCH   1   2
ATOM      2  C   UNL     1       3.749   8.247  -2.613  1.00  0.00     0.000 C 
BRANCH   2   3
ATOM      3  C   UNL     1       3.652   9.400  -3.623  1.00  0.00     0.006 C 
BRANCH   3   4
ATOM      4  C   UNL     1       3.749   8.912  -5.074  1.00  0.00     0.053 C 
BRANCH   4   5
ATOM      5  C   UNL     1       5.167   8.638  -5.472  1.00  0.00     0.041 C 
ATOM      6  O   UNL     1       5.931   9.586  -5.795  1.00  0.00    -0.550 OA
ATOM      7  O   UNL     1       5.635   7.330  -5.519  1.00  0.00    -0.550 OA
ENDBRANCH   4   5
ENDBRANCH   3   4
ENDBRANCH   2   3
ENDBRANCH   1   2
BRANCH   1   8
ATOM      8  C   UNL     1       5.778   9.608  -1.962  1.00  0.00     0.000 C 
BRANCH   8   9
ATOM      9  C   UNL     1       7.151   8.952  -2.172  1.00  0.00     0.006 C 
BRANCH   9  10
ATOM     10  C   UNL     1       8.072   9.130  -0.958  1.00  0.00     0.053 C 
BRANCH  10  11
ATOM     11  C   UNL     1       8.746   7.846  -0.580  1.00  0.00     0.041 C 
ATOM     12  O   UNL     1       8.063   6.808  -0.379  1.00  0.00    -0.550 OA
ATOM     13  O   UNL     1      10.125   7.804  -0.421  1.00  0.00    -0.550 OA
ENDBRANCH  10  11
ENDBRANCH   9  10
ENDBRANCH   8   9
ENDBRANCH   1   8
TORSDOF 8
ENDMDL
MODEL 6
REMARK VINA RESULT:    -4.274      8.689     10.067
REMARK INTER + INTRA:          -6.680
REMARK INTER:                  -6.067
REMARK INTRA:                  -0.613
REMARK UNBOUND:                -0.408
REMARK SMILES O=C([O-])CCCCCCCC(=O)[O-]
REMARK SMILES IDX 7 1 6 2 5 3 4 4 2 5 1 6 3 7 8 8 9 9 10 10 11 11 12 12 13 13
REMARK H PARENT
REMARK Flexibility Score: inf
ROOT
ATOM      1  C   UNL     1       9.778  -2.358  -0.118  1.00  0.00     0.000 C 
ENDROOT
BRANCH   1   2
ATOM      2  C   UNL     1       9.283  -2.425   1.331  1.00  0.00     0.000 C 
BRANCH   2   3
ATOM      3  C   UNL     1       7.880  -1.813   1.464  1.00  0.00     0.006 C 
BRANCH   3   4
ATOM      4  C   UNL     1       6.811  -2.646   0.747  1.00  0.00     0.053 C 
BRANCH   4   5
ATOM      5  C   UNL     1       5.796  -1.779   0.067  1.00  0.00     0.041 C 
ATOM      6  O   UNL     1       5.433  -2.033  -1.112  1.00  0.00    -0.550 OA
ATOM      7  O   UNL     1       5.276  -0.672   0.724  1.00  0.00    -0.550 OA
ENDBRANCH   4   5
ENDBRANCH   3   4
ENDBRANCH   2   3
ENDBRANCH   1   2
BRANCH   1   8
ATOM      8  C   UNL     1      10.100  -0.915  -0.524  1.00  0.00     0.000 C 
BRANCH   8   9
ATOM      9  C   UNL     1       9.595  -0.616  -1.943  1.00  0.00     0.006 C 
BRANCH   9  10
ATOM     10  C   UNL     1       8.211   0.047  -1.941  1.00  0.00     0.053 C 
BRANCH  10  11
ATOM     11  C   UNL     1       8.312   1.542  -1.938  1.00  0.00     0.041 C 
ATOM     12  O   UNL     1       8.834   2.143  -2.913  1.00  0.00    -0.550 OA
ATOM     13  O   UNL     1       7.859   2.268  -0.845  1.00  0.00    -0.550 OA
ENDBRANCH  10  11
ENDBRANCH   9  10
ENDBRANCH   8   9
ENDBRANCH   1   8
TORSDOF 8
ENDMDL
MODEL 7
REMARK VINA RESULT:    -4.260     13.685     15.597
REMARK INTER + INTRA:          -6.661
REMARK INTER:                  -6.160
REMARK INTRA:                  -0.501
REMARK UNBOUND:                -0.408
REMARK SMILES O=C([O-])CCCCCCCC(=O)[O-]
REMARK SMILES IDX 7 1 6 2 5 3 4 4 2 5 1 6 3 7 8 8 9 9 10 10 11 11 12 12 13 13
REMARK H PARENT
REMARK Flexibility Score: inf
ROOT
ATOM      1  C   UNL     1      -3.537  -2.461   4.917  1.00  0.00     0.000 C 
ENDROOT
BRANCH   1   2
ATOM      2  C   UNL     1      -4.247  -1.125   5.164  1.00  0.00     0.000 C 
BRANCH   2   3
ATOM      3  C   UNL     1      -3.374  -0.183   6.006  1.00  0.00     0.006 C 
BRANCH   3   4
ATOM      4  C   UNL     1      -1.960  -0.032   5.434  1.00  0.00     0.053 C 
BRANCH   4   5
ATOM      5  C   UNL     1      -1.615   1.403   5.178  1.00  0.00     0.041 C 
ATOM      6  O   UNL     1      -0.463   1.718   4.778  1.00  0.00    -0.550 OA
ATOM      7  O   UNL     1      -2.558   2.397   5.412  1.00  0.00    -0.550 OA
ENDBRANCH   4   5
ENDBRANCH   3   4
ENDBRANCH   2   3
ENDBRANCH   1   2
BRANCH   1   8
ATOM      8  C   UNL     1      -3.934  -3.500   5.972  1.00  0.00     0.000 C 
BRANCH   8   9
ATOM      9  C   UNL     1      -2.863  -4.592   6.100  1.00  0.00     0.006 C 
BRANCH   9  10
ATOM     10  C   UNL     1      -1.701  -4.386   5.119  1.00  0.00     0.053 C 
BRANCH  10  11
ATOM     11  C   UNL     1      -0.389  -4.256   5.833  1.00  0.00     0.041 C 
ATOM     12  O   UNL     1      -0.362  -4.014   7.067  1.00  0.00    -0.550 OA
ATOM     13  O   UNL     1       0.801  -4.370   5.127  1.00  0.00    -0.550 OA
ENDBRANCH  10  11
ENDBRANCH   9  10
ENDBRANCH   8   9
ENDBRANCH   1   8
TORSDOF 8
ENDMDL
MODEL 8
REMARK VINA RESULT:    -4.251      8.399      9.814
REMARK INTER + INTRA:          -6.647
REMARK INTER:                  -5.956
REMARK INTRA:                  -0.691
REMARK UNBOUND:                -0.408
REMARK SMILES O=C([O-])CCCCCCCC(=O)[O-]
REMARK SMILES IDX 7 1 6 2 5 3 4 4 2 5 1 6 3 7 8 8 9 9 10 10 11 11 12 12 13 13
REMARK H PARENT
REMARK Flexibility Score: inf
ROOT
ATOM      1  C   UNL     1       9.684  -2.122  -1.831  1.00  0.00     0.000 C 
ENDROOT
BRANCH   1   2
ATOM      2  C   UNL     1       8.360  -1.983  -2.590  1.00  0.00     0.000 C 
BRANCH   2   3
ATOM      3  C   UNL     1       7.804  -0.556  -2.471  1.00  0.00     0.006 C 
BRANCH   3   4
ATOM      4  C   UNL     1       8.837   0.507  -2.865  1.00  0.00     0.053 C 
BRANCH   4   5
ATOM      5  C   UNL     1       8.477   1.857  -2.324  1.00  0.00     0.041 C 
ATOM      6  O   UNL     1       8.788   2.899  -2.960  1.00  0.00    -0.550 OA
ATOM      7  O   UNL     1       7.828   1.965  -1.100  1.00  0.00    -0.550 OA
ENDBRANCH   4   5
ENDBRANCH   3   4
ENDBRANCH   2   3
ENDBRANCH   1   2
BRANCH   1   8
ATOM      8  C   UNL     1       9.611  -3.252  -0.798  1.00  0.00     0.000 C 
BRANCH   8   9
ATOM      9  C   UNL     1       9.686  -2.698   0.632  1.00  0.00     0.006 C 
BRANCH   9  10
ATOM     10  C   UNL     1       9.673  -1.164   0.663  1.00  0.00     0.053 C 
BRANCH  10  11
ATOM     11  C   UNL     1       8.477  -0.633   1.395  1.00  0.00     0.041 C 
ATOM     12  O   UNL     1       8.623   0.208   2.319  1.00  0.00    -0.550 OA
ATOM     13  O   UNL     1       7.206  -1.093   1.076  1.00  0.00    -0.550 OA
ENDBRANCH  10  11
ENDBRANCH   9  10
ENDBRANCH   8   9
ENDBRANCH   1   8
TORSDOF 8
ENDMDL
MODEL 9
REMARK VINA RESULT:    -4.150      9.880     11.334
REMARK INTER + INTRA:          -6.498
REMARK INTER:                  -6.084
REMARK INTRA:                  -0.414
REMARK UNBOUND:                -0.408
REMARK SMILES O=C([O-])CCCCCCCC(=O)[O-]
REMARK SMILES IDX 7 1 6 2 5 3 4 4 2 5 1 6 3 7 8 8 9 9 10 10 11 11 12 12 13 13
REMARK H PARENT
REMARK Flexibility Score: inf
ROOT
ATOM      1  C   UNL     1       7.027  -1.397   0.438  1.00  0.00     0.000 C 
ENDROOT
BRANCH   1   2
ATOM      2  C   UNL     1       8.497  -0.968   0.513  1.00  0.00     0.000 C 
BRANCH   2   3
ATOM      3  C   UNL     1       9.050  -0.647  -0.883  1.00  0.00     0.006 C 
BRANCH   3   4
ATOM      4  C   UNL     1       8.011   0.043  -1.776  1.00  0.00     0.053 C 
BRANCH   4   5
ATOM      5  C   UNL     1       8.218   1.526  -1.824  1.00  0.00     0.041 C 
ATOM      6  O   UNL     1       7.804   2.255  -0.884  1.00  0.00    -0.550 OA
ATOM      7  O   UNL     1       8.839   2.106  -2.923  1.00  0.00    -0.550 OA
ENDBRANCH   4   5
ENDBRANCH   3   4
ENDBRANCH   2   3
ENDBRANCH   1   2
BRANCH   1   8
ATOM      8  C   UNL     1       6.865  -2.876   0.809  1.00  0.00     0.000 C 
BRANCH   8   9
ATOM      9  C   UNL     1       8.076  -3.380   1.607  1.00  0.00     0.006 C 
BRANCH   9  10
ATOM     10  C   UNL     1       7.689  -4.445   2.641  1.00  0.00     0.053 C 
BRANCH  10  11
ATOM     11  C   UNL     1       8.661  -4.491   3.781  1.00  0.00     0.041 C 
ATOM     12  O   UNL     1       8.977  -5.593   4.299  1.00  0.00    -0.550 OA
ATOM     13  O   UNL     1       9.192  -3.313   4.290  1.00  0.00    -0.550 OA
ENDBRANCH  10  11
ENDBRANCH   9  10
ENDBRANCH   8   9
ENDBRANCH   1   8
TORSDOF 8
ENDMDL
