MODEL 1
REMARK VINA RESULT:    -4.826      0.000      0.000
REMARK INTER + INTRA:          -4.826
REMARK INTER:                  -4.826
REMARK INTRA:                   0.000
REMARK UNBOUND:                 0.000
REMARK SMILES O=c1ccc2ccccc2o1
REMARK SMILES IDX 7 1 8 2 9 3 10 4 5 5 6 6 4 7 3 8 2 9 1 10 11 11
REMARK H PARENT
REMARK Flexibility Score: inf
ROOT
ATOM      1  C   UNL     1      -4.800 -24.208  33.520  1.00  0.00     0.001 A 
ATOM      2  C   UNL     1      -5.766 -24.536  32.563  1.00  0.00     0.004 A 
ATOM      3  C   UNL     1      -6.797 -25.425  32.879  1.00  0.00     0.048 A 
ATOM      4  C   UNL     1      -6.868 -25.991  34.157  1.00  0.00     0.138 A 
ATOM      5  C   UNL     1      -5.892 -25.660  35.125  1.00  0.00     0.018 A 
ATOM      6  C   UNL     1      -4.860 -24.768  34.801  1.00  0.00     0.012 A 
ATOM      7  C   UNL     1      -5.989 -26.241  36.393  1.00  0.00     0.019 A 
ATOM      8  C   UNL     1      -7.034 -27.123  36.665  1.00  0.00     0.094 A 
ATOM      9  C   UNL     1      -7.964 -27.404  35.656  1.00  0.00     0.336 A 
ATOM     10  O   UNL     1      -8.914 -28.197  35.882  1.00  0.00    -0.246 OA
ATOM     11  O   UNL     1      -7.850 -26.838  34.458  1.00  0.00    -0.423 OA
ENDROOT
TORSDOF 0
ENDMDL
MODEL 2
REMARK VINA RESULT:    -4.741      2.203      4.411
REMARK INTER + INTRA:          -4.741
REMARK INTER:                  -4.741
REMARK INTRA:                   0.000
REMARK UNBOUND:                 0.000
REMARK SMILES O=c1ccc2ccccc2o1
REMARK SMILES IDX 7 1 8 2 9 3 10 4 5 5 6 6 4 7 3 8 2 9 1 10 11 11
REMARK H PARENT
REMARK Flexibility Score: inf
ROOT
ATOM      1  C   UNL     1      -7.165 -27.642  36.077  1.00  0.00     0.001 A 
ATOM      2  C   UNL     1      -6.494 -27.000  37.124  1.00  0.00     0.004 A 
ATOM      3  C   UNL     1      -5.869 -25.768  36.909  1.00  0.00     0.048 A 
ATOM      4  C   UNL     1      -5.913 -25.170  35.644  1.00  0.00     0.138 A 
ATOM      5  C   UNL     1      -6.592 -25.819  34.586  1.00  0.00     0.018 A 
ATOM      6  C   UNL     1      -7.216 -27.054  34.809  1.00  0.00     0.012 A 
ATOM      7  C   UNL     1      -6.619 -25.198  33.334  1.00  0.00     0.019 A 
ATOM      8  C   UNL     1      -5.982 -23.968  33.164  1.00  0.00     0.094 A 
ATOM      9  C   UNL     1      -5.330 -23.386  34.258  1.00  0.00     0.336 A 
ATOM     10  O   UNL     1      -4.750 -22.277  34.125  1.00  0.00    -0.246 OA
ATOM     11  O   UNL     1      -5.318 -23.998  35.440  1.00  0.00    -0.423 OA
ENDROOT
TORSDOF 0
ENDMDL
MODEL 3
REMARK VINA RESULT:    -4.741      3.510      4.446
REMARK INTER + INTRA:          -4.741
REMARK INTER:                  -4.741
REMARK INTRA:                   0.000
REMARK UNBOUND:                 0.000
REMARK SMILES O=c1ccc2ccccc2o1
REMARK SMILES IDX 7 1 8 2 9 3 10 4 5 5 6 6 4 7 3 8 2 9 1 10 11 11
REMARK H PARENT
REMARK Flexibility Score: inf
ROOT
ATOM      1  C   UNL     1      -4.749 -24.148  33.758  1.00  0.00     0.001 A 
ATOM      2  C   UNL     1      -5.466 -24.691  32.686  1.00  0.00     0.004 A 
ATOM      3  C   UNL     1      -6.715 -24.168  32.336  1.00  0.00     0.048 A 
ATOM      4  C   UNL     1      -7.252 -23.095  33.057  1.00  0.00     0.138 A 
ATOM      5  C   UNL     1      -6.528 -22.546  34.140  1.00  0.00     0.018 A 
ATOM      6  C   UNL     1      -5.277 -23.076  34.486  1.00  0.00     0.012 A 
ATOM      7  C   UNL     1      -7.091 -21.476  34.843  1.00  0.00     0.019 A 
ATOM      8  C   UNL     1      -8.339 -20.985  34.459  1.00  0.00     0.094 A 
ATOM      9  C   UNL     1      -8.998 -21.580  33.376  1.00  0.00     0.336 A 
ATOM     10  O   UNL     1     -10.124 -21.151  33.015  1.00  0.00    -0.246 OA
ATOM     11  O   UNL     1      -8.441 -22.598  32.724  1.00  0.00    -0.423 OA
ENDROOT
TORSDOF 0
ENDMDL
MODEL 4
REMARK VINA RESULT:    -4.737      2.002      4.021
REMARK INTER + INTRA:          -4.737
REMARK INTER:                  -4.737
REMARK INTRA:                   0.000
REMARK UNBOUND:                 0.000
REMARK SMILES O=c1ccc2ccccc2o1
REMARK SMILES IDX 7 1 8 2 9 3 10 4 5 5 6 6 4 7 3 8 2 9 1 10 11 11
REMARK H PARENT
REMARK Flexibility Score: inf
ROOT
ATOM      1  C   UNL     1      -6.907 -27.369  36.750  1.00  0.00     0.001 A 
ATOM      2  C   UNL     1      -8.187 -26.802  36.768  1.00  0.00     0.004 A 
ATOM      3  C   UNL     1      -8.456 -25.646  36.029  1.00  0.00     0.048 A 
ATOM      4  C   UNL     1      -7.445 -25.050  35.267  1.00  0.00     0.138 A 
ATOM      5  C   UNL     1      -6.152 -25.622  35.248  1.00  0.00     0.018 A 
ATOM      6  C   UNL     1      -5.889 -26.781  35.992  1.00  0.00     0.012 A 
ATOM      7  C   UNL     1      -5.162 -25.003  34.478  1.00  0.00     0.019 A 
ATOM      8  C   UNL     1      -5.475 -23.852  33.757  1.00  0.00     0.094 A 
ATOM      9  C   UNL     1      -6.778 -23.343  33.823  1.00  0.00     0.336 A 
ATOM     10  O   UNL     1      -7.079 -22.304  33.179  1.00  0.00    -0.246 OA
ATOM     11  O   UNL     1      -7.701 -23.949  34.564  1.00  0.00    -0.423 OA
ENDROOT
TORSDOF 0
ENDMDL
MODEL 5
REMARK VINA RESULT:    -4.729      3.319      4.713
REMARK INTER + INTRA:          -4.729
REMARK INTER:                  -4.729
REMARK INTRA:                   0.000
REMARK UNBOUND:                 0.000
REMARK SMILES O=c1ccc2ccccc2o1
REMARK SMILES IDX 7 1 8 2 9 3 10 4 5 5 6 6 4 7 3 8 2 9 1 10 11 11
REMARK H PARENT
REMARK Flexibility Score: inf
ROOT
ATOM      1  C   UNL     1      -5.252 -24.774  33.884  1.00  0.00     0.001 A 
ATOM      2  C   UNL     1      -5.680 -24.463  35.180  1.00  0.00     0.004 A 
ATOM      3  C   UNL     1      -6.781 -23.623  35.375  1.00  0.00     0.048 A 
ATOM      4  C   UNL     1      -7.460 -23.090  34.274  1.00  0.00     0.138 A 
ATOM      5  C   UNL     1      -7.028 -23.404  32.965  1.00  0.00     0.018 A 
ATOM      6  C   UNL     1      -5.924 -24.246  32.776  1.00  0.00     0.012 A 
ATOM      7  C   UNL     1      -7.726 -22.856  31.884  1.00  0.00     0.019 A 
ATOM      8  C   UNL     1      -8.819 -22.023  32.126  1.00  0.00     0.094 A 
ATOM      9  C   UNL     1      -9.189 -21.757  33.450  1.00  0.00     0.336 A 
ATOM     10  O   UNL     1     -10.172 -21.008  33.688  1.00  0.00    -0.246 OA
ATOM     11  O   UNL     1      -8.508 -22.290  34.461  1.00  0.00    -0.423 OA
ENDROOT
TORSDOF 0
ENDMDL
MODEL 6
REMARK VINA RESULT:    -4.619      3.035      4.191
REMARK INTER + INTRA:          -4.619
REMARK INTER:                  -4.619
REMARK INTRA:                   0.000
REMARK UNBOUND:                 0.000
REMARK SMILES O=c1ccc2ccccc2o1
REMARK SMILES IDX 7 1 8 2 9 3 10 4 5 5 6 6 4 7 3 8 2 9 1 10 11 11
REMARK H PARENT
REMARK Flexibility Score: inf
ROOT
ATOM      1  C   UNL     1      -8.994 -21.545  32.260  1.00  0.00     0.001 A 
ATOM      2  C   UNL     1      -9.140 -21.346  33.638  1.00  0.00     0.004 A 
ATOM      3  C   UNL     1      -8.418 -22.130  34.543  1.00  0.00     0.048 A 
ATOM      4  C   UNL     1      -7.545 -23.118  34.074  1.00  0.00     0.138 A 
ATOM      5  C   UNL     1      -7.398 -23.320  32.683  1.00  0.00     0.018 A 
ATOM      6  C   UNL     1      -8.125 -22.531  31.780  1.00  0.00     0.012 A 
ATOM      7  C   UNL     1      -6.519 -24.315  32.244  1.00  0.00     0.019 A 
ATOM      8  C   UNL     1      -5.819 -25.073  33.182  1.00  0.00     0.094 A 
ATOM      9  C   UNL     1      -6.015 -24.816  34.545  1.00  0.00     0.336 A 
ATOM     10  O   UNL     1      -5.393 -25.490  35.406  1.00  0.00    -0.246 OA
ATOM     11  O   UNL     1      -6.858 -23.864  34.936  1.00  0.00    -0.423 OA
ENDROOT
TORSDOF 0
ENDMDL
MODEL 7
REMARK VINA RESULT:    -4.593      3.789      5.022
REMARK INTER + INTRA:          -4.593
REMARK INTER:                  -4.593
REMARK INTRA:                   0.000
REMARK UNBOUND:                 0.000
REMARK SMILES O=c1ccc2ccccc2o1
REMARK SMILES IDX 7 1 8 2 9 3 10 4 5 5 6 6 4 7 3 8 2 9 1 10 11 11
REMARK H PARENT
REMARK Flexibility Score: inf
ROOT
ATOM      1  C   UNL     1      -5.704 -24.645  32.595  1.00  0.00     0.001 A 
ATOM      2  C   UNL     1      -4.752 -24.263  33.547  1.00  0.00     0.004 A 
ATOM      3  C   UNL     1      -4.998 -23.178  34.394  1.00  0.00     0.048 A 
ATOM      4  C   UNL     1      -6.202 -22.470  34.294  1.00  0.00     0.138 A 
ATOM      5  C   UNL     1      -7.164 -22.856  33.333  1.00  0.00     0.018 A 
ATOM      6  C   UNL     1      -6.910 -23.944  32.486  1.00  0.00     0.012 A 
ATOM      7  C   UNL     1      -8.356 -22.129  33.255  1.00  0.00     0.019 A 
ATOM      8  C   UNL     1      -8.560 -21.055  34.121  1.00  0.00     0.094 A 
ATOM      9  C   UNL     1      -7.562 -20.730  35.047  1.00  0.00     0.336 A 
ATOM     10  O   UNL     1      -7.728 -19.764  35.836  1.00  0.00    -0.246 OA
ATOM     11  O   UNL     1      -6.436 -21.437  35.100  1.00  0.00    -0.423 OA
ENDROOT
TORSDOF 0
ENDMDL
MODEL 8
REMARK VINA RESULT:    -4.576      2.220      3.846
REMARK INTER + INTRA:          -4.576
REMARK INTER:                  -4.576
REMARK INTRA:                   0.000
REMARK UNBOUND:                 0.000
REMARK SMILES O=c1ccc2ccccc2o1
REMARK SMILES IDX 7 1 8 2 9 3 10 4 5 5 6 6 4 7 3 8 2 9 1 10 11 11
REMARK H PARENT
REMARK Flexibility Score: inf
ROOT
ATOM      1  C   UNL     1      -5.913 -27.017  36.515  1.00  0.00     0.001 A 
ATOM      2  C   UNL     1      -6.647 -27.405  35.388  1.00  0.00     0.004 A 
ATOM      3  C   UNL     1      -7.029 -26.456  34.435  1.00  0.00     0.048 A 
ATOM      4  C   UNL     1      -6.676 -25.112  34.603  1.00  0.00     0.138 A 
ATOM      5  C   UNL     1      -5.935 -24.720  35.741  1.00  0.00     0.018 A 
ATOM      6  C   UNL     1      -5.556 -25.676  36.693  1.00  0.00     0.012 A 
ATOM      7  C   UNL     1      -5.598 -23.370  35.882  1.00  0.00     0.019 A 
ATOM      8  C   UNL     1      -5.999 -22.458  34.907  1.00  0.00     0.094 A 
ATOM      9  C   UNL     1      -6.732 -22.920  33.806  1.00  0.00     0.336 A 
ATOM     10  O   UNL     1      -7.103 -22.112  32.916  1.00  0.00    -0.246 OA
ATOM     11  O   UNL     1      -7.041 -24.209  33.696  1.00  0.00    -0.423 OA
ENDROOT
TORSDOF 0
ENDMDL
MODEL 9
REMARK VINA RESULT:    -4.231      1.444      3.721
REMARK INTER + INTRA:          -4.231
REMARK INTER:                  -4.231
REMARK INTRA:                   0.000
REMARK UNBOUND:                 0.000
REMARK SMILES O=c1ccc2ccccc2o1
REMARK SMILES IDX 7 1 8 2 9 3 10 4 5 5 6 6 4 7 3 8 2 9 1 10 11 11
REMARK H PARENT
REMARK Flexibility Score: inf
ROOT
ATOM      1  C   UNL     1      -6.191 -26.999  37.125  1.00  0.00     0.001 A 
ATOM      2  C   UNL     1      -7.152 -27.676  36.365  1.00  0.00     0.004 A 
ATOM      3  C   UNL     1      -7.433 -27.267  35.058  1.00  0.00     0.048 A 
ATOM      4  C   UNL     1      -6.751 -26.177  34.503  1.00  0.00     0.138 A 
ATOM      5  C   UNL     1      -5.781 -25.493  35.270  1.00  0.00     0.018 A 
ATOM      6  C   UNL     1      -5.505 -25.908  36.581  1.00  0.00     0.012 A 
ATOM      7  C   UNL     1      -5.118 -24.408  34.689  1.00  0.00     0.019 A 
ATOM      8  C   UNL     1      -5.429 -24.034  33.382  1.00  0.00     0.094 A 
ATOM      9  C   UNL     1      -6.402 -24.759  32.683  1.00  0.00     0.336 A 
ATOM     10  O   UNL     1      -6.696 -24.438  31.503  1.00  0.00    -0.246 OA
ATOM     11  O   UNL     1      -7.019 -25.788  33.259  1.00  0.00    -0.423 OA
ENDROOT
TORSDOF 0
ENDMDL
