MODEL 1
REMARK VINA RESULT:     2.693      0.000      0.000
REMARK INTER + INTRA:           2.971
REMARK INTER:                   3.323
REMARK INTRA:                  -0.352
REMARK UNBOUND:                -0.352
REMARK SMILES O=c1c(O)c(-c2cc(O)c(O)c(O)c2)oc2cc(O)cc(O)c12
REMARK SMILES IDX 5 1 3 2 2 3 1 4 23 5 21 6 20 7 18 8 17 9 16 10 15 11 6 12
REMARK SMILES IDX 7 13 8 14 14 15 10 16 12 17 9 18 11 20 13 22 4 24 22 26
REMARK SMILES IDX 19 28
REMARK H PARENT 9 19 11 21 13 23 4 25 22 27 19 29
REMARK Flexibility Score: inf
ROOT
ATOM      1  C   UNL     1      75.443  40.650  24.025  1.00  0.00     0.180 A 
ATOM      2  C   UNL     1      76.121  41.694  23.372  1.00  0.00     0.208 A 
ATOM      3  C   UNL     1      75.710  42.072  22.084  1.00  0.00     0.238 A 
ATOM      4  O   UNL     1      76.284  43.043  21.526  1.00  0.00    -0.285 OA
ATOM      5  C   UNL     1      74.637  41.391  21.458  1.00  0.00     0.111 A 
ATOM      6  C   UNL     1      74.164  41.663  20.140  1.00  0.00     0.134 A 
ATOM      7  C   UNL     1      73.012  41.018  19.672  1.00  0.00     0.093 A 
ATOM      8  C   UNL     1      72.357  40.062  20.448  1.00  0.00     0.123 A 
ATOM      9  C   UNL     1      72.847  39.744  21.715  1.00  0.00     0.094 A 
ATOM     10  C   UNL     1      73.972  40.398  22.223  1.00  0.00     0.146 A 
ATOM     11  O   UNL     1      74.399  40.074  23.438  1.00  0.00    -0.452 OA
ENDROOT
BRANCH   1  12
ATOM     12  C   UNL     1      75.834  40.178  25.373  1.00  0.00     0.029 A 
ATOM     13  C   UNL     1      75.296  40.805  26.508  1.00  0.00     0.062 A 
ATOM     14  C   UNL     1      75.634  40.365  27.795  1.00  0.00     0.162 A 
ATOM     15  C   UNL     1      76.690  39.076  25.542  1.00  0.00     0.062 A 
ATOM     16  C   UNL     1      76.507  39.275  27.954  1.00  0.00     0.200 A 
ATOM     17  C   UNL     1      77.030  38.630  26.827  1.00  0.00     0.162 A 
BRANCH  14  18
ATOM     18  O   UNL     1      75.104  41.005  28.915  1.00  0.00    -0.504 OA
ATOM     19  H   UNL     1      74.371  41.698  28.832  1.00  0.00     0.293 HD
ENDBRANCH  14  18
BRANCH  16  20
ATOM     20  O   UNL     1      76.860  38.820  29.225  1.00  0.00    -0.502 OA
ATOM     21  H   UNL     1      77.693  38.267  29.387  1.00  0.00     0.293 HD
ENDBRANCH  16  20
BRANCH  17  22
ATOM     22  O   UNL     1      77.885  37.542  26.990  1.00  0.00    -0.504 OA
ATOM     23  H   UNL     1      77.945  37.040  27.867  1.00  0.00     0.293 HD
ENDBRANCH  17  22
ENDBRANCH   1  12
BRANCH   2  24
ATOM     24  O   UNL     1      77.162  42.367  24.017  1.00  0.00    -0.502 OA
ATOM     25  H   UNL     1      77.593  43.198  23.631  1.00  0.00     0.293 HD
ENDBRANCH   2  24
BRANCH   6  26
ATOM     26  O   UNL     1      74.797  42.533  19.246  1.00  0.00    -0.507 OA
ATOM     27  H   UNL     1      75.762  42.819  19.310  1.00  0.00     0.293 HD
ENDBRANCH   6  26
BRANCH   8  28
ATOM     28  O   UNL     1      71.225  39.427  19.945  1.00  0.00    -0.508 OA
ATOM     29  H   UNL     1      70.368  39.367  20.482  1.00  0.00     0.293 HD
ENDBRANCH   8  28
TORSDOF 7
ENDMDL
MODEL 2
REMARK VINA RESULT:     2.835      0.121      1.753
REMARK INTER + INTRA:           3.145
REMARK INTER:                   3.500
REMARK INTRA:                  -0.354
REMARK UNBOUND:                -0.352
REMARK SMILES O=c1c(O)c(-c2cc(O)c(O)c(O)c2)oc2cc(O)cc(O)c12
REMARK SMILES IDX 5 1 3 2 2 3 1 4 23 5 21 6 20 7 18 8 17 9 16 10 15 11 6 12
REMARK SMILES IDX 7 13 8 14 14 15 10 16 12 17 9 18 11 20 13 22 4 24 22 26
REMARK SMILES IDX 19 28
REMARK H PARENT 9 19 11 21 13 23 4 25 22 27 19 29
REMARK Flexibility Score: inf
ROOT
ATOM      1  C   UNL     1      75.465  40.649  24.048  1.00  0.00     0.180 A 
ATOM      2  C   UNL     1      76.195  41.672  23.420  1.00  0.00     0.208 A 
ATOM      3  C   UNL     1      75.832  42.071  22.124  1.00  0.00     0.238 A 
ATOM      4  O   UNL     1      76.455  43.023  21.587  1.00  0.00    -0.285 OA
ATOM      5  C   UNL     1      74.753  41.431  21.466  1.00  0.00     0.111 A 
ATOM      6  C   UNL     1      74.324  41.727  20.137  1.00  0.00     0.134 A 
ATOM      7  C   UNL     1      73.164  41.125  19.635  1.00  0.00     0.093 A 
ATOM      8  C   UNL     1      72.455  40.189  20.388  1.00  0.00     0.123 A 
ATOM      9  C   UNL     1      72.900  39.848  21.666  1.00  0.00     0.094 A 
ATOM     10  C   UNL     1      74.033  40.459  22.207  1.00  0.00     0.146 A 
ATOM     11  O   UNL     1      74.416  40.114  23.431  1.00  0.00    -0.452 OA
ENDROOT
BRANCH   1  12
ATOM     12  C   UNL     1      75.803  40.157  25.403  1.00  0.00     0.029 A 
ATOM     13  C   UNL     1      76.700  39.087  25.546  1.00  0.00     0.062 A 
ATOM     14  C   UNL     1      77.052  38.616  26.819  1.00  0.00     0.162 A 
ATOM     15  C   UNL     1      75.288  40.777  26.555  1.00  0.00     0.062 A 
ATOM     16  C   UNL     1      76.516  39.229  27.964  1.00  0.00     0.200 A 
ATOM     17  C   UNL     1      75.638  40.310  27.830  1.00  0.00     0.162 A 
BRANCH  14  18
ATOM     18  O   UNL     1      77.934  37.543  26.948  1.00  0.00    -0.504 OA
ATOM     19  H   UNL     1      78.923  37.686  27.115  1.00  0.00     0.293 HD
ENDBRANCH  14  18
BRANCH  16  20
ATOM     20  O   UNL     1      76.850  38.776  29.241  1.00  0.00    -0.502 OA
ATOM     21  H   UNL     1      77.667  38.202  29.413  1.00  0.00     0.293 HD
ENDBRANCH  16  20
BRANCH  17  22
ATOM     22  O   UNL     1      75.120  40.923  28.969  1.00  0.00    -0.504 OA
ATOM     23  H   UNL     1      75.627  41.649  29.459  1.00  0.00     0.293 HD
ENDBRANCH  17  22
ENDBRANCH   1  12
BRANCH   2  24
ATOM     24  O   UNL     1      77.242  42.304  24.095  1.00  0.00    -0.502 OA
ATOM     25  H   UNL     1      77.289  43.310  24.206  1.00  0.00     0.293 HD
ENDBRANCH   2  24
BRANCH   6  26
ATOM     26  O   UNL     1      75.011  42.578  19.265  1.00  0.00    -0.507 OA
ATOM     27  H   UNL     1      74.720  43.514  19.030  1.00  0.00     0.293 HD
ENDBRANCH   6  26
BRANCH   8  28
ATOM     28  O   UNL     1      71.315  39.597  19.852  1.00  0.00    -0.508 OA
ATOM     29  H   UNL     1      71.362  38.999  19.035  1.00  0.00     0.293 HD
ENDBRANCH   8  28
TORSDOF 7
ENDMDL
MODEL 3
REMARK VINA RESULT:     4.474      1.587      7.041
REMARK INTER + INTRA:           5.168
REMARK INTER:                   5.125
REMARK INTRA:                   0.043
REMARK UNBOUND:                -0.352
REMARK SMILES O=c1c(O)c(-c2cc(O)c(O)c(O)c2)oc2cc(O)cc(O)c12
REMARK SMILES IDX 5 1 3 2 2 3 1 4 23 5 21 6 20 7 18 8 17 9 16 10 15 11 6 12
REMARK SMILES IDX 7 13 8 14 14 15 10 16 12 17 9 18 11 20 13 22 4 24 22 26
REMARK SMILES IDX 19 28
REMARK H PARENT 9 19 11 21 13 23 4 25 22 27 19 29
REMARK Flexibility Score: inf
ROOT
ATOM      1  C   UNL     1      73.753  40.997  21.589  1.00  0.00     0.180 A 
ATOM      2  C   UNL     1      74.646  41.947  21.065  1.00  0.00     0.208 A 
ATOM      3  C   UNL     1      75.772  42.313  21.821  1.00  0.00     0.238 A 
ATOM      4  O   UNL     1      76.597  43.123  21.324  1.00  0.00    -0.285 OA
ATOM      5  C   UNL     1      75.982  41.736  23.097  1.00  0.00     0.111 A 
ATOM      6  C   UNL     1      77.066  42.063  23.966  1.00  0.00     0.134 A 
ATOM      7  C   UNL     1      77.247  41.336  25.149  1.00  0.00     0.093 A 
ATOM      8  C   UNL     1      76.347  40.340  25.526  1.00  0.00     0.123 A 
ATOM      9  C   UNL     1      75.250  40.053  24.714  1.00  0.00     0.094 A 
ATOM     10  C   UNL     1      75.063  40.737  23.510  1.00  0.00     0.146 A 
ATOM     11  O   UNL     1      74.012  40.425  22.761  1.00  0.00    -0.452 OA
ENDROOT
BRANCH   1  12
ATOM     12  C   UNL     1      72.532  40.579  20.863  1.00  0.00     0.029 A 
ATOM     13  C   UNL     1      72.152  39.227  20.871  1.00  0.00     0.062 A 
ATOM     14  C   UNL     1      70.990  38.809  20.208  1.00  0.00     0.162 A 
ATOM     15  C   UNL     1      71.711  41.516  20.213  1.00  0.00     0.062 A 
ATOM     16  C   UNL     1      70.187  39.751  19.544  1.00  0.00     0.200 A 
ATOM     17  C   UNL     1      70.547  41.104  19.551  1.00  0.00     0.162 A 
BRANCH  14  18
ATOM     18  O   UNL     1      70.630  37.461  20.211  1.00  0.00    -0.504 OA
ATOM     19  H   UNL     1      69.813  37.129  19.713  1.00  0.00     0.293 HD
ENDBRANCH  14  18
BRANCH  16  20
ATOM     20  O   UNL     1      69.027  39.358  18.875  1.00  0.00    -0.502 OA
ATOM     21  H   UNL     1      68.959  38.473  18.388  1.00  0.00     0.293 HD
ENDBRANCH  16  20
BRANCH  17  22
ATOM     22  O   UNL     1      69.740  42.036  18.902  1.00  0.00    -0.504 OA
ATOM     23  H   UNL     1      68.891  41.762  18.423  1.00  0.00     0.293 HD
ENDBRANCH  17  22
ENDBRANCH   1  12
BRANCH   2  24
ATOM     24  O   UNL     1      74.432  42.486  19.795  1.00  0.00    -0.502 OA
ATOM     25  H   UNL     1      75.113  43.078  19.333  1.00  0.00     0.293 HD
ENDBRANCH   2  24
BRANCH   6  26
ATOM     26  O   UNL     1      77.970  43.103  23.729  1.00  0.00    -0.507 OA
ATOM     27  H   UNL     1      78.414  43.287  22.842  1.00  0.00     0.293 HD
ENDBRANCH   6  26
BRANCH   8  28
ATOM     28  O   UNL     1      76.549  39.648  26.718  1.00  0.00    -0.508 OA
ATOM     29  H   UNL     1      77.191  38.866  26.774  1.00  0.00     0.293 HD
ENDBRANCH   8  28
TORSDOF 7
ENDMDL
MODEL 4
REMARK VINA RESULT:     4.814      1.562      3.464
REMARK INTER + INTRA:           5.587
REMARK INTER:                   5.856
REMARK INTRA:                  -0.269
REMARK UNBOUND:                -0.352
REMARK SMILES O=c1c(O)c(-c2cc(O)c(O)c(O)c2)oc2cc(O)cc(O)c12
REMARK SMILES IDX 5 1 3 2 2 3 1 4 23 5 21 6 20 7 18 8 17 9 16 10 15 11 6 12
REMARK SMILES IDX 7 13 8 14 14 15 10 16 12 17 9 18 11 20 13 22 4 24 22 26
REMARK SMILES IDX 19 28
REMARK H PARENT 9 19 11 21 13 23 4 25 22 27 19 29
REMARK Flexibility Score: inf
ROOT
ATOM      1  C   UNL     1      75.356  41.050  23.584  1.00  0.00     0.180 A 
ATOM      2  C   UNL     1      74.049  41.109  23.070  1.00  0.00     0.208 A 
ATOM      3  C   UNL     1      73.848  41.627  21.781  1.00  0.00     0.238 A 
ATOM      4  O   UNL     1      72.683  41.628  21.304  1.00  0.00    -0.285 OA
ATOM      5  C   UNL     1      74.953  42.095  21.029  1.00  0.00     0.111 A 
ATOM      6  C   UNL     1      74.860  42.677  19.729  1.00  0.00     0.134 A 
ATOM      7  C   UNL     1      76.031  42.984  19.024  1.00  0.00     0.093 A 
ATOM      8  C   UNL     1      77.288  42.793  19.598  1.00  0.00     0.123 A 
ATOM      9  C   UNL     1      77.388  42.280  20.892  1.00  0.00     0.094 A 
ATOM     10  C   UNL     1      76.239  41.931  21.605  1.00  0.00     0.146 A 
ATOM     11  O   UNL     1      76.379  41.436  22.829  1.00  0.00    -0.452 OA
ENDROOT
BRANCH   1  12
ATOM     12  C   UNL     1      75.645  40.540  24.944  1.00  0.00     0.029 A 
ATOM     13  C   UNL     1      76.367  39.346  25.095  1.00  0.00     0.062 A 
ATOM     14  C   UNL     1      76.672  38.852  26.372  1.00  0.00     0.162 A 
ATOM     15  C   UNL     1      75.260  41.256  26.091  1.00  0.00     0.062 A 
ATOM     16  C   UNL     1      76.265  39.565  27.512  1.00  0.00     0.200 A 
ATOM     17  C   UNL     1      75.563  40.768  27.369  1.00  0.00     0.162 A 
BRANCH  14  18
ATOM     18  O   UNL     1      77.378  37.658  26.509  1.00  0.00    -0.504 OA
ATOM     19  H   UNL     1      78.172  37.580  27.134  1.00  0.00     0.293 HD
ENDBRANCH  14  18
BRANCH  16  20
ATOM     20  O   UNL     1      76.554  39.093  28.793  1.00  0.00    -0.502 OA
ATOM     21  H   UNL     1      75.973  39.314  29.593  1.00  0.00     0.293 HD
ENDBRANCH  16  20
BRANCH  17  22
ATOM     22  O   UNL     1      75.174  41.478  28.503  1.00  0.00    -0.504 OA
ATOM     23  H   UNL     1      74.477  42.211  28.457  1.00  0.00     0.293 HD
ENDBRANCH  17  22
ENDBRANCH   1  12
BRANCH   2  24
ATOM     24  O   UNL     1      72.976  40.622  23.820  1.00  0.00    -0.502 OA
ATOM     25  H   UNL     1      73.053  39.802  24.410  1.00  0.00     0.293 HD
ENDBRANCH   2  24
BRANCH   6  26
ATOM     26  O   UNL     1      73.653  42.996  19.100  1.00  0.00    -0.507 OA
ATOM     27  H   UNL     1      73.015  42.321  18.707  1.00  0.00     0.293 HD
ENDBRANCH   6  26
BRANCH   8  28
ATOM     28  O   UNL     1      78.431  43.125  18.875  1.00  0.00    -0.508 OA
ATOM     29  H   UNL     1      79.144  43.732  19.261  1.00  0.00     0.293 HD
ENDBRANCH   8  28
TORSDOF 7
ENDMDL
