MODEL 1
REMARK VINA RESULT:    -6.540      0.000      0.000
REMARK INTER + INTRA:          -9.729
REMARK INTER:                  -9.598
REMARK INTRA:                  -0.131
REMARK UNBOUND:                -0.131
REMARK SMILES O=c1c(O[C@@H]2O[C@@H](CO)[C@@H](O)[C@H](O)[C@H]2O)c(-c2ccc(O)c(O)c2)oc2cc(O)cc(O)c12
REMARK SMILES IDX 4 1 3 2 16 3 25 4 2 5 26 6 1 7 33 8 27 9 31 10 28 11 30 12
REMARK SMILES IDX 17 13 18 14 19 15 20 16 24 17 22 18 21 19 23 21 32 23 29 25
REMARK SMILES IDX 5 27 14 28 6 29 12 30 7 31 10 32 15 33 13 35 8 37 9 38 11 40
REMARK H PARENT 21 20 23 22 32 24 29 26 15 34 13 36 9 39 11 41
REMARK Flexibility Score: inf
ROOT
ATOM      1  O   UNL     1      52.384  13.421  89.112  1.00  0.00    -0.454 OA
ENDROOT
BRANCH   1   2
ATOM      2  C   UNL     1      52.040  14.780  89.184  1.00  0.00     0.214 A 
ATOM      3  C   UNL     1      51.992  15.651  88.067  1.00  0.00     0.180 A 
ATOM      4  O   UNL     1      51.720  16.945  88.231  1.00  0.00    -0.452 OA
ATOM      5  C   UNL     1      51.902  15.343  90.463  1.00  0.00     0.239 A 
ATOM      6  C   UNL     1      51.504  17.499  89.422  1.00  0.00     0.146 A 
ATOM      7  O   UNL     1      52.155  14.630  91.470  1.00  0.00    -0.285 OA
ATOM      8  C   UNL     1      51.538  16.708  90.611  1.00  0.00     0.111 A 
ATOM      9  C   UNL     1      51.261  18.874  89.500  1.00  0.00     0.094 A 
ATOM     10  C   UNL     1      51.193  17.318  91.855  1.00  0.00     0.134 A 
ATOM     11  C   UNL     1      51.037  19.478  90.730  1.00  0.00     0.123 A 
ATOM     12  C   UNL     1      50.971  18.704  91.895  1.00  0.00     0.093 A 
BRANCH   3  13
ATOM     13  C   UNL     1      52.362  15.189  86.713  1.00  0.00     0.025 A 
ATOM     14  C   UNL     1      52.709  13.850  86.509  1.00  0.00     0.016 A 
ATOM     15  C   UNL     1      53.186  13.430  85.255  1.00  0.00     0.051 A 
ATOM     16  C   UNL     1      53.319  14.351  84.206  1.00  0.00     0.157 A 
ATOM     17  C   UNL     1      52.380  16.084  85.636  1.00  0.00     0.062 A 
ATOM     18  C   UNL     1      52.920  15.684  84.395  1.00  0.00     0.158 A 
BRANCH  16  19
ATOM     19  O   UNL     1      53.929  13.972  83.005  1.00  0.00    -0.504 OA
ATOM     20  H   UNL     1      53.452  14.078  82.119  1.00  0.00     0.293 HD
ENDBRANCH  16  19
BRANCH  18  21
ATOM     21  O   UNL     1      53.035  16.599  83.357  1.00  0.00    -0.504 OA
ATOM     22  H   UNL     1      53.022  17.602  83.540  1.00  0.00     0.293 HD
ENDBRANCH  18  21
ENDBRANCH   3  13
BRANCH  10  23
ATOM     23  O   UNL     1      50.977  16.551  93.009  1.00  0.00    -0.507 OA
ATOM     24  H   UNL     1      50.040  16.212  93.205  1.00  0.00     0.293 HD
ENDBRANCH  10  23
BRANCH  11  25
ATOM     25  O   UNL     1      50.875  20.861  90.840  1.00  0.00    -0.508 OA
ATOM     26  H   UNL     1      50.353  21.336  90.099  1.00  0.00     0.293 HD
ENDBRANCH  11  25
ENDBRANCH   1   2
BRANCH   1  27
ATOM     27  C   UNL     1      51.482  12.337  89.290  1.00  0.00     0.339 C 
ATOM     28  C   UNL     1      51.884  11.179  88.353  1.00  0.00     0.214 C 
ATOM     29  O   UNL     1      51.487  11.855  90.635  1.00  0.00    -0.332 OA
ATOM     30  C   UNL     1      53.250  10.591  88.807  1.00  0.00     0.180 C 
ATOM     31  C   UNL     1      52.775  11.469  91.080  1.00  0.00     0.179 C 
ATOM     32  C   UNL     1      53.197  10.214  90.294  1.00  0.00     0.177 C 
BRANCH  28  33
ATOM     33  O   UNL     1      50.875  10.177  88.392  1.00  0.00    -0.384 OA
ATOM     34  H   UNL     1      50.574  10.068  87.443  1.00  0.00     0.211 HD
ENDBRANCH  28  33
BRANCH  30  35
ATOM     35  O   UNL     1      54.311  11.453  88.413  1.00  0.00    -0.387 OA
ATOM     36  H   UNL     1      54.776  11.809  89.216  1.00  0.00     0.211 HD
ENDBRANCH  30  35
BRANCH  31  37
ATOM     37  C   UNL     1      52.710  11.143  92.598  1.00  0.00     0.191 C 
BRANCH  37  38
ATOM     38  O   UNL     1      53.134  12.263  93.323  1.00  0.00    -0.394 OA
ATOM     39  H   UNL     1      53.684  12.803  92.692  1.00  0.00     0.210 HD
ENDBRANCH  37  38
ENDBRANCH  31  37
BRANCH  32  40
ATOM     40  O   UNL     1      52.335   9.099  90.535  1.00  0.00    -0.387 OA
ATOM     41  H   UNL     1      51.396   9.342  90.275  1.00  0.00     0.211 HD
ENDBRANCH  32  40
ENDBRANCH   1  27
TORSDOF 12
ENDMDL
MODEL 2
REMARK VINA RESULT:    -5.690      2.680      5.943
REMARK INTER + INTRA:          -8.482
REMARK INTER:                  -6.733
REMARK INTRA:                  -1.748
REMARK UNBOUND:                -0.131
REMARK SMILES O=c1c(O[C@@H]2O[C@@H](CO)[C@@H](O)[C@H](O)[C@H]2O)c(-c2ccc(O)c(O)c2)oc2cc(O)cc(O)c12
REMARK SMILES IDX 4 1 3 2 16 3 25 4 2 5 26 6 1 7 33 8 27 9 31 10 28 11 30 12
REMARK SMILES IDX 17 13 18 14 19 15 20 16 24 17 22 18 21 19 23 21 32 23 29 25
REMARK SMILES IDX 5 27 14 28 6 29 12 30 7 31 10 32 15 33 13 35 8 37 9 38 11 40
REMARK H PARENT 21 20 23 22 32 24 29 26 15 34 13 36 9 39 11 41
REMARK Flexibility Score: inf
ROOT
ATOM      1  O   UNL     1      52.260  12.994  89.842  1.00  0.00    -0.454 OA
ENDROOT
BRANCH   1   2
ATOM      2  C   UNL     1      52.350  13.106  88.446  1.00  0.00     0.214 A 
ATOM      3  C   UNL     1      52.447  12.002  87.561  1.00  0.00     0.180 A 
ATOM      4  O   UNL     1      52.595  12.199  86.252  1.00  0.00    -0.452 OA
ATOM      5  C   UNL     1      52.521  14.394  87.912  1.00  0.00     0.239 A 
ATOM      6  C   UNL     1      52.682  13.407  85.701  1.00  0.00     0.146 A 
ATOM      7  O   UNL     1      52.653  15.365  88.704  1.00  0.00    -0.285 OA
ATOM      8  C   UNL     1      52.601  14.583  86.507  1.00  0.00     0.111 A 
ATOM      9  C   UNL     1      52.871  13.515  84.320  1.00  0.00     0.094 A 
ATOM     10  C   UNL     1      52.588  15.859  85.867  1.00  0.00     0.134 A 
ATOM     11  C   UNL     1      52.970  14.763  83.720  1.00  0.00     0.123 A 
ATOM     12  C   UNL     1      52.798  15.927  84.480  1.00  0.00     0.093 A 
BRANCH   3  13
ATOM     13  C   UNL     1      52.518  10.616  88.065  1.00  0.00     0.025 A 
ATOM     14  C   UNL     1      51.338   9.901  88.298  1.00  0.00     0.016 A 
ATOM     15  C   UNL     1      51.391   8.631  88.897  1.00  0.00     0.051 A 
ATOM     16  C   UNL     1      52.625   8.076  89.267  1.00  0.00     0.157 A 
ATOM     17  C   UNL     1      53.756  10.014  88.323  1.00  0.00     0.062 A 
ATOM     18  C   UNL     1      53.813   8.769  88.985  1.00  0.00     0.158 A 
BRANCH  16  19
ATOM     19  O   UNL     1      52.674   6.882  89.994  1.00  0.00    -0.504 OA
ATOM     20  H   UNL     1      53.440   6.683  90.624  1.00  0.00     0.293 HD
ENDBRANCH  16  19
BRANCH  18  21
ATOM     21  O   UNL     1      55.040   8.220  89.335  1.00  0.00    -0.504 OA
ATOM     22  H   UNL     1      55.169   7.210  89.373  1.00  0.00     0.293 HD
ENDBRANCH  18  21
ENDBRANCH   3  13
BRANCH  10  23
ATOM     23  O   UNL     1      52.274  17.029  86.575  1.00  0.00    -0.507 OA
ATOM     24  H   UNL     1      52.011  16.955  87.552  1.00  0.00     0.293 HD
ENDBRANCH  10  23
BRANCH  11  25
ATOM     25  O   UNL     1      53.243  14.894  82.356  1.00  0.00    -0.508 OA
ATOM     26  H   UNL     1      54.215  14.782  82.056  1.00  0.00     0.293 HD
ENDBRANCH  11  25
ENDBRANCH   1   2
BRANCH   1  27
ATOM     27  C   UNL     1      53.356  12.769  90.719  1.00  0.00     0.339 C 
ATOM     28  C   UNL     1      53.299  13.784  91.880  1.00  0.00     0.214 C 
ATOM     29  O   UNL     1      53.335  11.450  91.268  1.00  0.00    -0.332 OA
ATOM     30  C   UNL     1      52.057  13.490  92.769  1.00  0.00     0.180 C 
ATOM     31  C   UNL     1      52.128  11.150  91.944  1.00  0.00     0.179 C 
ATOM     32  C   UNL     1      52.059  12.021  93.211  1.00  0.00     0.177 C 
BRANCH  28  33
ATOM     33  O   UNL     1      54.493  13.683  92.645  1.00  0.00    -0.384 OA
ATOM     34  H   UNL     1      54.256  14.036  93.553  1.00  0.00     0.211 HD
ENDBRANCH  28  33
BRANCH  30  35
ATOM     35  O   UNL     1      50.875  13.955  92.130  1.00  0.00    -0.387 OA
ATOM     36  H   UNL     1      50.136  13.304  92.265  1.00  0.00     0.211 HD
ENDBRANCH  30  35
BRANCH  31  37
ATOM     37  C   UNL     1      52.126   9.646  92.337  1.00  0.00     0.191 C 
BRANCH  37  38
ATOM     38  O   UNL     1      53.443   9.237  92.579  1.00  0.00    -0.394 OA
ATOM     39  H   UNL     1      53.525   9.161  93.569  1.00  0.00     0.210 HD
ENDBRANCH  37  38
ENDBRANCH  31  37
BRANCH  32  40
ATOM     40  O   UNL     1      53.117  11.737  94.131  1.00  0.00    -0.387 OA
ATOM     41  H   UNL     1      53.991  12.029  93.732  1.00  0.00     0.211 HD
ENDBRANCH  32  40
ENDBRANCH   1  27
TORSDOF 12
ENDMDL
MODEL 3
REMARK VINA RESULT:    -5.652      2.240      3.099
REMARK INTER + INTRA:          -8.427
REMARK INTER:                  -7.847
REMARK INTRA:                  -0.580
REMARK UNBOUND:                -0.131
REMARK SMILES O=c1c(O[C@@H]2O[C@@H](CO)[C@@H](O)[C@H](O)[C@H]2O)c(-c2ccc(O)c(O)c2)oc2cc(O)cc(O)c12
REMARK SMILES IDX 4 1 3 2 16 3 25 4 2 5 26 6 1 7 33 8 27 9 31 10 28 11 30 12
REMARK SMILES IDX 17 13 18 14 19 15 20 16 24 17 22 18 21 19 23 21 32 23 29 25
REMARK SMILES IDX 5 27 14 28 6 29 12 30 7 31 10 32 15 33 13 35 8 37 9 38 11 40
REMARK H PARENT 21 20 23 22 32 24 29 26 15 34 13 36 9 39 11 41
REMARK Flexibility Score: inf
ROOT
ATOM      1  O   UNL     1      50.992  12.992  90.756  1.00  0.00    -0.454 OA
ENDROOT
BRANCH   1   2
ATOM      2  C   UNL     1      51.268  14.241  90.177  1.00  0.00     0.214 A 
ATOM      3  C   UNL     1      51.657  14.426  88.827  1.00  0.00     0.180 A 
ATOM      4  O   UNL     1      51.964  15.641  88.374  1.00  0.00    -0.452 OA
ATOM      5  C   UNL     1      51.322  15.351  91.036  1.00  0.00     0.239 A 
ATOM      6  C   UNL     1      51.950  16.729  89.140  1.00  0.00     0.146 A 
ATOM      7  O   UNL     1      51.190  15.166  92.275  1.00  0.00    -0.285 OA
ATOM      8  C   UNL     1      51.578  16.648  90.516  1.00  0.00     0.111 A 
ATOM      9  C   UNL     1      52.322  17.958  88.585  1.00  0.00     0.094 A 
ATOM     10  C   UNL     1      51.469  17.852  91.274  1.00  0.00     0.134 A 
ATOM     11  C   UNL     1      52.320  19.108  89.363  1.00  0.00     0.123 A 
ATOM     12  C   UNL     1      51.867  19.064  90.688  1.00  0.00     0.093 A 
BRANCH   3  13
ATOM     13  C   UNL     1      51.858  13.278  87.919  1.00  0.00     0.025 A 
ATOM     14  C   UNL     1      50.950  13.046  86.882  1.00  0.00     0.016 A 
ATOM     15  C   UNL     1      51.061  11.887  86.095  1.00  0.00     0.051 A 
ATOM     16  C   UNL     1      52.080  10.957  86.349  1.00  0.00     0.157 A 
ATOM     17  C   UNL     1      52.946  12.413  88.097  1.00  0.00     0.062 A 
ATOM     18  C   UNL     1      53.024  11.215  87.355  1.00  0.00     0.158 A 
BRANCH  16  19
ATOM     19  O   UNL     1      52.107   9.735  85.668  1.00  0.00    -0.504 OA
ATOM     20  H   UNL     1      51.385   9.489  85.004  1.00  0.00     0.293 HD
ENDBRANCH  16  19
BRANCH  18  21
ATOM     21  O   UNL     1      54.045  10.306  87.603  1.00  0.00    -0.504 OA
ATOM     22  H   UNL     1      53.931   9.319  87.379  1.00  0.00     0.293 HD
ENDBRANCH  18  21
ENDBRANCH   3  13
BRANCH  10  23
ATOM     23  O   UNL     1      50.884  17.863  92.549  1.00  0.00    -0.507 OA
ATOM     24  H   UNL     1      49.906  17.609  92.642  1.00  0.00     0.293 HD
ENDBRANCH  10  23
BRANCH  11  25
ATOM     25  O   UNL     1      52.768  20.329  88.853  1.00  0.00    -0.508 OA
ATOM     26  H   UNL     1      52.060  20.991  88.523  1.00  0.00     0.293 HD
ENDBRANCH  11  25
ENDBRANCH   1   2
BRANCH   1  27
ATOM     27  C   UNL     1      51.490  12.540  92.008  1.00  0.00     0.339 C 
ATOM     28  C   UNL     1      50.930  11.133  92.304  1.00  0.00     0.214 C 
ATOM     29  O   UNL     1      52.917  12.472  92.019  1.00  0.00    -0.332 OA
ATOM     30  C   UNL     1      51.522  10.113  91.290  1.00  0.00     0.180 C 
ATOM     31  C   UNL     1      53.441  11.657  90.986  1.00  0.00     0.179 C 
ATOM     32  C   UNL     1      53.054  10.197  91.286  1.00  0.00     0.177 C 
BRANCH  28  33
ATOM     33  O   UNL     1      51.274  10.766  93.634  1.00  0.00    -0.384 OA
ATOM     34  H   UNL     1      50.800   9.898  93.800  1.00  0.00     0.211 HD
ENDBRANCH  28  33
BRANCH  30  35
ATOM     35  O   UNL     1      50.879  10.247  90.028  1.00  0.00    -0.387 OA
ATOM     36  H   UNL     1      51.416   9.796  89.323  1.00  0.00     0.211 HD
ENDBRANCH  30  35
BRANCH  31  37
ATOM     37  C   UNL     1      54.989  11.798  90.965  1.00  0.00     0.191 C 
BRANCH  37  38
ATOM     38  O   UNL     1      55.551  10.582  90.560  1.00  0.00    -0.394 OA
ATOM     39  H   UNL     1      56.499  10.784  90.330  1.00  0.00     0.210 HD
ENDBRANCH  37  38
ENDBRANCH  31  37
BRANCH  32  40
ATOM     40  O   UNL     1      53.622   9.717  92.506  1.00  0.00    -0.387 OA
ATOM     41  H   UNL     1      53.299   8.781  92.677  1.00  0.00     0.211 HD
ENDBRANCH  32  40
ENDBRANCH   1  27
TORSDOF 12
ENDMDL
MODEL 4
REMARK VINA RESULT:    -5.593      2.422      6.066
REMARK INTER + INTRA:          -8.340
REMARK INTER:                  -7.586
REMARK INTRA:                  -0.754
REMARK UNBOUND:                -0.131
REMARK SMILES O=c1c(O[C@@H]2O[C@@H](CO)[C@@H](O)[C@H](O)[C@H]2O)c(-c2ccc(O)c(O)c2)oc2cc(O)cc(O)c12
REMARK SMILES IDX 4 1 3 2 16 3 25 4 2 5 26 6 1 7 33 8 27 9 31 10 28 11 30 12
REMARK SMILES IDX 17 13 18 14 19 15 20 16 24 17 22 18 21 19 23 21 32 23 29 25
REMARK SMILES IDX 5 27 14 28 6 29 12 30 7 31 10 32 15 33 13 35 8 37 9 38 11 40
REMARK H PARENT 21 20 23 22 32 24 29 26 15 34 13 36 9 39 11 41
REMARK Flexibility Score: inf
ROOT
ATOM      1  O   UNL     1      51.309  13.480  88.799  1.00  0.00    -0.454 OA
ENDROOT
BRANCH   1   2
ATOM      2  C   UNL     1      51.888  13.471  87.520  1.00  0.00     0.214 A 
ATOM      3  C   UNL     1      52.520  12.343  86.939  1.00  0.00     0.180 A 
ATOM      4  O   UNL     1      53.103  12.438  85.744  1.00  0.00    -0.452 OA
ATOM      5  C   UNL     1      51.991  14.701  86.851  1.00  0.00     0.239 A 
ATOM      6  C   UNL     1      53.150  13.569  85.045  1.00  0.00     0.146 A 
ATOM      7  O   UNL     1      51.627  15.749  87.448  1.00  0.00    -0.285 OA
ATOM      8  C   UNL     1      52.549  14.763  85.546  1.00  0.00     0.111 A 
ATOM      9  C   UNL     1      53.815  13.582  83.814  1.00  0.00     0.094 A 
ATOM     10  C   UNL     1      52.526  15.925  84.717  1.00  0.00     0.134 A 
ATOM     11  C   UNL     1      53.884  14.749  83.066  1.00  0.00     0.123 A 
ATOM     12  C   UNL     1      53.218  15.904  83.496  1.00  0.00     0.093 A 
BRANCH   3  13
ATOM     13  C   UNL     1      52.667  11.075  87.682  1.00  0.00     0.025 A 
ATOM     14  C   UNL     1      51.576  10.209  87.800  1.00  0.00     0.016 A 
ATOM     15  C   UNL     1      51.668   9.065  88.611  1.00  0.00     0.051 A 
ATOM     16  C   UNL     1      52.854   8.789  89.307  1.00  0.00     0.157 A 
ATOM     17  C   UNL     1      53.889  10.738  88.279  1.00  0.00     0.062 A 
ATOM     18  C   UNL     1      53.968   9.627  89.147  1.00  0.00     0.158 A 
BRANCH  16  19
ATOM     19  O   UNL     1      52.904   7.736  90.227  1.00  0.00    -0.504 OA
ATOM     20  H   UNL     1      52.668   6.791  89.955  1.00  0.00     0.293 HD
ENDBRANCH  16  19
BRANCH  18  21
ATOM     21  O   UNL     1      55.151   9.352  89.820  1.00  0.00    -0.504 OA
ATOM     22  H   UNL     1      55.707   8.531  89.586  1.00  0.00     0.293 HD
ENDBRANCH  18  21
ENDBRANCH   3  13
BRANCH  10  23
ATOM     23  O   UNL     1      51.750  17.045  85.050  1.00  0.00    -0.507 OA
ATOM     24  H   UNL     1      50.772  16.911  85.289  1.00  0.00     0.293 HD
ENDBRANCH  10  23
BRANCH  11  25
ATOM     25  O   UNL     1      54.613  14.806  81.875  1.00  0.00    -0.508 OA
ATOM     26  H   UNL     1      54.602  13.978  81.275  1.00  0.00     0.293 HD
ENDBRANCH  11  25
ENDBRANCH   1   2
BRANCH   1  27
ATOM     27  C   UNL     1      51.638  14.390  89.841  1.00  0.00     0.339 C 
ATOM     28  C   UNL     1      50.974  13.924  91.154  1.00  0.00     0.214 C 
ATOM     29  O   UNL     1      53.049  14.472  90.050  1.00  0.00    -0.332 OA
ATOM     30  C   UNL     1      51.622  12.590  91.622  1.00  0.00     0.180 C 
ATOM     31  C   UNL     1      53.643  13.216  90.323  1.00  0.00     0.179 C 
ATOM     32  C   UNL     1      53.147  12.741  91.701  1.00  0.00     0.177 C 
BRANCH  28  33
ATOM     33  O   UNL     1      51.144  14.931  92.144  1.00  0.00    -0.384 OA
ATOM     34  H   UNL     1      50.734  14.555  92.977  1.00  0.00     0.211 HD
ENDBRANCH  28  33
BRANCH  30  35
ATOM     35  O   UNL     1      51.135  11.507  90.838  1.00  0.00    -0.387 OA
ATOM     36  H   UNL     1      51.560  11.519  89.939  1.00  0.00     0.211 HD
ENDBRANCH  30  35
BRANCH  31  37
ATOM     37  C   UNL     1      55.188  13.380  90.346  1.00  0.00     0.191 C 
BRANCH  37  38
ATOM     38  O   UNL     1      55.762  12.211  90.859  1.00  0.00    -0.394 OA
ATOM     39  H   UNL     1      55.074  11.500  90.750  1.00  0.00     0.210 HD
ENDBRANCH  37  38
ENDBRANCH  31  37
BRANCH  32  40
ATOM     40  O   UNL     1      53.547  13.614  92.760  1.00  0.00    -0.387 OA
ATOM     41  H   UNL     1      52.889  14.369  92.834  1.00  0.00     0.211 HD
ENDBRANCH  32  40
ENDBRANCH   1  27
TORSDOF 12
ENDMDL
MODEL 5
REMARK VINA RESULT:    -5.539      2.607      6.290
REMARK INTER + INTRA:          -8.260
REMARK INTER:                  -8.513
REMARK INTRA:                   0.253
REMARK UNBOUND:                -0.131
REMARK SMILES O=c1c(O[C@@H]2O[C@@H](CO)[C@@H](O)[C@H](O)[C@H]2O)c(-c2ccc(O)c(O)c2)oc2cc(O)cc(O)c12
REMARK SMILES IDX 4 1 3 2 16 3 25 4 2 5 26 6 1 7 33 8 27 9 31 10 28 11 30 12
REMARK SMILES IDX 17 13 18 14 19 15 20 16 24 17 22 18 21 19 23 21 32 23 29 25
REMARK SMILES IDX 5 27 14 28 6 29 12 30 7 31 10 32 15 33 13 35 8 37 9 38 11 40
REMARK H PARENT 21 20 23 22 32 24 29 26 15 34 13 36 9 39 11 41
REMARK Flexibility Score: inf
ROOT
ATOM      1  O   UNL     1      54.201  10.921  90.528  1.00  0.00    -0.454 OA
ENDROOT
BRANCH   1   2
ATOM      2  C   UNL     1      53.539  12.158  90.586  1.00  0.00     0.214 A 
ATOM      3  C   UNL     1      52.543  12.486  91.540  1.00  0.00     0.180 A 
ATOM      4  O   UNL     1      51.917  13.661  91.484  1.00  0.00    -0.452 OA
ATOM      5  C   UNL     1      53.762  13.058  89.531  1.00  0.00     0.239 A 
ATOM      6  C   UNL     1      52.159  14.572  90.544  1.00  0.00     0.146 A 
ATOM      7  O   UNL     1      54.480  12.692  88.563  1.00  0.00    -0.285 OA
ATOM      8  C   UNL     1      53.139  14.335  89.534  1.00  0.00     0.111 A 
ATOM      9  C   UNL     1      51.427  15.763  90.546  1.00  0.00     0.094 A 
ATOM     10  C   UNL     1      53.447  15.380  88.611  1.00  0.00     0.134 A 
ATOM     11  C   UNL     1      51.656  16.728  89.575  1.00  0.00     0.123 A 
ATOM     12  C   UNL     1      52.678  16.555  88.634  1.00  0.00     0.093 A 
BRANCH   3  13
ATOM     13  C   UNL     1      52.078  11.501  92.537  1.00  0.00     0.025 A 
ATOM     14  C   UNL     1      52.172  11.797  93.901  1.00  0.00     0.016 A 
ATOM     15  C   UNL     1      51.854  10.817  94.857  1.00  0.00     0.051 A 
ATOM     16  C   UNL     1      51.443   9.540  94.449  1.00  0.00     0.157 A 
ATOM     17  C   UNL     1      51.555  10.267  92.128  1.00  0.00     0.062 A 
ATOM     18  C   UNL     1      51.297   9.259  93.082  1.00  0.00     0.158 A 
BRANCH  16  19
ATOM     19  O   UNL     1      51.266   8.520  95.390  1.00  0.00    -0.504 OA
ATOM     20  H   UNL     1      52.013   7.874  95.609  1.00  0.00     0.293 HD
ENDBRANCH  16  19
BRANCH  18  21
ATOM     21  O   UNL     1      50.876   8.001  92.669  1.00  0.00    -0.504 OA
ATOM     22  H   UNL     1      50.716   7.256  93.346  1.00  0.00     0.293 HD
ENDBRANCH  18  21
ENDBRANCH   3  13
BRANCH  10  23
ATOM     23  O   UNL     1      54.555  15.297  87.755  1.00  0.00    -0.507 OA
ATOM     24  H   UNL     1      55.206  16.075  87.719  1.00  0.00     0.293 HD
ENDBRANCH  10  23
BRANCH  11  25
ATOM     25  O   UNL     1      50.879  17.888  89.507  1.00  0.00    -0.508 OA
ATOM     26  H   UNL     1      50.892  18.513  90.317  1.00  0.00     0.293 HD
ENDBRANCH  11  25
ENDBRANCH   1   2
BRANCH   1  27
ATOM     27  C   UNL     1      54.397  10.151  89.350  1.00  0.00     0.339 C 
ATOM     28  C   UNL     1      55.104   8.829  89.715  1.00  0.00     0.214 C 
ATOM     29  O   UNL     1      53.160   9.840  88.705  1.00  0.00    -0.332 OA
ATOM     30  C   UNL     1      54.151   7.946  90.570  1.00  0.00     0.180 C 
ATOM     31  C   UNL     1      52.245   9.171  89.554  1.00  0.00     0.179 C 
ATOM     32  C   UNL     1      52.807   7.768  89.851  1.00  0.00     0.177 C 
BRANCH  28  33
ATOM     33  O   UNL     1      55.469   8.150  88.519  1.00  0.00    -0.384 OA
ATOM     34  H   UNL     1      54.885   7.337  88.487  1.00  0.00     0.211 HD
ENDBRANCH  28  33
BRANCH  30  35
ATOM     35  O   UNL     1      54.093   8.437  91.904  1.00  0.00    -0.387 OA
ATOM     36  H   UNL     1      54.181   7.684  92.547  1.00  0.00     0.211 HD
ENDBRANCH  30  35
BRANCH  31  37
ATOM     37  C   UNL     1      50.876   9.047  88.829  1.00  0.00     0.191 C 
BRANCH  37  38
ATOM     38  O   UNL     1      51.074   9.210  87.453  1.00  0.00    -0.394 OA
ATOM     39  H   UNL     1      50.164   9.283  87.055  1.00  0.00     0.210 HD
ENDBRANCH  37  38
ENDBRANCH  31  37
BRANCH  32  40
ATOM     40  O   UNL     1      52.928   6.964  88.675  1.00  0.00    -0.387 OA
ATOM     41  H   UNL     1      53.405   7.487  87.963  1.00  0.00     0.211 HD
ENDBRANCH  32  40
ENDBRANCH   1  27
TORSDOF 12
ENDMDL
MODEL 6
REMARK VINA RESULT:    -5.534      3.161      6.079
REMARK INTER + INTRA:          -8.254
REMARK INTER:                  -7.113
REMARK INTRA:                  -1.141
REMARK UNBOUND:                -0.131
REMARK SMILES O=c1c(O[C@@H]2O[C@@H](CO)[C@@H](O)[C@H](O)[C@H]2O)c(-c2ccc(O)c(O)c2)oc2cc(O)cc(O)c12
REMARK SMILES IDX 4 1 3 2 16 3 25 4 2 5 26 6 1 7 33 8 27 9 31 10 28 11 30 12
REMARK SMILES IDX 17 13 18 14 19 15 20 16 24 17 22 18 21 19 23 21 32 23 29 25
REMARK SMILES IDX 5 27 14 28 6 29 12 30 7 31 10 32 15 33 13 35 8 37 9 38 11 40
REMARK H PARENT 21 20 23 22 32 24 29 26 15 34 13 36 9 39 11 41
REMARK Flexibility Score: inf
ROOT
ATOM      1  O   UNL     1      52.744  11.416  89.393  1.00  0.00    -0.454 OA
ENDROOT
BRANCH   1   2
ATOM      2  C   UNL     1      52.957  12.441  88.458  1.00  0.00     0.214 A 
ATOM      3  C   UNL     1      53.754  13.588  88.699  1.00  0.00     0.180 A 
ATOM      4  O   UNL     1      53.851  14.548  87.779  1.00  0.00    -0.452 OA
ATOM      5  C   UNL     1      52.197  12.404  87.278  1.00  0.00     0.239 A 
ATOM      6  C   UNL     1      53.207  14.509  86.615  1.00  0.00     0.146 A 
ATOM      7  O   UNL     1      51.325  11.505  87.146  1.00  0.00    -0.285 OA
ATOM      8  C   UNL     1      52.373  13.399  86.279  1.00  0.00     0.111 A 
ATOM      9  C   UNL     1      53.342  15.580  85.726  1.00  0.00     0.094 A 
ATOM     10  C   UNL     1      51.789  13.343  84.978  1.00  0.00     0.134 A 
ATOM     11  C   UNL     1      52.678  15.567  84.507  1.00  0.00     0.123 A 
ATOM     12  C   UNL     1      51.933  14.445  84.119  1.00  0.00     0.093 A 
BRANCH   3  13
ATOM     13  C   UNL     1      54.394  13.820  90.010  1.00  0.00     0.025 A 
ATOM     14  C   UNL     1      55.659  14.412  90.070  1.00  0.00     0.016 A 
ATOM     15  C   UNL     1      56.329  14.518  91.301  1.00  0.00     0.051 A 
ATOM     16  C   UNL     1      55.734  14.029  92.472  1.00  0.00     0.157 A 
ATOM     17  C   UNL     1      53.748  13.440  91.194  1.00  0.00     0.062 A 
ATOM     18  C   UNL     1      54.442  13.483  92.422  1.00  0.00     0.158 A 
BRANCH  16  19
ATOM     19  O   UNL     1      56.454  13.999  93.672  1.00  0.00    -0.504 OA
ATOM     20  H   UNL     1      56.434  13.187  94.275  1.00  0.00     0.293 HD
ENDBRANCH  16  19
BRANCH  18  21
ATOM     21  O   UNL     1      53.839  13.010  93.580  1.00  0.00    -0.504 OA
ATOM     22  H   UNL     1      52.903  12.609  93.556  1.00  0.00     0.293 HD
ENDBRANCH  18  21
ENDBRANCH   3  13
BRANCH  10  23
ATOM     23  O   UNL     1      51.163  12.180  84.507  1.00  0.00    -0.507 OA
ATOM     24  H   UNL     1      50.352  11.825  85.003  1.00  0.00     0.293 HD
ENDBRANCH  10  23
BRANCH  11  25
ATOM     25  O   UNL     1      52.731  16.661  83.640  1.00  0.00    -0.508 OA
ATOM     26  H   UNL     1      51.996  17.368  83.727  1.00  0.00     0.293 HD
ENDBRANCH  11  25
ENDBRANCH   1   2
BRANCH   1  27
ATOM     27  C   UNL     1      53.548  10.253  89.531  1.00  0.00     0.339 C 
ATOM     28  C   UNL     1      53.943  10.076  91.013  1.00  0.00     0.214 C 
ATOM     29  O   UNL     1      52.860   9.076  89.102  1.00  0.00    -0.332 OA
ATOM     30  C   UNL     1      52.678   9.744  91.854  1.00  0.00     0.180 C 
ATOM     31  C   UNL     1      51.630   8.877  89.776  1.00  0.00     0.179 C 
ATOM     32  C   UNL     1      51.940   8.543  91.247  1.00  0.00     0.177 C 
BRANCH  28  33
ATOM     33  O   UNL     1      54.898   9.028  91.118  1.00  0.00    -0.384 OA
ATOM     34  H   UNL     1      54.966   8.829  92.098  1.00  0.00     0.211 HD
ENDBRANCH  28  33
BRANCH  30  35
ATOM     35  O   UNL     1      51.905  10.919  92.063  1.00  0.00    -0.387 OA
ATOM     36  H   UNL     1      51.128  10.716  92.649  1.00  0.00     0.211 HD
ENDBRANCH  30  35
BRANCH  31  37
ATOM     37  C   UNL     1      50.875   7.691  89.114  1.00  0.00     0.191 C 
BRANCH  37  38
ATOM     38  O   UNL     1      51.809   6.813  88.553  1.00  0.00    -0.394 OA
ATOM     39  H   UNL     1      51.421   5.901  88.657  1.00  0.00     0.210 HD
ENDBRANCH  37  38
ENDBRANCH  31  37
BRANCH  32  40
ATOM     40  O   UNL     1      52.680   7.328  91.391  1.00  0.00    -0.387 OA
ATOM     41  H   UNL     1      52.086   6.622  91.787  1.00  0.00     0.211 HD
ENDBRANCH  32  40
ENDBRANCH   1  27
TORSDOF 12
ENDMDL
MODEL 7
REMARK VINA RESULT:    -5.262      3.145      7.959
REMARK INTER + INTRA:          -7.854
REMARK INTER:                  -6.198
REMARK INTRA:                  -1.656
REMARK UNBOUND:                -0.131
REMARK SMILES O=c1c(O[C@@H]2O[C@@H](CO)[C@@H](O)[C@H](O)[C@H]2O)c(-c2ccc(O)c(O)c2)oc2cc(O)cc(O)c12
REMARK SMILES IDX 4 1 3 2 16 3 25 4 2 5 26 6 1 7 33 8 27 9 31 10 28 11 30 12
REMARK SMILES IDX 17 13 18 14 19 15 20 16 24 17 22 18 21 19 23 21 32 23 29 25
REMARK SMILES IDX 5 27 14 28 6 29 12 30 7 31 10 32 15 33 13 35 8 37 9 38 11 40
REMARK H PARENT 21 20 23 22 32 24 29 26 15 34 13 36 9 39 11 41
REMARK Flexibility Score: inf
ROOT
ATOM      1  O   UNL     1      51.858   9.522  90.449  1.00  0.00    -0.454 OA
ENDROOT
BRANCH   1   2
ATOM      2  C   UNL     1      51.644   9.324  91.821  1.00  0.00     0.214 A 
ATOM      3  C   UNL     1      51.638  10.363  92.786  1.00  0.00     0.180 A 
ATOM      4  O   UNL     1      51.491  10.081  94.080  1.00  0.00    -0.452 OA
ATOM      5  C   UNL     1      51.600   7.998  92.282  1.00  0.00     0.239 A 
ATOM      6  C   UNL     1      51.367   8.840  94.546  1.00  0.00     0.146 A 
ATOM      7  O   UNL     1      51.820   7.065  91.465  1.00  0.00    -0.285 OA
ATOM      8  C   UNL     1      51.368   7.723  93.656  1.00  0.00     0.111 A 
ATOM      9  C   UNL     1      51.254   8.638  95.925  1.00  0.00     0.094 A 
ATOM     10  C   UNL     1      51.122   6.420  94.184  1.00  0.00     0.134 A 
ATOM     11  C   UNL     1      51.128   7.354  96.438  1.00  0.00     0.123 A 
ATOM     12  C   UNL     1      51.030   6.255  95.576  1.00  0.00     0.093 A 
BRANCH   3  13
ATOM     13  C   UNL     1      51.919  11.764  92.411  1.00  0.00     0.025 A 
ATOM     14  C   UNL     1      50.881  12.582  91.955  1.00  0.00     0.016 A 
ATOM     15  C   UNL     1      51.161  13.873  91.475  1.00  0.00     0.051 A 
ATOM     16  C   UNL     1      52.481  14.345  91.449  1.00  0.00     0.157 A 
ATOM     17  C   UNL     1      53.220  12.276  92.497  1.00  0.00     0.062 A 
ATOM     18  C   UNL     1      53.517  13.545  91.956  1.00  0.00     0.158 A 
BRANCH  16  19
ATOM     19  O   UNL     1      52.783  15.567  90.839  1.00  0.00    -0.504 OA
ATOM     20  H   UNL     1      53.069  15.613  89.870  1.00  0.00     0.293 HD
ENDBRANCH  16  19
BRANCH  18  21
ATOM     21  O   UNL     1      54.826  14.010  91.947  1.00  0.00    -0.504 OA
ATOM     22  H   UNL     1      55.167  14.595  91.185  1.00  0.00     0.293 HD
ENDBRANCH  18  21
ENDBRANCH   3  13
BRANCH  10  23
ATOM     23  O   UNL     1      50.875   5.325  93.342  1.00  0.00    -0.507 OA
ATOM     24  H   UNL     1      51.108   4.393  93.669  1.00  0.00     0.293 HD
ENDBRANCH  10  23
BRANCH  11  25
ATOM     25  O   UNL     1      51.097   7.123  97.816  1.00  0.00    -0.508 OA
ATOM     26  H   UNL     1      51.994   7.056  98.304  1.00  0.00     0.293 HD
ENDBRANCH  11  25
ENDBRANCH   1   2
BRANCH   1  27
ATOM     27  C   UNL     1      53.126   9.717  89.836  1.00  0.00     0.339 C 
ATOM     28  C   UNL     1      53.266   8.760  88.634  1.00  0.00     0.214 C 
ATOM     29  O   UNL     1      53.292  11.057  89.370  1.00  0.00    -0.332 OA
ATOM     30  C   UNL     1      52.260   9.170  87.521  1.00  0.00     0.180 C 
ATOM     31  C   UNL     1      52.274  11.462  88.474  1.00  0.00     0.179 C 
ATOM     32  C   UNL     1      52.432  10.654  87.173  1.00  0.00     0.177 C 
BRANCH  28  33
ATOM     33  O   UNL     1      54.599   8.819  88.144  1.00  0.00    -0.384 OA
ATOM     34  H   UNL     1      55.144   9.182  88.903  1.00  0.00     0.211 HD
ENDBRANCH  28  33
BRANCH  30  35
ATOM     35  O   UNL     1      50.946   8.752  87.869  1.00  0.00    -0.387 OA
ATOM     36  H   UNL     1      50.942   7.780  88.079  1.00  0.00     0.211 HD
ENDBRANCH  30  35
BRANCH  31  37
ATOM     37  C   UNL     1      52.434  12.979  88.175  1.00  0.00     0.191 C 
BRANCH  37  38
ATOM     38  O   UNL     1      52.069  13.223  86.847  1.00  0.00    -0.394 OA
ATOM     39  H   UNL     1      51.159  12.833  86.739  1.00  0.00     0.210 HD
ENDBRANCH  37  38
ENDBRANCH  31  37
BRANCH  32  40
ATOM     40  O   UNL     1      53.675  10.912  86.514  1.00  0.00    -0.387 OA
ATOM     41  H   UNL     1      53.546  11.638  85.833  1.00  0.00     0.211 HD
ENDBRANCH  32  40
ENDBRANCH   1  27
TORSDOF 12
ENDMDL
MODEL 8
REMARK VINA RESULT:    -5.090      1.213      2.196
REMARK INTER + INTRA:          -7.602
REMARK INTER:                  -7.333
REMARK INTRA:                  -0.268
REMARK UNBOUND:                -0.131
REMARK SMILES O=c1c(O[C@@H]2O[C@@H](CO)[C@@H](O)[C@H](O)[C@H]2O)c(-c2ccc(O)c(O)c2)oc2cc(O)cc(O)c12
REMARK SMILES IDX 4 1 3 2 16 3 25 4 2 5 26 6 1 7 33 8 27 9 31 10 28 11 30 12
REMARK SMILES IDX 17 13 18 14 19 15 20 16 24 17 22 18 21 19 23 21 32 23 29 25
REMARK SMILES IDX 5 27 14 28 6 29 12 30 7 31 10 32 15 33 13 35 8 37 9 38 11 40
REMARK H PARENT 21 20 23 22 32 24 29 26 15 34 13 36 9 39 11 41
REMARK Flexibility Score: inf
ROOT
ATOM      1  O   UNL     1      52.025  13.501  89.854  1.00  0.00    -0.454 OA
ENDROOT
BRANCH   1   2
ATOM      2  C   UNL     1      51.744  14.876  89.845  1.00  0.00     0.214 A 
ATOM      3  C   UNL     1      51.701  15.675  88.675  1.00  0.00     0.180 A 
ATOM      4  O   UNL     1      51.492  16.988  88.761  1.00  0.00    -0.452 OA
ATOM      5  C   UNL     1      51.669  15.526  91.088  1.00  0.00     0.239 A 
ATOM      6  C   UNL     1      51.336  17.626  89.919  1.00  0.00     0.146 A 
ATOM      7  O   UNL     1      51.920  14.868  92.132  1.00  0.00    -0.285 OA
ATOM      8  C   UNL     1      51.370  16.913  91.156  1.00  0.00     0.111 A 
ATOM      9  C   UNL     1      51.156  19.013  89.913  1.00  0.00     0.094 A 
ATOM     10  C   UNL     1      51.090  17.616  92.366  1.00  0.00     0.134 A 
ATOM     11  C   UNL     1      50.997  19.704  91.107  1.00  0.00     0.123 A 
ATOM     12  C   UNL     1      50.931  19.011  92.322  1.00  0.00     0.093 A 
BRANCH   3  13
ATOM     13  C   UNL     1      52.010  15.110  87.346  1.00  0.00     0.025 A 
ATOM     14  C   UNL     1      51.629  13.799  87.043  1.00  0.00     0.016 A 
ATOM     15  C   UNL     1      52.031  13.210  85.832  1.00  0.00     0.051 A 
ATOM     16  C   UNL     1      52.817  13.933  84.923  1.00  0.00     0.157 A 
ATOM     17  C   UNL     1      52.693  15.873  86.389  1.00  0.00     0.062 A 
ATOM     18  C   UNL     1      53.155  15.267  85.201  1.00  0.00     0.158 A 
BRANCH  16  19
ATOM     19  O   UNL     1      53.342  13.307  83.787  1.00  0.00    -0.504 OA
ATOM     20  H   UNL     1      53.464  12.304  83.752  1.00  0.00     0.293 HD
ENDBRANCH  16  19
BRANCH  18  21
ATOM     21  O   UNL     1      53.921  15.995  84.300  1.00  0.00    -0.504 OA
ATOM     22  H   UNL     1      54.784  15.611  83.918  1.00  0.00     0.293 HD
ENDBRANCH  18  21
ENDBRANCH   3  13
BRANCH  10  23
ATOM     23  O   UNL     1      50.875  16.936  93.573  1.00  0.00    -0.507 OA
ATOM     24  H   UNL     1      50.512  15.988  93.544  1.00  0.00     0.293 HD
ENDBRANCH  10  23
BRANCH  11  25
ATOM     25  O   UNL     1      50.899  21.098  91.130  1.00  0.00    -0.508 OA
ATOM     26  H   UNL     1      50.044  21.505  91.517  1.00  0.00     0.293 HD
ENDBRANCH  11  25
ENDBRANCH   1   2
BRANCH   1  27
ATOM     27  C   UNL     1      53.300  12.923  89.610  1.00  0.00     0.339 C 
ATOM     28  C   UNL     1      54.101  12.874  90.928  1.00  0.00     0.214 C 
ATOM     29  O   UNL     1      53.192  11.593  89.096  1.00  0.00    -0.332 OA
ATOM     30  C   UNL     1      53.430  11.871  91.909  1.00  0.00     0.180 C 
ATOM     31  C   UNL     1      52.442  10.734  89.935  1.00  0.00     0.179 C 
ATOM     32  C   UNL     1      53.246  10.508  91.228  1.00  0.00     0.177 C 
BRANCH  28  33
ATOM     33  O   UNL     1      55.437  12.475  90.647  1.00  0.00    -0.384 OA
ATOM     34  H   UNL     1      55.593  11.659  91.207  1.00  0.00     0.211 HD
ENDBRANCH  28  33
BRANCH  30  35
ATOM     35  O   UNL     1      52.266  12.451  92.484  1.00  0.00    -0.387 OA
ATOM     36  H   UNL     1      52.015  11.962  93.312  1.00  0.00     0.211 HD
ENDBRANCH  30  35
BRANCH  31  37
ATOM     37  C   UNL     1      52.222   9.379  89.207  1.00  0.00     0.191 C 
BRANCH  37  38
ATOM     38  O   UNL     1      53.415   8.998  88.582  1.00  0.00    -0.394 OA
ATOM     39  H   UNL     1      53.212   8.963  87.608  1.00  0.00     0.210 HD
ENDBRANCH  37  38
ENDBRANCH  31  37
BRANCH  32  40
ATOM     40  O   UNL     1      54.494   9.852  90.992  1.00  0.00    -0.387 OA
ATOM     41  H   UNL     1      54.972  10.309  90.235  1.00  0.00     0.211 HD
ENDBRANCH  32  40
ENDBRANCH   1  27
TORSDOF 12
ENDMDL
MODEL 9
REMARK VINA RESULT:    -5.026      4.952      8.754
REMARK INTER + INTRA:          -7.508
REMARK INTER:                  -7.758
REMARK INTRA:                   0.250
REMARK UNBOUND:                -0.131
REMARK SMILES O=c1c(O[C@@H]2O[C@@H](CO)[C@@H](O)[C@H](O)[C@H]2O)c(-c2ccc(O)c(O)c2)oc2cc(O)cc(O)c12
REMARK SMILES IDX 4 1 3 2 16 3 25 4 2 5 26 6 1 7 33 8 27 9 31 10 28 11 30 12
REMARK SMILES IDX 17 13 18 14 19 15 20 16 24 17 22 18 21 19 23 21 32 23 29 25
REMARK SMILES IDX 5 27 14 28 6 29 12 30 7 31 10 32 15 33 13 35 8 37 9 38 11 40
REMARK H PARENT 21 20 23 22 32 24 29 26 15 34 13 36 9 39 11 41
REMARK Flexibility Score: inf
ROOT
ATOM      1  O   UNL     1      51.247   8.722  90.059  1.00  0.00    -0.454 OA
ENDROOT
BRANCH   1   2
ATOM      2  C   UNL     1      51.259   8.052  91.292  1.00  0.00     0.214 A 
ATOM      3  C   UNL     1      51.167   6.645  91.437  1.00  0.00     0.180 A 
ATOM      4  O   UNL     1      51.120   6.093  92.649  1.00  0.00    -0.452 OA
ATOM      5  C   UNL     1      51.189   8.839  92.453  1.00  0.00     0.239 A 
ATOM      6  C   UNL     1      51.131   6.804  93.774  1.00  0.00     0.146 A 
ATOM      7  O   UNL     1      51.052  10.085  92.333  1.00  0.00    -0.285 OA
ATOM      8  C   UNL     1      51.215   8.229  93.736  1.00  0.00     0.111 A 
ATOM      9  C   UNL     1      51.042   6.139  95.001  1.00  0.00     0.094 A 
ATOM     10  C   UNL     1      51.336   8.947  94.964  1.00  0.00     0.134 A 
ATOM     11  C   UNL     1      51.047   6.857  96.190  1.00  0.00     0.123 A 
ATOM     12  C   UNL     1      51.225   8.246  96.176  1.00  0.00     0.093 A 
BRANCH   3  13
ATOM     13  C   UNL     1      50.994   5.760  90.267  1.00  0.00     0.025 A 
ATOM     14  C   UNL     1      50.938   4.374  90.447  1.00  0.00     0.016 A 
ATOM     15  C   UNL     1      50.903   3.521  89.332  1.00  0.00     0.051 A 
ATOM     16  C   UNL     1      50.926   4.053  88.035  1.00  0.00     0.157 A 
ATOM     17  C   UNL     1      50.896   6.297  88.977  1.00  0.00     0.062 A 
ATOM     18  C   UNL     1      50.927   5.445  87.853  1.00  0.00     0.158 A 
BRANCH  16  19
ATOM     19  O   UNL     1      51.039   3.208  86.925  1.00  0.00    -0.504 OA
ATOM     20  H   UNL     1      50.251   3.038  86.314  1.00  0.00     0.293 HD
ENDBRANCH  16  19
BRANCH  18  21
ATOM     21  O   UNL     1      50.935   5.981  86.572  1.00  0.00    -0.504 OA
ATOM     22  H   UNL     1      51.758   6.461  86.211  1.00  0.00     0.293 HD
ENDBRANCH  18  21
ENDBRANCH   3  13
BRANCH  10  23
ATOM     23  O   UNL     1      51.658  10.312  94.984  1.00  0.00    -0.507 OA
ATOM     24  H   UNL     1      52.536  10.602  95.403  1.00  0.00     0.293 HD
ENDBRANCH  10  23
BRANCH  11  25
ATOM     25  O   UNL     1      50.875   6.221  97.422  1.00  0.00    -0.508 OA
ATOM     26  H   UNL     1      51.178   5.246  97.497  1.00  0.00     0.293 HD
ENDBRANCH  11  25
ENDBRANCH   1   2
BRANCH   1  27
ATOM     27  C   UNL     1      52.348   8.812  89.164  1.00  0.00     0.339 C 
ATOM     28  C   UNL     1      52.084   9.936  88.140  1.00  0.00     0.214 C 
ATOM     29  O   UNL     1      53.568   9.101  89.850  1.00  0.00    -0.332 OA
ATOM     30  C   UNL     1      52.091  11.313  88.863  1.00  0.00     0.180 C 
ATOM     31  C   UNL     1      53.500  10.283  90.628  1.00  0.00     0.179 C 
ATOM     32  C   UNL     1      53.386  11.481  89.668  1.00  0.00     0.177 C 
BRANCH  28  33
ATOM     33  O   UNL     1      53.091   9.897  87.137  1.00  0.00    -0.384 OA
ATOM     34  H   UNL     1      53.541  10.791  87.178  1.00  0.00     0.211 HD
ENDBRANCH  28  33
BRANCH  30  35
ATOM     35  O   UNL     1      50.875  11.498  89.577  1.00  0.00    -0.387 OA
ATOM     36  H   UNL     1      50.102  11.432  88.956  1.00  0.00     0.211 HD
ENDBRANCH  30  35
BRANCH  31  37
ATOM     37  C   UNL     1      54.797  10.407  91.475  1.00  0.00     0.191 C 
BRANCH  37  38
ATOM     38  O   UNL     1      55.841   9.757  90.808  1.00  0.00    -0.394 OA
ATOM     39  H   UNL     1      55.707   8.784  90.976  1.00  0.00     0.210 HD
ENDBRANCH  37  38
ENDBRANCH  31  37
BRANCH  32  40
ATOM     40  O   UNL     1      54.531  11.620  88.823  1.00  0.00    -0.387 OA
ATOM     41  H   UNL     1      54.759  10.728  88.423  1.00  0.00     0.211 HD
ENDBRANCH  32  40
ENDBRANCH   1  27
TORSDOF 12
ENDMDL
