MODEL 1
REMARK VINA RESULT:    -5.364      0.000      0.000
REMARK INTER + INTRA:          -6.065
REMARK INTER:                  -5.834
REMARK INTRA:                  -0.231
REMARK UNBOUND:                -0.231
REMARK SMILES O=C([O-])c1ccccc1O
REMARK SMILES IDX 4 1 9 2 5 3 8 4 6 5 7 6 2 7 1 8 3 9 10 10
REMARK H PARENT 10 11
REMARK Flexibility Score: inf
ROOT
ATOM      1  C   UNL     1      12.392   6.118 -10.733  1.00  0.00     0.039 A 
ATOM      2  C   UNL     1      11.093   6.273 -10.190  1.00  0.00     0.124 A 
ATOM      3  C   UNL     1      12.523   5.657 -12.057  1.00  0.00     0.014 A 
ATOM      4  C   UNL     1       9.968   5.967 -10.973  1.00  0.00     0.047 A 
ATOM      5  C   UNL     1      11.394   5.357 -12.824  1.00  0.00     0.001 A 
ATOM      6  C   UNL     1      10.119   5.512 -12.283  1.00  0.00     0.004 A 
ENDROOT
BRANCH   1   7
ATOM      7  C   UNL     1      13.613   6.426  -9.948  1.00  0.00     0.075 C 
ATOM      8  O   UNL     1      14.431   7.303 -10.335  1.00  0.00    -0.545 OA
ATOM      9  O   UNL     1      13.875   5.747  -8.764  1.00  0.00    -0.545 OA
ENDBRANCH   1   7
BRANCH   2  10
ATOM     10  O   UNL     1      10.914   6.726  -8.884  1.00  0.00    -0.507 OA
ATOM     11  H   UNL     1      11.428   7.519  -8.519  1.00  0.00     0.293 HD
ENDBRANCH   2  10
TORSDOF 2
ENDMDL
MODEL 2
REMARK VINA RESULT:    -5.309      6.161      7.497
REMARK INTER + INTRA:          -6.005
REMARK INTER:                  -5.760
REMARK INTRA:                  -0.246
REMARK UNBOUND:                -0.231
REMARK SMILES O=C([O-])c1ccccc1O
REMARK SMILES IDX 4 1 9 2 5 3 8 4 6 5 7 6 2 7 1 8 3 9 10 10
REMARK H PARENT 10 11
REMARK Flexibility Score: inf
ROOT
ATOM      1  C   UNL     1      10.302   7.959 -16.657  1.00  0.00     0.039 A 
ATOM      2  C   UNL     1      11.448   8.717 -17.001  1.00  0.00     0.124 A 
ATOM      3  C   UNL     1      10.468   6.785 -15.898  1.00  0.00     0.014 A 
ATOM      4  C   UNL     1      12.718   8.290 -16.585  1.00  0.00     0.047 A 
ATOM      5  C   UNL     1      11.739   6.372 -15.491  1.00  0.00     0.001 A 
ATOM      6  C   UNL     1      12.862   7.123 -15.834  1.00  0.00     0.004 A 
ENDROOT
BRANCH   1   7
ATOM      7  C   UNL     1       8.936   8.367 -17.072  1.00  0.00     0.075 C 
ATOM      8  O   UNL     1       8.017   8.519 -16.225  1.00  0.00    -0.545 OA
ATOM      9  O   UNL     1       8.649   8.589 -18.414  1.00  0.00    -0.545 OA
ENDBRANCH   1   7
BRANCH   2  10
ATOM     10  O   UNL     1      11.331   9.886 -17.751  1.00  0.00    -0.507 OA
ATOM     11  H   UNL     1      10.890  10.718 -17.377  1.00  0.00     0.293 HD
ENDBRANCH   2  10
TORSDOF 2
ENDMDL
MODEL 3
REMARK VINA RESULT:    -5.131      0.980      2.176
REMARK INTER + INTRA:          -5.812
REMARK INTER:                  -5.569
REMARK INTRA:                  -0.243
REMARK UNBOUND:                -0.231
REMARK SMILES O=C([O-])c1ccccc1O
REMARK SMILES IDX 4 1 9 2 5 3 8 4 6 5 7 6 2 7 1 8 3 9 10 10
REMARK H PARENT 10 11
REMARK Flexibility Score: inf
ROOT
ATOM      1  C   UNL     1      12.290   6.083 -10.777  1.00  0.00     0.039 A 
ATOM      2  C   UNL     1      12.403   5.688 -12.133  1.00  0.00     0.124 A 
ATOM      3  C   UNL     1      11.006   6.204 -10.211  1.00  0.00     0.014 A 
ATOM      4  C   UNL     1      11.246   5.428 -12.883  1.00  0.00     0.047 A 
ATOM      5  C   UNL     1       9.863   5.941 -10.970  1.00  0.00     0.001 A 
ATOM      6  C   UNL     1       9.983   5.554 -12.304  1.00  0.00     0.004 A 
ENDROOT
BRANCH   1   7
ATOM      7  C   UNL     1      13.482   6.371  -9.940  1.00  0.00     0.075 C 
ATOM      8  O   UNL     1      14.326   7.239 -10.288  1.00  0.00    -0.545 OA
ATOM      9  O   UNL     1      13.687   5.681  -8.751  1.00  0.00    -0.545 OA
ENDBRANCH   1   7
BRANCH   2  10
ATOM     10  O   UNL     1      13.653   5.556 -12.735  1.00  0.00    -0.507 OA
ATOM     11  H   UNL     1      13.912   6.096 -13.553  1.00  0.00     0.293 HD
ENDBRANCH   2  10
TORSDOF 2
ENDMDL
MODEL 4
REMARK VINA RESULT:    -5.102      6.080      7.256
REMARK INTER + INTRA:          -5.781
REMARK INTER:                  -5.539
REMARK INTRA:                  -0.241
REMARK UNBOUND:                -0.231
REMARK SMILES O=C([O-])c1ccccc1O
REMARK SMILES IDX 4 1 9 2 5 3 8 4 6 5 7 6 2 7 1 8 3 9 10 10
REMARK H PARENT 10 11
REMARK Flexibility Score: inf
ROOT
ATOM      1  C   UNL     1      10.241   7.943 -16.758  1.00  0.00     0.039 A 
ATOM      2  C   UNL     1      10.367   6.768 -15.977  1.00  0.00     0.124 A 
ATOM      3  C   UNL     1      11.394   8.705 -17.028  1.00  0.00     0.014 A 
ATOM      4  C   UNL     1      11.627   6.385 -15.490  1.00  0.00     0.047 A 
ATOM      5  C   UNL     1      12.642   8.311 -16.537  1.00  0.00     0.001 A 
ATOM      6  C   UNL     1      12.757   7.153 -15.769  1.00  0.00     0.004 A 
ENDROOT
BRANCH   1   7
ATOM      7  C   UNL     1       8.932   8.393 -17.296  1.00  0.00     0.075 C 
ATOM      8  O   UNL     1       7.958   8.619 -16.530  1.00  0.00    -0.545 OA
ATOM      9  O   UNL     1       8.761   8.571 -18.664  1.00  0.00    -0.545 OA
ENDBRANCH   1   7
BRANCH   2  10
ATOM     10  O   UNL     1       9.253   5.983 -15.684  1.00  0.00    -0.507 OA
ATOM     11  H   UNL     1       8.736   6.093 -14.820  1.00  0.00     0.293 HD
ENDBRANCH   2  10
TORSDOF 2
ENDMDL
MODEL 5
REMARK VINA RESULT:    -4.945      2.786      4.192
REMARK INTER + INTRA:          -5.610
REMARK INTER:                  -5.388
REMARK INTRA:                  -0.222
REMARK UNBOUND:                -0.231
REMARK SMILES O=C([O-])c1ccccc1O
REMARK SMILES IDX 4 1 9 2 5 3 8 4 6 5 7 6 2 7 1 8 3 9 10 10
REMARK H PARENT 10 11
REMARK Flexibility Score: inf
ROOT
ATOM      1  C   UNL     1      11.331   5.597 -12.167  1.00  0.00     0.039 A 
ATOM      2  C   UNL     1      12.725   5.642 -11.919  1.00  0.00     0.124 A 
ATOM      3  C   UNL     1      10.445   5.909 -11.118  1.00  0.00     0.014 A 
ATOM      4  C   UNL     1      13.196   5.993 -10.644  1.00  0.00     0.047 A 
ATOM      5  C   UNL     1      10.928   6.257  -9.854  1.00  0.00     0.001 A 
ATOM      6  C   UNL     1      12.302   6.299  -9.618  1.00  0.00     0.004 A 
ENDROOT
BRANCH   1   7
ATOM      7  C   UNL     1      10.781   5.231 -13.497  1.00  0.00     0.075 C 
ATOM      8  O   UNL     1      10.966   4.084 -13.983  1.00  0.00    -0.545 OA
ATOM      9  O   UNL     1      10.048   6.156 -14.231  1.00  0.00    -0.545 OA
ENDBRANCH   1   7
BRANCH   2  10
ATOM     10  O   UNL     1      13.639   5.340 -12.927  1.00  0.00    -0.507 OA
ATOM     11  H   UNL     1      13.352   5.231 -13.892  1.00  0.00     0.293 HD
ENDBRANCH   2  10
TORSDOF 2
ENDMDL
MODEL 6
REMARK VINA RESULT:    -4.938      2.794      3.550
REMARK INTER + INTRA:          -5.602
REMARK INTER:                  -5.349
REMARK INTRA:                  -0.254
REMARK UNBOUND:                -0.231
REMARK SMILES O=C([O-])c1ccccc1O
REMARK SMILES IDX 4 1 9 2 5 3 8 4 6 5 7 6 2 7 1 8 3 9 10 10
REMARK H PARENT 10 11
REMARK Flexibility Score: inf
ROOT
ATOM      1  C   UNL     1      11.594   5.597 -12.258  1.00  0.00     0.039 A 
ATOM      2  C   UNL     1      10.369   5.716 -11.558  1.00  0.00     0.124 A 
ATOM      3  C   UNL     1      12.796   5.858 -11.573  1.00  0.00     0.014 A 
ATOM      4  C   UNL     1      10.372   6.089 -10.204  1.00  0.00     0.047 A 
ATOM      5  C   UNL     1      12.783   6.228 -10.225  1.00  0.00     0.001 A 
ATOM      6  C   UNL     1      11.573   6.343  -9.543  1.00  0.00     0.004 A 
ENDROOT
BRANCH   1   7
ATOM      7  C   UNL     1      11.645   5.206 -13.690  1.00  0.00     0.075 C 
ATOM      8  O   UNL     1      12.315   5.874 -14.522  1.00  0.00    -0.545 OA
ATOM      9  O   UNL     1      10.950   4.089 -14.137  1.00  0.00    -0.545 OA
ENDBRANCH   1   7
BRANCH   2  10
ATOM     10  O   UNL     1       9.154   5.468 -12.196  1.00  0.00    -0.507 OA
ATOM     11  H   UNL     1       8.276   5.475 -11.692  1.00  0.00     0.293 HD
ENDBRANCH   2  10
TORSDOF 2
ENDMDL
MODEL 7
REMARK VINA RESULT:    -4.896      5.055      5.872
REMARK INTER + INTRA:          -5.556
REMARK INTER:                  -5.323
REMARK INTRA:                  -0.234
REMARK UNBOUND:                -0.231
REMARK SMILES O=C([O-])c1ccccc1O
REMARK SMILES IDX 4 1 9 2 5 3 8 4 6 5 7 6 2 7 1 8 3 9 10 10
REMARK H PARENT 10 11
REMARK Flexibility Score: inf
ROOT
ATOM      1  C   UNL     1      11.315   7.110 -15.863  1.00  0.00     0.039 A 
ATOM      2  C   UNL     1       9.934   6.994 -16.157  1.00  0.00     0.124 A 
ATOM      3  C   UNL     1      12.059   8.127 -16.492  1.00  0.00     0.014 A 
ATOM      4  C   UNL     1       9.335   7.885 -17.061  1.00  0.00     0.047 A 
ATOM      5  C   UNL     1      11.449   9.007 -17.389  1.00  0.00     0.001 A 
ATOM      6  C   UNL     1      10.089   8.886 -17.673  1.00  0.00     0.004 A 
ENDROOT
BRANCH   1   7
ATOM      7  C   UNL     1      11.997   6.193 -14.915  1.00  0.00     0.075 C 
ATOM      8  O   UNL     1      12.575   6.633 -13.887  1.00  0.00    -0.545 OA
ATOM      9  O   UNL     1      12.008   4.823 -15.151  1.00  0.00    -0.545 OA
ENDBRANCH   1   7
BRANCH   2  10
ATOM     10  O   UNL     1       9.158   6.002 -15.559  1.00  0.00    -0.507 OA
ATOM     11  H   UNL     1       9.036   5.953 -14.555  1.00  0.00     0.293 HD
ENDBRANCH   2  10
TORSDOF 2
ENDMDL
MODEL 8
REMARK VINA RESULT:    -4.892      5.235      6.020
REMARK INTER + INTRA:          -5.552
REMARK INTER:                  -5.297
REMARK INTRA:                  -0.255
REMARK UNBOUND:                -0.231
REMARK SMILES O=C([O-])c1ccccc1O
REMARK SMILES IDX 4 1 9 2 5 3 8 4 6 5 7 6 2 7 1 8 3 9 10 10
REMARK H PARENT 10 11
REMARK Flexibility Score: inf
ROOT
ATOM      1  C   UNL     1      11.626   8.281 -16.250  1.00  0.00     0.039 A 
ATOM      2  C   UNL     1      10.535   7.566 -15.700  1.00  0.00     0.124 A 
ATOM      3  C   UNL     1      11.433   9.000 -17.445  1.00  0.00     0.014 A 
ATOM      4  C   UNL     1       9.290   7.585 -16.347  1.00  0.00     0.047 A 
ATOM      5  C   UNL     1      10.187   9.010 -18.079  1.00  0.00     0.001 A 
ATOM      6  C   UNL     1       9.117   8.304 -17.530  1.00  0.00     0.004 A 
ENDROOT
BRANCH   1   7
ATOM      7  C   UNL     1      12.963   8.292 -15.605  1.00  0.00     0.075 C 
ATOM      8  O   UNL     1      14.009   8.069 -16.272  1.00  0.00    -0.545 OA
ATOM      9  O   UNL     1      13.083   8.550 -14.245  1.00  0.00    -0.545 OA
ENDBRANCH   1   7
BRANCH   2  10
ATOM     10  O   UNL     1      10.680   6.839 -14.519  1.00  0.00    -0.507 OA
ATOM     11  H   UNL     1      11.580   6.485 -14.218  1.00  0.00     0.293 HD
ENDBRANCH   2  10
TORSDOF 2
ENDMDL
MODEL 9
REMARK VINA RESULT:    -4.799      4.872      6.094
REMARK INTER + INTRA:          -5.451
REMARK INTER:                  -5.204
REMARK INTRA:                  -0.246
REMARK UNBOUND:                -0.231
REMARK SMILES O=C([O-])c1ccccc1O
REMARK SMILES IDX 4 1 9 2 5 3 8 4 6 5 7 6 2 7 1 8 3 9 10 10
REMARK H PARENT 10 11
REMARK Flexibility Score: inf
ROOT
ATOM      1  C   UNL     1      11.185   6.687 -15.836  1.00  0.00     0.039 A 
ATOM      2  C   UNL     1      12.298   7.477 -16.216  1.00  0.00     0.124 A 
ATOM      3  C   UNL     1       9.898   7.089 -16.242  1.00  0.00     0.014 A 
ATOM      4  C   UNL     1      12.102   8.635 -16.985  1.00  0.00     0.047 A 
ATOM      5  C   UNL     1       9.718   8.244 -17.007  1.00  0.00     0.001 A 
ATOM      6  C   UNL     1      10.819   9.016 -17.377  1.00  0.00     0.004 A 
ENDROOT
BRANCH   1   7
ATOM      7  C   UNL     1      11.338   5.454 -15.023  1.00  0.00     0.075 C 
ATOM      8  O   UNL     1      12.110   4.528 -15.387  1.00  0.00    -0.545 OA
ATOM      9  O   UNL     1      10.626   5.302 -13.839  1.00  0.00    -0.545 OA
ENDBRANCH   1   7
BRANCH   2  10
ATOM     10  O   UNL     1      13.591   7.119 -15.837  1.00  0.00    -0.507 OA
ATOM     11  H   UNL     1      13.767   6.343 -15.209  1.00  0.00     0.293 HD
ENDBRANCH   2  10
TORSDOF 2
ENDMDL
