MODEL 1
REMARK VINA RESULT:    -4.552      0.000      0.000
REMARK INTER + INTRA:          -5.788
REMARK INTER:                  -5.616
REMARK INTRA:                  -0.172
REMARK UNBOUND:                -0.172
REMARK SMILES CCOC(=O)c1ccc(O)c(O)c1
REMARK SMILES IDX 4 1 5 2 3 3 2 4 1 5 6 6 13 7 7 8 11 9 8 10 9 11 12 12 10 14
REMARK H PARENT 12 13 10 15
REMARK Flexibility Score: inf
ROOT
ATOM      1  C   UNL     1      -1.182 -13.108  -5.132  1.00  0.00     0.338 C 
ATOM      2  O   UNL     1      -0.230 -12.364  -4.768  1.00  0.00    -0.246 OA
ENDROOT
BRANCH   1   3
ATOM      3  O   UNL     1      -2.441 -12.982  -4.531  1.00  0.00    -0.462 OA
BRANCH   3   4
ATOM      4  C   UNL     1      -2.691 -12.160  -3.392  1.00  0.00     0.230 C 
ATOM      5  C   UNL     1      -3.322 -10.838  -3.810  1.00  0.00     0.049 C 
ENDBRANCH   3   4
ENDBRANCH   1   3
BRANCH   1   6
ATOM      6  C   UNL     1      -0.970 -14.121  -6.189  1.00  0.00     0.064 A 
ATOM      7  C   UNL     1      -2.023 -14.505  -7.039  1.00  0.00     0.065 A 
ATOM      8  C   UNL     1       0.293 -14.716  -6.357  1.00  0.00     0.020 A 
ATOM      9  C   UNL     1      -1.821 -15.463  -8.038  1.00  0.00     0.158 A 
ATOM     10  C   UNL     1       0.497 -15.674  -7.355  1.00  0.00     0.051 A 
ATOM     11  C   UNL     1      -0.555 -16.052  -8.199  1.00  0.00     0.157 A 
BRANCH   9  12
ATOM     12  O   UNL     1      -2.889 -15.818  -8.862  1.00  0.00    -0.504 OA
ATOM     13  H   UNL     1      -3.495 -16.602  -8.651  1.00  0.00     0.293 HD
ENDBRANCH   9  12
BRANCH  11  14
ATOM     14  O   UNL     1      -0.349 -17.008  -9.192  1.00  0.00    -0.504 OA
ATOM     15  H   UNL     1      -1.125 -17.473  -9.649  1.00  0.00     0.293 HD
ENDBRANCH  11  14
ENDBRANCH   1   6
TORSDOF 5
ENDMDL
MODEL 2
REMARK VINA RESULT:    -4.517      3.091      6.270
REMARK INTER + INTRA:          -5.746
REMARK INTER:                  -5.598
REMARK INTRA:                  -0.147
REMARK UNBOUND:                -0.172
REMARK SMILES CCOC(=O)c1ccc(O)c(O)c1
REMARK SMILES IDX 4 1 5 2 3 3 2 4 1 5 6 6 13 7 7 8 11 9 8 10 9 11 12 12 10 14
REMARK H PARENT 12 13 10 15
REMARK Flexibility Score: inf
ROOT
ATOM      1  C   UNL     1       0.735 -18.666  -8.097  1.00  0.00     0.338 C 
ATOM      2  O   UNL     1       1.951 -18.587  -7.767  1.00  0.00    -0.246 OA
ENDROOT
BRANCH   1   3
ATOM      3  O   UNL     1       0.202 -19.887  -8.528  1.00  0.00    -0.462 OA
BRANCH   3   4
ATOM      4  C   UNL     1       0.900 -21.128  -8.434  1.00  0.00     0.230 C 
ATOM      5  C   UNL     1       0.627 -21.993  -9.658  1.00  0.00     0.049 C 
ENDBRANCH   3   4
ENDBRANCH   1   3
BRANCH   1   6
ATOM      6  C   UNL     1      -0.129 -17.466  -8.036  1.00  0.00     0.064 A 
ATOM      7  C   UNL     1      -1.395 -17.460  -8.650  1.00  0.00     0.065 A 
ATOM      8  C   UNL     1       0.307 -16.312  -7.362  1.00  0.00     0.020 A 
ATOM      9  C   UNL     1      -2.211 -16.325  -8.592  1.00  0.00     0.158 A 
ATOM     10  C   UNL     1      -0.506 -15.177  -7.303  1.00  0.00     0.051 A 
ATOM     11  C   UNL     1      -1.766 -15.176  -7.916  1.00  0.00     0.157 A 
BRANCH   9  12
ATOM     12  O   UNL     1      -3.459 -16.356  -9.213  1.00  0.00    -0.504 OA
ATOM     13  H   UNL     1      -4.000 -17.208  -9.293  1.00  0.00     0.293 HD
ENDBRANCH   9  12
BRANCH  11  14
ATOM     14  O   UNL     1      -2.574 -14.042  -7.856  1.00  0.00    -0.504 OA
ATOM     15  H   UNL     1      -3.490 -14.020  -8.291  1.00  0.00     0.293 HD
ENDBRANCH  11  14
ENDBRANCH   1   6
TORSDOF 5
ENDMDL
MODEL 3
REMARK VINA RESULT:    -4.406      2.835      5.125
REMARK INTER + INTRA:          -5.609
REMARK INTER:                  -5.318
REMARK INTRA:                  -0.291
REMARK UNBOUND:                -0.172
REMARK SMILES CCOC(=O)c1ccc(O)c(O)c1
REMARK SMILES IDX 4 1 5 2 3 3 2 4 1 5 6 6 13 7 7 8 11 9 8 10 9 11 12 12 10 14
REMARK H PARENT 12 13 10 15
REMARK Flexibility Score: inf
ROOT
ATOM      1  C   UNL     1       1.325 -18.058  -7.003  1.00  0.00     0.338 C 
ATOM      2  O   UNL     1       1.921 -18.592  -7.978  1.00  0.00    -0.246 OA
ENDROOT
BRANCH   1   3
ATOM      3  O   UNL     1       1.600 -18.477  -5.695  1.00  0.00    -0.462 OA
BRANCH   3   4
ATOM      4  C   UNL     1       2.913 -18.504  -5.137  1.00  0.00     0.230 C 
ATOM      5  C   UNL     1       3.505 -17.101  -5.087  1.00  0.00     0.049 C 
ENDBRANCH   3   4
ENDBRANCH   1   3
BRANCH   1   6
ATOM      6  C   UNL     1       0.327 -16.990  -7.238  1.00  0.00     0.064 A 
ATOM      7  C   UNL     1      -0.803 -17.227  -8.041  1.00  0.00     0.065 A 
ATOM      8  C   UNL     1       0.499 -15.721  -6.660  1.00  0.00     0.020 A 
ATOM      9  C   UNL     1      -1.745 -16.217  -8.263  1.00  0.00     0.158 A 
ATOM     10  C   UNL     1      -0.441 -14.710  -6.880  1.00  0.00     0.051 A 
ATOM     11  C   UNL     1      -1.565 -14.951  -7.680  1.00  0.00     0.157 A 
BRANCH   9  12
ATOM     12  O   UNL     1      -2.854 -16.488  -9.065  1.00  0.00    -0.504 OA
ATOM     13  H   UNL     1      -3.080 -17.426  -9.372  1.00  0.00     0.293 HD
ENDBRANCH   9  12
BRANCH  11  14
ATOM     14  O   UNL     1      -2.500 -13.940  -7.899  1.00  0.00    -0.504 OA
ATOM     15  H   UNL     1      -2.345 -13.215  -8.589  1.00  0.00     0.293 HD
ENDBRANCH  11  14
ENDBRANCH   1   6
TORSDOF 5
ENDMDL
MODEL 4
REMARK VINA RESULT:    -4.267     19.035     20.300
REMARK INTER + INTRA:          -5.437
REMARK INTER:                  -5.162
REMARK INTRA:                  -0.275
REMARK UNBOUND:                -0.172
REMARK SMILES CCOC(=O)c1ccc(O)c(O)c1
REMARK SMILES IDX 4 1 5 2 3 3 2 4 1 5 6 6 13 7 7 8 11 9 8 10 9 11 12 12 10 14
REMARK H PARENT 12 13 10 15
REMARK Flexibility Score: inf
ROOT
ATOM      1  C   UNL     1      12.725 -13.543 -20.324  1.00  0.00     0.338 C 
ATOM      2  O   UNL     1      11.475 -13.628 -20.471  1.00  0.00    -0.246 OA
ENDROOT
BRANCH   1   3
ATOM      3  O   UNL     1      13.583 -14.255 -21.173  1.00  0.00    -0.462 OA
BRANCH   3   4
ATOM      4  C   UNL     1      13.632 -15.680 -21.227  1.00  0.00     0.230 C 
ATOM      5  C   UNL     1      14.580 -16.226 -20.166  1.00  0.00     0.049 C 
ENDBRANCH   3   4
ENDBRANCH   1   3
BRANCH   1   6
ATOM      6  C   UNL     1      13.290 -12.697 -19.250  1.00  0.00     0.064 A 
ATOM      7  C   UNL     1      13.719 -13.266 -18.037  1.00  0.00     0.065 A 
ATOM      8  C   UNL     1      13.405 -11.308 -19.430  1.00  0.00     0.020 A 
ATOM      9  C   UNL     1      14.252 -12.464 -17.021  1.00  0.00     0.158 A 
ATOM     10  C   UNL     1      13.937 -10.505 -18.417  1.00  0.00     0.051 A 
ATOM     11  C   UNL     1      14.363 -11.076 -17.211  1.00  0.00     0.157 A 
BRANCH   9  12
ATOM     12  O   UNL     1      14.666 -13.063 -15.832  1.00  0.00    -0.504 OA
ATOM     13  H   UNL     1      15.201 -12.561 -15.134  1.00  0.00     0.293 HD
ENDBRANCH   9  12
BRANCH  11  14
ATOM     14  O   UNL     1      14.893 -10.272 -16.202  1.00  0.00    -0.504 OA
ATOM     15  H   UNL     1      14.647  -9.292 -16.121  1.00  0.00     0.293 HD
ENDBRANCH  11  14
ENDBRANCH   1   6
TORSDOF 5
ENDMDL
MODEL 5
REMARK VINA RESULT:    -4.259      1.521      2.247
REMARK INTER + INTRA:          -5.427
REMARK INTER:                  -5.243
REMARK INTRA:                  -0.184
REMARK UNBOUND:                -0.172
REMARK SMILES CCOC(=O)c1ccc(O)c(O)c1
REMARK SMILES IDX 4 1 5 2 3 3 2 4 1 5 6 6 13 7 7 8 11 9 8 10 9 11 12 12 10 14
REMARK H PARENT 12 13 10 15
REMARK Flexibility Score: inf
ROOT
ATOM      1  C   UNL     1      -0.210 -14.411  -4.838  1.00  0.00     0.338 C 
ATOM      2  O   UNL     1       0.062 -15.044  -3.781  1.00  0.00    -0.246 OA
ENDROOT
BRANCH   1   3
ATOM      3  O   UNL     1      -0.152 -13.011  -4.853  1.00  0.00    -0.462 OA
BRANCH   3   4
ATOM      4  C   UNL     1      -1.217 -12.175  -4.404  1.00  0.00     0.230 C 
ATOM      5  C   UNL     1      -0.972 -11.714  -2.972  1.00  0.00     0.049 C 
ENDBRANCH   3   4
ENDBRANCH   1   3
BRANCH   1   6
ATOM      6  C   UNL     1      -0.597 -15.144  -6.064  1.00  0.00     0.064 A 
ATOM      7  C   UNL     1       0.206 -15.091  -7.218  1.00  0.00     0.065 A 
ATOM      8  C   UNL     1      -1.778 -15.906  -6.090  1.00  0.00     0.020 A 
ATOM      9  C   UNL     1      -0.161 -15.784  -8.376  1.00  0.00     0.158 A 
ATOM     10  C   UNL     1      -2.147 -16.600  -7.246  1.00  0.00     0.051 A 
ATOM     11  C   UNL     1      -1.344 -16.543  -8.392  1.00  0.00     0.157 A 
BRANCH   9  12
ATOM     12  O   UNL     1       0.659 -15.707  -9.501  1.00  0.00    -0.504 OA
ATOM     13  H   UNL     1       1.663 -15.592  -9.429  1.00  0.00     0.293 HD
ENDBRANCH   9  12
BRANCH  11  14
ATOM     14  O   UNL     1      -1.715 -17.235  -9.544  1.00  0.00    -0.504 OA
ATOM     15  H   UNL     1      -1.752 -18.248  -9.565  1.00  0.00     0.293 HD
ENDBRANCH  11  14
ENDBRANCH   1   6
TORSDOF 5
ENDMDL
MODEL 6
REMARK VINA RESULT:    -4.233      1.602      2.489
REMARK INTER + INTRA:          -5.395
REMARK INTER:                  -5.064
REMARK INTRA:                  -0.331
REMARK UNBOUND:                -0.172
REMARK SMILES CCOC(=O)c1ccc(O)c(O)c1
REMARK SMILES IDX 4 1 5 2 3 3 2 4 1 5 6 6 13 7 7 8 11 9 8 10 9 11 12 12 10 14
REMARK H PARENT 12 13 10 15
REMARK Flexibility Score: inf
ROOT
ATOM      1  C   UNL     1      -0.992 -13.033  -4.886  1.00  0.00     0.338 C 
ATOM      2  O   UNL     1      -0.201 -12.097  -4.586  1.00  0.00    -0.246 OA
ENDROOT
BRANCH   1   3
ATOM      3  O   UNL     1      -2.256 -13.105  -4.286  1.00  0.00    -0.462 OA
BRANCH   3   4
ATOM      4  C   UNL     1      -2.637 -14.136  -3.376  1.00  0.00     0.230 C 
ATOM      5  C   UNL     1      -3.650 -15.074  -4.021  1.00  0.00     0.049 C 
ENDBRANCH   3   4
ENDBRANCH   1   3
BRANCH   1   6
ATOM      6  C   UNL     1      -0.585 -14.062  -5.870  1.00  0.00     0.064 A 
ATOM      7  C   UNL     1       0.543 -14.870  -5.639  1.00  0.00     0.065 A 
ATOM      8  C   UNL     1      -1.324 -14.243  -7.051  1.00  0.00     0.020 A 
ATOM      9  C   UNL     1       0.926 -15.842  -6.570  1.00  0.00     0.158 A 
ATOM     10  C   UNL     1      -0.943 -15.213  -7.983  1.00  0.00     0.051 A 
ATOM     11  C   UNL     1       0.181 -16.016  -7.748  1.00  0.00     0.157 A 
BRANCH   9  12
ATOM     12  O   UNL     1       2.050 -16.625  -6.308  1.00  0.00    -0.504 OA
ATOM     13  H   UNL     1       2.001 -17.468  -5.748  1.00  0.00     0.293 HD
ENDBRANCH   9  12
BRANCH  11  14
ATOM     14  O   UNL     1       0.559 -16.982  -8.679  1.00  0.00    -0.504 OA
ATOM     15  H   UNL     1       0.628 -17.962  -8.428  1.00  0.00     0.293 HD
ENDBRANCH  11  14
ENDBRANCH   1   6
TORSDOF 5
ENDMDL
MODEL 7
REMARK VINA RESULT:    -4.220      2.787      4.837
REMARK INTER + INTRA:          -5.379
REMARK INTER:                  -5.059
REMARK INTRA:                  -0.320
REMARK UNBOUND:                -0.172
REMARK SMILES CCOC(=O)c1ccc(O)c(O)c1
REMARK SMILES IDX 4 1 5 2 3 3 2 4 1 5 6 6 13 7 7 8 11 9 8 10 9 11 12 12 10 14
REMARK H PARENT 12 13 10 15
REMARK Flexibility Score: inf
ROOT
ATOM      1  C   UNL     1       1.997 -16.272  -5.444  1.00  0.00     0.338 C 
ATOM      2  O   UNL     1       3.155 -15.949  -5.825  1.00  0.00    -0.246 OA
ENDROOT
BRANCH   1   3
ATOM      3  O   UNL     1       1.832 -17.202  -4.410  1.00  0.00    -0.462 OA
BRANCH   3   4
ATOM      4  C   UNL     1       1.201 -18.470  -4.585  1.00  0.00     0.230 C 
ATOM      5  C   UNL     1       1.886 -19.264  -5.691  1.00  0.00     0.049 C 
ENDBRANCH   3   4
ENDBRANCH   1   3
BRANCH   1   6
ATOM      6  C   UNL     1       0.809 -15.675  -6.093  1.00  0.00     0.064 A 
ATOM      7  C   UNL     1       0.118 -14.609  -5.487  1.00  0.00     0.065 A 
ATOM      8  C   UNL     1       0.353 -16.168  -7.328  1.00  0.00     0.020 A 
ATOM      9  C   UNL     1      -1.006 -14.046  -6.102  1.00  0.00     0.158 A 
ATOM     10  C   UNL     1      -0.770 -15.607  -7.943  1.00  0.00     0.051 A 
ATOM     11  C   UNL     1      -1.453 -14.546  -7.336  1.00  0.00     0.157 A 
BRANCH   9  12
ATOM     12  O   UNL     1      -1.665 -12.991  -5.472  1.00  0.00    -0.504 OA
ATOM     13  H   UNL     1      -1.685 -12.057  -5.864  1.00  0.00     0.293 HD
ENDBRANCH   9  12
BRANCH  11  14
ATOM     14  O   UNL     1      -2.573 -13.989  -7.953  1.00  0.00    -0.504 OA
ATOM     15  H   UNL     1      -2.489 -13.229  -8.618  1.00  0.00     0.293 HD
ENDBRANCH  11  14
ENDBRANCH   1   6
TORSDOF 5
ENDMDL
MODEL 8
REMARK VINA RESULT:    -4.213      3.118      5.659
REMARK INTER + INTRA:          -5.370
REMARK INTER:                  -5.046
REMARK INTRA:                  -0.324
REMARK UNBOUND:                -0.172
REMARK SMILES CCOC(=O)c1ccc(O)c(O)c1
REMARK SMILES IDX 4 1 5 2 3 3 2 4 1 5 6 6 13 7 7 8 11 9 8 10 9 11 12 12 10 14
REMARK H PARENT 12 13 10 15
REMARK Flexibility Score: inf
ROOT
ATOM      1  C   UNL     1       0.558 -18.793  -8.094  1.00  0.00     0.338 C 
ATOM      2  O   UNL     1       0.092 -19.856  -8.589  1.00  0.00    -0.246 OA
ENDROOT
BRANCH   1   3
ATOM      3  O   UNL     1       1.864 -18.768  -7.588  1.00  0.00    -0.462 OA
BRANCH   3   4
ATOM      4  C   UNL     1       2.305 -19.590  -6.507  1.00  0.00     0.230 C 
ATOM      5  C   UNL     1       1.514 -19.284  -5.241  1.00  0.00     0.049 C 
ENDBRANCH   3   4
ENDBRANCH   1   3
BRANCH   1   6
ATOM      6  C   UNL     1      -0.274 -17.571  -8.041  1.00  0.00     0.064 A 
ATOM      7  C   UNL     1      -1.533 -17.530  -8.668  1.00  0.00     0.065 A 
ATOM      8  C   UNL     1       0.185 -16.430  -7.360  1.00  0.00     0.020 A 
ATOM      9  C   UNL     1      -2.319 -16.374  -8.617  1.00  0.00     0.158 A 
ATOM     10  C   UNL     1      -0.598 -15.274  -7.309  1.00  0.00     0.051 A 
ATOM     11  C   UNL     1      -1.851 -15.238  -7.934  1.00  0.00     0.157 A 
BRANCH   9  12
ATOM     12  O   UNL     1      -3.561 -16.371  -9.251  1.00  0.00    -0.504 OA
ATOM     13  H   UNL     1      -3.772 -15.746 -10.020  1.00  0.00     0.293 HD
ENDBRANCH   9  12
BRANCH  11  14
ATOM     14  O   UNL     1      -2.629 -14.083  -7.881  1.00  0.00    -0.504 OA
ATOM     15  H   UNL     1      -2.706 -13.534  -7.033  1.00  0.00     0.293 HD
ENDBRANCH  11  14
ENDBRANCH   1   6
TORSDOF 5
ENDMDL
MODEL 9
REMARK VINA RESULT:    -4.189      2.108      3.638
REMARK INTER + INTRA:          -5.341
REMARK INTER:                  -5.177
REMARK INTRA:                  -0.165
REMARK UNBOUND:                -0.172
REMARK SMILES CCOC(=O)c1ccc(O)c(O)c1
REMARK SMILES IDX 4 1 5 2 3 3 2 4 1 5 6 6 13 7 7 8 11 9 8 10 9 11 12 12 10 14
REMARK H PARENT 12 13 10 15
REMARK Flexibility Score: inf
ROOT
ATOM      1  C   UNL     1      -1.397 -14.903  -7.541  1.00  0.00     0.338 C 
ATOM      2  O   UNL     1      -2.469 -14.496  -8.067  1.00  0.00    -0.246 OA
ENDROOT
BRANCH   1   3
ATOM      3  O   UNL     1      -0.671 -14.063  -6.686  1.00  0.00    -0.462 OA
BRANCH   3   4
ATOM      4  C   UNL     1      -0.874 -14.012  -5.275  1.00  0.00     0.230 C 
ATOM      5  C   UNL     1      -0.588 -12.614  -4.741  1.00  0.00     0.049 C 
ENDBRANCH   3   4
ENDBRANCH   1   3
BRANCH   1   6
ATOM      6  C   UNL     1      -0.898 -16.265  -7.832  1.00  0.00     0.064 A 
ATOM      7  C   UNL     1       0.453 -16.596  -7.622  1.00  0.00     0.065 A 
ATOM      8  C   UNL     1      -1.773 -17.250  -8.324  1.00  0.00     0.020 A 
ATOM      9  C   UNL     1       0.923 -17.885  -7.897  1.00  0.00     0.158 A 
ATOM     10  C   UNL     1      -1.305 -18.538  -8.600  1.00  0.00     0.051 A 
ATOM     11  C   UNL     1       0.041 -18.862  -8.389  1.00  0.00     0.157 A 
BRANCH   9  12
ATOM     12  O   UNL     1       2.269 -18.176  -7.677  1.00  0.00    -0.504 OA
ATOM     13  H   UNL     1       3.009 -17.748  -8.220  1.00  0.00     0.293 HD
ENDBRANCH   9  12
BRANCH  11  14
ATOM     14  O   UNL     1       0.504 -20.147  -8.665  1.00  0.00    -0.504 OA
ATOM     15  H   UNL     1       0.384 -20.908  -8.006  1.00  0.00     0.293 HD
ENDBRANCH  11  14
ENDBRANCH   1   6
TORSDOF 5
ENDMDL
