MODEL 1
REMARK VINA RESULT:    -5.886      0.000      0.000
REMARK INTER + INTRA:          -6.319
REMARK INTER:                  -6.230
REMARK INTRA:                  -0.089
REMARK UNBOUND:                -0.089
REMARK SMILES C=C(C)[C@H]1CC=C(C)C(=O)C1
REMARK SMILES IDX 8 1 7 2 6 3 5 4 4 5 11 6 9 7 10 8 2 9 1 10 3 11
REMARK H PARENT
REMARK Flexibility Score: inf
ROOT
ATOM      1  C   UNL     1     -11.834  73.013  32.638  1.00  0.00     0.048 C 
ATOM      2  C   UNL     1     -11.288  73.226  31.253  1.00  0.00    -0.012 C 
ATOM      3  C   UNL     1     -11.716  72.454  30.240  1.00  0.00    -0.019 C 
ATOM      4  C   UNL     1     -11.189  72.613  28.838  1.00  0.00     0.036 C 
ATOM      5  C   UNL     1     -10.834  74.083  28.542  1.00  0.00     0.025 C 
ATOM      6  C   UNL     1      -9.849  74.617  29.598  1.00  0.00     0.089 C 
ATOM      7  C   UNL     1     -10.374  74.365  30.986  1.00  0.00     0.158 C 
ATOM      8  O   UNL     1     -10.000  75.112  31.929  1.00  0.00    -0.295 OA
ENDROOT
BRANCH   5   9
ATOM      9  C   UNL     1     -10.290  74.256  27.130  1.00  0.00    -0.077 C 
ATOM     10  C   UNL     1     -10.756  75.216  26.313  1.00  0.00     0.008 C 
ATOM     11  C   UNL     1      -9.206  73.340  26.620  1.00  0.00     0.039 C 
ENDBRANCH   5   9
TORSDOF 1
ENDMDL
MODEL 2
REMARK VINA RESULT:    -5.694      1.728      4.800
REMARK INTER + INTRA:          -6.116
REMARK INTER:                  -6.028
REMARK INTRA:                  -0.089
REMARK UNBOUND:                -0.089
REMARK SMILES C=C(C)[C@H]1CC=C(C)C(=O)C1
REMARK SMILES IDX 8 1 7 2 6 3 5 4 4 5 11 6 9 7 10 8 2 9 1 10 3 11
REMARK H PARENT
REMARK Flexibility Score: inf
ROOT
ATOM      1  C   UNL     1     -10.129  74.886  27.486  1.00  0.00     0.048 C 
ATOM      2  C   UNL     1     -10.334  74.277  28.846  1.00  0.00    -0.012 C 
ATOM      3  C   UNL     1      -9.622  74.725  29.893  1.00  0.00    -0.019 C 
ATOM      4  C   UNL     1      -9.774  74.139  31.272  1.00  0.00     0.036 C 
ATOM      5  C   UNL     1     -11.220  73.666  31.516  1.00  0.00     0.025 C 
ATOM      6  C   UNL     1     -11.654  72.682  30.413  1.00  0.00     0.089 C 
ATOM      7  C   UNL     1     -11.408  73.273  29.051  1.00  0.00     0.158 C 
ATOM      8  O   UNL     1     -12.103  72.878  28.077  1.00  0.00    -0.295 OA
ENDROOT
BRANCH   5   9
ATOM      9  C   UNL     1     -11.387  73.062  32.904  1.00  0.00    -0.077 C 
ATOM     10  C   UNL     1     -12.251  73.580  33.794  1.00  0.00     0.008 C 
ATOM     11  C   UNL     1     -10.574  71.856  33.306  1.00  0.00     0.039 C 
ENDBRANCH   5   9
TORSDOF 1
ENDMDL
MODEL 3
REMARK VINA RESULT:    -5.677      1.971      4.599
REMARK INTER + INTRA:          -6.098
REMARK INTER:                  -6.010
REMARK INTRA:                  -0.089
REMARK UNBOUND:                -0.089
REMARK SMILES C=C(C)[C@H]1CC=C(C)C(=O)C1
REMARK SMILES IDX 8 1 7 2 6 3 5 4 4 5 11 6 9 7 10 8 2 9 1 10 3 11
REMARK H PARENT
REMARK Flexibility Score: inf
ROOT
ATOM      1  C   UNL     1     -10.504  74.991  26.191  1.00  0.00     0.048 C 
ATOM      2  C   UNL     1     -10.568  74.443  27.590  1.00  0.00    -0.012 C 
ATOM      3  C   UNL     1      -9.498  74.541  28.396  1.00  0.00    -0.019 C 
ATOM      4  C   UNL     1      -9.503  73.993  29.800  1.00  0.00     0.036 C 
ATOM      5  C   UNL     1     -10.907  74.088  30.427  1.00  0.00     0.025 C 
ATOM      6  C   UNL     1     -11.943  73.391  29.526  1.00  0.00     0.089 C 
ATOM      7  C   UNL     1     -11.849  73.908  28.115  1.00  0.00     0.158 C 
ATOM      8  O   UNL     1     -12.865  73.848  27.372  1.00  0.00    -0.295 OA
ENDROOT
BRANCH   5   9
ATOM      9  C   UNL     1     -10.928  73.528  31.843  1.00  0.00    -0.077 C 
ATOM     10  C   UNL     1     -11.232  74.304  32.898  1.00  0.00     0.008 C 
ATOM     11  C   UNL     1     -10.604  72.076  32.086  1.00  0.00     0.039 C 
ENDBRANCH   5   9
TORSDOF 1
ENDMDL
MODEL 4
REMARK VINA RESULT:    -5.443      2.158      5.416
REMARK INTER + INTRA:          -5.851
REMARK INTER:                  -5.756
REMARK INTRA:                  -0.095
REMARK UNBOUND:                -0.089
REMARK SMILES C=C(C)[C@H]1CC=C(C)C(=O)C1
REMARK SMILES IDX 8 1 7 2 6 3 5 4 4 5 11 6 9 7 10 8 2 9 1 10 3 11
REMARK H PARENT
REMARK Flexibility Score: inf
ROOT
ATOM      1  C   UNL     1     -11.569  74.236  28.705  1.00  0.00     0.048 C 
ATOM      2  C   UNL     1     -11.263  73.842  30.123  1.00  0.00    -0.012 C 
ATOM      3  C   UNL     1     -11.108  74.790  31.063  1.00  0.00    -0.019 C 
ATOM      4  C   UNL     1     -10.782  74.451  32.494  1.00  0.00     0.036 C 
ATOM      5  C   UNL     1     -11.418  73.108  32.904  1.00  0.00     0.025 C 
ATOM      6  C   UNL     1     -10.991  71.995  31.929  1.00  0.00     0.089 C 
ATOM      7  C   UNL     1     -11.256  72.407  30.506  1.00  0.00     0.158 C 
ATOM      8  O   UNL     1     -11.439  71.517  29.633  1.00  0.00    -0.295 OA
ENDROOT
BRANCH   5   9
ATOM      9  C   UNL     1     -11.088  72.748  34.346  1.00  0.00    -0.077 C 
ATOM     10  C   UNL     1     -10.115  71.869  34.643  1.00  0.00     0.008 C 
ATOM     11  C   UNL     1     -11.859  73.380  35.478  1.00  0.00     0.039 C 
ENDBRANCH   5   9
TORSDOF 1
ENDMDL
MODEL 5
REMARK VINA RESULT:    -5.418      1.915      4.451
REMARK INTER + INTRA:          -5.824
REMARK INTER:                  -5.735
REMARK INTRA:                  -0.089
REMARK UNBOUND:                -0.089
REMARK SMILES C=C(C)[C@H]1CC=C(C)C(=O)C1
REMARK SMILES IDX 8 1 7 2 6 3 5 4 4 5 11 6 9 7 10 8 2 9 1 10 3 11
REMARK H PARENT
REMARK Flexibility Score: inf
ROOT
ATOM      1  C   UNL     1     -10.889  73.850  25.300  1.00  0.00     0.048 C 
ATOM      2  C   UNL     1     -10.977  74.013  26.793  1.00  0.00    -0.012 C 
ATOM      3  C   UNL     1     -12.159  73.862  27.413  1.00  0.00    -0.019 C 
ATOM      4  C   UNL     1     -12.307  74.032  28.903  1.00  0.00     0.036 C 
ATOM      5  C   UNL     1     -11.029  73.589  29.641  1.00  0.00     0.025 C 
ATOM      6  C   UNL     1      -9.805  74.341  29.087  1.00  0.00     0.089 C 
ATOM      7  C   UNL     1      -9.740  74.216  27.589  1.00  0.00     0.158 C 
ATOM      8  O   UNL     1      -8.625  74.320  27.012  1.00  0.00    -0.295 OA
ENDROOT
BRANCH   5   9
ATOM      9  C   UNL     1     -11.161  73.764  31.147  1.00  0.00    -0.077 C 
ATOM     10  C   UNL     1     -11.556  72.752  31.938  1.00  0.00     0.008 C 
ATOM     11  C   UNL     1     -10.847  75.095  31.784  1.00  0.00     0.039 C 
ENDBRANCH   5   9
TORSDOF 1
ENDMDL
MODEL 6
REMARK VINA RESULT:    -5.355      2.923      5.310
REMARK INTER + INTRA:          -5.758
REMARK INTER:                  -5.662
REMARK INTRA:                  -0.096
REMARK UNBOUND:                -0.089
REMARK SMILES C=C(C)[C@H]1CC=C(C)C(=O)C1
REMARK SMILES IDX 8 1 7 2 6 3 5 4 4 5 11 6 9 7 10 8 2 9 1 10 3 11
REMARK H PARENT
REMARK Flexibility Score: inf
ROOT
ATOM      1  C   UNL     1     -10.118  74.305  23.454  1.00  0.00     0.048 C 
ATOM      2  C   UNL     1      -9.877  74.193  24.934  1.00  0.00    -0.012 C 
ATOM      3  C   UNL     1     -10.521  75.015  25.780  1.00  0.00    -0.019 C 
ATOM      4  C   UNL     1     -10.302  74.959  27.269  1.00  0.00     0.036 C 
ATOM      5  C   UNL     1      -9.999  73.520  27.732  1.00  0.00     0.025 C 
ATOM      6  C   UNL     1      -8.805  72.948  26.945  1.00  0.00     0.089 C 
ATOM      7  C   UNL     1      -9.026  73.098  25.464  1.00  0.00     0.158 C 
ATOM      8  O   UNL     1      -8.450  72.303  24.674  1.00  0.00    -0.295 OA
ENDROOT
BRANCH   5   9
ATOM      9  C   UNL     1      -9.767  73.451  29.235  1.00  0.00    -0.077 C 
ATOM     10  C   UNL     1      -9.903  74.536  30.016  1.00  0.00     0.008 C 
ATOM     11  C   UNL     1      -9.374  72.145  29.879  1.00  0.00     0.039 C 
ENDBRANCH   5   9
TORSDOF 1
ENDMDL
MODEL 7
REMARK VINA RESULT:    -5.350      1.532      1.674
REMARK INTER + INTRA:          -5.752
REMARK INTER:                  -5.657
REMARK INTRA:                  -0.094
REMARK UNBOUND:                -0.089
REMARK SMILES C=C(C)[C@H]1CC=C(C)C(=O)C1
REMARK SMILES IDX 8 1 7 2 6 3 5 4 4 5 11 6 9 7 10 8 2 9 1 10 3 11
REMARK H PARENT
REMARK Flexibility Score: inf
ROOT
ATOM      1  C   UNL     1     -11.027  72.861  32.388  1.00  0.00     0.048 C 
ATOM      2  C   UNL     1     -10.845  73.074  30.910  1.00  0.00    -0.012 C 
ATOM      3  C   UNL     1     -11.649  73.928  30.254  1.00  0.00    -0.019 C 
ATOM      4  C   UNL     1     -11.522  74.165  28.772  1.00  0.00     0.036 C 
ATOM      5  C   UNL     1     -10.057  74.037  28.314  1.00  0.00     0.025 C 
ATOM      6  C   UNL     1      -9.482  72.672  28.737  1.00  0.00     0.089 C 
ATOM      7  C   UNL     1      -9.703  72.438  30.207  1.00  0.00     0.158 C 
ATOM      8  O   UNL     1      -8.926  71.666  30.829  1.00  0.00    -0.295 OA
ENDROOT
BRANCH   5   9
ATOM      9  C   UNL     1      -9.915  74.265  26.815  1.00  0.00    -0.077 C 
ATOM     10  C   UNL     1     -10.602  75.234  26.186  1.00  0.00     0.008 C 
ATOM     11  C   UNL     1      -8.990  73.394  26.002  1.00  0.00     0.039 C 
ENDBRANCH   5   9
TORSDOF 1
ENDMDL
MODEL 8
REMARK VINA RESULT:    -5.337      2.249      3.472
REMARK INTER + INTRA:          -5.738
REMARK INTER:                  -5.649
REMARK INTRA:                  -0.090
REMARK UNBOUND:                -0.089
REMARK SMILES C=C(C)[C@H]1CC=C(C)C(=O)C1
REMARK SMILES IDX 8 1 7 2 6 3 5 4 4 5 11 6 9 7 10 8 2 9 1 10 3 11
REMARK H PARENT
REMARK Flexibility Score: inf
ROOT
ATOM      1  C   UNL     1     -11.433  74.090  30.143  1.00  0.00     0.048 C 
ATOM      2  C   UNL     1     -10.920  74.096  28.729  1.00  0.00    -0.012 C 
ATOM      3  C   UNL     1      -9.596  74.086  28.498  1.00  0.00    -0.019 C 
ATOM      4  C   UNL     1      -9.029  74.110  27.103  1.00  0.00     0.036 C 
ATOM      5  C   UNL     1      -9.952  73.368  26.116  1.00  0.00     0.025 C 
ATOM      6  C   UNL     1     -11.376  73.952  26.177  1.00  0.00     0.089 C 
ATOM      7  C   UNL     1     -11.873  73.987  27.597  1.00  0.00     0.158 C 
ATOM      8  O   UNL     1     -13.115  73.959  27.813  1.00  0.00    -0.295 OA
ENDROOT
BRANCH   5   9
ATOM      9  C   UNL     1      -9.395  73.393  24.699  1.00  0.00    -0.077 C 
ATOM     10  C   UNL     1      -8.462  72.512  24.298  1.00  0.00     0.008 C 
ATOM     11  C   UNL     1      -9.889  74.419  23.711  1.00  0.00     0.039 C 
ENDBRANCH   5   9
TORSDOF 1
ENDMDL
MODEL 9
REMARK VINA RESULT:    -5.263      1.751      2.801
REMARK INTER + INTRA:          -5.660
REMARK INTER:                  -5.571
REMARK INTRA:                  -0.089
REMARK UNBOUND:                -0.089
REMARK SMILES C=C(C)[C@H]1CC=C(C)C(=O)C1
REMARK SMILES IDX 8 1 7 2 6 3 5 4 4 5 11 6 9 7 10 8 2 9 1 10 3 11
REMARK H PARENT
REMARK Flexibility Score: inf
ROOT
ATOM      1  C   UNL     1     -11.044  73.515  34.690  1.00  0.00     0.048 C 
ATOM      2  C   UNL     1     -11.190  73.658  33.199  1.00  0.00    -0.012 C 
ATOM      3  C   UNL     1     -11.142  74.876  32.636  1.00  0.00    -0.019 C 
ATOM      4  C   UNL     1     -11.301  75.077  31.152  1.00  0.00     0.036 C 
ATOM      5  C   UNL     1     -10.726  73.883  30.366  1.00  0.00     0.025 C 
ATOM      6  C   UNL     1     -11.368  72.568  30.849  1.00  0.00     0.089 C 
ATOM      7  C   UNL     1     -11.262  72.446  32.345  1.00  0.00     0.158 C 
ATOM      8  O   UNL     1     -11.269  71.300  32.868  1.00  0.00    -0.295 OA
ENDROOT
BRANCH   5   9
ATOM      9  C   UNL     1     -10.889  74.068  28.864  1.00  0.00    -0.077 C 
ATOM     10  C   UNL     1      -9.910  74.604  28.114  1.00  0.00     0.008 C 
ATOM     11  C   UNL     1     -12.167  73.647  28.184  1.00  0.00     0.039 C 
ENDBRANCH   5   9
TORSDOF 1
ENDMDL
