MODEL 1
REMARK VINA RESULT:    -4.132      0.000      0.000
REMARK INTER + INTRA:          -6.774
REMARK INTER:                  -6.065
REMARK INTRA:                  -0.709
REMARK UNBOUND:                -0.709
REMARK SMILES O=C([O-])CCCCCCCC(=O)[O-]
REMARK SMILES IDX 7 1 6 2 5 3 4 4 2 5 1 6 3 7 8 8 9 9 10 10 11 11 12 12 13 13
REMARK H PARENT
REMARK Flexibility Score: inf
ROOT
ATOM      1  C   UNL     1      26.882   6.245   7.560  1.00  0.00     0.000 C 
ENDROOT
BRANCH   1   2
ATOM      2  C   UNL     1      27.267   5.970   6.096  1.00  0.00     0.000 C 
BRANCH   2   3
ATOM      3  C   UNL     1      26.344   6.690   5.099  1.00  0.00     0.006 C 
BRANCH   3   4
ATOM      4  C   UNL     1      26.242   8.197   5.367  1.00  0.00     0.053 C 
BRANCH   4   5
ATOM      5  C   UNL     1      24.809   8.613   5.469  1.00  0.00     0.041 C 
ATOM      6  O   UNL     1      23.906   7.748   5.602  1.00  0.00    -0.550 OA
ATOM      7  O   UNL     1      24.475   9.962   5.468  1.00  0.00    -0.550 OA
ENDBRANCH   4   5
ENDBRANCH   3   4
ENDBRANCH   2   3
ENDBRANCH   1   2
BRANCH   1   8
ATOM      8  C   UNL     1      28.095   6.623   8.427  1.00  0.00     0.000 C 
BRANCH   8   9
ATOM      9  C   UNL     1      28.099   8.110   8.825  1.00  0.00     0.006 C 
BRANCH   9  10
ATOM     10  C   UNL     1      26.684   8.643   9.089  1.00  0.00     0.053 C 
BRANCH  10  11
ATOM     11  C   UNL     1      26.649  10.140   9.127  1.00  0.00     0.041 C 
ATOM     12  O   UNL     1      26.720  10.802   8.058  1.00  0.00    -0.550 OA
ATOM     13  O   UNL     1      26.508  10.803  10.340  1.00  0.00    -0.550 OA
ENDBRANCH  10  11
ENDBRANCH   9  10
ENDBRANCH   8   9
ENDBRANCH   1   8
TORSDOF 8
ENDMDL
MODEL 2
REMARK VINA RESULT:    -4.082      2.980      4.894
REMARK INTER + INTRA:          -6.700
REMARK INTER:                  -6.430
REMARK INTRA:                  -0.270
REMARK UNBOUND:                -0.709
REMARK SMILES O=C([O-])CCCCCCCC(=O)[O-]
REMARK SMILES IDX 7 1 6 2 5 3 4 4 2 5 1 6 3 7 8 8 9 9 10 10 11 11 12 12 13 13
REMARK H PARENT
REMARK Flexibility Score: inf
ROOT
ATOM      1  C   UNL     1      25.526   7.700   5.669  1.00  0.00     0.000 C 
ENDROOT
BRANCH   1   2
ATOM      2  C   UNL     1      25.824   7.490   7.164  1.00  0.00     0.000 C 
BRANCH   2   3
ATOM      3  C   UNL     1      27.279   7.067   7.421  1.00  0.00     0.006 C 
BRANCH   3   4
ATOM      4  C   UNL     1      27.410   5.582   7.784  1.00  0.00     0.053 C 
BRANCH   4   5
ATOM      5  C   UNL     1      27.771   4.779   6.575  1.00  0.00     0.041 C 
ATOM      6  O   UNL     1      28.125   5.356   5.514  1.00  0.00    -0.550 OA
ATOM      7  O   UNL     1      27.765   3.391   6.635  1.00  0.00    -0.550 OA
ENDBRANCH   4   5
ENDBRANCH   3   4
ENDBRANCH   2   3
ENDBRANCH   1   2
BRANCH   1   8
ATOM      8  C   UNL     1      24.325   8.630   5.431  1.00  0.00     0.000 C 
BRANCH   8   9
ATOM      9  C   UNL     1      24.708  10.119   5.488  1.00  0.00     0.006 C 
BRANCH   9  10
ATOM     10  C   UNL     1      23.544  11.032   5.078  1.00  0.00     0.053 C 
BRANCH  10  11
ATOM     11  C   UNL     1      23.830  12.471   5.381  1.00  0.00     0.041 C 
ATOM     12  O   UNL     1      23.225  13.053   6.319  1.00  0.00    -0.550 OA
ATOM     13  O   UNL     1      24.786  13.161   4.646  1.00  0.00    -0.550 OA
ENDBRANCH  10  11
ENDBRANCH   9  10
ENDBRANCH   8   9
ENDBRANCH   1   8
TORSDOF 8
ENDMDL
MODEL 3
REMARK VINA RESULT:    -3.988      4.016      5.869
REMARK INTER + INTRA:          -6.562
REMARK INTER:                  -6.297
REMARK INTRA:                  -0.265
REMARK UNBOUND:                -0.709
REMARK SMILES O=C([O-])CCCCCCCC(=O)[O-]
REMARK SMILES IDX 7 1 6 2 5 3 4 4 2 5 1 6 3 7 8 8 9 9 10 10 11 11 12 12 13 13
REMARK H PARENT
REMARK Flexibility Score: inf
ROOT
ATOM      1  C   UNL     1      27.699   5.281   7.649  1.00  0.00     0.000 C 
ENDROOT
BRANCH   1   2
ATOM      2  C   UNL     1      26.985   6.503   7.045  1.00  0.00     0.000 C 
BRANCH   2   3
ATOM      3  C   UNL     1      26.686   6.329   5.547  1.00  0.00     0.006 C 
BRANCH   3   4
ATOM      4  C   UNL     1      26.294   7.645   4.864  1.00  0.00     0.053 C 
BRANCH   4   5
ATOM      5  C   UNL     1      25.189   8.315   5.617  1.00  0.00     0.041 C 
ATOM      6  O   UNL     1      24.022   7.845   5.582  1.00  0.00    -0.550 OA
ATOM      7  O   UNL     1      25.457   9.432   6.399  1.00  0.00    -0.550 OA
ENDBRANCH   4   5
ENDBRANCH   3   4
ENDBRANCH   2   3
ENDBRANCH   1   2
BRANCH   1   8
ATOM      8  C   UNL     1      27.674   4.060   6.715  1.00  0.00     0.000 C 
BRANCH   8   9
ATOM      9  C   UNL     1      27.410   2.743   7.466  1.00  0.00     0.006 C 
BRANCH   9  10
ATOM     10  C   UNL     1      27.610   1.514   6.567  1.00  0.00     0.053 C 
BRANCH  10  11
ATOM     11  C   UNL     1      26.574   0.462   6.822  1.00  0.00     0.041 C 
ATOM     12  O   UNL     1      26.206  -0.302   5.892  1.00  0.00    -0.550 OA
ATOM     13  O   UNL     1      26.039   0.305   8.095  1.00  0.00    -0.550 OA
ENDBRANCH  10  11
ENDBRANCH   9  10
ENDBRANCH   8   9
ENDBRANCH   1   8
TORSDOF 8
ENDMDL
MODEL 4
REMARK VINA RESULT:    -3.956      3.419      5.116
REMARK INTER + INTRA:          -6.515
REMARK INTER:                  -6.309
REMARK INTRA:                  -0.206
REMARK UNBOUND:                -0.709
REMARK SMILES O=C([O-])CCCCCCCC(=O)[O-]
REMARK SMILES IDX 7 1 6 2 5 3 4 4 2 5 1 6 3 7 8 8 9 9 10 10 11 11 12 12 13 13
REMARK H PARENT
REMARK Flexibility Score: inf
ROOT
ATOM      1  C   UNL     1      24.740   8.843   5.472  1.00  0.00     0.000 C 
ENDROOT
BRANCH   1   2
ATOM      2  C   UNL     1      24.860  10.354   5.741  1.00  0.00     0.000 C 
BRANCH   2   3
ATOM      3  C   UNL     1      23.726  11.160   5.089  1.00  0.00     0.006 C 
BRANCH   3   4
ATOM      4  C   UNL     1      24.062  12.651   4.948  1.00  0.00     0.053 C 
BRANCH   4   5
ATOM      5  C   UNL     1      23.115  13.478   5.757  1.00  0.00     0.041 C 
ATOM      6  O   UNL     1      23.234  14.731   5.787  1.00  0.00    -0.550 OA
ATOM      7  O   UNL     1      22.069  12.870   6.440  1.00  0.00    -0.550 OA
ENDBRANCH   4   5
ENDBRANCH   3   4
ENDBRANCH   2   3
ENDBRANCH   1   2
BRANCH   1   8
ATOM      8  C   UNL     1      26.082   8.205   5.078  1.00  0.00     0.000 C 
BRANCH   8   9
ATOM      9  C   UNL     1      26.172   6.721   5.474  1.00  0.00     0.006 C 
BRANCH   9  10
ATOM     10  C   UNL     1      26.613   6.537   6.933  1.00  0.00     0.053 C 
BRANCH  10  11
ATOM     11  C   UNL     1      27.340   5.243   7.138  1.00  0.00     0.041 C 
ATOM     12  O   UNL     1      27.602   4.502   6.154  1.00  0.00    -0.550 OA
ATOM     13  O   UNL     1      27.753   4.871   8.411  1.00  0.00    -0.550 OA
ENDBRANCH  10  11
ENDBRANCH   9  10
ENDBRANCH   8   9
ENDBRANCH   1   8
TORSDOF 8
ENDMDL
MODEL 5
REMARK VINA RESULT:    -3.902     13.814     14.820
REMARK INTER + INTRA:          -6.436
REMARK INTER:                  -5.769
REMARK INTRA:                  -0.667
REMARK UNBOUND:                -0.709
REMARK SMILES O=C([O-])CCCCCCCC(=O)[O-]
REMARK SMILES IDX 7 1 6 2 5 3 4 4 2 5 1 6 3 7 8 8 9 9 10 10 11 11 12 12 13 13
REMARK H PARENT
REMARK Flexibility Score: inf
ROOT
ATOM      1  C   UNL     1      15.627   1.342   2.036  1.00  0.00     0.000 C 
ENDROOT
BRANCH   1   2
ATOM      2  C   UNL     1      15.328   1.007   0.564  1.00  0.00     0.000 C 
BRANCH   2   3
ATOM      3  C   UNL     1      16.508   1.331  -0.366  1.00  0.00     0.006 C 
BRANCH   3   4
ATOM      4  C   UNL     1      16.064   1.971  -1.688  1.00  0.00     0.053 C 
BRANCH   4   5
ATOM      5  C   UNL     1      15.797   3.430  -1.497  1.00  0.00     0.041 C 
ATOM      6  O   UNL     1      16.396   4.072  -0.595  1.00  0.00    -0.550 OA
ATOM      7  O   UNL     1      14.923   4.095  -2.349  1.00  0.00    -0.550 OA
ENDBRANCH   4   5
ENDBRANCH   3   4
ENDBRANCH   2   3
ENDBRANCH   1   2
BRANCH   1   8
ATOM      8  C   UNL     1      14.916   2.622   2.505  1.00  0.00     0.000 C 
BRANCH   8   9
ATOM      9  C   UNL     1      13.692   2.972   1.641  1.00  0.00     0.006 C 
BRANCH   9  10
ATOM     10  C   UNL     1      13.456   4.487   1.558  1.00  0.00     0.053 C 
BRANCH  10  11
ATOM     11  C   UNL     1      12.061   4.858   1.960  1.00  0.00     0.041 C 
ATOM     12  O   UNL     1      11.218   5.191   1.086  1.00  0.00    -0.550 OA
ATOM     13  O   UNL     1      11.684   4.805   3.296  1.00  0.00    -0.550 OA
ENDBRANCH  10  11
ENDBRANCH   9  10
ENDBRANCH   8   9
ENDBRANCH   1   8
TORSDOF 8
ENDMDL
MODEL 6
REMARK VINA RESULT:    -3.895     14.219     15.322
REMARK INTER + INTRA:          -6.426
REMARK INTER:                  -5.869
REMARK INTRA:                  -0.557
REMARK UNBOUND:                -0.709
REMARK SMILES O=C([O-])CCCCCCCC(=O)[O-]
REMARK SMILES IDX 7 1 6 2 5 3 4 4 2 5 1 6 3 7 8 8 9 9 10 10 11 11 12 12 13 13
REMARK H PARENT
REMARK Flexibility Score: inf
ROOT
ATOM      1  C   UNL     1      15.798   2.746   0.745  1.00  0.00     0.000 C 
ENDROOT
BRANCH   1   2
ATOM      2  C   UNL     1      16.159   3.701  -0.407  1.00  0.00     0.000 C 
BRANCH   2   3
ATOM      3  C   UNL     1      15.725   3.160  -1.778  1.00  0.00     0.006 C 
BRANCH   3   4
ATOM      4  C   UNL     1      15.175   1.730  -1.705  1.00  0.00     0.053 C 
BRANCH   4   5
ATOM      5  C   UNL     1      16.104   0.777  -2.387  1.00  0.00     0.041 C 
ATOM      6  O   UNL     1      17.349   0.940  -2.307  1.00  0.00    -0.550 OA
ATOM      7  O   UNL     1      15.597  -0.321  -3.071  1.00  0.00    -0.550 OA
ENDBRANCH   4   5
ENDBRANCH   3   4
ENDBRANCH   2   3
ENDBRANCH   1   2
BRANCH   1   8
ATOM      8  C   UNL     1      15.063   3.458   1.893  1.00  0.00     0.000 C 
BRANCH   8   9
ATOM      9  C   UNL     1      14.075   4.526   1.393  1.00  0.00     0.006 C 
BRANCH   9  10
ATOM     10  C   UNL     1      12.658   3.965   1.214  1.00  0.00     0.053 C 
BRANCH  10  11
ATOM     11  C   UNL     1      11.661   4.680   2.073  1.00  0.00     0.041 C 
ATOM     12  O   UNL     1      10.795   5.429   1.549  1.00  0.00    -0.550 OA
ATOM     13  O   UNL     1      11.668   4.494   3.450  1.00  0.00    -0.550 OA
ENDBRANCH  10  11
ENDBRANCH   9  10
ENDBRANCH   8   9
ENDBRANCH   1   8
TORSDOF 8
ENDMDL
MODEL 7
REMARK VINA RESULT:    -3.878     14.024     16.330
REMARK INTER + INTRA:          -6.401
REMARK INTER:                  -5.794
REMARK INTRA:                  -0.607
REMARK UNBOUND:                -0.709
REMARK SMILES O=C([O-])CCCCCCCC(=O)[O-]
REMARK SMILES IDX 7 1 6 2 5 3 4 4 2 5 1 6 3 7 8 8 9 9 10 10 11 11 12 12 13 13
REMARK H PARENT
REMARK Flexibility Score: inf
ROOT
ATOM      1  C   UNL     1      15.073  18.746  -0.145  1.00  0.00     0.000 C 
ENDROOT
BRANCH   1   2
ATOM      2  C   UNL     1      15.736  19.121  -1.483  1.00  0.00     0.000 C 
BRANCH   2   3
ATOM      3  C   UNL     1      16.045  17.892  -2.352  1.00  0.00     0.006 C 
BRANCH   3   4
ATOM      4  C   UNL     1      14.868  16.910  -2.431  1.00  0.00     0.053 C 
BRANCH   4   5
ATOM      5  C   UNL     1      13.899  17.342  -3.485  1.00  0.00     0.041 C 
ATOM      6  O   UNL     1      12.796  17.853  -3.160  1.00  0.00    -0.550 OA
ATOM      7  O   UNL     1      14.234  17.225  -4.828  1.00  0.00    -0.550 OA
ENDBRANCH   4   5
ENDBRANCH   3   4
ENDBRANCH   2   3
ENDBRANCH   1   2
BRANCH   1   8
ATOM      8  C   UNL     1      16.056  18.796   1.036  1.00  0.00     0.000 C 
BRANCH   8   9
ATOM      9  C   UNL     1      16.782  17.457   1.260  1.00  0.00     0.006 C 
BRANCH   9  10
ATOM     10  C   UNL     1      18.308  17.622   1.283  1.00  0.00     0.053 C 
BRANCH  10  11
ATOM     11  C   UNL     1      18.991  16.635   0.387  1.00  0.00     0.041 C 
ATOM     12  O   UNL     1      20.213  16.376   0.546  1.00  0.00    -0.550 OA
ATOM     13  O   UNL     1      18.270  15.979  -0.603  1.00  0.00    -0.550 OA
ENDBRANCH  10  11
ENDBRANCH   9  10
ENDBRANCH   8   9
ENDBRANCH   1   8
TORSDOF 8
ENDMDL
MODEL 8
REMARK VINA RESULT:    -3.868     14.718     17.539
REMARK INTER + INTRA:          -6.387
REMARK INTER:                  -5.719
REMARK INTRA:                  -0.668
REMARK UNBOUND:                -0.709
REMARK SMILES O=C([O-])CCCCCCCC(=O)[O-]
REMARK SMILES IDX 7 1 6 2 5 3 4 4 2 5 1 6 3 7 8 8 9 9 10 10 11 11 12 12 13 13
REMARK H PARENT
REMARK Flexibility Score: inf
ROOT
ATOM      1  C   UNL     1      14.587  17.911  -0.371  1.00  0.00     0.000 C 
ENDROOT
BRANCH   1   2
ATOM      2  C   UNL     1      15.658  19.002  -0.195  1.00  0.00     0.000 C 
BRANCH   2   3
ATOM      3  C   UNL     1      16.477  18.822   1.093  1.00  0.00     0.006 C 
BRANCH   3   4
ATOM      4  C   UNL     1      16.907  17.367   1.324  1.00  0.00     0.053 C 
BRANCH   4   5
ATOM      5  C   UNL     1      18.085  17.029   0.467  1.00  0.00     0.041 C 
ATOM      6  O   UNL     1      19.237  17.418   0.791  1.00  0.00    -0.550 OA
ATOM      7  O   UNL     1      17.919  16.240  -0.665  1.00  0.00    -0.550 OA
ENDBRANCH   4   5
ENDBRANCH   3   4
ENDBRANCH   2   3
ENDBRANCH   1   2
BRANCH   1   8
ATOM      8  C   UNL     1      14.667  17.219  -1.741  1.00  0.00     0.000 C 
BRANCH   8   9
ATOM      9  C   UNL     1      15.498  18.017  -2.761  1.00  0.00     0.006 C 
BRANCH   9  10
ATOM     10  C   UNL     1      14.614  18.792  -3.748  1.00  0.00     0.053 C 
BRANCH  10  11
ATOM     11  C   UNL     1      13.754  17.877  -4.565  1.00  0.00     0.041 C 
ATOM     12  O   UNL     1      14.281  16.995  -5.292  1.00  0.00    -0.550 OA
ATOM     13  O   UNL     1      12.370  17.979  -4.499  1.00  0.00    -0.550 OA
ENDBRANCH  10  11
ENDBRANCH   9  10
ENDBRANCH   8   9
ENDBRANCH   1   8
TORSDOF 8
ENDMDL
MODEL 9
REMARK VINA RESULT:    -3.826     14.379     16.285
REMARK INTER + INTRA:          -6.324
REMARK INTER:                  -5.965
REMARK INTRA:                  -0.359
REMARK UNBOUND:                -0.709
REMARK SMILES O=C([O-])CCCCCCCC(=O)[O-]
REMARK SMILES IDX 7 1 6 2 5 3 4 4 2 5 1 6 3 7 8 8 9 9 10 10 11 11 12 12 13 13
REMARK H PARENT
REMARK Flexibility Score: inf
ROOT
ATOM      1  C   UNL     1      13.145   3.941   1.395  1.00  0.00     0.000 C 
ENDROOT
BRANCH   1   2
ATOM      2  C   UNL     1      14.598   4.448   1.365  1.00  0.00     0.000 C 
BRANCH   2   3
ATOM      3  C   UNL     1      15.577   3.398   0.816  1.00  0.00     0.006 C 
BRANCH   3   4
ATOM      4  C   UNL     1      16.198   3.811  -0.525  1.00  0.00     0.053 C 
BRANCH   4   5
ATOM      5  C   UNL     1      15.323   3.382  -1.660  1.00  0.00     0.041 C 
ATOM      6  O   UNL     1      15.108   4.161  -2.624  1.00  0.00    -0.550 OA
ATOM      7  O   UNL     1      14.784   2.101  -1.677  1.00  0.00    -0.550 OA
ENDBRANCH   4   5
ENDBRANCH   3   4
ENDBRANCH   2   3
ENDBRANCH   1   2
BRANCH   1   8
ATOM      8  C   UNL     1      12.342   4.517   2.573  1.00  0.00     0.000 C 
BRANCH   8   9
ATOM      9  C   UNL     1      10.924   4.956   2.167  1.00  0.00     0.006 C 
BRANCH   9  10
ATOM     10  C   UNL     1      10.826   5.282   0.670  1.00  0.00     0.053 C 
BRANCH  10  11
ATOM     11  C   UNL     1       9.506   5.897   0.318  1.00  0.00     0.041 C 
ATOM     12  O   UNL     1       9.460   7.036  -0.215  1.00  0.00    -0.550 OA
ATOM     13  O   UNL     1       8.328   5.198   0.551  1.00  0.00    -0.550 OA
ENDBRANCH  10  11
ENDBRANCH   9  10
ENDBRANCH   8   9
ENDBRANCH   1   8
TORSDOF 8
ENDMDL
