MODEL 1
REMARK VINA RESULT:    -5.701      0.000      0.000
REMARK INTER + INTRA:          -7.837
REMARK INTER:                  -7.034
REMARK INTRA:                  -0.804
REMARK UNBOUND:                -0.804
REMARK SMILES CC(C)=CCC[C@H](C)c1ccc(C)cc1
REMARK SMILES IDX 6 1 7 2 8 3 9 4 13 5 12 6 11 7 14 8 10 9 15 10 5 11 4 12
REMARK SMILES IDX 2 13 1 14 3 15
REMARK H PARENT
REMARK Flexibility Score: inf
ROOT
ATOM      1  C   UNL     1       7.127 -18.532  -9.862  1.00  0.00     0.012 C 
ENDROOT
BRANCH   1   2
ATOM      2  C   UNL     1       7.252 -20.074  -9.785  1.00  0.00     0.016 C 
ATOM      3  C   UNL     1       8.683 -20.518 -10.115  1.00  0.00     0.013 C 
BRANCH   2   4
ATOM      4  C   UNL     1       6.261 -20.784 -10.690  1.00  0.00    -0.045 A 
ATOM      5  C   UNL     1       3.330 -22.700 -13.218  1.00  0.00     0.044 C 
ATOM      6  C   UNL     1       4.340 -22.023 -12.340  1.00  0.00    -0.051 A 
ATOM      7  C   UNL     1       4.305 -22.209 -10.951  1.00  0.00     0.004 A 
ATOM      8  C   UNL     1       5.365 -21.251 -12.906  1.00  0.00     0.004 A 
ATOM      9  C   UNL     1       5.257 -21.595 -10.133  1.00  0.00     0.004 A 
ATOM     10  C   UNL     1       6.316 -20.635 -12.089  1.00  0.00     0.004 A 
ENDBRANCH   2   4
ENDBRANCH   1   2
BRANCH   1  11
ATOM     11  C   UNL     1       6.045 -17.956  -8.931  1.00  0.00     0.028 C 
BRANCH  11  12
ATOM     12  C   UNL     1       6.216 -18.441  -7.509  1.00  0.00    -0.028 C 
ATOM     13  C   UNL     1       6.937 -17.804  -6.559  1.00  0.00    -0.080 C 
ATOM     14  C   UNL     1       7.054 -18.403  -5.181  1.00  0.00     0.039 C 
ATOM     15  C   UNL     1       7.620 -16.485  -6.817  1.00  0.00     0.039 C 
ENDBRANCH  11  12
ENDBRANCH   1  11
TORSDOF 4
ENDMDL
MODEL 2
REMARK VINA RESULT:    -5.676      0.126      1.255
REMARK INTER + INTRA:          -7.807
REMARK INTER:                  -6.994
REMARK INTRA:                  -0.813
REMARK UNBOUND:                -0.804
REMARK SMILES CC(C)=CCC[C@H](C)c1ccc(C)cc1
REMARK SMILES IDX 6 1 7 2 8 3 9 4 13 5 12 6 11 7 14 8 10 9 15 10 5 11 4 12
REMARK SMILES IDX 2 13 1 14 3 15
REMARK H PARENT
REMARK Flexibility Score: inf
ROOT
ATOM      1  C   UNL     1       7.108 -18.523  -9.868  1.00  0.00     0.012 C 
ENDROOT
BRANCH   1   2
ATOM      2  C   UNL     1       7.246 -20.063  -9.776  1.00  0.00     0.016 C 
ATOM      3  C   UNL     1       8.671 -20.501 -10.139  1.00  0.00     0.013 C 
BRANCH   2   4
ATOM      4  C   UNL     1       6.235 -20.792 -10.644  1.00  0.00    -0.045 A 
ATOM      5  C   UNL     1       3.480 -22.962 -13.164  1.00  0.00     0.044 C 
ATOM      6  C   UNL     1       4.446 -22.219 -12.290  1.00  0.00    -0.051 A 
ATOM      7  C   UNL     1       5.346 -21.303 -12.851  1.00  0.00     0.004 A 
ATOM      8  C   UNL     1       4.413 -22.388 -10.898  1.00  0.00     0.004 A 
ATOM      9  C   UNL     1       6.233 -20.596 -12.035  1.00  0.00     0.004 A 
ATOM     10  C   UNL     1       5.301 -21.682 -10.081  1.00  0.00     0.004 A 
ENDBRANCH   2   4
ENDBRANCH   1   2
BRANCH   1  11
ATOM     11  C   UNL     1       6.045 -17.943  -8.918  1.00  0.00     0.028 C 
BRANCH  11  12
ATOM     12  C   UNL     1       6.218 -18.458  -7.507  1.00  0.00    -0.028 C 
ATOM     13  C   UNL     1       6.922 -17.829  -6.538  1.00  0.00    -0.080 C 
ATOM     14  C   UNL     1       7.043 -18.458  -5.174  1.00  0.00     0.039 C 
ATOM     15  C   UNL     1       7.580 -16.492  -6.762  1.00  0.00     0.039 C 
ENDBRANCH  11  12
ENDBRANCH   1  11
TORSDOF 4
ENDMDL
MODEL 3
REMARK VINA RESULT:    -5.362      1.927      3.680
REMARK INTER + INTRA:          -7.420
REMARK INTER:                  -5.974
REMARK INTRA:                  -1.446
REMARK UNBOUND:                -0.804
REMARK SMILES CC(C)=CCC[C@H](C)c1ccc(C)cc1
REMARK SMILES IDX 6 1 7 2 8 3 9 4 13 5 12 6 11 7 14 8 10 9 15 10 5 11 4 12
REMARK SMILES IDX 2 13 1 14 3 15
REMARK H PARENT
REMARK Flexibility Score: inf
ROOT
ATOM      1  C   UNL     1       6.937 -18.227  -6.655  1.00  0.00     0.012 C 
ENDROOT
BRANCH   1   2
ATOM      2  C   UNL     1       6.140 -17.641  -7.848  1.00  0.00     0.016 C 
ATOM      3  C   UNL     1       4.720 -17.256  -7.412  1.00  0.00     0.013 C 
BRANCH   2   4
ATOM      4  C   UNL     1       6.086 -18.587  -9.034  1.00  0.00    -0.045 A 
ATOM      5  C   UNL     1       5.874 -21.159 -12.497  1.00  0.00     0.044 C 
ATOM      6  C   UNL     1       5.947 -20.255 -11.303  1.00  0.00    -0.051 A 
ATOM      7  C   UNL     1       4.781 -19.911 -10.605  1.00  0.00     0.004 A 
ATOM      8  C   UNL     1       7.189 -19.797 -10.837  1.00  0.00     0.004 A 
ATOM      9  C   UNL     1       4.850 -19.084  -9.481  1.00  0.00     0.004 A 
ATOM     10  C   UNL     1       7.258 -18.970  -9.714  1.00  0.00     0.004 A 
ENDBRANCH   2   4
ENDBRANCH   1   2
BRANCH   1  11
ATOM     11  C   UNL     1       6.434 -19.608  -6.200  1.00  0.00     0.028 C 
BRANCH  11  12
ATOM     12  C   UNL     1       7.546 -20.634  -6.200  1.00  0.00    -0.028 C 
ATOM     13  C   UNL     1       7.556 -21.758  -6.953  1.00  0.00    -0.080 C 
ATOM     14  C   UNL     1       8.713 -22.718  -6.847  1.00  0.00     0.039 C 
ATOM     15  C   UNL     1       6.454 -22.083  -7.928  1.00  0.00     0.039 C 
ENDBRANCH  11  12
ENDBRANCH   1  11
TORSDOF 4
ENDMDL
MODEL 4
REMARK VINA RESULT:    -5.258      2.532      5.444
REMARK INTER + INTRA:          -7.291
REMARK INTER:                  -6.032
REMARK INTRA:                  -1.259
REMARK UNBOUND:                -0.804
REMARK SMILES CC(C)=CCC[C@H](C)c1ccc(C)cc1
REMARK SMILES IDX 6 1 7 2 8 3 9 4 13 5 12 6 11 7 14 8 10 9 15 10 5 11 4 12
REMARK SMILES IDX 2 13 1 14 3 15
REMARK H PARENT
REMARK Flexibility Score: inf
ROOT
ATOM      1  C   UNL     1       6.373 -17.970  -7.727  1.00  0.00     0.012 C 
ENDROOT
BRANCH   1   2
ATOM      2  C   UNL     1       5.581 -19.282  -7.502  1.00  0.00     0.016 C 
ATOM      3  C   UNL     1       4.406 -19.046  -6.543  1.00  0.00     0.013 C 
BRANCH   2   4
ATOM      4  C   UNL     1       6.457 -20.412  -6.991  1.00  0.00    -0.045 A 
ATOM      5  C   UNL     1       9.039 -23.612  -5.669  1.00  0.00     0.044 C 
ATOM      6  C   UNL     1       8.152 -22.496  -6.137  1.00  0.00    -0.051 A 
ATOM      7  C   UNL     1       7.218 -22.717  -7.158  1.00  0.00     0.004 A 
ATOM      8  C   UNL     1       8.206 -21.241  -5.513  1.00  0.00     0.004 A 
ATOM      9  C   UNL     1       6.378 -21.685  -7.582  1.00  0.00     0.004 A 
ATOM     10  C   UNL     1       7.368 -20.207  -5.937  1.00  0.00     0.004 A 
ENDBRANCH   2   4
ENDBRANCH   1   2
BRANCH   1  11
ATOM     11  C   UNL     1       7.225 -17.979  -9.009  1.00  0.00     0.028 C 
BRANCH  11  12
ATOM     12  C   UNL     1       6.571 -18.787 -10.108  1.00  0.00    -0.028 C 
ATOM     13  C   UNL     1       7.120 -19.876 -10.693  1.00  0.00    -0.080 C 
ATOM     14  C   UNL     1       6.379 -20.584 -11.798  1.00  0.00     0.039 C 
ATOM     15  C   UNL     1       8.452 -20.436 -10.263  1.00  0.00     0.039 C 
ENDBRANCH  11  12
ENDBRANCH   1  11
TORSDOF 4
ENDMDL
MODEL 5
REMARK VINA RESULT:    -5.253      1.819      3.064
REMARK INTER + INTRA:          -7.284
REMARK INTER:                  -6.137
REMARK INTRA:                  -1.147
REMARK UNBOUND:                -0.804
REMARK SMILES CC(C)=CCC[C@H](C)c1ccc(C)cc1
REMARK SMILES IDX 6 1 7 2 8 3 9 4 13 5 12 6 11 7 14 8 10 9 15 10 5 11 4 12
REMARK SMILES IDX 2 13 1 14 3 15
REMARK H PARENT
REMARK Flexibility Score: inf
ROOT
ATOM      1  C   UNL     1       7.624 -20.588  -5.761  1.00  0.00     0.012 C 
ENDROOT
BRANCH   1   2
ATOM      2  C   UNL     1       7.444 -21.828  -6.672  1.00  0.00     0.016 C 
ATOM      3  C   UNL     1       8.714 -22.690  -6.670  1.00  0.00     0.013 C 
BRANCH   2   4
ATOM      4  C   UNL     1       7.065 -21.456  -8.095  1.00  0.00    -0.045 A 
ATOM      5  C   UNL     1       5.898 -20.278 -12.083  1.00  0.00     0.044 C 
ATOM      6  C   UNL     1       6.300 -20.675 -10.693  1.00  0.00    -0.051 A 
ATOM      7  C   UNL     1       5.392 -21.342  -9.859  1.00  0.00     0.004 A 
ATOM      8  C   UNL     1       7.606 -20.438 -10.240  1.00  0.00     0.004 A 
ATOM      9  C   UNL     1       5.771 -21.729  -8.571  1.00  0.00     0.004 A 
ATOM     10  C   UNL     1       7.986 -20.824  -8.952  1.00  0.00     0.004 A 
ENDBRANCH   2   4
ENDBRANCH   1   2
BRANCH   1  11
ATOM     11  C   UNL     1       6.410 -19.642  -5.764  1.00  0.00     0.028 C 
BRANCH  11  12
ATOM     12  C   UNL     1       6.827 -18.199  -5.586  1.00  0.00    -0.028 C 
ATOM     13  C   UNL     1       6.926 -17.296  -6.588  1.00  0.00    -0.080 C 
ATOM     14  C   UNL     1       7.378 -15.891  -6.286  1.00  0.00     0.039 C 
ATOM     15  C   UNL     1       6.573 -17.636  -8.014  1.00  0.00     0.039 C 
ENDBRANCH  11  12
ENDBRANCH   1  11
TORSDOF 4
ENDMDL
MODEL 6
REMARK VINA RESULT:    -5.216      1.809      3.233
REMARK INTER + INTRA:          -7.239
REMARK INTER:                  -6.495
REMARK INTRA:                  -0.744
REMARK UNBOUND:                -0.804
REMARK SMILES CC(C)=CCC[C@H](C)c1ccc(C)cc1
REMARK SMILES IDX 6 1 7 2 8 3 9 4 13 5 12 6 11 7 14 8 10 9 15 10 5 11 4 12
REMARK SMILES IDX 2 13 1 14 3 15
REMARK H PARENT
REMARK Flexibility Score: inf
ROOT
ATOM      1  C   UNL     1       6.992 -17.305  -7.797  1.00  0.00     0.012 C 
ENDROOT
BRANCH   1   2
ATOM      2  C   UNL     1       5.583 -17.789  -8.221  1.00  0.00     0.016 C 
ATOM      3  C   UNL     1       4.849 -18.424  -7.033  1.00  0.00     0.013 C 
BRANCH   2   4
ATOM      4  C   UNL     1       5.626 -18.757  -9.390  1.00  0.00    -0.045 A 
ATOM      5  C   UNL     1       5.671 -21.402 -12.803  1.00  0.00     0.044 C 
ATOM      6  C   UNL     1       5.653 -20.473 -11.627  1.00  0.00    -0.051 A 
ATOM      7  C   UNL     1       4.469 -20.271 -10.904  1.00  0.00     0.004 A 
ATOM      8  C   UNL     1       6.834 -19.848 -11.201  1.00  0.00     0.004 A 
ATOM      9  C   UNL     1       4.455 -19.420  -9.796  1.00  0.00     0.004 A 
ATOM     10  C   UNL     1       6.821 -18.997 -10.093  1.00  0.00     0.004 A 
ENDBRANCH   2   4
ENDBRANCH   1   2
BRANCH   1  11
ATOM     11  C   UNL     1       7.108 -16.992  -6.295  1.00  0.00     0.028 C 
BRANCH  11  12
ATOM     12  C   UNL     1       7.393 -15.527  -6.051  1.00  0.00    -0.028 C 
ATOM     13  C   UNL     1       6.458 -14.604  -5.728  1.00  0.00    -0.080 C 
ATOM     14  C   UNL     1       6.864 -13.165  -5.535  1.00  0.00     0.039 C 
ATOM     15  C   UNL     1       5.009 -14.963  -5.527  1.00  0.00     0.039 C 
ENDBRANCH  11  12
ENDBRANCH   1  11
TORSDOF 4
ENDMDL
MODEL 7
REMARK VINA RESULT:    -5.175      1.553      6.928
REMARK INTER + INTRA:          -7.188
REMARK INTER:                  -6.492
REMARK INTRA:                  -0.696
REMARK UNBOUND:                -0.804
REMARK SMILES CC(C)=CCC[C@H](C)c1ccc(C)cc1
REMARK SMILES IDX 6 1 7 2 8 3 9 4 13 5 12 6 11 7 14 8 10 9 15 10 5 11 4 12
REMARK SMILES IDX 2 13 1 14 3 15
REMARK H PARENT
REMARK Flexibility Score: inf
ROOT
ATOM      1  C   UNL     1       6.885 -18.790  -9.361  1.00  0.00     0.012 C 
ENDROOT
BRANCH   1   2
ATOM      2  C   UNL     1       6.112 -18.865  -8.020  1.00  0.00     0.016 C 
ATOM      3  C   UNL     1       4.648 -19.253  -8.261  1.00  0.00     0.013 C 
BRANCH   2   4
ATOM      4  C   UNL     1       6.190 -17.572  -7.228  1.00  0.00    -0.045 A 
ATOM      5  C   UNL     1       6.438 -13.814  -5.115  1.00  0.00     0.044 C 
ATOM      6  C   UNL     1       6.349 -15.112  -5.861  1.00  0.00    -0.051 A 
ATOM      7  C   UNL     1       7.513 -15.738  -6.328  1.00  0.00     0.004 A 
ATOM      8  C   UNL     1       5.109 -15.741  -6.041  1.00  0.00     0.004 A 
ATOM      9  C   UNL     1       7.434 -16.957  -7.007  1.00  0.00     0.004 A 
ATOM     10  C   UNL     1       5.029 -16.959  -6.720  1.00  0.00     0.004 A 
ENDBRANCH   2   4
ENDBRANCH   1   2
BRANCH   1  11
ATOM     11  C   UNL     1       7.277 -20.168  -9.923  1.00  0.00     0.028 C 
BRANCH  11  12
ATOM     12  C   UNL     1       6.754 -20.366 -11.328  1.00  0.00    -0.028 C 
ATOM     13  C   UNL     1       5.731 -21.186 -11.660  1.00  0.00    -0.080 C 
ATOM     14  C   UNL     1       5.317 -21.318 -13.103  1.00  0.00     0.039 C 
ATOM     15  C   UNL     1       4.958 -21.967 -10.629  1.00  0.00     0.039 C 
ENDBRANCH  11  12
ENDBRANCH   1  11
TORSDOF 4
ENDMDL
MODEL 8
REMARK VINA RESULT:    -5.168      1.788      4.818
REMARK INTER + INTRA:          -7.180
REMARK INTER:                  -5.582
REMARK INTRA:                  -1.598
REMARK UNBOUND:                -0.804
REMARK SMILES CC(C)=CCC[C@H](C)c1ccc(C)cc1
REMARK SMILES IDX 6 1 7 2 8 3 9 4 13 5 12 6 11 7 14 8 10 9 15 10 5 11 4 12
REMARK SMILES IDX 2 13 1 14 3 15
REMARK H PARENT
REMARK Flexibility Score: inf
ROOT
ATOM      1  C   UNL     1       4.252 -21.443 -10.252  1.00  0.00     0.012 C 
ENDROOT
BRANCH   1   2
ATOM      2  C   UNL     1       4.895 -20.214 -10.943  1.00  0.00     0.016 C 
ATOM      3  C   UNL     1       5.882 -20.660 -12.030  1.00  0.00     0.013 C 
BRANCH   2   4
ATOM      4  C   UNL     1       5.583 -19.285  -9.958  1.00  0.00    -0.045 A 
ATOM      5  C   UNL     1       7.562 -16.769  -7.059  1.00  0.00     0.044 C 
ATOM      6  C   UNL     1       6.880 -17.654  -8.060  1.00  0.00    -0.051 A 
ATOM      7  C   UNL     1       5.563 -18.080  -7.844  1.00  0.00     0.004 A 
ATOM      8  C   UNL     1       7.533 -18.010  -9.249  1.00  0.00     0.004 A 
ATOM      9  C   UNL     1       4.920 -18.889  -8.785  1.00  0.00     0.004 A 
ATOM     10  C   UNL     1       6.892 -18.820 -10.190  1.00  0.00     0.004 A 
ENDBRANCH   2   4
ENDBRANCH   1   2
BRANCH   1  11
ATOM     11  C   UNL     1       5.281 -22.438  -9.687  1.00  0.00     0.028 C 
BRANCH  11  12
ATOM     12  C   UNL     1       5.248 -22.477  -8.176  1.00  0.00    -0.028 C 
ATOM     13  C   UNL     1       6.272 -22.107  -7.373  1.00  0.00    -0.080 C 
ATOM     14  C   UNL     1       6.126 -22.216  -5.877  1.00  0.00     0.039 C 
ATOM     15  C   UNL     1       7.564 -21.558  -7.920  1.00  0.00     0.039 C 
ENDBRANCH  11  12
ENDBRANCH   1  11
TORSDOF 4
ENDMDL
MODEL 9
REMARK VINA RESULT:    -5.155      1.974      3.531
REMARK INTER + INTRA:          -7.164
REMARK INTER:                  -5.637
REMARK INTRA:                  -1.527
REMARK UNBOUND:                -0.804
REMARK SMILES CC(C)=CCC[C@H](C)c1ccc(C)cc1
REMARK SMILES IDX 6 1 7 2 8 3 9 4 13 5 12 6 11 7 14 8 10 9 15 10 5 11 4 12
REMARK SMILES IDX 2 13 1 14 3 15
REMARK H PARENT
REMARK Flexibility Score: inf
ROOT
ATOM      1  C   UNL     1       7.128 -18.546 -10.114  1.00  0.00     0.012 C 
ENDROOT
BRANCH   1   2
ATOM      2  C   UNL     1       7.016 -20.010 -10.609  1.00  0.00     0.016 C 
ATOM      3  C   UNL     1       5.862 -20.154 -11.610  1.00  0.00     0.013 C 
BRANCH   2   4
ATOM      4  C   UNL     1       6.848 -21.000  -9.470  1.00  0.00    -0.045 A 
ATOM      5  C   UNL     1       6.342 -23.693  -6.132  1.00  0.00     0.044 C 
ATOM      6  C   UNL     1       6.511 -22.748  -7.284  1.00  0.00    -0.051 A 
ATOM      7  C   UNL     1       7.672 -21.971  -7.396  1.00  0.00     0.004 A 
ATOM      8  C   UNL     1       5.537 -22.680  -8.292  1.00  0.00     0.004 A 
ATOM      9  C   UNL     1       7.840 -21.104  -8.479  1.00  0.00     0.004 A 
ATOM     10  C   UNL     1       5.703 -21.813  -9.374  1.00  0.00     0.004 A 
ENDBRANCH   2   4
ENDBRANCH   1   2
BRANCH   1  11
ATOM     11  C   UNL     1       6.002 -18.136  -9.148  1.00  0.00     0.028 C 
BRANCH  11  12
ATOM     12  C   UNL     1       6.545 -17.734  -7.796  1.00  0.00    -0.028 C 
ATOM     13  C   UNL     1       6.139 -18.257  -6.616  1.00  0.00    -0.080 C 
ATOM     14  C   UNL     1       6.741 -17.754  -5.329  1.00  0.00     0.039 C 
ATOM     15  C   UNL     1       5.113 -19.357  -6.535  1.00  0.00     0.039 C 
ENDBRANCH  11  12
ENDBRANCH   1  11
TORSDOF 4
ENDMDL
