MODEL 1
REMARK VINA RESULT:    -4.063      0.000      0.000
REMARK INTER + INTRA:          -6.011
REMARK INTER:                  -5.488
REMARK INTRA:                  -0.523
REMARK UNBOUND:                -0.523
REMARK SMILES O=C[C@H](O)[C@H](O)[C@@H](O)CO
REMARK SMILES IDX 7 1 9 2 10 3 5 5 3 6 2 7 1 8 4 9 6 11 8 13
REMARK H PARENT 10 4 4 10 6 12 8 14
REMARK Flexibility Score: inf
ROOT
ATOM      1  C   UNL     1      -3.013  -3.040  -3.639  1.00  0.00     0.171 C 
ENDROOT
BRANCH   1   2
ATOM      2  C   UNL     1      -3.003  -4.204  -2.624  1.00  0.00     0.190 C 
BRANCH   2   3
ATOM      3  O   UNL     1      -2.230  -5.278  -3.087  1.00  0.00    -0.394 OA
ATOM      4  H   UNL     1      -2.799  -6.088  -3.023  1.00  0.00     0.210 HD
ENDBRANCH   2   3
ENDBRANCH   1   2
BRANCH   1   5
ATOM      5  C   UNL     1      -2.880  -3.506  -5.119  1.00  0.00     0.181 C 
BRANCH   5   6
ATOM      6  C   UNL     1      -1.489  -3.236  -5.743  1.00  0.00     0.209 C 
BRANCH   6   7
ATOM      7  C   UNL     1      -1.516  -3.295  -7.247  1.00  0.00     0.258 C 
ATOM      8  O   UNL     1      -1.823  -2.313  -7.906  1.00  0.00    -0.300 OA
ENDBRANCH   6   7
BRANCH   6   9
ATOM      9  O   UNL     1      -0.561  -4.179  -5.274  1.00  0.00    -0.383 OA
ATOM     10  H   UNL     1       0.327  -3.911  -5.629  1.00  0.00     0.211 HD
ENDBRANCH   6   9
ENDBRANCH   5   6
BRANCH   5  11
ATOM     11  O   UNL     1      -3.863  -2.874  -5.901  1.00  0.00    -0.387 OA
ATOM     12  H   UNL     1      -4.187  -3.541  -6.562  1.00  0.00     0.211 HD
ENDBRANCH   5  11
ENDBRANCH   1   5
BRANCH   1  13
ATOM     13  O   UNL     1      -4.194  -2.292  -3.480  1.00  0.00    -0.388 OA
ATOM     14  H   UNL     1      -3.990  -1.354  -3.736  1.00  0.00     0.211 HD
ENDBRANCH   1  13
TORSDOF 8
ENDMDL
MODEL 2
REMARK VINA RESULT:    -3.999      1.964      4.825
REMARK INTER + INTRA:          -5.925
REMARK INTER:                  -5.210
REMARK INTRA:                  -0.715
REMARK UNBOUND:                -0.523
REMARK SMILES O=C[C@H](O)[C@H](O)[C@@H](O)CO
REMARK SMILES IDX 7 1 9 2 10 3 5 5 3 6 2 7 1 8 4 9 6 11 8 13
REMARK H PARENT 10 4 4 10 6 12 8 14
REMARK Flexibility Score: inf
ROOT
ATOM      1  C   UNL     1      -1.416  -3.399  -9.024  1.00  0.00     0.171 C 
ENDROOT
BRANCH   1   2
ATOM      2  C   UNL     1      -0.925  -2.561 -10.225  1.00  0.00     0.190 C 
BRANCH   2   3
ATOM      3  O   UNL     1      -1.831  -1.537 -10.537  1.00  0.00    -0.394 OA
ATOM      4  H   UNL     1      -1.458  -0.700 -10.155  1.00  0.00     0.210 HD
ENDBRANCH   2   3
ENDBRANCH   1   2
BRANCH   1   5
ATOM      5  C   UNL     1      -1.015  -2.799  -7.644  1.00  0.00     0.181 C 
BRANCH   5   6
ATOM      6  C   UNL     1      -1.451  -3.659  -6.432  1.00  0.00     0.209 C 
BRANCH   6   7
ATOM      7  C   UNL     1      -2.639  -3.075  -5.715  1.00  0.00     0.258 C 
ATOM      8  O   UNL     1      -3.744  -3.076  -6.233  1.00  0.00    -0.300 OA
ENDBRANCH   6   7
BRANCH   6   9
ATOM      9  O   UNL     1      -0.389  -3.776  -5.521  1.00  0.00    -0.383 OA
ATOM     10  H   UNL     1       0.446  -3.598  -6.027  1.00  0.00     0.211 HD
ENDBRANCH   6   9
ENDBRANCH   5   6
BRANCH   5  11
ATOM     11  O   UNL     1      -1.566  -1.512  -7.513  1.00  0.00    -0.387 OA
ATOM     12  H   UNL     1      -0.969  -0.885  -7.999  1.00  0.00     0.211 HD
ENDBRANCH   5  11
ENDBRANCH   1   5
BRANCH   1  13
ATOM     13  O   UNL     1      -2.814  -3.539  -9.094  1.00  0.00    -0.388 OA
ATOM     14  H   UNL     1      -3.170  -3.455  -8.171  1.00  0.00     0.211 HD
ENDBRANCH   1  13
TORSDOF 8
ENDMDL
MODEL 3
REMARK VINA RESULT:    -3.949      1.166      4.012
REMARK INTER + INTRA:          -5.858
REMARK INTER:                  -5.176
REMARK INTRA:                  -0.682
REMARK UNBOUND:                -0.523
REMARK SMILES O=C[C@H](O)[C@H](O)[C@@H](O)CO
REMARK SMILES IDX 7 1 9 2 10 3 5 5 3 6 2 7 1 8 4 9 6 11 8 13
REMARK H PARENT 10 4 4 10 6 12 8 14
REMARK Flexibility Score: inf
ROOT
ATOM      1  C   UNL     1      -1.433  -3.741  -6.878  1.00  0.00     0.171 C 
ENDROOT
BRANCH   1   2
ATOM      2  C   UNL     1      -1.436  -2.758  -8.070  1.00  0.00     0.190 C 
BRANCH   2   3
ATOM      3  O   UNL     1      -1.540  -1.429  -7.634  1.00  0.00    -0.394 OA
ATOM      4  H   UNL     1      -2.508  -1.213  -7.605  1.00  0.00     0.210 HD
ENDBRANCH   2   3
ENDBRANCH   1   2
BRANCH   1   5
ATOM      5  C   UNL     1      -2.353  -3.295  -5.704  1.00  0.00     0.181 C 
BRANCH   5   6
ATOM      6  C   UNL     1      -2.430  -4.316  -4.541  1.00  0.00     0.209 C 
BRANCH   6   7
ATOM      7  C   UNL     1      -2.919  -3.689  -3.262  1.00  0.00     0.258 C 
ATOM      8  O   UNL     1      -3.751  -2.797  -3.283  1.00  0.00    -0.300 OA
ENDBRANCH   6   7
BRANCH   6   9
ATOM      9  O   UNL     1      -1.163  -4.876  -4.310  1.00  0.00    -0.383 OA
ATOM     10  H   UNL     1      -0.512  -4.126  -4.307  1.00  0.00     0.211 HD
ENDBRANCH   6   9
ENDBRANCH   5   6
BRANCH   5  11
ATOM     11  O   UNL     1      -3.651  -3.056  -6.189  1.00  0.00    -0.387 OA
ATOM     12  H   UNL     1      -3.819  -3.710  -6.918  1.00  0.00     0.211 HD
ENDBRANCH   5  11
ENDBRANCH   1   5
BRANCH   1  13
ATOM     13  O   UNL     1      -1.817  -5.018  -7.326  1.00  0.00    -0.388 OA
ATOM     14  H   UNL     1      -2.799  -5.097  -7.199  1.00  0.00     0.211 HD
ENDBRANCH   1  13
TORSDOF 8
ENDMDL
MODEL 4
REMARK VINA RESULT:    -3.926      1.070      4.206
REMARK INTER + INTRA:          -5.826
REMARK INTER:                  -5.334
REMARK INTRA:                  -0.492
REMARK UNBOUND:                -0.523
REMARK SMILES O=C[C@H](O)[C@H](O)[C@@H](O)CO
REMARK SMILES IDX 7 1 9 2 10 3 5 5 3 6 2 7 1 8 4 9 6 11 8 13
REMARK H PARENT 10 4 4 10 6 12 8 14
REMARK Flexibility Score: inf
ROOT
ATOM      1  C   UNL     1      -1.912  -3.977  -6.987  1.00  0.00     0.171 C 
ENDROOT
BRANCH   1   2
ATOM      2  C   UNL     1      -0.905  -2.829  -7.222  1.00  0.00     0.190 C 
BRANCH   2   3
ATOM      3  O   UNL     1      -1.538  -1.698  -7.759  1.00  0.00    -0.394 OA
ATOM      4  H   UNL     1      -2.161  -2.025  -8.458  1.00  0.00     0.210 HD
ENDBRANCH   2   3
ENDBRANCH   1   2
BRANCH   1   5
ATOM      5  C   UNL     1      -2.264  -4.195  -5.486  1.00  0.00     0.181 C 
BRANCH   5   6
ATOM      6  C   UNL     1      -2.929  -2.970  -4.810  1.00  0.00     0.209 C 
BRANCH   6   7
ATOM      7  C   UNL     1      -3.234  -3.214  -3.356  1.00  0.00     0.258 C 
ATOM      8  O   UNL     1      -2.971  -4.286  -2.835  1.00  0.00    -0.300 OA
ENDBRANCH   6   7
BRANCH   6   9
ATOM      9  O   UNL     1      -4.125  -2.648  -5.471  1.00  0.00    -0.383 OA
ATOM     10  H   UNL     1      -4.765  -3.384  -5.284  1.00  0.00     0.211 HD
ENDBRANCH   6   9
ENDBRANCH   5   6
BRANCH   5  11
ATOM     11  O   UNL     1      -1.100  -4.533  -4.773  1.00  0.00    -0.387 OA
ATOM     12  H   UNL     1      -0.403  -4.764  -5.441  1.00  0.00     0.211 HD
ENDBRANCH   5  11
ENDBRANCH   1   5
BRANCH   1  13
ATOM     13  O   UNL     1      -3.085  -3.726  -7.720  1.00  0.00    -0.388 OA
ATOM     14  H   UNL     1      -2.821  -3.271  -8.562  1.00  0.00     0.211 HD
ENDBRANCH   1  13
TORSDOF 8
ENDMDL
MODEL 5
REMARK VINA RESULT:    -3.916      1.597      2.232
REMARK INTER + INTRA:          -5.813
REMARK INTER:                  -5.336
REMARK INTRA:                  -0.477
REMARK UNBOUND:                -0.523
REMARK SMILES O=C[C@H](O)[C@H](O)[C@@H](O)CO
REMARK SMILES IDX 7 1 9 2 10 3 5 5 3 6 2 7 1 8 4 9 6 11 8 13
REMARK H PARENT 10 4 4 10 6 12 8 14
REMARK Flexibility Score: inf
ROOT
ATOM      1  C   UNL     1      -3.394  -3.385  -4.985  1.00  0.00     0.171 C 
ENDROOT
BRANCH   1   2
ATOM      2  C   UNL     1      -4.401  -2.217  -5.070  1.00  0.00     0.190 C 
BRANCH   2   3
ATOM      3  O   UNL     1      -4.802  -1.795  -3.794  1.00  0.00    -0.394 OA
ATOM      4  H   UNL     1      -4.696  -0.809  -3.773  1.00  0.00     0.210 HD
ENDBRANCH   2   3
ENDBRANCH   1   2
BRANCH   1   5
ATOM      5  C   UNL     1      -2.727  -3.730  -6.349  1.00  0.00     0.181 C 
BRANCH   5   6
ATOM      6  C   UNL     1      -1.739  -2.652  -6.859  1.00  0.00     0.209 C 
BRANCH   6   7
ATOM      7  C   UNL     1      -1.323  -2.887  -8.287  1.00  0.00     0.258 C 
ATOM      8  O   UNL     1      -2.063  -2.585  -9.210  1.00  0.00    -0.300 OA
ENDBRANCH   6   7
BRANCH   6   9
ATOM      9  O   UNL     1      -0.589  -2.637  -6.054  1.00  0.00    -0.383 OA
ATOM     10  H   UNL     1       0.155  -2.303  -6.621  1.00  0.00     0.211 HD
ENDBRANCH   6   9
ENDBRANCH   5   6
BRANCH   5  11
ATOM     11  O   UNL     1      -3.723  -3.933  -7.321  1.00  0.00    -0.387 OA
ATOM     12  H   UNL     1      -3.295  -4.392  -8.091  1.00  0.00     0.211 HD
ENDBRANCH   5  11
ENDBRANCH   1   5
BRANCH   1  13
ATOM     13  O   UNL     1      -2.403  -3.078  -4.035  1.00  0.00    -0.388 OA
ATOM     14  H   UNL     1      -2.420  -3.791  -3.344  1.00  0.00     0.211 HD
ENDBRANCH   1  13
TORSDOF 8
ENDMDL
MODEL 6
REMARK VINA RESULT:    -3.801      1.383      2.654
REMARK INTER + INTRA:          -5.658
REMARK INTER:                  -5.315
REMARK INTRA:                  -0.343
REMARK UNBOUND:                -0.523
REMARK SMILES O=C[C@H](O)[C@H](O)[C@@H](O)CO
REMARK SMILES IDX 7 1 9 2 10 3 5 5 3 6 2 7 1 8 4 9 6 11 8 13
REMARK H PARENT 10 4 4 10 6 12 8 14
REMARK Flexibility Score: inf
ROOT
ATOM      1  C   UNL     1      -3.036  -3.378  -4.666  1.00  0.00     0.171 C 
ENDROOT
BRANCH   1   2
ATOM      2  C   UNL     1      -4.294  -2.619  -5.143  1.00  0.00     0.190 C 
BRANCH   2   3
ATOM      3  O   UNL     1      -4.805  -1.793  -4.132  1.00  0.00    -0.394 OA
ATOM      4  H   UNL     1      -4.971  -0.906  -4.543  1.00  0.00     0.210 HD
ENDBRANCH   2   3
ENDBRANCH   1   2
BRANCH   1   5
ATOM      5  C   UNL     1      -1.782  -3.119  -5.551  1.00  0.00     0.181 C 
BRANCH   5   6
ATOM      6  C   UNL     1      -2.097  -2.957  -7.059  1.00  0.00     0.209 C 
BRANCH   6   7
ATOM      7  C   UNL     1      -1.588  -4.115  -7.876  1.00  0.00     0.258 C 
ATOM      8  O   UNL     1      -2.036  -5.239  -7.713  1.00  0.00    -0.300 OA
ENDBRANCH   6   7
BRANCH   6   9
ATOM      9  O   UNL     1      -1.516  -1.776  -7.547  1.00  0.00    -0.383 OA
ATOM     10  H   UNL     1      -0.778  -2.046  -8.154  1.00  0.00     0.211 HD
ENDBRANCH   6   9
ENDBRANCH   5   6
BRANCH   5  11
ATOM     11  O   UNL     1      -0.864  -4.171  -5.386  1.00  0.00    -0.387 OA
ATOM     12  H   UNL     1      -0.067  -3.797  -4.926  1.00  0.00     0.211 HD
ENDBRANCH   5  11
ENDBRANCH   1   5
BRANCH   1  13
ATOM     13  O   UNL     1      -2.758  -3.029  -3.332  1.00  0.00    -0.388 OA
ATOM     14  H   UNL     1      -1.775  -3.090  -3.205  1.00  0.00     0.211 HD
ENDBRANCH   1  13
TORSDOF 8
ENDMDL
MODEL 7
REMARK VINA RESULT:    -3.753      2.249      4.816
REMARK INTER + INTRA:          -5.592
REMARK INTER:                  -5.080
REMARK INTRA:                  -0.512
REMARK UNBOUND:                -0.523
REMARK SMILES O=C[C@H](O)[C@H](O)[C@@H](O)CO
REMARK SMILES IDX 7 1 9 2 10 3 5 5 3 6 2 7 1 8 4 9 6 11 8 13
REMARK H PARENT 10 4 4 10 6 12 8 14
REMARK Flexibility Score: inf
ROOT
ATOM      1  C   UNL     1      -1.610  -3.540  -8.689  1.00  0.00     0.171 C 
ENDROOT
BRANCH   1   2
ATOM      2  C   UNL     1      -1.022  -2.911  -9.971  1.00  0.00     0.190 C 
BRANCH   2   3
ATOM      3  O   UNL     1      -1.812  -1.846 -10.425  1.00  0.00    -0.394 OA
ATOM      4  H   UNL     1      -1.697  -1.804 -11.409  1.00  0.00     0.210 HD
ENDBRANCH   2   3
ENDBRANCH   1   2
BRANCH   1   5
ATOM      5  C   UNL     1      -1.251  -2.756  -7.392  1.00  0.00     0.181 C 
BRANCH   5   6
ATOM      6  C   UNL     1      -1.999  -3.250  -6.129  1.00  0.00     0.209 C 
BRANCH   6   7
ATOM      7  C   UNL     1      -1.856  -4.735  -5.924  1.00  0.00     0.258 C 
ATOM      8  O   UNL     1      -2.728  -5.503  -6.298  1.00  0.00    -0.300 OA
ENDBRANCH   6   7
BRANCH   6   9
ATOM      9  O   UNL     1      -3.365  -2.940  -6.229  1.00  0.00    -0.383 OA
ATOM     10  H   UNL     1      -3.836  -3.784  -6.458  1.00  0.00     0.211 HD
ENDBRANCH   6   9
ENDBRANCH   5   6
BRANCH   5  11
ATOM     11  O   UNL     1      -1.523  -1.389  -7.579  1.00  0.00    -0.387 OA
ATOM     12  H   UNL     1      -2.471  -1.240  -7.328  1.00  0.00     0.211 HD
ENDBRANCH   5  11
ENDBRANCH   1   5
BRANCH   1  13
ATOM     13  O   UNL     1      -3.008  -3.637  -8.816  1.00  0.00    -0.388 OA
ATOM     14  H   UNL     1      -3.198  -4.186  -9.620  1.00  0.00     0.211 HD
ENDBRANCH   1  13
TORSDOF 8
ENDMDL
MODEL 8
REMARK VINA RESULT:    -3.726      2.176      4.200
REMARK INTER + INTRA:          -5.556
REMARK INTER:                  -5.054
REMARK INTRA:                  -0.503
REMARK UNBOUND:                -0.523
REMARK SMILES O=C[C@H](O)[C@H](O)[C@@H](O)CO
REMARK SMILES IDX 7 1 9 2 10 3 5 5 3 6 2 7 1 8 4 9 6 11 8 13
REMARK H PARENT 10 4 4 10 6 12 8 14
REMARK Flexibility Score: inf
ROOT
ATOM      1  C   UNL     1      -1.145  -2.847  -6.926  1.00  0.00     0.171 C 
ENDROOT
BRANCH   1   2
ATOM      2  C   UNL     1      -0.809  -2.620  -8.417  1.00  0.00     0.190 C 
BRANCH   2   3
ATOM      3  O   UNL     1      -1.939  -2.207  -9.137  1.00  0.00    -0.394 OA
ATOM      4  H   UNL     1      -1.810  -2.515 -10.071  1.00  0.00     0.210 HD
ENDBRANCH   2   3
ENDBRANCH   1   2
BRANCH   1   5
ATOM      5  C   UNL     1      -1.707  -4.268  -6.627  1.00  0.00     0.181 C 
BRANCH   5   6
ATOM      6  C   UNL     1      -3.249  -4.320  -6.488  1.00  0.00     0.209 C 
BRANCH   6   7
ATOM      7  C   UNL     1      -3.917  -4.859  -7.726  1.00  0.00     0.258 C 
ATOM      8  O   UNL     1      -4.061  -4.156  -8.713  1.00  0.00    -0.300 OA
ENDBRANCH   6   7
BRANCH   6   9
ATOM      9  O   UNL     1      -3.751  -3.034  -6.232  1.00  0.00    -0.383 OA
ATOM     10  H   UNL     1      -4.642  -3.151  -5.809  1.00  0.00     0.211 HD
ENDBRANCH   6   9
ENDBRANCH   5   6
BRANCH   5  11
ATOM     11  O   UNL     1      -1.125  -4.765  -5.447  1.00  0.00    -0.387 OA
ATOM     12  H   UNL     1      -1.720  -4.509  -4.695  1.00  0.00     0.211 HD
ENDBRANCH   5  11
ENDBRANCH   1   5
BRANCH   1  13
ATOM     13  O   UNL     1       0.004  -2.616  -6.148  1.00  0.00    -0.388 OA
ATOM     14  H   UNL     1      -0.260  -2.026  -5.393  1.00  0.00     0.211 HD
ENDBRANCH   1  13
TORSDOF 8
ENDMDL
MODEL 9
REMARK VINA RESULT:    -3.562      2.455      4.259
REMARK INTER + INTRA:          -5.335
REMARK INTER:                  -4.899
REMARK INTRA:                  -0.436
REMARK UNBOUND:                -0.523
REMARK SMILES O=C[C@H](O)[C@H](O)[C@@H](O)CO
REMARK SMILES IDX 7 1 9 2 10 3 5 5 3 6 2 7 1 8 4 9 6 11 8 13
REMARK H PARENT 10 4 4 10 6 12 8 14
REMARK Flexibility Score: inf
ROOT
ATOM      1  C   UNL     1      -1.180  -2.811  -7.566  1.00  0.00     0.171 C 
ENDROOT
BRANCH   1   2
ATOM      2  C   UNL     1      -1.745  -3.301  -6.215  1.00  0.00     0.190 C 
BRANCH   2   3
ATOM      3  O   UNL     1      -3.072  -2.884  -6.036  1.00  0.00    -0.394 OA
ATOM      4  H   UNL     1      -3.294  -2.299  -6.806  1.00  0.00     0.210 HD
ENDBRANCH   2   3
ENDBRANCH   1   2
BRANCH   1   5
ATOM      5  C   UNL     1      -1.715  -3.612  -8.789  1.00  0.00     0.181 C 
BRANCH   5   6
ATOM      6  C   UNL     1      -1.258  -3.051 -10.159  1.00  0.00     0.209 C 
BRANCH   6   7
ATOM      7  C   UNL     1       0.239  -2.917 -10.251  1.00  0.00     0.258 C 
ATOM      8  O   UNL     1       0.750  -2.168 -11.069  1.00  0.00    -0.300 OA
ENDBRANCH   6   7
BRANCH   6   9
ATOM      9  O   UNL     1      -1.835  -1.791 -10.378  1.00  0.00    -0.383 OA
ATOM     10  H   UNL     1      -2.820  -1.916 -10.351  1.00  0.00     0.211 HD
ENDBRANCH   6   9
ENDBRANCH   5   6
BRANCH   5  11
ATOM     11  O   UNL     1      -3.120  -3.642  -8.754  1.00  0.00    -0.387 OA
ATOM     12  H   UNL     1      -3.395  -3.464  -7.816  1.00  0.00     0.211 HD
ENDBRANCH   5  11
ENDBRANCH   1   5
BRANCH   1  13
ATOM     13  O   UNL     1      -1.473  -1.444  -7.727  1.00  0.00    -0.388 OA
ATOM     14  H   UNL     1      -2.208  -1.220  -7.097  1.00  0.00     0.211 HD
ENDBRANCH   1  13
TORSDOF 8
ENDMDL
