MODEL 1
REMARK VINA RESULT:    -4.358      0.000      0.000
REMARK INTER + INTRA:          -4.860
REMARK INTER:                  -4.741
REMARK INTRA:                  -0.120
REMARK UNBOUND:                -0.120
REMARK SMILES C=C(C)[C@H]1CC[C@H](C)C[C@H]1O
REMARK SMILES IDX 8 1 7 2 6 3 5 4 4 5 10 6 9 7 11 8 2 10 1 11 3 12
REMARK H PARENT 11 9
REMARK Flexibility Score: inf
ROOT
ATOM      1  C   UNL     1     140.650 143.505 146.200  1.00  0.00     0.008 C 
ATOM      2  C   UNL     1     141.866 144.424 145.996  1.00  0.00    -0.012 C 
ATOM      3  C   UNL     1     143.187 143.638 146.144  1.00  0.00     0.004 C 
ATOM      4  C   UNL     1     143.484 142.702 144.954  1.00  0.00     0.011 C 
ATOM      5  C   UNL     1     142.947 143.225 143.599  1.00  0.00     0.043 C 
ATOM      6  C   UNL     1     142.811 144.764 143.590  1.00  0.00     0.121 C 
ATOM      7  C   UNL     1     141.781 145.211 144.654  1.00  0.00     0.035 C 
ENDROOT
BRANCH   6   8
ATOM      8  O   UNL     1     144.054 145.372 143.847  1.00  0.00    -0.392 OA
ATOM      9  H   UNL     1     144.027 146.271 143.426  1.00  0.00     0.210 HD
ENDBRANCH   6   8
BRANCH   5  10
ATOM     10  C   UNL     1     143.765 142.668 142.438  1.00  0.00    -0.075 C 
ATOM     11  C   UNL     1     144.460 141.529 142.608  1.00  0.00     0.008 C 
ATOM     12  C   UNL     1     143.877 143.416 141.130  1.00  0.00     0.039 C 
ENDBRANCH   5  10
TORSDOF 2
ENDMDL
MODEL 2
REMARK VINA RESULT:    -4.269      2.181      2.737
REMARK INTER + INTRA:          -4.764
REMARK INTER:                  -4.567
REMARK INTRA:                  -0.197
REMARK UNBOUND:                -0.120
REMARK SMILES C=C(C)[C@H]1CC[C@H](C)C[C@H]1O
REMARK SMILES IDX 8 1 7 2 6 3 5 4 4 5 10 6 9 7 11 8 2 10 1 11 3 12
REMARK H PARENT 11 9
REMARK Flexibility Score: inf
ROOT
ATOM      1  C   UNL     1     141.636 145.367 145.000  1.00  0.00     0.008 C 
ATOM      2  C   UNL     1     142.578 144.410 145.749  1.00  0.00    -0.012 C 
ATOM      3  C   UNL     1     141.791 143.251 146.399  1.00  0.00     0.004 C 
ATOM      4  C   UNL     1     141.272 142.212 145.382  1.00  0.00     0.011 C 
ATOM      5  C   UNL     1     142.189 142.037 144.146  1.00  0.00     0.043 C 
ATOM      6  C   UNL     1     143.654 142.417 144.458  1.00  0.00     0.121 C 
ATOM      7  C   UNL     1     143.742 143.913 144.842  1.00  0.00     0.035 C 
ENDROOT
BRANCH   6   8
ATOM      8  O   UNL     1     144.157 141.626 145.507  1.00  0.00    -0.392 OA
ATOM      9  H   UNL     1     144.388 142.244 146.249  1.00  0.00     0.210 HD
ENDBRANCH   6   8
BRANCH   5  10
ATOM     10  C   UNL     1     142.023 140.647 143.540  1.00  0.00    -0.075 C 
ATOM     11  C   UNL     1     141.254 139.741 144.169  1.00  0.00     0.008 C 
ATOM     12  C   UNL     1     142.774 140.244 142.292  1.00  0.00     0.039 C 
ENDBRANCH   5  10
TORSDOF 2
ENDMDL
MODEL 3
REMARK VINA RESULT:    -4.212      1.712      2.465
REMARK INTER + INTRA:          -4.702
REMARK INTER:                  -4.509
REMARK INTRA:                  -0.192
REMARK UNBOUND:                -0.120
REMARK SMILES C=C(C)[C@H]1CC[C@H](C)C[C@H]1O
REMARK SMILES IDX 8 1 7 2 6 3 5 4 4 5 10 6 9 7 11 8 2 10 1 11 3 12
REMARK H PARENT 11 9
REMARK Flexibility Score: inf
ROOT
ATOM      1  C   UNL     1     141.729 143.189 146.781  1.00  0.00     0.008 C 
ATOM      2  C   UNL     1     140.880 143.261 145.500  1.00  0.00    -0.012 C 
ATOM      3  C   UNL     1     141.198 144.540 144.695  1.00  0.00     0.004 C 
ATOM      4  C   UNL     1     142.567 144.496 143.984  1.00  0.00     0.011 C 
ATOM      5  C   UNL     1     142.995 143.076 143.540  1.00  0.00     0.043 C 
ATOM      6  C   UNL     1     141.777 142.152 143.318  1.00  0.00     0.121 C 
ATOM      7  C   UNL     1     141.006 141.965 144.646  1.00  0.00     0.035 C 
ENDROOT
BRANCH   6   8
ATOM      8  O   UNL     1     140.919 142.690 142.342  1.00  0.00    -0.392 OA
ATOM      9  H   UNL     1     140.430 143.441 142.770  1.00  0.00     0.210 HD
ENDBRANCH   6   8
BRANCH   5  10
ATOM     10  C   UNL     1     143.948 143.143 142.350  1.00  0.00    -0.075 C 
ATOM     11  C   UNL     1     144.081 144.300 141.676  1.00  0.00     0.008 C 
ATOM     12  C   UNL     1     144.679 141.914 141.863  1.00  0.00     0.039 C 
ENDBRANCH   5  10
TORSDOF 2
ENDMDL
MODEL 4
REMARK VINA RESULT:    -4.091      1.576      2.236
REMARK INTER + INTRA:          -4.570
REMARK INTER:                  -4.456
REMARK INTRA:                  -0.114
REMARK UNBOUND:                -0.120
REMARK SMILES C=C(C)[C@H]1CC[C@H](C)C[C@H]1O
REMARK SMILES IDX 8 1 7 2 6 3 5 4 4 5 10 6 9 7 11 8 2 10 1 11 3 12
REMARK H PARENT 11 9
REMARK Flexibility Score: inf
ROOT
ATOM      1  C   UNL     1     140.268 143.899 145.819  1.00  0.00     0.008 C 
ATOM      2  C   UNL     1     141.335 142.824 146.079  1.00  0.00    -0.012 C 
ATOM      3  C   UNL     1     141.276 141.712 145.009  1.00  0.00     0.004 C 
ATOM      4  C   UNL     1     141.816 142.153 143.632  1.00  0.00     0.011 C 
ATOM      5  C   UNL     1     142.951 143.203 143.714  1.00  0.00     0.043 C 
ATOM      6  C   UNL     1     143.714 143.122 145.055  1.00  0.00     0.121 C 
ATOM      7  C   UNL     1     142.758 143.441 146.227  1.00  0.00     0.035 C 
ENDROOT
BRANCH   6   8
ATOM      8  O   UNL     1     144.271 141.842 145.230  1.00  0.00    -0.392 OA
ATOM      9  H   UNL     1     143.575 141.282 145.664  1.00  0.00     0.210 HD
ENDBRANCH   6   8
BRANCH   5  10
ATOM     10  C   UNL     1     143.850 143.129 142.483  1.00  0.00    -0.075 C 
ATOM     11  C   UNL     1     144.251 144.268 141.889  1.00  0.00     0.008 C 
ATOM     12  C   UNL     1     144.227 141.801 141.868  1.00  0.00     0.039 C 
ENDBRANCH   5  10
TORSDOF 2
ENDMDL
MODEL 5
REMARK VINA RESULT:    -4.047      1.278      4.198
REMARK INTER + INTRA:          -4.522
REMARK INTER:                  -4.369
REMARK INTRA:                  -0.153
REMARK UNBOUND:                -0.120
REMARK SMILES C=C(C)[C@H]1CC[C@H](C)C[C@H]1O
REMARK SMILES IDX 8 1 7 2 6 3 5 4 4 5 10 6 9 7 11 8 2 10 1 11 3 12
REMARK H PARENT 11 9
REMARK Flexibility Score: inf
ROOT
ATOM      1  C   UNL     1     142.978 140.580 142.058  1.00  0.00     0.008 C 
ATOM      2  C   UNL     1     143.985 141.357 142.921  1.00  0.00    -0.012 C 
ATOM      3  C   UNL     1     143.975 142.861 142.570  1.00  0.00     0.004 C 
ATOM      4  C   UNL     1     142.718 143.602 143.073  1.00  0.00     0.011 C 
ATOM      5  C   UNL     1     142.138 143.026 144.388  1.00  0.00     0.043 C 
ATOM      6  C   UNL     1     143.218 142.305 145.225  1.00  0.00     0.121 C 
ATOM      7  C   UNL     1     143.773 141.092 144.442  1.00  0.00     0.035 C 
ENDROOT
BRANCH   6   8
ATOM      8  O   UNL     1     144.267 143.187 145.544  1.00  0.00    -0.392 OA
ATOM      9  H   UNL     1     145.078 142.631 145.683  1.00  0.00     0.210 HD
ENDBRANCH   6   8
BRANCH   5  10
ATOM     10  C   UNL     1     141.368 144.096 145.156  1.00  0.00    -0.075 C 
ATOM     11  C   UNL     1     141.697 145.390 144.994  1.00  0.00     0.008 C 
ATOM     12  C   UNL     1     140.302 143.723 146.160  1.00  0.00     0.039 C 
ENDBRANCH   5  10
TORSDOF 2
ENDMDL
MODEL 6
REMARK VINA RESULT:    -4.011      2.123      4.325
REMARK INTER + INTRA:          -4.483
REMARK INTER:                  -4.300
REMARK INTRA:                  -0.183
REMARK UNBOUND:                -0.120
REMARK SMILES C=C(C)[C@H]1CC[C@H](C)C[C@H]1O
REMARK SMILES IDX 8 1 7 2 6 3 5 4 4 5 10 6 9 7 11 8 2 10 1 11 3 12
REMARK H PARENT 11 9
REMARK Flexibility Score: inf
ROOT
ATOM      1  C   UNL     1     143.713 140.231 143.159  1.00  0.00     0.008 C 
ATOM      2  C   UNL     1     142.464 140.779 142.449  1.00  0.00    -0.012 C 
ATOM      3  C   UNL     1     141.210 140.632 143.338  1.00  0.00     0.004 C 
ATOM      4  C   UNL     1     141.175 141.622 144.522  1.00  0.00     0.011 C 
ATOM      5  C   UNL     1     141.858 142.979 144.221  1.00  0.00     0.043 C 
ATOM      6  C   UNL     1     141.858 143.301 142.710  1.00  0.00     0.121 C 
ATOM      7  C   UNL     1     142.676 142.236 141.942  1.00  0.00     0.035 C 
ENDROOT
BRANCH   6   8
ATOM      8  O   UNL     1     140.542 143.338 142.213  1.00  0.00    -0.392 OA
ATOM      9  H   UNL     1     140.500 144.090 141.565  1.00  0.00     0.210 HD
ENDBRANCH   6   8
BRANCH   5  10
ATOM     10  C   UNL     1     141.272 144.086 145.091  1.00  0.00    -0.075 C 
ATOM     11  C   UNL     1     141.785 145.327 145.013  1.00  0.00     0.008 C 
ATOM     12  C   UNL     1     140.185 143.796 146.100  1.00  0.00     0.039 C 
ENDBRANCH   5  10
TORSDOF 2
ENDMDL
MODEL 7
REMARK VINA RESULT:    -4.002     12.633     13.849
REMARK INTER + INTRA:          -4.473
REMARK INTER:                  -4.359
REMARK INTRA:                  -0.114
REMARK UNBOUND:                -0.120
REMARK SMILES C=C(C)[C@H]1CC[C@H](C)C[C@H]1O
REMARK SMILES IDX 8 1 7 2 6 3 5 4 4 5 10 6 9 7 11 8 2 10 1 11 3 12
REMARK H PARENT 11 9
REMARK Flexibility Score: inf
ROOT
ATOM      1  C   UNL     1     137.143 131.730 148.682  1.00  0.00     0.008 C 
ATOM      2  C   UNL     1     137.279 131.968 150.195  1.00  0.00    -0.012 C 
ATOM      3  C   UNL     1     138.109 130.849 150.861  1.00  0.00     0.004 C 
ATOM      4  C   UNL     1     139.618 130.929 150.544  1.00  0.00     0.011 C 
ATOM      5  C   UNL     1     140.136 132.373 150.339  1.00  0.00     0.043 C 
ATOM      6  C   UNL     1     139.263 133.409 151.081  1.00  0.00     0.121 C 
ATOM      7  C   UNL     1     137.824 133.392 150.512  1.00  0.00     0.035 C 
ENDROOT
BRANCH   6   8
ATOM      8  O   UNL     1     139.232 133.133 152.460  1.00  0.00    -0.392 OA
ATOM      9  H   UNL     1     138.410 132.603 152.630  1.00  0.00     0.210 HD
ENDBRANCH   6   8
BRANCH   5  10
ATOM     10  C   UNL     1     141.624 132.468 150.665  1.00  0.00    -0.075 C 
ATOM     11  C   UNL     1     142.434 133.171 149.854  1.00  0.00     0.008 C 
ATOM     12  C   UNL     1     142.217 131.717 151.835  1.00  0.00     0.039 C 
ENDBRANCH   5  10
TORSDOF 2
ENDMDL
MODEL 8
REMARK VINA RESULT:    -3.985     12.819     14.100
REMARK INTER + INTRA:          -4.454
REMARK INTER:                  -4.278
REMARK INTRA:                  -0.176
REMARK UNBOUND:                -0.120
REMARK SMILES C=C(C)[C@H]1CC[C@H](C)C[C@H]1O
REMARK SMILES IDX 8 1 7 2 6 3 5 4 4 5 10 6 9 7 11 8 2 10 1 11 3 12
REMARK H PARENT 11 9
REMARK Flexibility Score: inf
ROOT
ATOM      1  C   UNL     1     140.497 134.601 149.922  1.00  0.00     0.008 C 
ATOM      2  C   UNL     1     140.393 133.369 150.837  1.00  0.00    -0.012 C 
ATOM      3  C   UNL     1     139.011 133.304 151.525  1.00  0.00     0.004 C 
ATOM      4  C   UNL     1     137.867 132.899 150.571  1.00  0.00     0.011 C 
ATOM      5  C   UNL     1     138.308 131.937 149.440  1.00  0.00     0.043 C 
ATOM      6  C   UNL     1     139.552 131.113 149.839  1.00  0.00     0.121 C 
ATOM      7  C   UNL     1     140.754 132.054 150.085  1.00  0.00     0.035 C 
ENDROOT
BRANCH   6   8
ATOM      8  O   UNL     1     139.294 130.358 150.998  1.00  0.00    -0.392 OA
ATOM      9  H   UNL     1     138.571 130.826 151.492  1.00  0.00     0.210 HD
ENDBRANCH   6   8
BRANCH   5  10
ATOM     10  C   UNL     1     137.133 131.093 148.957  1.00  0.00    -0.075 C 
ATOM     11  C   UNL     1     136.068 130.924 149.761  1.00  0.00     0.008 C 
ATOM     12  C   UNL     1     137.180 130.375 147.628  1.00  0.00     0.039 C 
ENDBRANCH   5  10
TORSDOF 2
ENDMDL
MODEL 9
REMARK VINA RESULT:    -3.966      1.788      4.164
REMARK INTER + INTRA:          -4.434
REMARK INTER:                  -4.311
REMARK INTRA:                  -0.122
REMARK UNBOUND:                -0.120
REMARK SMILES C=C(C)[C@H]1CC[C@H](C)C[C@H]1O
REMARK SMILES IDX 8 1 7 2 6 3 5 4 4 5 10 6 9 7 11 8 2 10 1 11 3 12
REMARK H PARENT 11 9
REMARK Flexibility Score: inf
ROOT
ATOM      1  C   UNL     1     144.258 144.305 141.177  1.00  0.00     0.008 C 
ATOM      2  C   UNL     1     143.291 143.118 141.321  1.00  0.00    -0.012 C 
ATOM      3  C   UNL     1     143.770 142.140 142.417  1.00  0.00     0.004 C 
ATOM      4  C   UNL     1     143.583 142.682 143.850  1.00  0.00     0.011 C 
ATOM      5  C   UNL     1     142.357 143.613 144.010  1.00  0.00     0.043 C 
ATOM      6  C   UNL     1     141.268 143.318 142.954  1.00  0.00     0.121 C 
ATOM      7  C   UNL     1     141.822 143.588 141.535  1.00  0.00     0.035 C 
ENDROOT
BRANCH   6   8
ATOM      8  O   UNL     1     140.836 141.983 143.049  1.00  0.00    -0.392 OA
ATOM      9  H   UNL     1     141.403 141.545 143.737  1.00  0.00     0.210 HD
ENDBRANCH   6   8
BRANCH   5  10
ATOM     10  C   UNL     1     141.846 143.597 145.448  1.00  0.00    -0.075 C 
ATOM     11  C   UNL     1     142.678 143.228 146.439  1.00  0.00     0.008 C 
ATOM     12  C   UNL     1     140.402 143.905 145.769  1.00  0.00     0.039 C 
ENDBRANCH   5  10
TORSDOF 2
ENDMDL
