MODEL 1
REMARK VINA RESULT:    -2.009      0.000      0.000
REMARK INTER + INTRA:          -4.958
REMARK INTER:                  -3.889
REMARK INTRA:                  -1.069
REMARK UNBOUND:                -1.069
REMARK SMILES CCCCCCCCCCCCCCCCCC(=O)[O-]
REMARK SMILES IDX 10 1 11 2 12 3 13 4 14 5 15 6 16 7 17 8 18 9 19 10 20 11
REMARK SMILES IDX 9 12 8 13 7 14 6 15 5 16 4 17 3 18 2 19 1 20
REMARK H PARENT
REMARK Flexibility Score: inf
ROOT
ATOM      1  C   UNL     1       2.324 -14.105 -18.554  1.00  0.00     0.000 C 
ENDROOT
BRANCH   1   2
ATOM      2  C   UNL     1       2.371 -12.584 -18.803  1.00  0.00     0.000 C 
BRANCH   2   3
ATOM      3  C   UNL     1       3.777 -12.009 -19.065  1.00  0.00     0.000 C 
BRANCH   3   4
ATOM      4  C   UNL     1       4.064 -10.660 -18.377  1.00  0.00     0.000 C 
BRANCH   4   5
ATOM      5  C   UNL     1       2.919  -9.631 -18.454  1.00  0.00     0.000 C 
BRANCH   5   6
ATOM      6  C   UNL     1       2.329  -9.208 -17.097  1.00  0.00     0.000 C 
BRANCH   6   7
ATOM      7  C   UNL     1       3.403  -9.010 -16.014  1.00  0.00     0.006 C 
BRANCH   7   8
ATOM      8  C   UNL     1       3.196  -7.712 -15.223  1.00  0.00     0.053 C 
BRANCH   8   9
ATOM      9  C   UNL     1       3.576  -7.869 -13.782  1.00  0.00     0.041 C 
ATOM     10  O   UNL     1       4.172  -8.908 -13.394  1.00  0.00    -0.550 OA
ATOM     11  O   UNL     1       3.247  -6.880 -12.863  1.00  0.00    -0.550 OA
ENDBRANCH   8   9
ENDBRANCH   7   8
ENDBRANCH   6   7
ENDBRANCH   5   6
ENDBRANCH   4   5
ENDBRANCH   3   4
ENDBRANCH   2   3
ENDBRANCH   1   2
BRANCH   1  12
ATOM     12  C   UNL     1       1.099 -14.596 -17.763  1.00  0.00     0.000 C 
BRANCH  12  13
ATOM     13  C   UNL     1       0.447 -15.843 -18.387  1.00  0.00    -0.000 C 
BRANCH  13  14
ATOM     14  C   UNL     1      -1.048 -15.642 -18.679  1.00  0.00    -0.000 C 
BRANCH  14  15
ATOM     15  C   UNL     1      -1.839 -16.962 -18.637  1.00  0.00    -0.000 C 
BRANCH  15  16
ATOM     16  C   UNL     1      -1.465 -17.911 -19.786  1.00  0.00    -0.000 C 
BRANCH  16  17
ATOM     17  C   UNL     1      -1.355 -19.374 -19.331  1.00  0.00    -0.000 C 
BRANCH  17  18
ATOM     18  C   UNL     1      -1.485 -19.486 -17.804  1.00  0.00    -0.000 C 
BRANCH  18  19
ATOM     19  C   UNL     1      -0.222 -20.060 -17.143  1.00  0.00    -0.003 C 
ATOM     20  C   UNL     1       1.045 -19.294 -17.524  1.00  0.00     0.004 C 
ENDBRANCH  18  19
ENDBRANCH  17  18
ENDBRANCH  16  17
ENDBRANCH  15  16
ENDBRANCH  14  15
ENDBRANCH  13  14
ENDBRANCH  12  13
ENDBRANCH   1  12
TORSDOF 16
ENDMDL
MODEL 2
REMARK VINA RESULT:    -1.975      2.918      3.848
REMARK INTER + INTRA:          -4.891
REMARK INTER:                  -3.719
REMARK INTRA:                  -1.172
REMARK UNBOUND:                -1.069
REMARK SMILES CCCCCCCCCCCCCCCCCC(=O)[O-]
REMARK SMILES IDX 10 1 11 2 12 3 13 4 14 5 15 6 16 7 17 8 18 9 19 10 20 11
REMARK SMILES IDX 9 12 8 13 7 14 6 15 5 16 4 17 3 18 2 19 1 20
REMARK H PARENT
REMARK Flexibility Score: inf
ROOT
ATOM      1  C   UNL     1       0.034 -16.019 -18.099  1.00  0.00     0.000 C 
ENDROOT
BRANCH   1   2
ATOM      2  C   UNL     1       0.861 -14.759 -17.772  1.00  0.00     0.000 C 
BRANCH   2   3
ATOM      3  C   UNL     1       1.965 -14.421 -18.793  1.00  0.00     0.000 C 
BRANCH   3   4
ATOM      4  C   UNL     1       2.772 -13.146 -18.476  1.00  0.00     0.000 C 
BRANCH   4   5
ATOM      5  C   UNL     1       2.252 -11.860 -19.149  1.00  0.00     0.000 C 
BRANCH   5   6
ATOM      6  C   UNL     1       2.537 -10.559 -18.377  1.00  0.00     0.000 C 
BRANCH   6   7
ATOM      7  C   UNL     1       3.888  -9.926 -18.750  1.00  0.00     0.006 C 
BRANCH   7   8
ATOM      8  C   UNL     1       4.576 -10.667 -19.904  1.00  0.00     0.053 C 
BRANCH   8   9
ATOM      9  C   UNL     1       5.985 -11.046 -19.563  1.00  0.00     0.041 C 
ATOM     10  O   UNL     1       6.236 -11.649 -18.487  1.00  0.00    -0.550 OA
ATOM     11  O   UNL     1       7.024 -10.708 -20.421  1.00  0.00    -0.550 OA
ENDBRANCH   8   9
ENDBRANCH   7   8
ENDBRANCH   6   7
ENDBRANCH   5   6
ENDBRANCH   4   5
ENDBRANCH   3   4
ENDBRANCH   2   3
ENDBRANCH   1   2
BRANCH   1  12
ATOM     12  C   UNL     1      -1.474 -15.775 -18.289  1.00  0.00     0.000 C 
BRANCH  12  13
ATOM     13  C   UNL     1      -2.029 -16.438 -19.562  1.00  0.00    -0.000 C 
BRANCH  13  14
ATOM     14  C   UNL     1      -1.153 -17.604 -20.047  1.00  0.00    -0.000 C 
BRANCH  14  15
ATOM     15  C   UNL     1      -1.980 -18.852 -20.405  1.00  0.00    -0.000 C 
BRANCH  15  16
ATOM     16  C   UNL     1      -1.450 -20.125 -19.726  1.00  0.00    -0.000 C 
BRANCH  16  17
ATOM     17  C   UNL     1      -0.395 -19.826 -18.650  1.00  0.00    -0.000 C 
BRANCH  17  18
ATOM     18  C   UNL     1      -0.950 -20.105 -17.245  1.00  0.00    -0.000 C 
BRANCH  18  19
ATOM     19  C   UNL     1       0.148 -20.125 -16.169  1.00  0.00    -0.003 C 
ATOM     20  C   UNL     1       1.522 -19.743 -16.720  1.00  0.00     0.004 C 
ENDBRANCH  18  19
ENDBRANCH  17  18
ENDBRANCH  16  17
ENDBRANCH  15  16
ENDBRANCH  14  15
ENDBRANCH  13  14
ENDBRANCH  12  13
ENDBRANCH   1  12
TORSDOF 16
ENDMDL
MODEL 3
REMARK VINA RESULT:    -1.831      4.033      9.846
REMARK INTER + INTRA:          -4.612
REMARK INTER:                  -3.836
REMARK INTRA:                  -0.775
REMARK UNBOUND:                -1.069
REMARK SMILES CCCCCCCCCCCCCCCCCC(=O)[O-]
REMARK SMILES IDX 10 1 11 2 12 3 13 4 14 5 15 6 16 7 17 8 18 9 19 10 20 11
REMARK SMILES IDX 9 12 8 13 7 14 6 15 5 16 4 17 3 18 2 19 1 20
REMARK H PARENT
REMARK Flexibility Score: inf
ROOT
ATOM      1  C   UNL     1       2.441 -13.977 -18.509  1.00  0.00     0.000 C 
ENDROOT
BRANCH   1   2
ATOM      2  C   UNL     1       1.234 -14.594 -17.776  1.00  0.00     0.000 C 
BRANCH   2   3
ATOM      3  C   UNL     1       0.613 -15.825 -18.465  1.00  0.00     0.000 C 
BRANCH   3   4
ATOM      4  C   UNL     1      -0.922 -15.920 -18.363  1.00  0.00     0.000 C 
BRANCH   4   5
ATOM      5  C   UNL     1      -1.595 -16.796 -19.437  1.00  0.00     0.000 C 
BRANCH   5   6
ATOM      6  C   UNL     1      -0.892 -18.136 -19.721  1.00  0.00     0.000 C 
BRANCH   6   7
ATOM      7  C   UNL     1      -1.017 -19.135 -18.557  1.00  0.00     0.006 C 
BRANCH   7   8
ATOM      8  C   UNL     1       0.305 -19.856 -18.268  1.00  0.00     0.053 C 
BRANCH   8   9
ATOM      9  C   UNL     1       0.599 -19.917 -16.800  1.00  0.00     0.041 C 
ATOM     10  O   UNL     1       1.787 -19.858 -16.389  1.00  0.00    -0.550 OA
ATOM     11  O   UNL     1      -0.438 -20.069 -15.888  1.00  0.00    -0.550 OA
ENDBRANCH   8   9
ENDBRANCH   7   8
ENDBRANCH   6   7
ENDBRANCH   5   6
ENDBRANCH   4   5
ENDBRANCH   3   4
ENDBRANCH   2   3
ENDBRANCH   1   2
BRANCH   1  12
ATOM     12  C   UNL     1       2.307 -12.478 -18.835  1.00  0.00     0.000 C 
BRANCH  12  13
ATOM     13  C   UNL     1       3.665 -11.755 -18.880  1.00  0.00    -0.000 C 
BRANCH  13  14
ATOM     14  C   UNL     1       3.526 -10.233 -18.720  1.00  0.00    -0.000 C 
BRANCH  14  15
ATOM     15  C   UNL     1       2.364  -9.843 -17.788  1.00  0.00    -0.000 C 
BRANCH  15  16
ATOM     16  C   UNL     1       2.644  -8.552 -17.004  1.00  0.00    -0.000 C 
BRANCH  16  17
ATOM     17  C   UNL     1       3.314  -8.818 -15.648  1.00  0.00    -0.000 C 
BRANCH  17  18
ATOM     18  C   UNL     1       3.433  -7.523 -14.831  1.00  0.00    -0.000 C 
BRANCH  18  19
ATOM     19  C   UNL     1       3.665  -7.786 -13.334  1.00  0.00    -0.003 C 
ATOM     20  C   UNL     1       3.266  -9.201 -12.914  1.00  0.00     0.004 C 
ENDBRANCH  18  19
ENDBRANCH  17  18
ENDBRANCH  16  17
ENDBRANCH  15  16
ENDBRANCH  14  15
ENDBRANCH  13  14
ENDBRANCH  12  13
ENDBRANCH   1  12
TORSDOF 16
ENDMDL
MODEL 4
REMARK VINA RESULT:    -1.719      4.066      9.896
REMARK INTER + INTRA:          -4.395
REMARK INTER:                  -3.765
REMARK INTRA:                  -0.630
REMARK UNBOUND:                -1.069
REMARK SMILES CCCCCCCCCCCCCCCCCC(=O)[O-]
REMARK SMILES IDX 10 1 11 2 12 3 13 4 14 5 15 6 16 7 17 8 18 9 19 10 20 11
REMARK SMILES IDX 9 12 8 13 7 14 6 15 5 16 4 17 3 18 2 19 1 20
REMARK H PARENT
REMARK Flexibility Score: inf
ROOT
ATOM      1  C   UNL     1       2.483 -12.605 -18.742  1.00  0.00     0.000 C 
ENDROOT
BRANCH   1   2
ATOM      2  C   UNL     1       2.181 -14.117 -18.744  1.00  0.00     0.000 C 
BRANCH   2   3
ATOM      3  C   UNL     1       0.993 -14.546 -17.862  1.00  0.00     0.000 C 
BRANCH   3   4
ATOM      4  C   UNL     1       0.291 -15.845 -18.306  1.00  0.00     0.000 C 
BRANCH   4   5
ATOM      5  C   UNL     1      -1.215 -15.705 -18.601  1.00  0.00     0.000 C 
BRANCH   5   6
ATOM      6  C   UNL     1      -1.960 -17.031 -18.836  1.00  0.00     0.000 C 
BRANCH   6   7
ATOM      7  C   UNL     1      -1.203 -17.983 -19.779  1.00  0.00     0.006 C 
BRANCH   7   8
ATOM      8  C   UNL     1      -1.156 -19.418 -19.237  1.00  0.00     0.053 C 
BRANCH   8   9
ATOM      9  C   UNL     1      -0.359 -19.511 -17.972  1.00  0.00     0.041 C 
ATOM     10  O   UNL     1      -0.921 -19.828 -16.891  1.00  0.00    -0.550 OA
ATOM     11  O   UNL     1       1.000 -19.220 -17.982  1.00  0.00    -0.550 OA
ENDBRANCH   8   9
ENDBRANCH   7   8
ENDBRANCH   6   7
ENDBRANCH   5   6
ENDBRANCH   4   5
ENDBRANCH   3   4
ENDBRANCH   2   3
ENDBRANCH   1   2
BRANCH   1  12
ATOM     12  C   UNL     1       3.977 -12.240 -18.791  1.00  0.00     0.000 C 
BRANCH  12  13
ATOM     13  C   UNL     1       4.245 -10.925 -19.544  1.00  0.00    -0.000 C 
BRANCH  13  14
ATOM     14  C   UNL     1       3.453  -9.743 -18.962  1.00  0.00    -0.000 C 
BRANCH  14  15
ATOM     15  C   UNL     1       3.422  -9.756 -17.423  1.00  0.00    -0.000 C 
BRANCH  15  16
ATOM     16  C   UNL     1       2.452  -8.714 -16.844  1.00  0.00    -0.000 C 
BRANCH  16  17
ATOM     17  C   UNL     1       3.064  -7.919 -15.681  1.00  0.00    -0.000 C 
BRANCH  17  18
ATOM     18  C   UNL     1       3.780  -8.853 -14.694  1.00  0.00    -0.000 C 
BRANCH  18  19
ATOM     19  C   UNL     1       3.767  -8.315 -13.255  1.00  0.00    -0.003 C 
ATOM     20  C   UNL     1       3.420  -6.828 -13.183  1.00  0.00     0.004 C 
ENDBRANCH  18  19
ENDBRANCH  17  18
ENDBRANCH  16  17
ENDBRANCH  15  16
ENDBRANCH  14  15
ENDBRANCH  13  14
ENDBRANCH  12  13
ENDBRANCH   1  12
TORSDOF 16
ENDMDL
MODEL 5
REMARK VINA RESULT:    -1.511      4.449      9.611
REMARK INTER + INTRA:          -3.993
REMARK INTER:                  -2.944
REMARK INTRA:                  -1.049
REMARK UNBOUND:                -1.069
REMARK SMILES CCCCCCCCCCCCCCCCCC(=O)[O-]
REMARK SMILES IDX 10 1 11 2 12 3 13 4 14 5 15 6 16 7 17 8 18 9 19 10 20 11
REMARK SMILES IDX 9 12 8 13 7 14 6 15 5 16 4 17 3 18 2 19 1 20
REMARK H PARENT
REMARK Flexibility Score: inf
ROOT
ATOM      1  C   UNL     1       0.565 -15.664 -18.694  1.00  0.00     0.000 C 
ENDROOT
BRANCH   1   2
ATOM      2  C   UNL     1      -0.934 -15.833 -18.373  1.00  0.00     0.000 C 
BRANCH   2   3
ATOM      3  C   UNL     1      -1.875 -15.743 -19.591  1.00  0.00     0.000 C 
BRANCH   3   4
ATOM      4  C   UNL     1      -2.124 -17.080 -20.317  1.00  0.00     0.000 C 
BRANCH   4   5
ATOM      5  C   UNL     1      -1.798 -18.341 -19.492  1.00  0.00     0.000 C 
BRANCH   5   6
ATOM      6  C   UNL     1      -0.631 -19.189 -20.031  1.00  0.00     0.000 C 
BRANCH   6   7
ATOM      7  C   UNL     1       0.089 -19.985 -18.928  1.00  0.00     0.006 C 
BRANCH   7   8
ATOM      8  C   UNL     1      -0.743 -20.075 -17.642  1.00  0.00     0.053 C 
BRANCH   8   9
ATOM      9  C   UNL     1       0.108 -19.945 -16.416  1.00  0.00     0.041 C 
ATOM     10  O   UNL     1       1.338 -19.699 -16.522  1.00  0.00    -0.550 OA
ATOM     11  O   UNL     1      -0.452 -20.125 -15.157  1.00  0.00    -0.550 OA
ENDBRANCH   8   9
ENDBRANCH   7   8
ENDBRANCH   6   7
ENDBRANCH   5   6
ENDBRANCH   4   5
ENDBRANCH   3   4
ENDBRANCH   2   3
ENDBRANCH   1   2
BRANCH   1  12
ATOM     12  C   UNL     1       1.268 -14.527 -17.932  1.00  0.00     0.000 C 
BRANCH  12  13
ATOM     13  C   UNL     1       2.336 -13.812 -18.780  1.00  0.00    -0.000 C 
BRANCH  13  14
ATOM     14  C   UNL     1       1.990 -12.338 -19.041  1.00  0.00    -0.000 C 
BRANCH  14  15
ATOM     15  C   UNL     1       2.908 -11.373 -18.270  1.00  0.00    -0.000 C 
BRANCH  15  16
ATOM     16  C   UNL     1       3.159 -10.062 -19.032  1.00  0.00    -0.000 C 
BRANCH  16  17
ATOM     17  C   UNL     1       4.460 -10.093 -19.847  1.00  0.00    -0.000 C 
BRANCH  17  18
ATOM     18  C   UNL     1       5.376 -11.233 -19.377  1.00  0.00    -0.000 C 
BRANCH  18  19
ATOM     19  C   UNL     1       6.864 -10.936 -19.622  1.00  0.00    -0.003 C 
ATOM     20  C   UNL     1       7.189 -10.721 -21.100  1.00  0.00     0.004 C 
ENDBRANCH  18  19
ENDBRANCH  17  18
ENDBRANCH  16  17
ENDBRANCH  15  16
ENDBRANCH  14  15
ENDBRANCH  13  14
ENDBRANCH  12  13
ENDBRANCH   1  12
TORSDOF 16
ENDMDL
MODEL 6
REMARK VINA RESULT:    -1.269      4.142      9.974
REMARK INTER + INTRA:          -3.524
REMARK INTER:                  -3.002
REMARK INTRA:                  -0.522
REMARK UNBOUND:                -1.069
REMARK SMILES CCCCCCCCCCCCCCCCCC(=O)[O-]
REMARK SMILES IDX 10 1 11 2 12 3 13 4 14 5 15 6 16 7 17 8 18 9 19 10 20 11
REMARK SMILES IDX 9 12 8 13 7 14 6 15 5 16 4 17 3 18 2 19 1 20
REMARK H PARENT
REMARK Flexibility Score: inf
ROOT
ATOM      1  C   UNL     1       2.402 -12.631 -19.103  1.00  0.00     0.000 C 
ENDROOT
BRANCH   1   2
ATOM      2  C   UNL     1       2.371 -14.079 -18.575  1.00  0.00     0.000 C 
BRANCH   2   3
ATOM      3  C   UNL     1       1.042 -14.506 -17.919  1.00  0.00     0.000 C 
BRANCH   3   4
ATOM      4  C   UNL     1       0.494 -15.867 -18.392  1.00  0.00     0.000 C 
BRANCH   4   5
ATOM      5  C   UNL     1      -1.043 -15.968 -18.445  1.00  0.00     0.000 C 
BRANCH   5   6
ATOM      6  C   UNL     1      -1.620 -16.429 -19.795  1.00  0.00     0.000 C 
BRANCH   6   7
ATOM      7  C   UNL     1      -1.578 -17.956 -19.975  1.00  0.00     0.006 C 
BRANCH   7   8
ATOM      8  C   UNL     1      -1.244 -18.684 -18.666  1.00  0.00     0.053 C 
BRANCH   8   9
ATOM      9  C   UNL     1       0.023 -19.475 -18.775  1.00  0.00     0.041 C 
ATOM     10  O   UNL     1       0.276 -20.125 -19.823  1.00  0.00    -0.550 OA
ATOM     11  O   UNL     1       0.911 -19.518 -17.707  1.00  0.00    -0.550 OA
ENDBRANCH   8   9
ENDBRANCH   7   8
ENDBRANCH   6   7
ENDBRANCH   5   6
ENDBRANCH   4   5
ENDBRANCH   3   4
ENDBRANCH   2   3
ENDBRANCH   1   2
BRANCH   1  12
ATOM     12  C   UNL     1       3.720 -11.876 -18.854  1.00  0.00     0.000 C 
BRANCH  12  13
ATOM     13  C   UNL     1       3.532 -10.349 -18.803  1.00  0.00    -0.000 C 
BRANCH  13  14
ATOM     14  C   UNL     1       2.451  -9.924 -17.798  1.00  0.00    -0.000 C 
BRANCH  14  15
ATOM     15  C   UNL     1       2.749  -8.557 -17.155  1.00  0.00    -0.000 C 
BRANCH  15  16
ATOM     16  C   UNL     1       3.213  -8.680 -15.695  1.00  0.00    -0.000 C 
BRANCH  16  17
ATOM     17  C   UNL     1       3.182  -7.337 -14.951  1.00  0.00    -0.000 C 
BRANCH  17  18
ATOM     18  C   UNL     1       3.678  -7.498 -13.506  1.00  0.00    -0.000 C 
BRANCH  18  19
ATOM     19  C   UNL     1       3.722  -8.967 -13.056  1.00  0.00    -0.003 C 
ATOM     20  C   UNL     1       5.144  -9.460 -12.785  1.00  0.00     0.004 C 
ENDBRANCH  18  19
ENDBRANCH  17  18
ENDBRANCH  16  17
ENDBRANCH  15  16
ENDBRANCH  14  15
ENDBRANCH  13  14
ENDBRANCH  12  13
ENDBRANCH   1  12
TORSDOF 16
ENDMDL
MODEL 7
REMARK VINA RESULT:    -1.147      1.015      1.539
REMARK INTER + INTRA:          -3.288
REMARK INTER:                  -2.676
REMARK INTRA:                  -0.612
REMARK UNBOUND:                -1.069
REMARK SMILES CCCCCCCCCCCCCCCCCC(=O)[O-]
REMARK SMILES IDX 10 1 11 2 12 3 13 4 14 5 15 6 16 7 17 8 18 9 19 10 20 11
REMARK SMILES IDX 9 12 8 13 7 14 6 15 5 16 4 17 3 18 2 19 1 20
REMARK H PARENT
REMARK Flexibility Score: inf
ROOT
ATOM      1  C   UNL     1       2.646 -13.616 -18.324  1.00  0.00     0.000 C 
ENDROOT
BRANCH   1   2
ATOM      2  C   UNL     1       3.228 -12.363 -19.009  1.00  0.00     0.000 C 
BRANCH   2   3
ATOM      3  C   UNL     1       2.398 -11.077 -18.830  1.00  0.00     0.000 C 
BRANCH   3   4
ATOM      4  C   UNL     1       3.188  -9.866 -18.295  1.00  0.00     0.000 C 
BRANCH   4   5
ATOM      5  C   UNL     1       2.514  -9.110 -17.132  1.00  0.00     0.000 C 
BRANCH   5   6
ATOM      6  C   UNL     1       3.393  -8.917 -15.883  1.00  0.00     0.000 C 
BRANCH   6   7
ATOM      7  C   UNL     1       3.102  -7.599 -15.145  1.00  0.00     0.006 C 
BRANCH   7   8
ATOM      8  C   UNL     1       3.803  -7.533 -13.781  1.00  0.00     0.053 C 
BRANCH   8   9
ATOM      9  C   UNL     1       3.864  -8.875 -13.119  1.00  0.00     0.041 C 
ATOM     10  O   UNL     1       2.807  -9.437 -12.728  1.00  0.00    -0.550 OA
ATOM     11  O   UNL     1       5.091  -9.492 -12.906  1.00  0.00    -0.550 OA
ENDBRANCH   8   9
ENDBRANCH   7   8
ENDBRANCH   6   7
ENDBRANCH   5   6
ENDBRANCH   4   5
ENDBRANCH   3   4
ENDBRANCH   2   3
ENDBRANCH   1   2
BRANCH   1  12
ATOM     12  C   UNL     1       1.209 -13.977 -18.742  1.00  0.00     0.000 C 
BRANCH  12  13
ATOM     13  C   UNL     1       0.764 -15.353 -18.217  1.00  0.00    -0.000 C 
BRANCH  13  14
ATOM     14  C   UNL     1      -0.744 -15.589 -18.392  1.00  0.00    -0.000 C 
BRANCH  14  15
ATOM     15  C   UNL     1      -1.050 -16.790 -19.305  1.00  0.00    -0.000 C 
BRANCH  15  16
ATOM     16  C   UNL     1      -1.553 -18.013 -18.524  1.00  0.00    -0.000 C 
BRANCH  16  17
ATOM     17  C   UNL     1      -0.619 -19.225 -18.660  1.00  0.00    -0.000 C 
BRANCH  17  18
ATOM     18  C   UNL     1       0.817 -18.861 -18.251  1.00  0.00    -0.000 C 
BRANCH  18  19
ATOM     19  C   UNL     1       1.415 -19.854 -17.242  1.00  0.00    -0.003 C 
ATOM     20  C   UNL     1       0.498 -20.105 -16.045  1.00  0.00     0.004 C 
ENDBRANCH  18  19
ENDBRANCH  17  18
ENDBRANCH  16  17
ENDBRANCH  15  16
ENDBRANCH  14  15
ENDBRANCH  13  14
ENDBRANCH  12  13
ENDBRANCH   1  12
TORSDOF 16
ENDMDL
MODEL 8
REMARK VINA RESULT:    -1.074      1.630      2.884
REMARK INTER + INTRA:          -3.148
REMARK INTER:                  -2.408
REMARK INTRA:                  -0.740
REMARK UNBOUND:                -1.069
REMARK SMILES CCCCCCCCCCCCCCCCCC(=O)[O-]
REMARK SMILES IDX 10 1 11 2 12 3 13 4 14 5 15 6 16 7 17 8 18 9 19 10 20 11
REMARK SMILES IDX 9 12 8 13 7 14 6 15 5 16 4 17 3 18 2 19 1 20
REMARK H PARENT
REMARK Flexibility Score: inf
ROOT
ATOM      1  C   UNL     1       0.422 -15.898 -18.049  1.00  0.00     0.000 C 
ENDROOT
BRANCH   1   2
ATOM      2  C   UNL     1       1.566 -14.871 -17.930  1.00  0.00     0.000 C 
BRANCH   2   3
ATOM      3  C   UNL     1       1.674 -13.878 -19.104  1.00  0.00     0.000 C 
BRANCH   3   4
ATOM      4  C   UNL     1       2.395 -12.557 -18.770  1.00  0.00     0.000 C 
BRANCH   4   5
ATOM      5  C   UNL     1       3.921 -12.573 -18.987  1.00  0.00     0.000 C 
BRANCH   5   6
ATOM      6  C   UNL     1       4.530 -11.236 -19.447  1.00  0.00     0.000 C 
BRANCH   6   7
ATOM      7  C   UNL     1       3.673 -10.021 -19.050  1.00  0.00     0.006 C 
BRANCH   7   8
ATOM      8  C   UNL     1       3.764  -9.713 -17.550  1.00  0.00     0.053 C 
BRANCH   8   9
ATOM      9  C   UNL     1       2.595  -8.907 -17.073  1.00  0.00     0.041 C 
ATOM     10  O   UNL     1       2.764  -7.982 -16.235  1.00  0.00    -0.550 OA
ATOM     11  O   UNL     1       1.316  -9.195 -17.532  1.00  0.00    -0.550 OA
ENDBRANCH   8   9
ENDBRANCH   7   8
ENDBRANCH   6   7
ENDBRANCH   5   6
ENDBRANCH   4   5
ENDBRANCH   3   4
ENDBRANCH   2   3
ENDBRANCH   1   2
BRANCH   1  12
ATOM     12  C   UNL     1      -0.940 -15.310 -18.455  1.00  0.00     0.000 C 
BRANCH  12  13
ATOM     13  C   UNL     1      -1.716 -16.217 -19.427  1.00  0.00    -0.000 C 
BRANCH  13  14
ATOM     14  C   UNL     1      -2.045 -17.588 -18.814  1.00  0.00    -0.000 C 
BRANCH  14  15
ATOM     15  C   UNL     1      -2.120 -18.703 -19.873  1.00  0.00    -0.000 C 
BRANCH  15  16
ATOM     16  C   UNL     1      -0.925 -19.666 -19.801  1.00  0.00    -0.000 C 
BRANCH  16  17
ATOM     17  C   UNL     1      -0.446 -19.906 -18.362  1.00  0.00    -0.000 C 
BRANCH  17  18
ATOM     18  C   UNL     1       0.829 -19.101 -18.067  1.00  0.00    -0.000 C 
BRANCH  18  19
ATOM     19  C   UNL     1       1.551 -19.581 -16.797  1.00  0.00    -0.003 C 
ATOM     20  C   UNL     1       0.589 -20.125 -15.740  1.00  0.00     0.004 C 
ENDBRANCH  18  19
ENDBRANCH  17  18
ENDBRANCH  16  17
ENDBRANCH  15  16
ENDBRANCH  14  15
ENDBRANCH  13  14
ENDBRANCH  12  13
ENDBRANCH   1  12
TORSDOF 16
ENDMDL
