MODEL 1
REMARK VINA RESULT:    -3.690      0.000      0.000
REMARK INTER + INTRA:          -6.272
REMARK INTER:                  -5.631
REMARK INTRA:                  -0.641
REMARK UNBOUND:                -0.641
REMARK SMILES CCCCCCCCCC=CC(=O)[O-]
REMARK SMILES IDX 7 1 8 2 9 3 10 4 11 5 12 6 13 7 14 8 6 9 5 10 4 11 3 12 2 13
REMARK SMILES IDX 1 14
REMARK H PARENT
REMARK Flexibility Score: inf
ROOT
ATOM      1  C   UNL     1      -4.156  -7.308  28.998  1.00  0.00     0.000 C 
ENDROOT
BRANCH   1   2
ATOM      2  C   UNL     1      -3.922  -8.038  30.335  1.00  0.00     0.004 C 
BRANCH   2   3
ATOM      3  C   UNL     1      -2.647  -7.601  31.077  1.00  0.00     0.027 C 
BRANCH   3   4
ATOM      4  C   UNL     1      -2.044  -6.349  30.495  1.00  0.00    -0.025 C 
ATOM      5  C   UNL     1      -1.748  -5.247  31.200  1.00  0.00     0.020 C 
BRANCH   5   6
ATOM      6  C   UNL     1      -1.963  -5.059  32.650  1.00  0.00     0.064 C 
ATOM      7  O   UNL     1      -1.079  -5.453  33.454  1.00  0.00    -0.545 OA
ATOM      8  O   UNL     1      -3.106  -4.452  33.155  1.00  0.00    -0.545 OA
ENDBRANCH   5   6
ENDBRANCH   3   4
ENDBRANCH   2   3
ENDBRANCH   1   2
BRANCH   1   9
ATOM      9  C   UNL     1      -4.262  -8.223  27.762  1.00  0.00     0.000 C 
BRANCH   9  10
ATOM     10  C   UNL     1      -4.210  -9.730  28.095  1.00  0.00     0.000 C 
BRANCH  10  11
ATOM     11  C   UNL     1      -4.387 -10.609  26.844  1.00  0.00    -0.000 C 
BRANCH  11  12
ATOM     12  C   UNL     1      -3.046 -11.020  26.217  1.00  0.00    -0.000 C 
BRANCH  12  13
ATOM     13  C   UNL     1      -3.099 -11.052  24.682  1.00  0.00    -0.003 C 
ATOM     14  C   UNL     1      -2.546  -9.760  24.088  1.00  0.00     0.004 C 
ENDBRANCH  12  13
ENDBRANCH  11  12
ENDBRANCH  10  11
ENDBRANCH   9  10
ENDBRANCH   1   9
TORSDOF 9
ENDMDL
MODEL 2
REMARK VINA RESULT:    -3.686      4.804      9.960
REMARK INTER + INTRA:          -6.266
REMARK INTER:                  -5.664
REMARK INTRA:                  -0.602
REMARK UNBOUND:                -0.641
REMARK SMILES CCCCCCCCCC=CC(=O)[O-]
REMARK SMILES IDX 7 1 8 2 9 3 10 4 11 5 12 6 13 7 14 8 6 9 5 10 4 11 3 12 2 13
REMARK SMILES IDX 1 14
REMARK H PARENT
REMARK Flexibility Score: inf
ROOT
ATOM      1  C   UNL     1      -4.379  -2.032  33.444  1.00  0.00     0.000 C 
ENDROOT
BRANCH   1   2
ATOM      2  C   UNL     1      -3.129  -2.824  33.012  1.00  0.00     0.004 C 
BRANCH   2   3
ATOM      3  C   UNL     1      -3.329  -4.349  32.978  1.00  0.00     0.027 C 
BRANCH   3   4
ATOM      4  C   UNL     1      -2.036  -5.103  33.155  1.00  0.00    -0.025 C 
ATOM      5  C   UNL     1      -1.376  -5.725  32.167  1.00  0.00     0.020 C 
BRANCH   5   6
ATOM      6  C   UNL     1      -1.794  -5.793  30.750  1.00  0.00     0.064 C 
ATOM      7  O   UNL     1      -2.337  -6.846  30.325  1.00  0.00    -0.545 OA
ATOM      8  O   UNL     1      -1.617  -4.730  29.876  1.00  0.00    -0.545 OA
ENDBRANCH   5   6
ENDBRANCH   3   4
ENDBRANCH   2   3
ENDBRANCH   1   2
BRANCH   1   9
ATOM      9  C   UNL     1      -4.131  -0.546  33.773  1.00  0.00     0.000 C 
BRANCH   9  10
ATOM     10  C   UNL     1      -2.679  -0.234  34.193  1.00  0.00     0.000 C 
BRANCH  10  11
ATOM     11  C   UNL     1      -2.584   0.234  35.656  1.00  0.00    -0.000 C 
BRANCH  11  12
ATOM     12  C   UNL     1      -3.964   0.407  36.311  1.00  0.00    -0.000 C 
BRANCH  12  13
ATOM     13  C   UNL     1      -3.915   0.238  37.837  1.00  0.00    -0.003 C 
ATOM     14  C   UNL     1      -5.089  -0.601  38.334  1.00  0.00     0.004 C 
ENDBRANCH  12  13
ENDBRANCH  11  12
ENDBRANCH  10  11
ENDBRANCH   9  10
ENDBRANCH   1   9
TORSDOF 9
ENDMDL
MODEL 3
REMARK VINA RESULT:    -3.677     15.016     16.544
REMARK INTER + INTRA:          -6.253
REMARK INTER:                  -4.949
REMARK INTRA:                  -1.303
REMARK UNBOUND:                -0.641
REMARK SMILES CCCCCCCCCC=CC(=O)[O-]
REMARK SMILES IDX 7 1 8 2 9 3 10 4 11 5 12 6 13 7 14 8 6 9 5 10 4 11 3 12 2 13
REMARK SMILES IDX 1 14
REMARK H PARENT
REMARK Flexibility Score: inf
ROOT
ATOM      1  C   UNL     1      -9.381   5.606  28.642  1.00  0.00     0.000 C 
ENDROOT
BRANCH   1   2
ATOM      2  C   UNL     1      -9.678   4.981  30.019  1.00  0.00     0.004 C 
BRANCH   2   3
ATOM      3  C   UNL     1     -11.098   4.404  30.158  1.00  0.00     0.027 C 
BRANCH   3   4
ATOM      4  C   UNL     1     -12.075   5.410  30.710  1.00  0.00    -0.025 C 
ATOM      5  C   UNL     1     -12.329   5.587  32.016  1.00  0.00     0.020 C 
BRANCH   5   6
ATOM      6  C   UNL     1     -11.715   4.835  33.131  1.00  0.00     0.064 C 
ATOM      7  O   UNL     1     -12.132   3.675  33.386  1.00  0.00    -0.545 OA
ATOM      8  O   UNL     1     -10.687   5.363  33.900  1.00  0.00    -0.545 OA
ENDBRANCH   5   6
ENDBRANCH   3   4
ENDBRANCH   2   3
ENDBRANCH   1   2
BRANCH   1   9
ATOM      9  C   UNL     1      -8.711   6.993  28.684  1.00  0.00     0.000 C 
BRANCH   9  10
ATOM     10  C   UNL     1      -9.570   8.121  28.072  1.00  0.00     0.000 C 
BRANCH  10  11
ATOM     11  C   UNL     1     -11.041   8.037  28.515  1.00  0.00    -0.000 C 
BRANCH  11  12
ATOM     12  C   UNL     1     -12.014   8.005  27.326  1.00  0.00    -0.000 C 
BRANCH  12  13
ATOM     13  C   UNL     1     -12.892   6.744  27.319  1.00  0.00    -0.003 C 
ATOM     14  C   UNL     1     -12.313   5.678  26.394  1.00  0.00     0.004 C 
ENDBRANCH  12  13
ENDBRANCH  11  12
ENDBRANCH  10  11
ENDBRANCH   9  10
ENDBRANCH   1   9
TORSDOF 9
ENDMDL
MODEL 4
REMARK VINA RESULT:    -3.642      4.163      7.547
REMARK INTER + INTRA:          -6.199
REMARK INTER:                  -5.704
REMARK INTRA:                  -0.495
REMARK UNBOUND:                -0.641
REMARK SMILES CCCCCCCCCC=CC(=O)[O-]
REMARK SMILES IDX 7 1 8 2 9 3 10 4 11 5 12 6 13 7 14 8 6 9 5 10 4 11 3 12 2 13
REMARK SMILES IDX 1 14
REMARK H PARENT
REMARK Flexibility Score: inf
ROOT
ATOM      1  C   UNL     1      -4.249  -9.267  30.027  1.00  0.00     0.000 C 
ENDROOT
BRANCH   1   2
ATOM      2  C   UNL     1      -5.019  -9.616  28.738  1.00  0.00     0.004 C 
BRANCH   2   3
ATOM      3  C   UNL     1      -4.185  -9.489  27.451  1.00  0.00     0.027 C 
BRANCH   3   4
ATOM      4  C   UNL     1      -3.311 -10.693  27.213  1.00  0.00    -0.025 C 
ATOM      5  C   UNL     1      -2.953 -11.147  26.002  1.00  0.00     0.020 C 
BRANCH   5   6
ATOM      6  C   UNL     1      -3.352 -10.566  24.703  1.00  0.00     0.064 C 
ATOM      7  O   UNL     1      -2.609  -9.702  24.168  1.00  0.00    -0.545 OA
ATOM      8  O   UNL     1      -4.514 -10.949  24.048  1.00  0.00    -0.545 OA
ENDBRANCH   5   6
ENDBRANCH   3   4
ENDBRANCH   2   3
ENDBRANCH   1   2
BRANCH   1   9
ATOM      9  C   UNL     1      -3.683  -7.834  30.083  1.00  0.00     0.000 C 
BRANCH   9  10
ATOM     10  C   UNL     1      -2.578  -7.640  31.143  1.00  0.00     0.000 C 
BRANCH  10  11
ATOM     11  C   UNL     1      -1.669  -6.440  30.824  1.00  0.00    -0.000 C 
BRANCH  11  12
ATOM     12  C   UNL     1      -1.160  -5.733  32.090  1.00  0.00    -0.000 C 
BRANCH  12  13
ATOM     13  C   UNL     1      -2.296  -5.378  33.062  1.00  0.00    -0.003 C 
ATOM     14  C   UNL     1      -2.733  -3.926  32.889  1.00  0.00     0.004 C 
ENDBRANCH  12  13
ENDBRANCH  11  12
ENDBRANCH  10  11
ENDBRANCH   9  10
ENDBRANCH   1   9
TORSDOF 9
ENDMDL
MODEL 5
REMARK VINA RESULT:    -3.641     15.243     16.557
REMARK INTER + INTRA:          -6.198
REMARK INTER:                  -4.834
REMARK INTRA:                  -1.364
REMARK UNBOUND:                -0.641
REMARK SMILES CCCCCCCCCC=CC(=O)[O-]
REMARK SMILES IDX 7 1 8 2 9 3 10 4 11 5 12 6 13 7 14 8 6 9 5 10 4 11 3 12 2 13
REMARK SMILES IDX 1 14
REMARK H PARENT
REMARK Flexibility Score: inf
ROOT
ATOM      1  C   UNL     1     -10.320   5.458  35.103  1.00  0.00     0.000 C 
ENDROOT
BRANCH   1   2
ATOM      2  C   UNL     1      -9.626   4.694  33.958  1.00  0.00     0.004 C 
BRANCH   2   3
ATOM      3  C   UNL     1     -10.496   4.519  32.700  1.00  0.00     0.027 C 
BRANCH   3   4
ATOM      4  C   UNL     1     -11.859   5.145  32.852  1.00  0.00    -0.025 C 
ATOM      5  C   UNL     1     -12.607   5.596  31.835  1.00  0.00     0.020 C 
BRANCH   5   6
ATOM      6  C   UNL     1     -12.236   5.571  30.404  1.00  0.00     0.064 C 
ATOM      7  O   UNL     1     -12.008   6.659  29.815  1.00  0.00    -0.545 OA
ATOM      8  O   UNL     1     -12.120   4.385  29.692  1.00  0.00    -0.545 OA
ENDBRANCH   5   6
ENDBRANCH   3   4
ENDBRANCH   2   3
ENDBRANCH   1   2
BRANCH   1   9
ATOM      9  C   UNL     1     -10.041   4.911  36.518  1.00  0.00     0.000 C 
BRANCH   9  10
ATOM     10  C   UNL     1     -10.627   3.506  36.770  1.00  0.00     0.000 C 
BRANCH  10  11
ATOM     11  C   UNL     1     -12.134   3.551  37.082  1.00  0.00    -0.000 C 
BRANCH  11  12
ATOM     12  C   UNL     1     -12.998   3.153  35.876  1.00  0.00    -0.000 C 
BRANCH  12  13
ATOM     13  C   UNL     1     -12.316   2.102  34.986  1.00  0.00    -0.003 C 
ATOM     14  C   UNL     1     -13.197   1.737  33.795  1.00  0.00     0.004 C 
ENDBRANCH  12  13
ENDBRANCH  11  12
ENDBRANCH  10  11
ENDBRANCH   9  10
ENDBRANCH   1   9
TORSDOF 9
ENDMDL
MODEL 6
REMARK VINA RESULT:    -3.572      5.456     10.362
REMARK INTER + INTRA:          -6.093
REMARK INTER:                  -5.362
REMARK INTRA:                  -0.730
REMARK UNBOUND:                -0.641
REMARK SMILES CCCCCCCCCC=CC(=O)[O-]
REMARK SMILES IDX 7 1 8 2 9 3 10 4 11 5 12 6 13 7 14 8 6 9 5 10 4 11 3 12 2 13
REMARK SMILES IDX 1 14
REMARK H PARENT
REMARK Flexibility Score: inf
ROOT
ATOM      1  C   UNL     1      -3.083  -1.053  33.737  1.00  0.00     0.000 C 
ENDROOT
BRANCH   1   2
ATOM      2  C   UNL     1      -4.327  -1.955  33.604  1.00  0.00     0.004 C 
BRANCH   2   3
ATOM      3  C   UNL     1      -4.024  -3.376  33.098  1.00  0.00     0.027 C 
BRANCH   3   4
ATOM      4  C   UNL     1      -3.283  -3.373  31.786  1.00  0.00    -0.025 C 
ATOM      5  C   UNL     1      -2.410  -4.316  31.401  1.00  0.00     0.020 C 
BRANCH   5   6
ATOM      6  C   UNL     1      -2.015  -5.506  32.184  1.00  0.00     0.064 C 
ATOM      7  O   UNL     1      -2.394  -6.643  31.798  1.00  0.00    -0.545 OA
ATOM      8  O   UNL     1      -1.232  -5.412  33.326  1.00  0.00    -0.545 OA
ENDBRANCH   5   6
ENDBRANCH   3   4
ENDBRANCH   2   3
ENDBRANCH   1   2
BRANCH   1   9
ATOM      9  C   UNL     1      -3.355   0.359  34.293  1.00  0.00     0.000 C 
BRANCH   9  10
ATOM     10  C   UNL     1      -2.582   0.678  35.591  1.00  0.00     0.000 C 
BRANCH  10  11
ATOM     11  C   UNL     1      -3.511   1.162  36.718  1.00  0.00    -0.000 C 
BRANCH  11  12
ATOM     12  C   UNL     1      -3.600   0.162  37.880  1.00  0.00    -0.000 C 
BRANCH  12  13
ATOM     13  C   UNL     1      -5.050  -0.217  38.220  1.00  0.00    -0.003 C 
ATOM     14  C   UNL     1      -5.765  -0.798  37.004  1.00  0.00     0.004 C 
ENDBRANCH  12  13
ENDBRANCH  11  12
ENDBRANCH  10  11
ENDBRANCH   9  10
ENDBRANCH   1   9
TORSDOF 9
ENDMDL
MODEL 7
REMARK VINA RESULT:    -3.543     12.108     15.146
REMARK INTER + INTRA:          -6.047
REMARK INTER:                  -5.201
REMARK INTRA:                  -0.847
REMARK UNBOUND:                -0.641
REMARK SMILES CCCCCCCCCC=CC(=O)[O-]
REMARK SMILES IDX 7 1 8 2 9 3 10 4 11 5 12 6 13 7 14 8 6 9 5 10 4 11 3 12 2 13
REMARK SMILES IDX 1 14
REMARK H PARENT
REMARK Flexibility Score: inf
ROOT
ATOM      1  C   UNL     1      -6.823   2.480  39.668  1.00  0.00     0.000 C 
ENDROOT
BRANCH   1   2
ATOM      2  C   UNL     1      -5.425   3.079  39.419  1.00  0.00     0.004 C 
BRANCH   2   3
ATOM      3  C   UNL     1      -4.788   2.659  38.083  1.00  0.00     0.027 C 
BRANCH   3   4
ATOM      4  C   UNL     1      -3.609   1.739  38.272  1.00  0.00    -0.025 C 
ATOM      5  C   UNL     1      -3.660   0.403  38.160  1.00  0.00     0.020 C 
BRANCH   5   6
ATOM      6  C   UNL     1      -4.862  -0.397  37.845  1.00  0.00     0.064 C 
ATOM      7  O   UNL     1      -5.542  -0.875  38.791  1.00  0.00    -0.545 OA
ATOM      8  O   UNL     1      -5.272  -0.632  36.539  1.00  0.00    -0.545 OA
ENDBRANCH   5   6
ENDBRANCH   3   4
ENDBRANCH   2   3
ENDBRANCH   1   2
BRANCH   1   9
ATOM      9  C   UNL     1      -7.976   3.502  39.706  1.00  0.00     0.000 C 
BRANCH   9  10
ATOM     10  C   UNL     1      -7.665   4.822  38.970  1.00  0.00     0.000 C 
BRANCH  10  11
ATOM     11  C   UNL     1      -8.288   4.866  37.563  1.00  0.00    -0.000 C 
BRANCH  11  12
ATOM     12  C   UNL     1      -9.411   3.832  37.384  1.00  0.00    -0.000 C 
BRANCH  12  13
ATOM     13  C   UNL     1     -10.530   4.333  36.459  1.00  0.00    -0.003 C 
ATOM     14  C   UNL     1     -10.184   5.698  35.870  1.00  0.00     0.004 C 
ENDBRANCH  12  13
ENDBRANCH  11  12
ENDBRANCH  10  11
ENDBRANCH   9  10
ENDBRANCH   1   9
TORSDOF 9
ENDMDL
MODEL 8
REMARK VINA RESULT:    -3.501     11.705     14.041
REMARK INTER + INTRA:          -5.984
REMARK INTER:                  -4.346
REMARK INTRA:                  -1.638
REMARK UNBOUND:                -0.641
REMARK SMILES CCCCCCCCCC=CC(=O)[O-]
REMARK SMILES IDX 7 1 8 2 9 3 10 4 11 5 12 6 13 7 14 8 6 9 5 10 4 11 3 12 2 13
REMARK SMILES IDX 1 14
REMARK H PARENT
REMARK Flexibility Score: inf
ROOT
ATOM      1  C   UNL     1      -3.644   0.613  37.684  1.00  0.00     0.000 C 
ENDROOT
BRANCH   1   2
ATOM      2  C   UNL     1      -4.610   0.088  36.603  1.00  0.00     0.004 C 
BRANCH   2   3
ATOM      3  C   UNL     1      -5.783  -0.741  37.155  1.00  0.00     0.027 C 
BRANCH   3   4
ATOM      4  C   UNL     1      -5.762  -0.836  38.659  1.00  0.00    -0.025 C 
ATOM      5  C   UNL     1      -6.751  -1.353  39.404  1.00  0.00     0.020 C 
BRANCH   5   6
ATOM      6  C   UNL     1      -8.024  -1.907  38.895  1.00  0.00     0.064 C 
ATOM      7  O   UNL     1      -9.063  -1.200  38.955  1.00  0.00    -0.545 OA
ATOM      8  O   UNL     1      -8.108  -3.179  38.344  1.00  0.00    -0.545 OA
ENDBRANCH   5   6
ENDBRANCH   3   4
ENDBRANCH   2   3
ENDBRANCH   1   2
BRANCH   1   9
ATOM      9  C   UNL     1      -3.515   2.148  37.756  1.00  0.00     0.000 C 
BRANCH   9  10
ATOM     10  C   UNL     1      -3.889   2.742  39.130  1.00  0.00     0.000 C 
BRANCH  10  11
ATOM     11  C   UNL     1      -5.412   2.857  39.319  1.00  0.00    -0.000 C 
BRANCH  11  12
ATOM     12  C   UNL     1      -6.132   3.324  38.044  1.00  0.00    -0.000 C 
BRANCH  12  13
ATOM     13  C   UNL     1      -7.416   2.527  37.769  1.00  0.00    -0.003 C 
ATOM     14  C   UNL     1      -8.163   2.226  39.065  1.00  0.00     0.004 C 
ENDBRANCH  12  13
ENDBRANCH  11  12
ENDBRANCH  10  11
ENDBRANCH   9  10
ENDBRANCH   1   9
TORSDOF 9
ENDMDL
MODEL 9
REMARK VINA RESULT:    -3.497      3.656      6.046
REMARK INTER + INTRA:          -5.978
REMARK INTER:                  -4.305
REMARK INTRA:                  -1.673
REMARK UNBOUND:                -0.641
REMARK SMILES CCCCCCCCCC=CC(=O)[O-]
REMARK SMILES IDX 7 1 8 2 9 3 10 4 11 5 12 6 13 7 14 8 6 9 5 10 4 11 3 12 2 13
REMARK SMILES IDX 1 14
REMARK H PARENT
REMARK Flexibility Score: inf
ROOT
ATOM      1  C   UNL     1      -1.508  -5.372  32.776  1.00  0.00     0.000 C 
ENDROOT
BRANCH   1   2
ATOM      2  C   UNL     1      -1.327  -6.172  31.471  1.00  0.00     0.004 C 
BRANCH   2   3
ATOM      3  C   UNL     1      -2.409  -7.242  31.233  1.00  0.00     0.027 C 
BRANCH   3   4
ATOM      4  C   UNL     1      -3.031  -7.134  29.864  1.00  0.00    -0.025 C 
ATOM      5  C   UNL     1      -4.335  -7.313  29.604  1.00  0.00     0.020 C 
BRANCH   5   6
ATOM      6  C   UNL     1      -5.380  -7.652  30.593  1.00  0.00     0.064 C 
ATOM      7  O   UNL     1      -5.770  -8.845  30.683  1.00  0.00    -0.545 OA
ATOM      8  O   UNL     1      -5.939  -6.698  31.433  1.00  0.00    -0.545 OA
ENDBRANCH   5   6
ENDBRANCH   3   4
ENDBRANCH   2   3
ENDBRANCH   1   2
BRANCH   1   9
ATOM      9  C   UNL     1      -2.903  -4.747  32.972  1.00  0.00     0.000 C 
BRANCH   9  10
ATOM     10  C   UNL     1      -3.134  -3.462  32.148  1.00  0.00     0.000 C 
BRANCH  10  11
ATOM     11  C   UNL     1      -4.392  -3.553  31.268  1.00  0.00    -0.000 C 
BRANCH  11  12
ATOM     12  C   UNL     1      -4.060  -3.622  29.769  1.00  0.00    -0.000 C 
BRANCH  12  13
ATOM     13  C   UNL     1      -2.722  -2.947  29.432  1.00  0.00    -0.003 C 
ATOM     14  C   UNL     1      -1.834  -3.872  28.603  1.00  0.00     0.004 C 
ENDBRANCH  12  13
ENDBRANCH  11  12
ENDBRANCH  10  11
ENDBRANCH   9  10
ENDBRANCH   1   9
TORSDOF 9
ENDMDL
