MODEL 1
REMARK VINA RESULT:    -6.255      0.000      0.000
REMARK INTER + INTRA:          -7.648
REMARK INTER:                  -7.352
REMARK INTRA:                  -0.295
REMARK UNBOUND:                -0.295
REMARK SMILES O=c1cc(-c2ccc(O)c(O)c2)oc2cc(O)cc(O)c12
REMARK SMILES IDX 4 1 3 2 2 3 1 4 21 5 19 6 18 7 16 8 15 9 14 10 13 11 5 12
REMARK SMILES IDX 6 13 7 14 8 15 12 16 10 17 9 18 11 20 20 22 17 24
REMARK H PARENT 9 19 11 21 20 23 17 25
REMARK Flexibility Score: inf
ROOT
ATOM      1  C   UNL     1     -38.606  75.354 -26.371  1.00  0.00     0.138 A 
ATOM      2  C   UNL     1     -38.326  74.447 -27.406  1.00  0.00     0.100 A 
ATOM      3  C   UNL     1     -37.000  74.111 -27.685  1.00  0.00     0.197 A 
ATOM      4  O   UNL     1     -36.758  73.298 -28.618  1.00  0.00    -0.289 OA
ATOM      5  C   UNL     1     -35.961  74.689 -26.929  1.00  0.00     0.107 A 
ATOM      6  C   UNL     1     -34.593  74.403 -27.144  1.00  0.00     0.134 A 
ATOM      7  C   UNL     1     -33.619  75.026 -26.349  1.00  0.00     0.093 A 
ATOM      8  C   UNL     1     -33.986  75.927 -25.347  1.00  0.00     0.123 A 
ATOM      9  C   UNL     1     -35.338  76.213 -25.128  1.00  0.00     0.094 A 
ATOM     10  C   UNL     1     -36.324  75.603 -25.908  1.00  0.00     0.146 A 
ATOM     11  O   UNL     1     -37.601  75.890 -25.681  1.00  0.00    -0.456 OA
ENDROOT
BRANCH   1  12
ATOM     12  C   UNL     1     -39.996  75.749 -26.031  1.00  0.00     0.021 A 
ATOM     13  C   UNL     1     -40.269  76.713 -25.045  1.00  0.00     0.016 A 
ATOM     14  C   UNL     1     -41.587  77.072 -24.753  1.00  0.00     0.051 A 
ATOM     15  C   UNL     1     -42.656  76.488 -25.437  1.00  0.00     0.157 A 
ATOM     16  C   UNL     1     -41.071  75.172 -26.729  1.00  0.00     0.062 A 
ATOM     17  C   UNL     1     -42.395  75.526 -26.441  1.00  0.00     0.158 A 
BRANCH  15  18
ATOM     18  O   UNL     1     -43.949  76.890 -25.095  1.00  0.00    -0.504 OA
ATOM     19  H   UNL     1     -44.456  77.624 -25.568  1.00  0.00     0.293 HD
ENDBRANCH  15  18
BRANCH  17  20
ATOM     20  O   UNL     1     -43.409  74.903 -27.172  1.00  0.00    -0.504 OA
ATOM     21  H   UNL     1     -43.403  73.925 -27.424  1.00  0.00     0.293 HD
ENDBRANCH  17  20
ENDBRANCH   1  12
BRANCH   6  22
ATOM     22  O   UNL     1     -34.195  73.508 -28.138  1.00  0.00    -0.507 OA
ATOM     23  H   UNL     1     -34.833  73.194 -28.859  1.00  0.00     0.293 HD
ENDBRANCH   6  22
BRANCH   8  24
ATOM     24  O   UNL     1     -32.999  76.531 -24.571  1.00  0.00    -0.508 OA
ATOM     25  H   UNL     1     -32.040  76.204 -24.586  1.00  0.00     0.293 HD
ENDBRANCH   8  24
TORSDOF 5
ENDMDL
MODEL 2
REMARK VINA RESULT:    -5.980      1.464      7.461
REMARK INTER + INTRA:          -7.324
REMARK INTER:                  -7.029
REMARK INTRA:                  -0.295
REMARK UNBOUND:                -0.295
REMARK SMILES O=c1cc(-c2ccc(O)c(O)c2)oc2cc(O)cc(O)c12
REMARK SMILES IDX 4 1 3 2 2 3 1 4 21 5 19 6 18 7 16 8 15 9 14 10 13 11 5 12
REMARK SMILES IDX 6 13 7 14 8 15 12 16 10 17 9 18 11 20 20 22 17 24
REMARK H PARENT 9 19 11 21 20 23 17 25
REMARK Flexibility Score: inf
ROOT
ATOM      1  C   UNL     1     -37.798  75.897 -25.384  1.00  0.00     0.138 A 
ATOM      2  C   UNL     1     -38.068  76.462 -24.128  1.00  0.00     0.100 A 
ATOM      3  C   UNL     1     -39.392  76.611 -23.712  1.00  0.00     0.197 A 
ATOM      4  O   UNL     1     -39.624  77.122 -22.583  1.00  0.00    -0.289 OA
ATOM      5  C   UNL     1     -40.438  76.198 -24.559  1.00  0.00     0.107 A 
ATOM      6  C   UNL     1     -41.806  76.312 -24.216  1.00  0.00     0.134 A 
ATOM      7  C   UNL     1     -42.788  75.880 -25.120  1.00  0.00     0.093 A 
ATOM      8  C   UNL     1     -42.431  75.339 -26.357  1.00  0.00     0.123 A 
ATOM      9  C   UNL     1     -41.080  75.223 -26.702  1.00  0.00     0.094 A 
ATOM     10  C   UNL     1     -40.086  75.646 -25.816  1.00  0.00     0.146 A 
ATOM     11  O   UNL     1     -38.810  75.525 -26.166  1.00  0.00    -0.456 OA
ENDROOT
BRANCH   1  12
ATOM     12  C   UNL     1     -36.410  75.715 -25.880  1.00  0.00     0.021 A 
ATOM     13  C   UNL     1     -36.144  75.194 -27.159  1.00  0.00     0.016 A 
ATOM     14  C   UNL     1     -34.829  75.044 -27.601  1.00  0.00     0.051 A 
ATOM     15  C   UNL     1     -33.753  75.412 -26.788  1.00  0.00     0.157 A 
ATOM     16  C   UNL     1     -35.329  76.099 -25.068  1.00  0.00     0.062 A 
ATOM     17  C   UNL     1     -34.007  75.949 -25.505  1.00  0.00     0.158 A 
BRANCH  15  18
ATOM     18  O   UNL     1     -32.463  75.233 -27.290  1.00  0.00    -0.504 OA
ATOM     19  H   UNL     1     -32.260  74.905 -28.224  1.00  0.00     0.293 HD
ENDBRANCH  15  18
BRANCH  17  20
ATOM     20  O   UNL     1     -32.986  76.345 -24.637  1.00  0.00    -0.504 OA
ATOM     21  H   UNL     1     -32.517  75.722 -23.995  1.00  0.00     0.293 HD
ENDBRANCH  17  20
ENDBRANCH   1  12
BRANCH   6  22
ATOM     22  O   UNL     1     -42.195  76.849 -22.987  1.00  0.00    -0.507 OA
ATOM     23  H   UNL     1     -43.078  77.330 -22.872  1.00  0.00     0.293 HD
ENDBRANCH   6  22
BRANCH   8  24
ATOM     24  O   UNL     1     -43.426  74.918 -27.235  1.00  0.00    -0.508 OA
ATOM     25  H   UNL     1     -44.377  75.260 -27.161  1.00  0.00     0.293 HD
ENDBRANCH   8  24
TORSDOF 5
ENDMDL
MODEL 3
REMARK VINA RESULT:    -5.771      1.811      2.308
REMARK INTER + INTRA:          -7.078
REMARK INTER:                  -6.761
REMARK INTRA:                  -0.317
REMARK UNBOUND:                -0.295
REMARK SMILES O=c1cc(-c2ccc(O)c(O)c2)oc2cc(O)cc(O)c12
REMARK SMILES IDX 4 1 3 2 2 3 1 4 21 5 19 6 18 7 16 8 15 9 14 10 13 11 5 12
REMARK SMILES IDX 6 13 7 14 8 15 12 16 10 17 9 18 11 20 20 22 17 24
REMARK H PARENT 9 19 11 21 20 23 17 25
REMARK Flexibility Score: inf
ROOT
ATOM      1  C   UNL     1     -38.867  75.996 -25.707  1.00  0.00     0.138 A 
ATOM      2  C   UNL     1     -38.886  75.841 -27.103  1.00  0.00     0.100 A 
ATOM      3  C   UNL     1     -37.682  75.796 -27.806  1.00  0.00     0.197 A 
ATOM      4  O   UNL     1     -37.710  75.659 -29.059  1.00  0.00    -0.289 OA
ATOM      5  C   UNL     1     -36.463  75.912 -27.108  1.00  0.00     0.107 A 
ATOM      6  C   UNL     1     -35.200  75.875 -27.743  1.00  0.00     0.134 A 
ATOM      7  C   UNL     1     -34.032  76.002 -26.974  1.00  0.00     0.093 A 
ATOM      8  C   UNL     1     -34.105  76.165 -25.589  1.00  0.00     0.123 A 
ATOM      9  C   UNL     1     -35.351  76.201 -24.956  1.00  0.00     0.094 A 
ATOM     10  C   UNL     1     -36.526  76.076 -25.702  1.00  0.00     0.146 A 
ATOM     11  O   UNL     1     -37.699  76.112 -25.078  1.00  0.00    -0.456 OA
ENDROOT
BRANCH   1  12
ATOM     12  C   UNL     1     -40.116  76.051 -24.907  1.00  0.00     0.021 A 
ATOM     13  C   UNL     1     -41.381  76.121 -25.518  1.00  0.00     0.016 A 
ATOM     14  C   UNL     1     -42.540  76.161 -24.739  1.00  0.00     0.051 A 
ATOM     15  C   UNL     1     -42.467  76.127 -23.344  1.00  0.00     0.157 A 
ATOM     16  C   UNL     1     -40.043  76.001 -23.505  1.00  0.00     0.062 A 
ATOM     17  C   UNL     1     -41.201  76.043 -22.718  1.00  0.00     0.158 A 
BRANCH  15  18
ATOM     18  O   UNL     1     -43.663  76.173 -22.625  1.00  0.00    -0.504 OA
ATOM     19  H   UNL     1     -43.717  76.179 -21.617  1.00  0.00     0.293 HD
ENDBRANCH  15  18
BRANCH  17  20
ATOM     20  O   UNL     1     -41.047  75.999 -21.330  1.00  0.00    -0.504 OA
ATOM     21  H   UNL     1     -41.111  76.808 -20.729  1.00  0.00     0.293 HD
ENDBRANCH  17  20
ENDBRANCH   1  12
BRANCH   6  22
ATOM     22  O   UNL     1     -35.095  75.714 -29.125  1.00  0.00    -0.507 OA
ATOM     23  H   UNL     1     -34.284  76.037 -29.639  1.00  0.00     0.293 HD
ENDBRANCH   6  22
BRANCH   8  24
ATOM     24  O   UNL     1     -32.930  76.289 -24.850  1.00  0.00    -0.508 OA
ATOM     25  H   UNL     1     -32.021  76.143 -25.273  1.00  0.00     0.293 HD
ENDBRANCH   8  24
TORSDOF 5
ENDMDL
MODEL 4
REMARK VINA RESULT:    -5.749      1.918      6.966
REMARK INTER + INTRA:          -7.053
REMARK INTER:                  -6.735
REMARK INTRA:                  -0.319
REMARK UNBOUND:                -0.295
REMARK SMILES O=c1cc(-c2ccc(O)c(O)c2)oc2cc(O)cc(O)c12
REMARK SMILES IDX 4 1 3 2 2 3 1 4 21 5 19 6 18 7 16 8 15 9 14 10 13 11 5 12
REMARK SMILES IDX 6 13 7 14 8 15 12 16 10 17 9 18 11 20 20 22 17 24
REMARK H PARENT 9 19 11 21 20 23 17 25
REMARK Flexibility Score: inf
ROOT
ATOM      1  C   UNL     1     -37.157  75.919 -26.259  1.00  0.00     0.138 A 
ATOM      2  C   UNL     1     -38.143  75.535 -27.181  1.00  0.00     0.100 A 
ATOM      3  C   UNL     1     -39.485  75.546 -26.797  1.00  0.00     0.197 A 
ATOM      4  O   UNL     1     -40.363  75.197 -27.632  1.00  0.00    -0.289 OA
ATOM      5  C   UNL     1     -39.831  75.938 -25.489  1.00  0.00     0.107 A 
ATOM      6  C   UNL     1     -41.165  75.979 -25.020  1.00  0.00     0.134 A 
ATOM      7  C   UNL     1     -41.425  76.377 -23.699  1.00  0.00     0.093 A 
ATOM      8  C   UNL     1     -40.380  76.733 -22.843  1.00  0.00     0.123 A 
ATOM      9  C   UNL     1     -39.060  76.695 -23.302  1.00  0.00     0.094 A 
ATOM     10  C   UNL     1     -38.779  76.302 -24.614  1.00  0.00     0.146 A 
ATOM     11  O   UNL     1     -37.516  76.276 -25.027  1.00  0.00    -0.456 OA
ENDROOT
BRANCH   1  12
ATOM     12  C   UNL     1     -35.714  75.926 -26.611  1.00  0.00     0.021 A 
ATOM     13  C   UNL     1     -35.273  75.673 -27.922  1.00  0.00     0.016 A 
ATOM     14  C   UNL     1     -33.911  75.696 -28.225  1.00  0.00     0.051 A 
ATOM     15  C   UNL     1     -32.961  75.976 -27.238  1.00  0.00     0.157 A 
ATOM     16  C   UNL     1     -34.761  76.222 -25.622  1.00  0.00     0.062 A 
ATOM     17  C   UNL     1     -33.393  76.245 -25.919  1.00  0.00     0.158 A 
BRANCH  15  18
ATOM     18  O   UNL     1     -31.615  75.981 -27.608  1.00  0.00    -0.504 OA
ATOM     19  H   UNL     1     -31.285  76.194 -28.539  1.00  0.00     0.293 HD
ENDBRANCH  15  18
BRANCH  17  20
ATOM     20  O   UNL     1     -32.506  76.539 -24.880  1.00  0.00    -0.504 OA
ATOM     21  H   UNL     1     -31.642  76.041 -24.717  1.00  0.00     0.293 HD
ENDBRANCH  17  20
ENDBRANCH   1  12
BRANCH   6  22
ATOM     22  O   UNL     1     -42.230  75.629 -25.851  1.00  0.00    -0.507 OA
ATOM     23  H   UNL     1     -42.483  76.188 -26.657  1.00  0.00     0.293 HD
ENDBRANCH   6  22
BRANCH   8  24
ATOM     24  O   UNL     1     -40.666  77.125 -21.537  1.00  0.00    -0.508 OA
ATOM     25  H   UNL     1     -41.604  77.382 -21.255  1.00  0.00     0.293 HD
ENDBRANCH   8  24
TORSDOF 5
ENDMDL
MODEL 5
REMARK VINA RESULT:    -5.406      2.190      2.607
REMARK INTER + INTRA:          -6.650
REMARK INTER:                  -6.355
REMARK INTRA:                  -0.295
REMARK UNBOUND:                -0.295
REMARK SMILES O=c1cc(-c2ccc(O)c(O)c2)oc2cc(O)cc(O)c12
REMARK SMILES IDX 4 1 3 2 2 3 1 4 21 5 19 6 18 7 16 8 15 9 14 10 13 11 5 12
REMARK SMILES IDX 6 13 7 14 8 15 12 16 10 17 9 18 11 20 20 22 17 24
REMARK H PARENT 9 19 11 21 20 23 17 25
REMARK Flexibility Score: inf
ROOT
ATOM      1  C   UNL     1     -38.226  76.226 -24.867  1.00  0.00     0.138 A 
ATOM      2  C   UNL     1     -38.604  75.910 -26.182  1.00  0.00     0.100 A 
ATOM      3  C   UNL     1     -37.627  75.820 -27.175  1.00  0.00     0.197 A 
ATOM      4  O   UNL     1     -37.977  75.538 -28.353  1.00  0.00    -0.289 OA
ATOM      5  C   UNL     1     -36.277  76.051 -26.846  1.00  0.00     0.107 A 
ATOM      6  C   UNL     1     -35.225  75.979 -27.789  1.00  0.00     0.134 A 
ATOM      7  C   UNL     1     -33.906  76.228 -27.380  1.00  0.00     0.093 A 
ATOM      8  C   UNL     1     -33.621  76.548 -26.051  1.00  0.00     0.123 A 
ATOM      9  C   UNL     1     -34.656  76.620 -25.114  1.00  0.00     0.094 A 
ATOM     10  C   UNL     1     -35.977  76.375 -25.500  1.00  0.00     0.146 A 
ATOM     11  O   UNL     1     -36.943  76.448 -24.591  1.00  0.00    -0.456 OA
ENDROOT
BRANCH   1  12
ATOM     12  C   UNL     1     -39.222  76.337 -23.771  1.00  0.00     0.021 A 
ATOM     13  C   UNL     1     -38.882  76.872 -22.516  1.00  0.00     0.016 A 
ATOM     14  C   UNL     1     -39.842  76.973 -21.508  1.00  0.00     0.051 A 
ATOM     15  C   UNL     1     -41.157  76.553 -21.726  1.00  0.00     0.157 A 
ATOM     16  C   UNL     1     -40.548  75.928 -23.996  1.00  0.00     0.062 A 
ATOM     17  C   UNL     1     -41.516  76.026 -22.988  1.00  0.00     0.158 A 
BRANCH  15  18
ATOM     18  O   UNL     1     -42.067  76.679 -20.675  1.00  0.00    -0.504 OA
ATOM     19  H   UNL     1     -41.823  77.011 -19.752  1.00  0.00     0.293 HD
ENDBRANCH  15  18
BRANCH  17  20
ATOM     20  O   UNL     1     -42.810  75.590 -23.285  1.00  0.00    -0.504 OA
ATOM     21  H   UNL     1     -43.467  76.113 -23.846  1.00  0.00     0.293 HD
ENDBRANCH  17  20
ENDBRANCH   1  12
BRANCH   6  22
ATOM     22  O   UNL     1     -35.480  75.662 -29.124  1.00  0.00    -0.507 OA
ATOM     23  H   UNL     1     -35.044  74.867 -29.576  1.00  0.00     0.293 HD
ENDBRANCH   6  22
BRANCH   8  24
ATOM     24  O   UNL     1     -32.302  76.791 -25.672  1.00  0.00    -0.508 OA
ATOM     25  H   UNL     1     -31.522  76.411 -26.195  1.00  0.00     0.293 HD
ENDBRANCH   8  24
TORSDOF 5
ENDMDL
MODEL 6
REMARK VINA RESULT:    -5.052      1.189      2.760
REMARK INTER + INTRA:          -6.233
REMARK INTER:                  -5.929
REMARK INTRA:                  -0.304
REMARK UNBOUND:                -0.295
REMARK SMILES O=c1cc(-c2ccc(O)c(O)c2)oc2cc(O)cc(O)c12
REMARK SMILES IDX 4 1 3 2 2 3 1 4 21 5 19 6 18 7 16 8 15 9 14 10 13 11 5 12
REMARK SMILES IDX 6 13 7 14 8 15 12 16 10 17 9 18 11 20 20 22 17 24
REMARK H PARENT 9 19 11 21 20 23 17 25
REMARK Flexibility Score: inf
ROOT
ATOM      1  C   UNL     1     -38.379  75.909 -25.276  1.00  0.00     0.138 A 
ATOM      2  C   UNL     1     -37.387  76.579 -24.542  1.00  0.00     0.100 A 
ATOM      3  C   UNL     1     -36.044  76.392 -24.873  1.00  0.00     0.197 A 
ATOM      4  O   UNL     1     -35.160  76.997 -24.207  1.00  0.00    -0.289 OA
ATOM      5  C   UNL     1     -35.702  75.532 -25.935  1.00  0.00     0.107 A 
ATOM      6  C   UNL     1     -34.367  75.287 -26.336  1.00  0.00     0.134 A 
ATOM      7  C   UNL     1     -34.111  74.411 -27.401  1.00  0.00     0.093 A 
ATOM      8  C   UNL     1     -35.160  73.776 -28.070  1.00  0.00     0.123 A 
ATOM      9  C   UNL     1     -36.481  74.014 -27.678  1.00  0.00     0.094 A 
ATOM     10  C   UNL     1     -36.758  74.883 -26.620  1.00  0.00     0.146 A 
ATOM     11  O   UNL     1     -38.022  75.094 -26.267  1.00  0.00    -0.456 OA
ENDROOT
BRANCH   1  12
ATOM     12  C   UNL     1     -39.823  76.068 -24.968  1.00  0.00     0.021 A 
ATOM     13  C   UNL     1     -40.279  76.288 -23.656  1.00  0.00     0.016 A 
ATOM     14  C   UNL     1     -41.642  76.444 -23.399  1.00  0.00     0.051 A 
ATOM     15  C   UNL     1     -42.577  76.392 -24.436  1.00  0.00     0.157 A 
ATOM     16  C   UNL     1     -40.762  76.030 -26.013  1.00  0.00     0.062 A 
ATOM     17  C   UNL     1     -42.131  76.185 -25.762  1.00  0.00     0.158 A 
BRANCH  15  18
ATOM     18  O   UNL     1     -43.925  76.553 -24.110  1.00  0.00    -0.504 OA
ATOM     19  H   UNL     1     -44.618  76.934 -24.739  1.00  0.00     0.293 HD
ENDBRANCH  15  18
BRANCH  17  20
ATOM     20  O   UNL     1     -43.003  76.127 -26.851  1.00  0.00    -0.504 OA
ATOM     21  H   UNL     1     -43.062  76.837 -27.567  1.00  0.00     0.293 HD
ENDBRANCH  17  20
ENDBRANCH   1  12
BRANCH   6  22
ATOM     22  O   UNL     1     -33.298  75.907 -25.687  1.00  0.00    -0.507 OA
ATOM     23  H   UNL     1     -33.443  76.618 -24.980  1.00  0.00     0.293 HD
ENDBRANCH   6  22
BRANCH   8  24
ATOM     24  O   UNL     1     -34.877  72.910 -29.124  1.00  0.00    -0.508 OA
ATOM     25  H   UNL     1     -35.119  71.927 -29.082  1.00  0.00     0.293 HD
ENDBRANCH   8  24
TORSDOF 5
ENDMDL
MODEL 7
REMARK VINA RESULT:    -5.012      2.194      6.874
REMARK INTER + INTRA:          -6.186
REMARK INTER:                  -5.894
REMARK INTRA:                  -0.291
REMARK UNBOUND:                -0.295
REMARK SMILES O=c1cc(-c2ccc(O)c(O)c2)oc2cc(O)cc(O)c12
REMARK SMILES IDX 4 1 3 2 2 3 1 4 21 5 19 6 18 7 16 8 15 9 14 10 13 11 5 12
REMARK SMILES IDX 6 13 7 14 8 15 12 16 10 17 9 18 11 20 20 22 17 24
REMARK H PARENT 9 19 11 21 20 23 17 25
REMARK Flexibility Score: inf
ROOT
ATOM      1  C   UNL     1     -37.812  76.004 -25.196  1.00  0.00     0.138 A 
ATOM      2  C   UNL     1     -38.935  75.857 -26.026  1.00  0.00     0.100 A 
ATOM      3  C   UNL     1     -40.214  76.000 -25.485  1.00  0.00     0.197 A 
ATOM      4  O   UNL     1     -41.215  75.864 -26.239  1.00  0.00    -0.289 OA
ATOM      5  C   UNL     1     -40.361  76.286 -24.114  1.00  0.00     0.107 A 
ATOM      6  C   UNL     1     -41.618  76.448 -23.486  1.00  0.00     0.134 A 
ATOM      7  C   UNL     1     -41.678  76.727 -22.112  1.00  0.00     0.093 A 
ATOM      8  C   UNL     1     -40.509  76.846 -21.357  1.00  0.00     0.123 A 
ATOM      9  C   UNL     1     -39.263  76.688 -21.972  1.00  0.00     0.094 A 
ATOM     10  C   UNL     1     -39.181  76.410 -23.339  1.00  0.00     0.146 A 
ATOM     11  O   UNL     1     -37.986  76.265 -23.902  1.00  0.00    -0.456 OA
ENDROOT
BRANCH   1  12
ATOM     12  C   UNL     1     -36.429  75.861 -25.716  1.00  0.00     0.021 A 
ATOM     13  C   UNL     1     -35.318  76.347 -25.003  1.00  0.00     0.016 A 
ATOM     14  C   UNL     1     -34.028  76.189 -25.513  1.00  0.00     0.051 A 
ATOM     15  C   UNL     1     -33.814  75.542 -26.733  1.00  0.00     0.157 A 
ATOM     16  C   UNL     1     -36.213  75.198 -26.935  1.00  0.00     0.062 A 
ATOM     17  C   UNL     1     -34.921  75.037 -27.453  1.00  0.00     0.158 A 
BRANCH  15  18
ATOM     18  O   UNL     1     -32.499  75.420 -27.186  1.00  0.00    -0.504 OA
ATOM     19  H   UNL     1     -32.176  75.758 -28.082  1.00  0.00     0.293 HD
ENDBRANCH  15  18
BRANCH  17  20
ATOM     20  O   UNL     1     -34.787  74.374 -28.676  1.00  0.00    -0.504 OA
ATOM     21  H   UNL     1     -34.782  74.839 -29.572  1.00  0.00     0.293 HD
ENDBRANCH  17  20
ENDBRANCH   1  12
BRANCH   6  22
ATOM     22  O   UNL     1     -42.803  76.335 -24.213  1.00  0.00    -0.507 OA
ATOM     23  H   UNL     1     -43.101  77.053 -24.862  1.00  0.00     0.293 HD
ENDBRANCH   6  22
BRANCH   8  24
ATOM     24  O   UNL     1     -40.597  77.124 -19.994  1.00  0.00    -0.508 OA
ATOM     25  H   UNL     1     -40.333  76.439 -19.296  1.00  0.00     0.293 HD
ENDBRANCH   8  24
TORSDOF 5
ENDMDL
MODEL 8
REMARK VINA RESULT:    -4.982      2.930      3.962
REMARK INTER + INTRA:          -6.151
REMARK INTER:                  -5.833
REMARK INTRA:                  -0.318
REMARK UNBOUND:                -0.295
REMARK SMILES O=c1cc(-c2ccc(O)c(O)c2)oc2cc(O)cc(O)c12
REMARK SMILES IDX 4 1 3 2 2 3 1 4 21 5 19 6 18 7 16 8 15 9 14 10 13 11 5 12
REMARK SMILES IDX 6 13 7 14 8 15 12 16 10 17 9 18 11 20 20 22 17 24
REMARK H PARENT 9 19 11 21 20 23 17 25
REMARK Flexibility Score: inf
ROOT
ATOM      1  C   UNL     1     -39.292  76.157 -24.219  1.00  0.00     0.138 A 
ATOM      2  C   UNL     1     -39.992  75.883 -25.405  1.00  0.00     0.100 A 
ATOM      3  C   UNL     1     -39.281  75.647 -26.583  1.00  0.00     0.197 A 
ATOM      4  O   UNL     1     -39.919  75.404 -27.644  1.00  0.00    -0.289 OA
ATOM      5  C   UNL     1     -37.873  75.692 -26.568  1.00  0.00     0.107 A 
ATOM      6  C   UNL     1     -37.077  75.464 -27.715  1.00  0.00     0.134 A 
ATOM      7  C   UNL     1     -35.679  75.532 -27.615  1.00  0.00     0.093 A 
ATOM      8  C   UNL     1     -35.065  75.823 -26.396  1.00  0.00     0.123 A 
ATOM      9  C   UNL     1     -35.846  76.048 -25.258  1.00  0.00     0.094 A 
ATOM     10  C   UNL     1     -37.240  75.984 -25.335  1.00  0.00     0.146 A 
ATOM     11  O   UNL     1     -37.961  76.201 -24.240  1.00  0.00    -0.456 OA
ENDROOT
BRANCH   1  12
ATOM     12  C   UNL     1     -39.994  76.416 -22.937  1.00  0.00     0.021 A 
ATOM     13  C   UNL     1     -41.396  76.498 -22.867  1.00  0.00     0.016 A 
ATOM     14  C   UNL     1     -42.030  76.733 -21.645  1.00  0.00     0.051 A 
ATOM     15  C   UNL     1     -41.287  76.884 -20.470  1.00  0.00     0.157 A 
ATOM     16  C   UNL     1     -39.249  76.553 -21.754  1.00  0.00     0.062 A 
ATOM     17  C   UNL     1     -39.877  76.791 -20.525  1.00  0.00     0.158 A 
BRANCH  15  18
ATOM     18  O   UNL     1     -41.983  77.119 -19.283  1.00  0.00    -0.504 OA
ATOM     19  H   UNL     1     -41.670  77.753 -18.560  1.00  0.00     0.293 HD
ENDBRANCH  15  18
BRANCH  17  20
ATOM     20  O   UNL     1     -39.068  76.925 -19.395  1.00  0.00    -0.504 OA
ATOM     21  H   UNL     1     -39.340  76.632 -18.467  1.00  0.00     0.293 HD
ENDBRANCH  17  20
ENDBRANCH   1  12
BRANCH   6  22
ATOM     22  O   UNL     1     -37.662  75.172 -28.948  1.00  0.00    -0.507 OA
ATOM     23  H   UNL     1     -38.174  75.871 -29.474  1.00  0.00     0.293 HD
ENDBRANCH   6  22
BRANCH   8  24
ATOM     24  O   UNL     1     -33.674  75.883 -26.325  1.00  0.00    -0.508 OA
ATOM     25  H   UNL     1     -33.134  75.147 -25.886  1.00  0.00     0.293 HD
ENDBRANCH   8  24
TORSDOF 5
ENDMDL
MODEL 9
REMARK VINA RESULT:    -4.885      4.455      6.731
REMARK INTER + INTRA:          -6.037
REMARK INTER:                  -5.768
REMARK INTRA:                  -0.269
REMARK UNBOUND:                -0.295
REMARK SMILES O=c1cc(-c2ccc(O)c(O)c2)oc2cc(O)cc(O)c12
REMARK SMILES IDX 4 1 3 2 2 3 1 4 21 5 19 6 18 7 16 8 15 9 14 10 13 11 5 12
REMARK SMILES IDX 6 13 7 14 8 15 12 16 10 17 9 18 11 20 20 22 17 24
REMARK H PARENT 9 19 11 21 20 23 17 25
REMARK Flexibility Score: inf
ROOT
ATOM      1  C   UNL     1     -39.631  76.090 -22.037  1.00  0.00     0.138 A 
ATOM      2  C   UNL     1     -40.995  75.964 -22.345  1.00  0.00     0.100 A 
ATOM      3  C   UNL     1     -41.406  76.017 -23.678  1.00  0.00     0.197 A 
ATOM      4  O   UNL     1     -42.633  75.904 -23.945  1.00  0.00    -0.289 OA
ATOM      5  C   UNL     1     -40.448  76.200 -24.695  1.00  0.00     0.107 A 
ATOM      6  C   UNL     1     -40.778  76.264 -26.069  1.00  0.00     0.134 A 
ATOM      7  C   UNL     1     -39.764  76.454 -27.019  1.00  0.00     0.093 A 
ATOM      8  C   UNL     1     -38.431  76.582 -26.623  1.00  0.00     0.123 A 
ATOM      9  C   UNL     1     -38.098  76.519 -25.266  1.00  0.00     0.094 A 
ATOM     10  C   UNL     1     -39.093  76.330 -24.303  1.00  0.00     0.146 A 
ATOM     11  O   UNL     1     -38.752  76.272 -23.020  1.00  0.00    -0.456 OA
ENDROOT
BRANCH   1  12
ATOM     12  C   UNL     1     -39.136  76.043 -20.638  1.00  0.00     0.021 A 
ATOM     13  C   UNL     1     -39.309  77.125 -19.757  1.00  0.00     0.016 A 
ATOM     14  C   UNL     1     -38.842  77.048 -18.443  1.00  0.00     0.051 A 
ATOM     15  C   UNL     1     -38.203  75.895 -17.977  1.00  0.00     0.157 A 
ATOM     16  C   UNL     1     -38.507  74.879 -20.165  1.00  0.00     0.062 A 
ATOM     17  C   UNL     1     -38.035  74.795 -18.848  1.00  0.00     0.158 A 
BRANCH  15  18
ATOM     18  O   UNL     1     -37.758  75.885 -16.653  1.00  0.00    -0.504 OA
ATOM     19  H   UNL     1     -36.933  75.395 -16.338  1.00  0.00     0.293 HD
ENDBRANCH  15  18
BRANCH  17  20
ATOM     20  O   UNL     1     -37.412  73.608 -18.455  1.00  0.00    -0.504 OA
ATOM     21  H   UNL     1     -37.678  73.075 -17.639  1.00  0.00     0.293 HD
ENDBRANCH  17  20
ENDBRANCH   1  12
BRANCH   6  22
ATOM     22  O   UNL     1     -42.101  76.140 -26.496  1.00  0.00    -0.507 OA
ATOM     23  H   UNL     1     -42.370  75.476 -27.212  1.00  0.00     0.293 HD
ENDBRANCH   6  22
BRANCH   8  24
ATOM     24  O   UNL     1     -37.443  76.770 -27.588  1.00  0.00    -0.508 OA
ATOM     25  H   UNL     1     -37.442  77.582 -28.194  1.00  0.00     0.293 HD
ENDBRANCH   8  24
TORSDOF 5
ENDMDL
