MODEL 1
REMARK VINA RESULT:    -3.865      0.000      0.000
REMARK INTER + INTRA:         -13.345
REMARK INTER:                  -8.836
REMARK INTRA:                  -4.509
REMARK UNBOUND:                -4.509
REMARK SMILES CCCCCCCCCCCCCCCCCCCCCCCC(=O)[O-]
REMARK SMILES IDX 13 1 14 2 15 3 16 4 17 5 18 6 19 7 20 8 21 9 22 10 23 11
REMARK SMILES IDX 24 12 25 13 26 14 12 15 11 16 10 17 9 18 8 19 7 20 6 21 5 22
REMARK SMILES IDX 4 23 3 24 2 25 1 26
REMARK H PARENT
REMARK Flexibility Score: inf
ROOT
ATOM      1  C   UNL     1      26.925  42.134  45.635  1.00  0.00     0.000 C 
ENDROOT
BRANCH   1   2
ATOM      2  C   UNL     1      26.246  43.480  45.929  1.00  0.00     0.000 C 
BRANCH   2   3
ATOM      3  C   UNL     1      25.891  43.684  47.417  1.00  0.00     0.000 C 
BRANCH   3   4
ATOM      4  C   UNL     1      26.504  42.595  48.314  1.00  0.00     0.000 C 
BRANCH   4   5
ATOM      5  C   UNL     1      27.298  43.176  49.497  1.00  0.00     0.000 C 
BRANCH   5   6
ATOM      6  C   UNL     1      28.813  42.884  49.469  1.00  0.00     0.000 C 
BRANCH   6   7
ATOM      7  C   UNL     1      29.430  42.950  48.056  1.00  0.00     0.000 C 
BRANCH   7   8
ATOM      8  C   UNL     1      30.162  41.647  47.684  1.00  0.00     0.000 C 
BRANCH   8   9
ATOM      9  C   UNL     1      29.375  40.390  48.082  1.00  0.00     0.000 C 
BRANCH   9  10
ATOM     10  C   UNL     1      30.296  39.219  48.458  1.00  0.00     0.006 C 
BRANCH  10  11
ATOM     11  C   UNL     1      31.710  39.427  47.904  1.00  0.00     0.053 C 
BRANCH  11  12
ATOM     12  C   UNL     1      32.748  38.810  48.794  1.00  0.00     0.041 C 
ATOM     13  O   UNL     1      33.600  39.530  49.381  1.00  0.00    -0.550 OA
ATOM     14  O   UNL     1      32.745  37.439  49.011  1.00  0.00    -0.550 OA
ENDBRANCH  11  12
ENDBRANCH  10  11
ENDBRANCH   9  10
ENDBRANCH   8   9
ENDBRANCH   7   8
ENDBRANCH   6   7
ENDBRANCH   5   6
ENDBRANCH   4   5
ENDBRANCH   3   4
ENDBRANCH   2   3
ENDBRANCH   1   2
BRANCH   1  15
ATOM     15  C   UNL     1      28.013  42.237  44.552  1.00  0.00     0.000 C 
BRANCH  15  16
ATOM     16  C   UNL     1      28.348  40.870  43.917  1.00  0.00     0.000 C 
BRANCH  16  17
ATOM     17  C   UNL     1      29.767  40.364  44.239  1.00  0.00     0.000 C 
BRANCH  17  18
ATOM     18  C   UNL     1      29.848  38.896  44.694  1.00  0.00    -0.000 C 
BRANCH  18  19
ATOM     19  C   UNL     1      28.530  38.304  45.238  1.00  0.00    -0.000 C 
BRANCH  19  20
ATOM     20  C   UNL     1      28.691  37.044  46.109  1.00  0.00    -0.000 C 
BRANCH  20  21
ATOM     21  C   UNL     1      27.413  36.595  46.842  1.00  0.00    -0.000 C 
BRANCH  21  22
ATOM     22  C   UNL     1      27.461  36.824  48.370  1.00  0.00    -0.000 C 
BRANCH  22  23
ATOM     23  C   UNL     1      26.143  37.399  48.919  1.00  0.00    -0.000 C 
BRANCH  23  24
ATOM     24  C   UNL     1      26.125  38.935  48.921  1.00  0.00    -0.000 C 
BRANCH  24  25
ATOM     25  C   UNL     1      25.920  39.521  50.327  1.00  0.00    -0.003 C 
ATOM     26  C   UNL     1      27.258  39.764  51.019  1.00  0.00     0.004 C 
ENDBRANCH  24  25
ENDBRANCH  23  24
ENDBRANCH  22  23
ENDBRANCH  21  22
ENDBRANCH  20  21
ENDBRANCH  19  20
ENDBRANCH  18  19
ENDBRANCH  17  18
ENDBRANCH  16  17
ENDBRANCH  15  16
ENDBRANCH   1  15
TORSDOF 22
ENDMDL
MODEL 2
REMARK VINA RESULT:    -3.746      9.421     11.859
REMARK INTER + INTRA:         -13.072
REMARK INTER:                  -8.605
REMARK INTRA:                  -4.467
REMARK UNBOUND:                -4.509
REMARK SMILES CCCCCCCCCCCCCCCCCCCCCCCC(=O)[O-]
REMARK SMILES IDX 13 1 14 2 15 3 16 4 17 5 18 6 19 7 20 8 21 9 22 10 23 11
REMARK SMILES IDX 24 12 25 13 26 14 12 15 11 16 10 17 9 18 8 19 7 20 6 21 5 22
REMARK SMILES IDX 4 23 3 24 2 25 1 26
REMARK H PARENT
REMARK Flexibility Score: inf
ROOT
ATOM      1  C   UNL     1      20.479  32.517  44.143  1.00  0.00     0.000 C 
ENDROOT
BRANCH   1   2
ATOM      2  C   UNL     1      19.582  33.762  44.215  1.00  0.00     0.000 C 
BRANCH   2   3
ATOM      3  C   UNL     1      20.107  34.850  45.175  1.00  0.00     0.000 C 
BRANCH   3   4
ATOM      4  C   UNL     1      19.039  35.299  46.187  1.00  0.00     0.000 C 
BRANCH   4   5
ATOM      5  C   UNL     1      19.458  35.044  47.646  1.00  0.00     0.000 C 
BRANCH   5   6
ATOM      6  C   UNL     1      20.698  34.142  47.818  1.00  0.00     0.000 C 
BRANCH   6   7
ATOM      7  C   UNL     1      20.447  32.910  48.713  1.00  0.00     0.000 C 
BRANCH   7   8
ATOM      8  C   UNL     1      19.178  33.068  49.571  1.00  0.00     0.000 C 
BRANCH   8   9
ATOM      9  C   UNL     1      19.362  32.545  51.004  1.00  0.00     0.000 C 
BRANCH   9  10
ATOM     10  C   UNL     1      19.841  33.642  51.968  1.00  0.00     0.006 C 
BRANCH  10  11
ATOM     11  C   UNL     1      21.350  33.879  51.831  1.00  0.00     0.053 C 
BRANCH  11  12
ATOM     12  C   UNL     1      21.658  35.319  51.548  1.00  0.00     0.041 C 
ATOM     13  O   UNL     1      22.759  35.820  51.903  1.00  0.00    -0.550 OA
ATOM     14  O   UNL     1      20.744  36.098  50.852  1.00  0.00    -0.550 OA
ENDBRANCH  11  12
ENDBRANCH  10  11
ENDBRANCH   9  10
ENDBRANCH   8   9
ENDBRANCH   7   8
ENDBRANCH   6   7
ENDBRANCH   5   6
ENDBRANCH   4   5
ENDBRANCH   3   4
ENDBRANCH   2   3
ENDBRANCH   1   2
BRANCH   1  15
ATOM     15  C   UNL     1      20.142  31.474  45.223  1.00  0.00     0.000 C 
BRANCH  15  16
ATOM     16  C   UNL     1      18.635  31.435  45.558  1.00  0.00     0.000 C 
BRANCH  16  17
ATOM     17  C   UNL     1      18.301  30.627  46.827  1.00  0.00     0.000 C 
BRANCH  17  18
ATOM     18  C   UNL     1      19.425  29.700  47.323  1.00  0.00    -0.000 C 
BRANCH  18  19
ATOM     19  C   UNL     1      19.332  29.291  48.809  1.00  0.00    -0.000 C 
BRANCH  19  20
ATOM     20  C   UNL     1      20.641  28.764  49.424  1.00  0.00    -0.000 C 
BRANCH  20  21
ATOM     21  C   UNL     1      20.998  29.361  50.799  1.00  0.00    -0.000 C 
BRANCH  21  22
ATOM     22  C   UNL     1      22.252  30.264  50.776  1.00  0.00    -0.000 C 
BRANCH  22  23
ATOM     23  C   UNL     1      22.951  30.264  49.405  1.00  0.00    -0.000 C 
BRANCH  23  24
ATOM     24  C   UNL     1      24.103  31.278  49.329  1.00  0.00    -0.000 C 
BRANCH  24  25
ATOM     25  C   UNL     1      23.928  32.285  48.182  1.00  0.00    -0.003 C 
ATOM     26  C   UNL     1      23.857  31.573  46.834  1.00  0.00     0.004 C 
ENDBRANCH  24  25
ENDBRANCH  23  24
ENDBRANCH  22  23
ENDBRANCH  21  22
ENDBRANCH  20  21
ENDBRANCH  19  20
ENDBRANCH  18  19
ENDBRANCH  17  18
ENDBRANCH  16  17
ENDBRANCH  15  16
ENDBRANCH   1  15
TORSDOF 22
ENDMDL
MODEL 3
REMARK VINA RESULT:    -3.744      1.407      4.760
REMARK INTER + INTRA:         -13.068
REMARK INTER:                  -8.666
REMARK INTRA:                  -4.402
REMARK UNBOUND:                -4.509
REMARK SMILES CCCCCCCCCCCCCCCCCCCCCCCC(=O)[O-]
REMARK SMILES IDX 13 1 14 2 15 3 16 4 17 5 18 6 19 7 20 8 21 9 22 10 23 11
REMARK SMILES IDX 24 12 25 13 26 14 12 15 11 16 10 17 9 18 8 19 7 20 6 21 5 22
REMARK SMILES IDX 4 23 3 24 2 25 1 26
REMARK H PARENT
REMARK Flexibility Score: inf
ROOT
ATOM      1  C   UNL     1      27.662  40.958  50.308  1.00  0.00     0.000 C 
ENDROOT
BRANCH   1   2
ATOM      2  C   UNL     1      26.946  39.738  49.707  1.00  0.00     0.000 C 
BRANCH   2   3
ATOM      3  C   UNL     1      27.278  39.496  48.220  1.00  0.00     0.000 C 
BRANCH   3   4
ATOM      4  C   UNL     1      26.445  38.351  47.618  1.00  0.00     0.000 C 
BRANCH   4   5
ATOM      5  C   UNL     1      27.301  37.130  47.235  1.00  0.00     0.000 C 
BRANCH   5   6
ATOM      6  C   UNL     1      28.801  37.255  47.577  1.00  0.00     0.000 C 
BRANCH   6   7
ATOM      7  C   UNL     1      29.318  36.138  48.508  1.00  0.00     0.000 C 
BRANCH   7   8
ATOM      8  C   UNL     1      30.292  36.678  49.572  1.00  0.00     0.000 C 
BRANCH   8   9
ATOM      9  C   UNL     1      30.595  38.174  49.394  1.00  0.00     0.000 C 
BRANCH   9  10
ATOM     10  C   UNL     1      31.973  38.560  49.953  1.00  0.00     0.006 C 
BRANCH  10  11
ATOM     11  C   UNL     1      33.080  38.310  48.922  1.00  0.00     0.053 C 
BRANCH  11  12
ATOM     12  C   UNL     1      34.021  37.232  49.373  1.00  0.00     0.041 C 
ATOM     13  O   UNL     1      34.330  36.287  48.598  1.00  0.00    -0.550 OA
ATOM     14  O   UNL     1      34.591  37.297  50.636  1.00  0.00    -0.550 OA
ENDBRANCH  11  12
ENDBRANCH  10  11
ENDBRANCH   9  10
ENDBRANCH   8   9
ENDBRANCH   7   8
ENDBRANCH   6   7
ENDBRANCH   5   6
ENDBRANCH   4   5
ENDBRANCH   3   4
ENDBRANCH   2   3
ENDBRANCH   1   2
BRANCH   1  15
ATOM     15  C   UNL     1      27.779  42.130  49.319  1.00  0.00     0.000 C 
BRANCH  15  16
ATOM     16  C   UNL     1      29.192  42.753  49.304  1.00  0.00     0.000 C 
BRANCH  16  17
ATOM     17  C   UNL     1      30.278  41.817  48.738  1.00  0.00     0.000 C 
BRANCH  17  18
ATOM     18  C   UNL     1      30.252  41.639  47.210  1.00  0.00    -0.000 C 
BRANCH  18  19
ATOM     19  C   UNL     1      30.637  40.231  46.705  1.00  0.00    -0.000 C 
BRANCH  19  20
ATOM     20  C   UNL     1      30.567  40.043  45.179  1.00  0.00    -0.000 C 
BRANCH  20  21
ATOM     21  C   UNL     1      29.309  39.311  44.673  1.00  0.00    -0.000 C 
BRANCH  21  22
ATOM     22  C   UNL     1      28.055  40.210  44.598  1.00  0.00    -0.000 C 
BRANCH  22  23
ATOM     23  C   UNL     1      28.337  41.553  43.901  1.00  0.00    -0.000 C 
BRANCH  23  24
ATOM     24  C   UNL     1      27.707  42.745  44.638  1.00  0.00    -0.000 C 
BRANCH  24  25
ATOM     25  C   UNL     1      26.845  42.310  45.834  1.00  0.00    -0.003 C 
ATOM     26  C   UNL     1      26.075  43.493  46.414  1.00  0.00     0.004 C 
ENDBRANCH  24  25
ENDBRANCH  23  24
ENDBRANCH  22  23
ENDBRANCH  21  22
ENDBRANCH  20  21
ENDBRANCH  19  20
ENDBRANCH  18  19
ENDBRANCH  17  18
ENDBRANCH  16  17
ENDBRANCH  15  16
ENDBRANCH   1  15
TORSDOF 22
ENDMDL
MODEL 4
REMARK VINA RESULT:    -3.735      2.370      5.847
REMARK INTER + INTRA:         -13.048
REMARK INTER:                  -9.098
REMARK INTRA:                  -3.949
REMARK UNBOUND:                -4.509
REMARK SMILES CCCCCCCCCCCCCCCCCCCCCCCC(=O)[O-]
REMARK SMILES IDX 13 1 14 2 15 3 16 4 17 5 18 6 19 7 20 8 21 9 22 10 23 11
REMARK SMILES IDX 24 12 25 13 26 14 12 15 11 16 10 17 9 18 8 19 7 20 6 21 5 22
REMARK SMILES IDX 4 23 3 24 2 25 1 26
REMARK H PARENT
REMARK Flexibility Score: inf
ROOT
ATOM      1  C   UNL     1      30.586  39.263  47.181  1.00  0.00     0.000 C 
ENDROOT
BRANCH   1   2
ATOM      2  C   UNL     1      31.900  39.423  47.962  1.00  0.00     0.000 C 
BRANCH   2   3
ATOM      3  C   UNL     1      32.004  38.502  49.195  1.00  0.00     0.000 C 
BRANCH   3   4
ATOM      4  C   UNL     1      30.668  38.385  49.948  1.00  0.00     0.000 C 
BRANCH   4   5
ATOM      5  C   UNL     1      30.307  36.931  50.299  1.00  0.00     0.000 C 
BRANCH   5   6
ATOM      6  C   UNL     1      31.017  35.860  49.443  1.00  0.00     0.000 C 
BRANCH   6   7
ATOM      7  C   UNL     1      30.046  34.887  48.740  1.00  0.00     0.000 C 
BRANCH   7   8
ATOM      8  C   UNL     1      28.688  35.547  48.435  1.00  0.00     0.000 C 
BRANCH   8   9
ATOM      9  C   UNL     1      28.703  36.358  47.130  1.00  0.00     0.000 C 
BRANCH   9  10
ATOM     10  C   UNL     1      27.320  36.931  46.783  1.00  0.00     0.006 C 
BRANCH  10  11
ATOM     11  C   UNL     1      26.520  37.252  48.052  1.00  0.00     0.053 C 
BRANCH  11  12
ATOM     12  C   UNL     1      26.416  38.731  48.279  1.00  0.00     0.041 C 
ATOM     13  O   UNL     1      25.651  39.437  47.568  1.00  0.00    -0.550 OA
ATOM     14  O   UNL     1      27.133  39.324  49.309  1.00  0.00    -0.550 OA
ENDBRANCH  11  12
ENDBRANCH  10  11
ENDBRANCH   9  10
ENDBRANCH   8   9
ENDBRANCH   7   8
ENDBRANCH   6   7
ENDBRANCH   5   6
ENDBRANCH   4   5
ENDBRANCH   3   4
ENDBRANCH   2   3
ENDBRANCH   1   2
BRANCH   1  15
ATOM     15  C   UNL     1      30.541  40.123  45.906  1.00  0.00     0.000 C 
BRANCH  15  16
ATOM     16  C   UNL     1      29.830  39.407  44.735  1.00  0.00     0.000 C 
BRANCH  16  17
ATOM     17  C   UNL     1      28.326  39.726  44.633  1.00  0.00     0.000 C 
BRANCH  17  18
ATOM     18  C   UNL     1      27.884  41.017  45.345  1.00  0.00    -0.000 C 
BRANCH  18  19
ATOM     19  C   UNL     1      27.897  42.288  44.468  1.00  0.00    -0.000 C 
BRANCH  19  20
ATOM     20  C   UNL     1      27.390  43.565  45.163  1.00  0.00    -0.000 C 
BRANCH  20  21
ATOM     21  C   UNL     1      26.031  43.420  45.875  1.00  0.00    -0.000 C 
BRANCH  21  22
ATOM     22  C   UNL     1      26.047  43.891  47.346  1.00  0.00    -0.000 C 
BRANCH  22  23
ATOM     23  C   UNL     1      26.416  42.759  48.321  1.00  0.00    -0.000 C 
BRANCH  23  24
ATOM     24  C   UNL     1      27.699  43.055  49.112  1.00  0.00    -0.000 C 
BRANCH  24  25
ATOM     25  C   UNL     1      28.911  42.269  48.586  1.00  0.00    -0.003 C 
ATOM     26  C   UNL     1      29.917  43.198  47.912  1.00  0.00     0.004 C 
ENDBRANCH  24  25
ENDBRANCH  23  24
ENDBRANCH  22  23
ENDBRANCH  21  22
ENDBRANCH  20  21
ENDBRANCH  19  20
ENDBRANCH  18  19
ENDBRANCH  17  18
ENDBRANCH  16  17
ENDBRANCH  15  16
ENDBRANCH   1  15
TORSDOF 22
ENDMDL
MODEL 5
REMARK VINA RESULT:    -3.708      8.990     11.471
REMARK INTER + INTRA:         -12.987
REMARK INTER:                  -9.322
REMARK INTRA:                  -3.664
REMARK UNBOUND:                -4.509
REMARK SMILES CCCCCCCCCCCCCCCCCCCCCCCC(=O)[O-]
REMARK SMILES IDX 13 1 14 2 15 3 16 4 17 5 18 6 19 7 20 8 21 9 22 10 23 11
REMARK SMILES IDX 24 12 25 13 26 14 12 15 11 16 10 17 9 18 8 19 7 20 6 21 5 22
REMARK SMILES IDX 4 23 3 24 2 25 1 26
REMARK H PARENT
REMARK Flexibility Score: inf
ROOT
ATOM      1  C   UNL     1      21.049  32.147  44.319  1.00  0.00     0.000 C 
ENDROOT
BRANCH   1   2
ATOM      2  C   UNL     1      19.592  31.896  43.900  1.00  0.00     0.000 C 
BRANCH   2   3
ATOM      3  C   UNL     1      18.789  31.063  44.920  1.00  0.00     0.000 C 
BRANCH   3   4
ATOM      4  C   UNL     1      17.924  31.943  45.839  1.00  0.00     0.000 C 
BRANCH   4   5
ATOM      5  C   UNL     1      17.959  31.483  47.307  1.00  0.00     0.000 C 
BRANCH   5   6
ATOM      6  C   UNL     1      18.560  30.081  47.536  1.00  0.00     0.000 C 
BRANCH   6   7
ATOM      7  C   UNL     1      19.345  29.952  48.859  1.00  0.00     0.000 C 
BRANCH   7   8
ATOM      8  C   UNL     1      20.435  31.032  48.991  1.00  0.00     0.000 C 
BRANCH   8   9
ATOM      9  C   UNL     1      21.530  30.904  47.922  1.00  0.00     0.000 C 
BRANCH   9  10
ATOM     10  C   UNL     1      22.774  31.742  48.256  1.00  0.00     0.006 C 
BRANCH  10  11
ATOM     11  C   UNL     1      23.592  32.046  46.996  1.00  0.00     0.053 C 
BRANCH  11  12
ATOM     12  C   UNL     1      24.879  31.275  46.974  1.00  0.00     0.041 C 
ATOM     13  O   UNL     1      25.826  31.587  47.745  1.00  0.00    -0.550 OA
ATOM     14  O   UNL     1      25.015  30.180  46.131  1.00  0.00    -0.550 OA
ENDBRANCH  11  12
ENDBRANCH  10  11
ENDBRANCH   9  10
ENDBRANCH   8   9
ENDBRANCH   7   8
ENDBRANCH   6   7
ENDBRANCH   5   6
ENDBRANCH   4   5
ENDBRANCH   3   4
ENDBRANCH   2   3
ENDBRANCH   1   2
BRANCH   1  15
ATOM     15  C   UNL     1      21.396  33.643  44.410  1.00  0.00     0.000 C 
BRANCH  15  16
ATOM     16  C   UNL     1      20.140  34.541  44.445  1.00  0.00     0.000 C 
BRANCH  16  17
ATOM     17  C   UNL     1      19.800  35.082  45.848  1.00  0.00     0.000 C 
BRANCH  17  18
ATOM     18  C   UNL     1      20.525  34.378  47.009  1.00  0.00    -0.000 C 
BRANCH  18  19
ATOM     19  C   UNL     1      20.054  34.788  48.422  1.00  0.00    -0.000 C 
BRANCH  19  20
ATOM     20  C   UNL     1      21.115  34.648  49.529  1.00  0.00    -0.000 C 
BRANCH  20  21
ATOM     21  C   UNL     1      20.550  34.385  50.938  1.00  0.00    -0.000 C 
BRANCH  21  22
ATOM     22  C   UNL     1      21.180  35.273  52.035  1.00  0.00    -0.000 C 
BRANCH  22  23
ATOM     23  C   UNL     1      20.122  35.927  52.941  1.00  0.00    -0.000 C 
BRANCH  23  24
ATOM     24  C   UNL     1      20.359  37.433  53.134  1.00  0.00    -0.000 C 
BRANCH  24  25
ATOM     25  C   UNL     1      20.871  38.118  51.858  1.00  0.00    -0.003 C 
ATOM     26  C   UNL     1      19.727  38.391  50.886  1.00  0.00     0.004 C 
ENDBRANCH  24  25
ENDBRANCH  23  24
ENDBRANCH  22  23
ENDBRANCH  21  22
ENDBRANCH  20  21
ENDBRANCH  19  20
ENDBRANCH  18  19
ENDBRANCH  17  18
ENDBRANCH  16  17
ENDBRANCH  15  16
ENDBRANCH   1  15
TORSDOF 22
ENDMDL
MODEL 6
REMARK VINA RESULT:    -3.706      2.479      4.845
REMARK INTER + INTRA:         -12.982
REMARK INTER:                  -8.709
REMARK INTRA:                  -4.273
REMARK UNBOUND:                -4.509
REMARK SMILES CCCCCCCCCCCCCCCCCCCCCCCC(=O)[O-]
REMARK SMILES IDX 13 1 14 2 15 3 16 4 17 5 18 6 19 7 20 8 21 9 22 10 23 11
REMARK SMILES IDX 24 12 25 13 26 14 12 15 11 16 10 17 9 18 8 19 7 20 6 21 5 22
REMARK SMILES IDX 4 23 3 24 2 25 1 26
REMARK H PARENT
REMARK Flexibility Score: inf
ROOT
ATOM      1  C   UNL     1      28.685  39.635  44.876  1.00  0.00     0.000 C 
ENDROOT
BRANCH   1   2
ATOM      2  C   UNL     1      30.092  40.171  45.184  1.00  0.00     0.000 C 
BRANCH   2   3
ATOM      3  C   UNL     1      30.448  40.149  46.685  1.00  0.00     0.000 C 
BRANCH   3   4
ATOM      4  C   UNL     1      29.841  38.935  47.409  1.00  0.00     0.000 C 
BRANCH   4   5
ATOM      5  C   UNL     1      30.604  38.567  48.695  1.00  0.00     0.000 C 
BRANCH   5   6
ATOM      6  C   UNL     1      31.472  39.699  49.283  1.00  0.00     0.000 C 
BRANCH   6   7
ATOM      7  C   UNL     1      30.881  40.331  50.561  1.00  0.00     0.000 C 
BRANCH   7   8
ATOM      8  C   UNL     1      30.626  41.841  50.394  1.00  0.00     0.000 C 
BRANCH   8   9
ATOM      9  C   UNL     1      31.640  42.513  49.457  1.00  0.00     0.000 C 
BRANCH   9  10
ATOM     10  C   UNL     1      30.963  43.421  48.419  1.00  0.00     0.006 C 
BRANCH  10  11
ATOM     11  C   UNL     1      30.972  44.885  48.874  1.00  0.00     0.053 C 
BRANCH  11  12
ATOM     12  C   UNL     1      31.997  45.688  48.130  1.00  0.00     0.041 C 
ATOM     13  O   UNL     1      31.696  46.806  47.629  1.00  0.00    -0.550 OA
ATOM     14  O   UNL     1      33.300  45.221  48.028  1.00  0.00    -0.550 OA
ENDBRANCH  11  12
ENDBRANCH  10  11
ENDBRANCH   9  10
ENDBRANCH   8   9
ENDBRANCH   7   8
ENDBRANCH   6   7
ENDBRANCH   5   6
ENDBRANCH   4   5
ENDBRANCH   3   4
ENDBRANCH   2   3
ENDBRANCH   1   2
BRANCH   1  15
ATOM     15  C   UNL     1      27.583  40.684  45.102  1.00  0.00     0.000 C 
BRANCH  15  16
ATOM     16  C   UNL     1      27.934  42.055  44.482  1.00  0.00     0.000 C 
BRANCH  16  17
ATOM     17  C   UNL     1      27.642  43.250  45.409  1.00  0.00     0.000 C 
BRANCH  17  18
ATOM     18  C   UNL     1      26.176  43.382  45.859  1.00  0.00    -0.000 C 
BRANCH  18  19
ATOM     19  C   UNL     1      25.937  43.216  47.376  1.00  0.00    -0.000 C 
BRANCH  19  20
ATOM     20  C   UNL     1      27.213  43.080  48.226  1.00  0.00    -0.000 C 
BRANCH  20  21
ATOM     21  C   UNL     1      27.620  41.631  48.557  1.00  0.00    -0.000 C 
BRANCH  21  22
ATOM     22  C   UNL     1      26.961  41.079  49.840  1.00  0.00    -0.000 C 
BRANCH  22  23
ATOM     23  C   UNL     1      26.260  39.728  49.607  1.00  0.00    -0.000 C 
BRANCH  23  24
ATOM     24  C   UNL     1      25.762  39.563  48.163  1.00  0.00    -0.000 C 
BRANCH  24  25
ATOM     25  C   UNL     1      26.277  38.274  47.505  1.00  0.00    -0.003 C 
ATOM     26  C   UNL     1      26.490  37.176  48.543  1.00  0.00     0.004 C 
ENDBRANCH  24  25
ENDBRANCH  23  24
ENDBRANCH  22  23
ENDBRANCH  21  22
ENDBRANCH  20  21
ENDBRANCH  19  20
ENDBRANCH  18  19
ENDBRANCH  17  18
ENDBRANCH  16  17
ENDBRANCH  15  16
ENDBRANCH   1  15
TORSDOF 22
ENDMDL
MODEL 7
REMARK VINA RESULT:    -3.704      2.426      5.181
REMARK INTER + INTRA:         -12.977
REMARK INTER:                  -8.858
REMARK INTRA:                  -4.119
REMARK UNBOUND:                -4.509
REMARK SMILES CCCCCCCCCCCCCCCCCCCCCCCC(=O)[O-]
REMARK SMILES IDX 13 1 14 2 15 3 16 4 17 5 18 6 19 7 20 8 21 9 22 10 23 11
REMARK SMILES IDX 24 12 25 13 26 14 12 15 11 16 10 17 9 18 8 19 7 20 6 21 5 22
REMARK SMILES IDX 4 23 3 24 2 25 1 26
REMARK H PARENT
REMARK Flexibility Score: inf
ROOT
ATOM      1  C   UNL     1      30.208  40.880  46.690  1.00  0.00     0.000 C 
ENDROOT
BRANCH   1   2
ATOM      2  C   UNL     1      30.495  40.401  48.122  1.00  0.00     0.000 C 
BRANCH   2   3
ATOM      3  C   UNL     1      31.271  39.069  48.186  1.00  0.00     0.000 C 
BRANCH   3   4
ATOM      4  C   UNL     1      32.381  39.094  49.250  1.00  0.00     0.000 C 
BRANCH   4   5
ATOM      5  C   UNL     1      33.662  38.375  48.791  1.00  0.00     0.000 C 
BRANCH   5   6
ATOM      6  C   UNL     1      33.947  37.035  49.501  1.00  0.00     0.000 C 
BRANCH   6   7
ATOM      7  C   UNL     1      33.450  36.991  50.962  1.00  0.00     0.000 C 
BRANCH   7   8
ATOM      8  C   UNL     1      32.285  36.001  51.146  1.00  0.00     0.000 C 
BRANCH   8   9
ATOM      9  C   UNL     1      32.033  35.143  49.896  1.00  0.00     0.000 C 
BRANCH   9  10
ATOM     10  C   UNL     1      30.766  35.570  49.140  1.00  0.00     0.006 C 
BRANCH  10  11
ATOM     11  C   UNL     1      29.798  36.321  50.062  1.00  0.00     0.053 C 
BRANCH  11  12
ATOM     12  C   UNL     1      28.488  35.600  50.190  1.00  0.00     0.041 C 
ATOM     13  O   UNL     1      27.581  36.048  50.943  1.00  0.00    -0.550 OA
ATOM     14  O   UNL     1      28.253  34.455  49.442  1.00  0.00    -0.550 OA
ENDBRANCH  11  12
ENDBRANCH  10  11
ENDBRANCH   9  10
ENDBRANCH   8   9
ENDBRANCH   7   8
ENDBRANCH   6   7
ENDBRANCH   5   6
ENDBRANCH   4   5
ENDBRANCH   3   4
ENDBRANCH   2   3
ENDBRANCH   1   2
BRANCH   1  15
ATOM     15  C   UNL     1      30.974  40.075  45.626  1.00  0.00     0.000 C 
BRANCH  15  16
ATOM     16  C   UNL     1      30.119  39.786  44.373  1.00  0.00     0.000 C 
BRANCH  16  17
ATOM     17  C   UNL     1      28.833  38.990  44.668  1.00  0.00     0.000 C 
BRANCH  17  18
ATOM     18  C   UNL     1      29.046  37.493  44.957  1.00  0.00    -0.000 C 
BRANCH  18  19
ATOM     19  C   UNL     1      28.797  37.064  46.419  1.00  0.00    -0.000 C 
BRANCH  19  20
ATOM     20  C   UNL     1      27.373  37.327  46.943  1.00  0.00    -0.000 C 
BRANCH  20  21
ATOM     21  C   UNL     1      27.264  38.455  47.987  1.00  0.00    -0.000 C 
BRANCH  21  22
ATOM     22  C   UNL     1      26.149  39.478  47.681  1.00  0.00    -0.000 C 
BRANCH  22  23
ATOM     23  C   UNL     1      26.664  40.688  46.881  1.00  0.00    -0.000 C 
BRANCH  23  24
ATOM     24  C   UNL     1      26.332  42.028  47.556  1.00  0.00    -0.000 C 
BRANCH  24  25
ATOM     25  C   UNL     1      26.736  43.237  46.698  1.00  0.00    -0.003 C 
ATOM     26  C   UNL     1      27.262  42.792  45.337  1.00  0.00     0.004 C 
ENDBRANCH  24  25
ENDBRANCH  23  24
ENDBRANCH  22  23
ENDBRANCH  21  22
ENDBRANCH  20  21
ENDBRANCH  19  20
ENDBRANCH  18  19
ENDBRANCH  17  18
ENDBRANCH  16  17
ENDBRANCH  15  16
ENDBRANCH   1  15
TORSDOF 22
ENDMDL
MODEL 8
REMARK VINA RESULT:    -3.694      9.420     11.703
REMARK INTER + INTRA:         -12.955
REMARK INTER:                  -8.674
REMARK INTRA:                  -4.281
REMARK UNBOUND:                -4.509
REMARK SMILES CCCCCCCCCCCCCCCCCCCCCCCC(=O)[O-]
REMARK SMILES IDX 13 1 14 2 15 3 16 4 17 5 18 6 19 7 20 8 21 9 22 10 23 11
REMARK SMILES IDX 24 12 25 13 26 14 12 15 11 16 10 17 9 18 8 19 7 20 6 21 5 22
REMARK SMILES IDX 4 23 3 24 2 25 1 26
REMARK H PARENT
REMARK Flexibility Score: inf
ROOT
ATOM      1  C   UNL     1      19.251  31.054  46.506  1.00  0.00     0.000 C 
ENDROOT
BRANCH   1   2
ATOM      2  C   UNL     1      17.978  31.527  47.225  1.00  0.00     0.000 C 
BRANCH   2   3
ATOM      3  C   UNL     1      17.875  31.043  48.686  1.00  0.00     0.000 C 
BRANCH   3   4
ATOM      4  C   UNL     1      17.887  32.210  49.688  1.00  0.00     0.000 C 
BRANCH   4   5
ATOM      5  C   UNL     1      18.948  32.037  50.790  1.00  0.00     0.000 C 
BRANCH   5   6
ATOM      6  C   UNL     1      19.924  30.861  50.574  1.00  0.00     0.000 C 
BRANCH   6   7
ATOM      7  C   UNL     1      21.229  30.984  51.389  1.00  0.00     0.000 C 
BRANCH   7   8
ATOM      8  C   UNL     1      22.475  30.699  50.529  1.00  0.00     0.000 C 
BRANCH   8   9
ATOM      9  C   UNL     1      22.335  29.422  49.687  1.00  0.00     0.000 C 
BRANCH   9  10
ATOM     10  C   UNL     1      23.000  29.557  48.308  1.00  0.00     0.006 C 
BRANCH  10  11
ATOM     11  C   UNL     1      22.826  30.973  47.746  1.00  0.00     0.053 C 
BRANCH  11  12
ATOM     12  C   UNL     1      24.115  31.509  47.196  1.00  0.00     0.041 C 
ATOM     13  O   UNL     1      25.048  30.727  46.870  1.00  0.00    -0.550 OA
ATOM     14  O   UNL     1      24.268  32.875  47.001  1.00  0.00    -0.550 OA
ENDBRANCH  11  12
ENDBRANCH  10  11
ENDBRANCH   9  10
ENDBRANCH   8   9
ENDBRANCH   7   8
ENDBRANCH   6   7
ENDBRANCH   5   6
ENDBRANCH   4   5
ENDBRANCH   3   4
ENDBRANCH   2   3
ENDBRANCH   1   2
BRANCH   1  15
ATOM     15  C   UNL     1      19.126  31.106  44.973  1.00  0.00     0.000 C 
BRANCH  15  16
ATOM     16  C   UNL     1      18.817  32.527  44.453  1.00  0.00     0.000 C 
BRANCH  16  17
ATOM     17  C   UNL     1      20.073  33.386  44.205  1.00  0.00     0.000 C 
BRANCH  17  18
ATOM     18  C   UNL     1      20.169  34.661  45.062  1.00  0.00    -0.000 C 
BRANCH  18  19
ATOM     19  C   UNL     1      19.067  34.817  46.132  1.00  0.00    -0.000 C 
BRANCH  19  20
ATOM     20  C   UNL     1      19.575  34.904  47.583  1.00  0.00    -0.000 C 
BRANCH  20  21
ATOM     21  C   UNL     1      20.780  33.999  47.903  1.00  0.00    -0.000 C 
BRANCH  21  22
ATOM     22  C   UNL     1      21.487  34.352  49.230  1.00  0.00    -0.000 C 
BRANCH  22  23
ATOM     23  C   UNL     1      20.650  35.300  50.108  1.00  0.00    -0.000 C 
BRANCH  23  24
ATOM     24  C   UNL     1      21.308  35.582  51.467  1.00  0.00    -0.000 C 
BRANCH  24  25
ATOM     25  C   UNL     1      21.899  34.317  52.110  1.00  0.00    -0.003 C 
ATOM     26  C   UNL     1      23.300  34.582  52.653  1.00  0.00     0.004 C 
ENDBRANCH  24  25
ENDBRANCH  23  24
ENDBRANCH  22  23
ENDBRANCH  21  22
ENDBRANCH  20  21
ENDBRANCH  19  20
ENDBRANCH  18  19
ENDBRANCH  17  18
ENDBRANCH  16  17
ENDBRANCH  15  16
ENDBRANCH   1  15
TORSDOF 22
ENDMDL
MODEL 9
REMARK VINA RESULT:    -3.662      2.979      6.144
REMARK INTER + INTRA:         -12.881
REMARK INTER:                  -8.506
REMARK INTRA:                  -4.375
REMARK UNBOUND:                -4.509
REMARK SMILES CCCCCCCCCCCCCCCCCCCCCCCC(=O)[O-]
REMARK SMILES IDX 13 1 14 2 15 3 16 4 17 5 18 6 19 7 20 8 21 9 22 10 23 11
REMARK SMILES IDX 24 12 25 13 26 14 12 15 11 16 10 17 9 18 8 19 7 20 6 21 5 22
REMARK SMILES IDX 4 23 3 24 2 25 1 26
REMARK H PARENT
REMARK Flexibility Score: inf
ROOT
ATOM      1  C   UNL     1      29.836  40.759  45.912  1.00  0.00     0.000 C 
ENDROOT
BRANCH   1   2
ATOM      2  C   UNL     1      29.913  39.752  44.754  1.00  0.00     0.000 C 
BRANCH   2   3
ATOM      3  C   UNL     1      28.685  38.822  44.659  1.00  0.00     0.000 C 
BRANCH   3   4
ATOM      4  C   UNL     1      29.054  37.347  44.891  1.00  0.00     0.000 C 
BRANCH   4   5
ATOM      5  C   UNL     1      28.312  36.730  46.090  1.00  0.00     0.000 C 
BRANCH   5   6
ATOM      6  C   UNL     1      28.886  37.104  47.473  1.00  0.00     0.000 C 
BRANCH   6   7
ATOM      7  C   UNL     1      27.961  38.024  48.299  1.00  0.00     0.000 C 
BRANCH   7   8
ATOM      8  C   UNL     1      26.508  37.987  47.791  1.00  0.00     0.000 C 
BRANCH   8   9
ATOM      9  C   UNL     1      26.006  39.364  47.329  1.00  0.00     0.000 C 
BRANCH   9  10
ATOM     10  C   UNL     1      26.710  40.517  48.059  1.00  0.00     0.006 C 
BRANCH  10  11
ATOM     11  C   UNL     1      26.599  41.825  47.266  1.00  0.00     0.053 C 
BRANCH  11  12
ATOM     12  C   UNL     1      26.488  43.013  48.174  1.00  0.00     0.041 C 
ATOM     13  O   UNL     1      25.895  44.058  47.793  1.00  0.00    -0.550 OA
ATOM     14  O   UNL     1      27.003  42.949  49.462  1.00  0.00    -0.550 OA
ENDBRANCH  11  12
ENDBRANCH  10  11
ENDBRANCH   9  10
ENDBRANCH   8   9
ENDBRANCH   7   8
ENDBRANCH   6   7
ENDBRANCH   5   6
ENDBRANCH   4   5
ENDBRANCH   3   4
ENDBRANCH   2   3
ENDBRANCH   1   2
BRANCH   1  15
ATOM     15  C   UNL     1      30.650  40.319  47.141  1.00  0.00     0.000 C 
BRANCH  15  16
ATOM     16  C   UNL     1      30.535  41.317  48.315  1.00  0.00     0.000 C 
BRANCH  16  17
ATOM     17  C   UNL     1      30.128  40.662  49.650  1.00  0.00     0.000 C 
BRANCH  17  18
ATOM     18  C   UNL     1      30.902  39.381  50.008  1.00  0.00    -0.000 C 
BRANCH  18  19
ATOM     19  C   UNL     1      32.262  39.607  50.703  1.00  0.00    -0.000 C 
BRANCH  19  20
ATOM     20  C   UNL     1      33.488  39.547  49.773  1.00  0.00    -0.000 C 
BRANCH  20  21
ATOM     21  C   UNL     1      33.420  38.462  48.681  1.00  0.00    -0.000 C 
BRANCH  21  22
ATOM     22  C   UNL     1      33.963  37.089  49.136  1.00  0.00    -0.000 C 
BRANCH  22  23
ATOM     23  C   UNL     1      32.839  36.109  49.516  1.00  0.00    -0.000 C 
BRANCH  23  24
ATOM     24  C   UNL     1      32.753  35.868  51.031  1.00  0.00    -0.000 C 
BRANCH  24  25
ATOM     25  C   UNL     1      31.317  35.989  51.567  1.00  0.00    -0.003 C 
ATOM     26  C   UNL     1      30.299  35.603  50.498  1.00  0.00     0.004 C 
ENDBRANCH  24  25
ENDBRANCH  23  24
ENDBRANCH  22  23
ENDBRANCH  21  22
ENDBRANCH  20  21
ENDBRANCH  19  20
ENDBRANCH  18  19
ENDBRANCH  17  18
ENDBRANCH  16  17
ENDBRANCH  15  16
ENDBRANCH   1  15
TORSDOF 22
ENDMDL
