MODEL 1
REMARK VINA RESULT:     8.406      0.000      0.000
REMARK INTER + INTRA:          10.438
REMARK INTER:                  10.372
REMARK INTRA:                   0.067
REMARK UNBOUND:                 0.067
REMARK SMILES Oc1cc(O)c2cc(O)c(-c3cc(O)c(O)c(O)c3)[o+]c2c1
REMARK SMILES IDX 10 1 20 2 21 3 22 4 2 5 3 6 4 7 6 8 7 9 8 10 11 11 12 12
REMARK SMILES IDX 13 13 19 14 15 15 17 16 14 17 16 19 18 21 9 23 1 25 5 27
REMARK H PARENT 14 18 16 20 18 22 9 24 1 26 5 28
REMARK Flexibility Score: inf
ROOT
ATOM      1  C   UNL     1      15.851  22.566 -10.104  1.00  0.00     0.402 A 
ATOM      2  O   UNL     1      14.760  23.313 -10.272  1.00  0.00    -0.202 OA
ATOM      3  C   UNL     1      14.127  23.911  -9.267  1.00  0.00     0.368 A 
ATOM      4  C   UNL     1      12.985  24.675  -9.526  1.00  0.00     0.162 A 
ATOM      5  C   UNL     1      12.307  25.306  -8.478  1.00  0.00     0.128 A 
ATOM      6  C   UNL     1      12.774  25.173  -7.163  1.00  0.00     0.093 A 
ATOM      7  C   UNL     1      13.919  24.411  -6.889  1.00  0.00     0.136 A 
ATOM      8  C   UNL     1      14.601  23.776  -7.944  1.00  0.00     0.125 A 
ATOM      9  C   UNL     1      15.753  23.010  -7.731  1.00  0.00     0.078 A 
ATOM     10  C   UNL     1      16.395  22.406  -8.814  1.00  0.00     0.223 A 
ENDROOT
BRANCH   1  11
ATOM     11  C   UNL     1      16.463  21.945 -11.300  1.00  0.00     0.091 A 
ATOM     12  C   UNL     1      17.021  20.656 -11.250  1.00  0.00     0.068 A 
ATOM     13  C   UNL     1      17.574  20.073 -12.396  1.00  0.00     0.162 A 
ATOM     14  C   UNL     1      16.437  22.629 -12.525  1.00  0.00     0.068 A 
ATOM     15  C   UNL     1      17.566  20.774 -13.614  1.00  0.00     0.200 A 
ATOM     16  C   UNL     1      16.990  22.055 -13.677  1.00  0.00     0.162 A 
BRANCH  13  17
ATOM     17  O   UNL     1      18.124  18.794 -12.304  1.00  0.00    -0.504 OA
ATOM     18  H   UNL     1      18.480  18.422 -11.432  1.00  0.00     0.293 HD
ENDBRANCH  13  17
BRANCH  15  19
ATOM     19  O   UNL     1      18.125  20.188 -14.750  1.00  0.00    -0.502 OA
ATOM     20  H   UNL     1      18.135  19.185 -14.891  1.00  0.00     0.293 HD
ENDBRANCH  15  19
BRANCH  16  21
ATOM     21  O   UNL     1      16.972  22.752 -14.884  1.00  0.00    -0.504 OA
ATOM     22  H   UNL     1      16.986  23.765 -14.913  1.00  0.00     0.293 HD
ENDBRANCH  16  21
ENDBRANCH   1  11
BRANCH  10  23
ATOM     23  O   UNL     1      17.572  21.683  -8.615  1.00  0.00    -0.500 OA
ATOM     24  H   UNL     1      18.319  21.685  -9.299  1.00  0.00     0.294 HD
ENDBRANCH  10  23
BRANCH   5  25
ATOM     25  O   UNL     1      11.171  26.063  -8.754  1.00  0.00    -0.507 OA
ATOM     26  H   UNL     1      10.572  25.851  -9.545  1.00  0.00     0.293 HD
ENDBRANCH   5  25
BRANCH   7  27
ATOM     27  O   UNL     1      14.376  24.287  -5.575  1.00  0.00    -0.507 OA
ATOM     28  H   UNL     1      14.067  23.531  -4.975  1.00  0.00     0.293 HD
ENDBRANCH   7  27
TORSDOF 7
ENDMDL
MODEL 2
REMARK VINA RESULT:     8.604      0.137      1.799
REMARK INTER + INTRA:          10.682
REMARK INTER:                  10.562
REMARK INTRA:                   0.120
REMARK UNBOUND:                 0.067
REMARK SMILES Oc1cc(O)c2cc(O)c(-c3cc(O)c(O)c(O)c3)[o+]c2c1
REMARK SMILES IDX 10 1 20 2 21 3 22 4 2 5 3 6 4 7 6 8 7 9 8 10 11 11 12 12
REMARK SMILES IDX 13 13 19 14 15 15 17 16 14 17 16 19 18 21 9 23 1 25 5 27
REMARK H PARENT 14 18 16 20 18 22 9 24 1 26 5 28
REMARK Flexibility Score: inf
ROOT
ATOM      1  C   UNL     1      15.869  22.584 -10.211  1.00  0.00     0.402 A 
ATOM      2  O   UNL     1      14.766  23.322 -10.323  1.00  0.00    -0.202 OA
ATOM      3  C   UNL     1      14.172  23.905  -9.287  1.00  0.00     0.368 A 
ATOM      4  C   UNL     1      13.013  24.661  -9.489  1.00  0.00     0.162 A 
ATOM      5  C   UNL     1      12.376  25.277  -8.407  1.00  0.00     0.128 A 
ATOM      6  C   UNL     1      12.902  25.138  -7.115  1.00  0.00     0.093 A 
ATOM      7  C   UNL     1      14.065  24.385  -6.898  1.00  0.00     0.136 A 
ATOM      8  C   UNL     1      14.705  23.765  -7.987  1.00  0.00     0.125 A 
ATOM      9  C   UNL     1      15.872  23.007  -7.831  1.00  0.00     0.078 A 
ATOM     10  C   UNL     1      16.471  22.418  -8.947  1.00  0.00     0.223 A 
ENDROOT
BRANCH   1  11
ATOM     11  C   UNL     1      16.434  21.978 -11.438  1.00  0.00     0.091 A 
ATOM     12  C   UNL     1      16.458  22.678 -12.656  1.00  0.00     0.068 A 
ATOM     13  C   UNL     1      17.017  22.100 -13.800  1.00  0.00     0.162 A 
ATOM     14  C   UNL     1      17.009  20.699 -11.375  1.00  0.00     0.068 A 
ATOM     15  C   UNL     1      17.571  20.809 -13.737  1.00  0.00     0.200 A 
ATOM     16  C   UNL     1      17.569  20.111 -12.517  1.00  0.00     0.162 A 
BRANCH  13  17
ATOM     17  O   UNL     1      17.016  22.825 -14.992  1.00  0.00    -0.504 OA
ATOM     18  H   UNL     1      16.930  22.377 -15.896  1.00  0.00     0.293 HD
ENDBRANCH  13  17
BRANCH  15  19
ATOM     19  O   UNL     1      18.120  20.238 -14.884  1.00  0.00    -0.502 OA
ATOM     20  H   UNL     1      17.690  20.337 -15.795  1.00  0.00     0.293 HD
ENDBRANCH  15  19
BRANCH  16  21
ATOM     21  O   UNL     1      18.124  18.834 -12.444  1.00  0.00    -0.504 OA
ATOM     22  H   UNL     1      19.058  18.680 -12.084  1.00  0.00     0.293 HD
ENDBRANCH  16  21
ENDBRANCH   1  11
BRANCH  10  23
ATOM     23  O   UNL     1      17.663  21.705  -8.806  1.00  0.00    -0.500 OA
ATOM     24  H   UNL     1      17.743  20.740  -9.103  1.00  0.00     0.294 HD
ENDBRANCH  10  23
BRANCH   5  25
ATOM     25  O   UNL     1      11.222  26.025  -8.627  1.00  0.00    -0.507 OA
ATOM     26  H   UNL     1      11.192  27.021  -8.439  1.00  0.00     0.293 HD
ENDBRANCH   5  25
BRANCH   7  27
ATOM     27  O   UNL     1      14.580  24.254  -5.607  1.00  0.00    -0.507 OA
ATOM     28  H   UNL     1      15.339  23.615  -5.400  1.00  0.00     0.293 HD
ENDBRANCH   7  27
TORSDOF 7
ENDMDL
