MODEL 1
REMARK VINA RESULT:    -7.515      0.000      0.000
REMARK INTER + INTRA:         -10.995
REMARK INTER:                  -9.931
REMARK INTRA:                  -1.064
REMARK UNBOUND:                -1.064
REMARK SMILES C=C(CC[C@H](C)[C@@H]1CC[C@@]2(C)[C@@H]3CC[C@@H]4C(C)(C)[C@H](O)CC[C@@]45C[C@@]35CC[C@@]12C)C(C)C
REMARK SMILES IDX 4 1 3 2 2 3 1 4 30 5 31 6 32 7 5 8 6 9 7 10 8 11 28 12 9 13
REMARK SMILES IDX 10 14 27 15 29 16 11 17 12 18 26 19 25 20 13 21 23 22 24 23
REMARK SMILES IDX 14 24 15 25 22 26 16 27 21 28 19 29 17 30 18 31 20 32
REMARK H PARENT 20 33
REMARK Flexibility Score: inf
ROOT
ATOM      1  C   UNL     1      47.773   6.919 113.427  1.00  0.00     0.008 C 
ENDROOT
BRANCH   1   2
ATOM      2  C   UNL     1      47.783   7.301 111.936  1.00  0.00     0.031 C 
BRANCH   2   3
ATOM      3  C   UNL     1      48.854   6.528 111.199  1.00  0.00    -0.075 C 
ATOM      4  C   UNL     1      49.195   6.903 109.953  1.00  0.00     0.008 C 
BRANCH   3   5
ATOM      5  C   UNL     1      49.500   5.320 111.862  1.00  0.00     0.008 C 
ATOM      6  C   UNL     1      48.897   4.011 111.341  1.00  0.00     0.012 C 
ATOM      7  C   UNL     1      51.024   5.334 111.691  1.00  0.00     0.012 C 
ENDBRANCH   3   5
ENDBRANCH   2   3
ENDBRANCH   1   2
BRANCH   1   8
ATOM      8  C   UNL     1      48.250   8.054 114.382  1.00  0.00    -0.010 C 
ATOM      9  C   UNL     1      49.797   8.156 114.291  1.00  0.00     0.008 C 
BRANCH   8  10
ATOM     10  C   UNL     1      47.750   7.930 115.883  1.00  0.00    -0.002 C 
ATOM     11  C   UNL     1      46.641   6.888 116.055  1.00  0.00     0.005 C 
ATOM     12  C   UNL     1      47.161   9.232 116.599  1.00  0.00    -0.024 C 
ATOM     13  C   UNL     1      45.350   7.664 116.015  1.00  0.00     0.008 C 
ATOM     14  C   UNL     1      45.598   8.935 116.855  1.00  0.00    -0.024 C 
ATOM     15  C   UNL     1      47.924   9.421 117.947  1.00  0.00     0.008 C 
ATOM     16  C   UNL     1      47.404  10.540 115.772  1.00  0.00     0.012 C 
ATOM     17  C   UNL     1      44.654  10.058 116.331  1.00  0.00     0.012 C 
ATOM     18  C   UNL     1      45.247   8.627 118.387  1.00  0.00     0.002 C 
ATOM     19  C   UNL     1      47.178  10.351 118.898  1.00  0.00     0.008 C 
ATOM     20  C   UNL     1      45.880   9.663 119.380  1.00  0.00    -0.020 C 
ATOM     21  C   UNL     1      43.730   8.365 118.642  1.00  0.00     0.005 C 
ATOM     22  C   UNL     1      45.023  10.293 120.523  1.00  0.00    -0.020 C 
ATOM     23  C   UNL     1      46.038   9.188 120.834  1.00  0.00     0.015 C 
ATOM     24  C   UNL     1      42.979   9.556 119.253  1.00  0.00     0.005 C 
ATOM     25  C   UNL     1      43.533   9.831 120.659  1.00  0.00     0.004 C 
ATOM     26  C   UNL     1      45.406  11.780 120.756  1.00  0.00     0.010 C 
ATOM     27  C   UNL     1      42.658  10.756 121.596  1.00  0.00    -0.006 C 
ATOM     28  C   UNL     1      44.490  12.531 121.714  1.00  0.00     0.033 C 
ATOM     29  C   UNL     1      43.013  12.261 121.414  1.00  0.00     0.120 C 
ATOM     30  C   UNL     1      42.914  10.335 123.072  1.00  0.00     0.014 C 
ATOM     31  C   UNL     1      41.137  10.573 121.359  1.00  0.00     0.014 C 
BRANCH  29  32
ATOM     32  O   UNL     1      42.728  12.690 120.103  1.00  0.00    -0.393 OA
ATOM     33  H   UNL     1      41.855  13.159 120.127  1.00  0.00     0.210 HD
ENDBRANCH  29  32
ENDBRANCH   8  10
ENDBRANCH   1   8
TORSDOF 6
ENDMDL
MODEL 2
REMARK VINA RESULT:    -6.859      2.709      9.540
REMARK INTER + INTRA:         -10.129
REMARK INTER:                 -10.464
REMARK INTRA:                   0.336
REMARK UNBOUND:                -1.064
REMARK SMILES C=C(CC[C@H](C)[C@@H]1CC[C@@]2(C)[C@@H]3CC[C@@H]4C(C)(C)[C@H](O)CC[C@@]45C[C@@]35CC[C@@]12C)C(C)C
REMARK SMILES IDX 4 1 3 2 2 3 1 4 30 5 31 6 32 7 5 8 6 9 7 10 8 11 28 12 9 13
REMARK SMILES IDX 10 14 27 15 29 16 11 17 12 18 26 19 25 20 13 21 23 22 24 23
REMARK SMILES IDX 14 24 15 25 22 26 16 27 21 28 19 29 17 30 18 31 20 32
REMARK H PARENT 20 33
REMARK Flexibility Score: inf
ROOT
ATOM      1  C   UNL     1      43.551  10.570 118.617  1.00  0.00     0.008 C 
ENDROOT
BRANCH   1   2
ATOM      2  C   UNL     1      43.208   9.716 119.852  1.00  0.00     0.031 C 
BRANCH   2   3
ATOM      3  C   UNL     1      42.445  10.536 120.867  1.00  0.00    -0.075 C 
ATOM      4  C   UNL     1      41.307  10.044 121.389  1.00  0.00     0.008 C 
BRANCH   3   5
ATOM      5  C   UNL     1      42.954  11.918 121.253  1.00  0.00     0.008 C 
ATOM      6  C   UNL     1      41.915  13.001 120.943  1.00  0.00     0.012 C 
ATOM      7  C   UNL     1      43.382  11.967 122.725  1.00  0.00     0.012 C 
ENDBRANCH   3   5
ENDBRANCH   2   3
ENDBRANCH   1   2
BRANCH   1   8
ATOM      8  C   UNL     1      43.439   9.808 117.262  1.00  0.00    -0.010 C 
ATOM      9  C   UNL     1      42.969   8.357 117.550  1.00  0.00     0.008 C 
BRANCH   8  10
ATOM     10  C   UNL     1      44.744   9.841 116.359  1.00  0.00    -0.002 C 
ATOM     11  C   UNL     1      44.433  10.047 114.873  1.00  0.00     0.005 C 
ATOM     12  C   UNL     1      45.710   8.568 116.371  1.00  0.00    -0.024 C 
ATOM     13  C   UNL     1      44.424   8.667 114.269  1.00  0.00     0.008 C 
ATOM     14  C   UNL     1      45.626   7.927 114.894  1.00  0.00    -0.024 C 
ATOM     15  C   UNL     1      47.154   9.068 116.683  1.00  0.00     0.008 C 
ATOM     16  C   UNL     1      45.349   7.544 117.500  1.00  0.00     0.012 C 
ATOM     17  C   UNL     1      45.315   6.400 114.892  1.00  0.00     0.012 C 
ATOM     18  C   UNL     1      46.929   8.199 114.004  1.00  0.00     0.002 C 
ATOM     19  C   UNL     1      48.210   8.035 116.304  1.00  0.00     0.008 C 
ATOM     20  C   UNL     1      48.266   7.895 114.766  1.00  0.00    -0.020 C 
ATOM     21  C   UNL     1      46.862   7.556 112.583  1.00  0.00     0.005 C 
ATOM     22  C   UNL     1      49.398   7.064 114.084  1.00  0.00    -0.020 C 
ATOM     23  C   UNL     1      49.524   8.586 114.214  1.00  0.00     0.015 C 
ATOM     24  C   UNL     1      47.671   6.260 112.438  1.00  0.00     0.005 C 
ATOM     25  C   UNL     1      49.164   6.580 112.613  1.00  0.00     0.004 C 
ATOM     26  C   UNL     1      50.111   6.141 115.109  1.00  0.00     0.010 C 
ATOM     27  C   UNL     1      50.185   5.472 112.134  1.00  0.00    -0.006 C 
ATOM     28  C   UNL     1      51.094   5.151 114.498  1.00  0.00     0.033 C 
ATOM     29  C   UNL     1      50.507   4.454 113.267  1.00  0.00     0.120 C 
ATOM     30  C   UNL     1      51.495   6.180 111.682  1.00  0.00     0.014 C 
ATOM     31  C   UNL     1      49.676   4.690 110.895  1.00  0.00     0.014 C 
BRANCH  29  32
ATOM     32  O   UNL     1      49.350   3.747 113.651  1.00  0.00    -0.393 OA
ATOM     33  H   UNL     1      48.778   4.373 114.166  1.00  0.00     0.210 HD
ENDBRANCH  29  32
ENDBRANCH   8  10
ENDBRANCH   1   8
TORSDOF 6
ENDMDL
MODEL 3
REMARK VINA RESULT:    -6.655      9.141     12.126
REMARK INTER + INTRA:          -9.859
REMARK INTER:                  -8.829
REMARK INTRA:                  -1.030
REMARK UNBOUND:                -1.064
REMARK SMILES C=C(CC[C@H](C)[C@@H]1CC[C@@]2(C)[C@@H]3CC[C@@H]4C(C)(C)[C@H](O)CC[C@@]45C[C@@]35CC[C@@]12C)C(C)C
REMARK SMILES IDX 4 1 3 2 2 3 1 4 30 5 31 6 32 7 5 8 6 9 7 10 8 11 28 12 9 13
REMARK SMILES IDX 10 14 27 15 29 16 11 17 12 18 26 19 25 20 13 21 23 22 24 23
REMARK SMILES IDX 14 24 15 25 22 26 16 27 21 28 19 29 17 30 18 31 20 32
REMARK H PARENT 20 33
REMARK Flexibility Score: inf
ROOT
ATOM      1  C   UNL     1      41.879  11.233 114.094  1.00  0.00     0.008 C 
ENDROOT
BRANCH   1   2
ATOM      2  C   UNL     1      43.036  10.302 113.689  1.00  0.00     0.031 C 
BRANCH   2   3
ATOM      3  C   UNL     1      43.603   9.604 114.905  1.00  0.00    -0.075 C 
ATOM      4  C   UNL     1      43.668  10.268 116.074  1.00  0.00     0.008 C 
BRANCH   3   5
ATOM      5  C   UNL     1      44.124   8.178 114.780  1.00  0.00     0.008 C 
ATOM      6  C   UNL     1      42.995   7.203 114.432  1.00  0.00     0.012 C 
ATOM      7  C   UNL     1      45.267   8.087 113.763  1.00  0.00     0.012 C 
ENDBRANCH   3   5
ENDBRANCH   2   3
ENDBRANCH   1   2
BRANCH   1   8
ATOM      8  C   UNL     1      42.142  12.742 113.806  1.00  0.00    -0.010 C 
ATOM      9  C   UNL     1      42.129  13.510 115.155  1.00  0.00     0.008 C 
BRANCH   8  10
ATOM     10  C   UNL     1      41.176  13.405 112.736  1.00  0.00    -0.002 C 
ATOM     11  C   UNL     1      40.194  12.403 112.121  1.00  0.00     0.005 C 
ATOM     12  C   UNL     1      41.826  14.126 111.467  1.00  0.00    -0.024 C 
ATOM     13  C   UNL     1      40.824  11.966 110.825  1.00  0.00     0.008 C 
ATOM     14  C   UNL     1      41.399  13.248 110.184  1.00  0.00    -0.024 C 
ATOM     15  C   UNL     1      41.234  15.567 111.381  1.00  0.00     0.008 C 
ATOM     16  C   UNL     1      43.378  14.298 111.596  1.00  0.00     0.012 C 
ATOM     17  C   UNL     1      42.598  12.845 109.275  1.00  0.00     0.012 C 
ATOM     18  C   UNL     1      40.266  13.937 109.285  1.00  0.00     0.002 C 
ATOM     19  C   UNL     1      41.440  16.187 110.004  1.00  0.00     0.008 C 
ATOM     20  C   UNL     1      40.570  15.442 108.966  1.00  0.00    -0.020 C 
ATOM     21  C   UNL     1      39.870  13.101 108.028  1.00  0.00     0.005 C 
ATOM     22  C   UNL     1      40.418  15.993 107.513  1.00  0.00    -0.020 C 
ATOM     23  C   UNL     1      39.357  16.302 108.574  1.00  0.00     0.015 C 
ATOM     24  C   UNL     1      40.485  13.606 106.716  1.00  0.00     0.005 C 
ATOM     25  C   UNL     1      39.925  15.002 106.405  1.00  0.00     0.004 C 
ATOM     26  C   UNL     1      41.518  17.042 107.194  1.00  0.00     0.010 C 
ATOM     27  C   UNL     1      40.133  15.535 104.931  1.00  0.00    -0.006 C 
ATOM     28  C   UNL     1      41.570  17.486 105.738  1.00  0.00     0.033 C 
ATOM     29  C   UNL     1      41.483  16.296 104.778  1.00  0.00     0.120 C 
ATOM     30  C   UNL     1      38.954  16.493 104.588  1.00  0.00     0.014 C 
ATOM     31  C   UNL     1      40.081  14.401 103.875  1.00  0.00     0.014 C 
BRANCH  29  32
ATOM     32  O   UNL     1      42.574  15.437 105.016  1.00  0.00    -0.393 OA
ATOM     33  H   UNL     1      42.277  14.515 104.803  1.00  0.00     0.210 HD
ENDBRANCH  29  32
ENDBRANCH   8  10
ENDBRANCH   1   8
TORSDOF 6
ENDMDL
MODEL 4
REMARK VINA RESULT:    -6.592     10.037     13.499
REMARK INTER + INTRA:          -9.775
REMARK INTER:                  -7.841
REMARK INTRA:                  -1.934
REMARK UNBOUND:                -1.064
REMARK SMILES C=C(CC[C@H](C)[C@@H]1CC[C@@]2(C)[C@@H]3CC[C@@H]4C(C)(C)[C@H](O)CC[C@@]45C[C@@]35CC[C@@]12C)C(C)C
REMARK SMILES IDX 4 1 3 2 2 3 1 4 30 5 31 6 32 7 5 8 6 9 7 10 8 11 28 12 9 13
REMARK SMILES IDX 10 14 27 15 29 16 11 17 12 18 26 19 25 20 13 21 23 22 24 23
REMARK SMILES IDX 14 24 15 25 22 26 16 27 21 28 19 29 17 30 18 31 20 32
REMARK H PARENT 20 33
REMARK Flexibility Score: inf
ROOT
ATOM      1  C   UNL     1      40.115  15.845 114.205  1.00  0.00     0.008 C 
ENDROOT
BRANCH   1   2
ATOM      2  C   UNL     1      41.568  15.511 114.586  1.00  0.00     0.031 C 
BRANCH   2   3
ATOM      3  C   UNL     1      42.030  14.263 113.868  1.00  0.00    -0.075 C 
ATOM      4  C   UNL     1      42.708  14.382 112.712  1.00  0.00     0.008 C 
BRANCH   3   5
ATOM      5  C   UNL     1      41.689  12.894 114.443  1.00  0.00     0.008 C 
ATOM      6  C   UNL     1      41.957  11.781 113.425  1.00  0.00     0.012 C 
ATOM      7  C   UNL     1      42.438  12.635 115.756  1.00  0.00     0.012 C 
ENDBRANCH   3   5
ENDBRANCH   2   3
ENDBRANCH   1   2
BRANCH   1   8
ATOM      8  C   UNL     1      39.959  16.516 112.807  1.00  0.00    -0.010 C 
ATOM      9  C   UNL     1      39.635  18.020 113.017  1.00  0.00     0.008 C 
BRANCH   8  10
ATOM     10  C   UNL     1      38.920  15.816 111.833  1.00  0.00    -0.002 C 
ATOM     11  C   UNL     1      38.314  14.541 112.427  1.00  0.00     0.005 C 
ATOM     12  C   UNL     1      39.423  15.358 110.387  1.00  0.00    -0.024 C 
ATOM     13  C   UNL     1      39.134  13.407 111.867  1.00  0.00     0.008 C 
ATOM     14  C   UNL     1      39.359  13.747 110.378  1.00  0.00    -0.024 C 
ATOM     15  C   UNL     1      38.449  15.962 109.329  1.00  0.00     0.008 C 
ATOM     16  C   UNL     1      40.846  15.911 110.037  1.00  0.00     0.012 C 
ATOM     17  C   UNL     1      40.684  13.070 109.918  1.00  0.00     0.012 C 
ATOM     18  C   UNL     1      38.143  13.159 109.518  1.00  0.00     0.002 C 
ATOM     19  C   UNL     1      38.565  15.261 107.980  1.00  0.00     0.008 C 
ATOM     20  C   UNL     1      38.021  13.819 108.100  1.00  0.00    -0.020 C 
ATOM     21  C   UNL     1      38.094  11.599 109.486  1.00  0.00     0.005 C 
ATOM     22  C   UNL     1      37.821  12.935 106.828  1.00  0.00    -0.020 C 
ATOM     23  C   UNL     1      36.643  13.712 107.427  1.00  0.00     0.015 C 
ATOM     24  C   UNL     1      38.628  10.978 108.189  1.00  0.00     0.005 C 
ATOM     25  C   UNL     1      37.714  11.386 107.024  1.00  0.00     0.004 C 
ATOM     26  C   UNL     1      38.592  13.520 105.613  1.00  0.00     0.010 C 
ATOM     27  C   UNL     1      37.863  10.559 105.685  1.00  0.00    -0.006 C 
ATOM     28  C   UNL     1      38.616  12.622 104.383  1.00  0.00     0.033 C 
ATOM     29  C   UNL     1      38.944  11.171 104.746  1.00  0.00     0.120 C 
ATOM     30  C   UNL     1      36.486  10.553 104.959  1.00  0.00     0.014 C 
ATOM     31  C   UNL     1      38.214   9.070 105.941  1.00  0.00     0.014 C 
BRANCH  29  32
ATOM     32  O   UNL     1      40.216  11.128 105.350  1.00  0.00    -0.393 OA
ATOM     33  H   UNL     1      40.761  11.850 104.944  1.00  0.00     0.210 HD
ENDBRANCH  29  32
ENDBRANCH   8  10
ENDBRANCH   1   8
TORSDOF 6
ENDMDL
MODEL 5
REMARK VINA RESULT:    -6.330      8.188     11.374
REMARK INTER + INTRA:          -9.429
REMARK INTER:                  -8.621
REMARK INTRA:                  -0.808
REMARK UNBOUND:                -1.064
REMARK SMILES C=C(CC[C@H](C)[C@@H]1CC[C@@]2(C)[C@@H]3CC[C@@H]4C(C)(C)[C@H](O)CC[C@@]45C[C@@]35CC[C@@]12C)C(C)C
REMARK SMILES IDX 4 1 3 2 2 3 1 4 30 5 31 6 32 7 5 8 6 9 7 10 8 11 28 12 9 13
REMARK SMILES IDX 10 14 27 15 29 16 11 17 12 18 26 19 25 20 13 21 23 22 24 23
REMARK SMILES IDX 14 24 15 25 22 26 16 27 21 28 19 29 17 30 18 31 20 32
REMARK H PARENT 20 33
REMARK Flexibility Score: inf
ROOT
ATOM      1  C   UNL     1      43.198  10.291 114.766  1.00  0.00     0.008 C 
ENDROOT
BRANCH   1   2
ATOM      2  C   UNL     1      44.065  10.068 116.019  1.00  0.00     0.031 C 
BRANCH   2   3
ATOM      3  C   UNL     1      43.624   8.820 116.751  1.00  0.00    -0.075 C 
ATOM      4  C   UNL     1      43.384   7.697 116.051  1.00  0.00     0.008 C 
BRANCH   3   5
ATOM      5  C   UNL     1      43.425   8.865 118.260  1.00  0.00     0.008 C 
ATOM      6  C   UNL     1      44.506   8.059 118.988  1.00  0.00     0.012 C 
ATOM      7  C   UNL     1      43.369  10.308 118.776  1.00  0.00     0.012 C 
ENDBRANCH   3   5
ENDBRANCH   2   3
ENDBRANCH   1   2
BRANCH   1   8
ATOM      8  C   UNL     1      42.698  11.756 114.587  1.00  0.00    -0.010 C 
ATOM      9  C   UNL     1      42.170  12.266 115.955  1.00  0.00     0.008 C 
BRANCH   8  10
ATOM     10  C   UNL     1      41.641  11.972 113.424  1.00  0.00    -0.002 C 
ATOM     11  C   UNL     1      41.779  10.944 112.296  1.00  0.00     0.005 C 
ATOM     12  C   UNL     1      41.628  13.375 112.658  1.00  0.00    -0.024 C 
ATOM     13  C   UNL     1      42.616  11.616 111.240  1.00  0.00     0.008 C 
ATOM     14  C   UNL     1      42.090  13.065 111.145  1.00  0.00    -0.024 C 
ATOM     15  C   UNL     1      40.168  13.925 112.695  1.00  0.00     0.008 C 
ATOM     16  C   UNL     1      42.521  14.455 113.357  1.00  0.00     0.012 C 
ATOM     17  C   UNL     1      43.253  13.975 110.647  1.00  0.00     0.012 C 
ATOM     18  C   UNL     1      40.891  13.118 110.085  1.00  0.00     0.002 C 
ATOM     19  C   UNL     1      39.943  15.016 111.654  1.00  0.00     0.008 C 
ATOM     20  C   UNL     1      39.995  14.396 110.239  1.00  0.00    -0.020 C 
ATOM     21  C   UNL     1      41.341  12.844 108.616  1.00  0.00     0.005 C 
ATOM     22  C   UNL     1      39.590  15.237 108.986  1.00  0.00    -0.020 C 
ATOM     23  C   UNL     1      38.579  14.296 109.649  1.00  0.00     0.015 C 
ATOM     24  C   UNL     1      41.468  14.105 107.751  1.00  0.00     0.005 C 
ATOM     25  C   UNL     1      40.080  14.741 107.584  1.00  0.00     0.004 C 
ATOM     26  C   UNL     1      39.563  16.754 109.316  1.00  0.00     0.010 C 
ATOM     27  C   UNL     1      39.928  15.817 106.436  1.00  0.00    -0.006 C 
ATOM     28  C   UNL     1      39.372  17.664 108.109  1.00  0.00     0.033 C 
ATOM     29  C   UNL     1      40.270  17.251 106.939  1.00  0.00     0.120 C 
ATOM     30  C   UNL     1      38.458  15.781 105.925  1.00  0.00     0.014 C 
ATOM     31  C   UNL     1      40.814  15.501 105.203  1.00  0.00     0.014 C 
BRANCH  29  32
ATOM     32  O   UNL     1      41.616  17.333 107.346  1.00  0.00    -0.393 OA
ATOM     33  H   UNL     1      42.028  18.091 106.856  1.00  0.00     0.210 HD
ENDBRANCH  29  32
ENDBRANCH   8  10
ENDBRANCH   1   8
TORSDOF 6
ENDMDL
MODEL 6
REMARK VINA RESULT:    -6.280      9.865     13.183
REMARK INTER + INTRA:          -9.363
REMARK INTER:                  -7.898
REMARK INTRA:                  -1.465
REMARK UNBOUND:                -1.064
REMARK SMILES C=C(CC[C@H](C)[C@@H]1CC[C@@]2(C)[C@@H]3CC[C@@H]4C(C)(C)[C@H](O)CC[C@@]45C[C@@]35CC[C@@]12C)C(C)C
REMARK SMILES IDX 4 1 3 2 2 3 1 4 30 5 31 6 32 7 5 8 6 9 7 10 8 11 28 12 9 13
REMARK SMILES IDX 10 14 27 15 29 16 11 17 12 18 26 19 25 20 13 21 23 22 24 23
REMARK SMILES IDX 14 24 15 25 22 26 16 27 21 28 19 29 17 30 18 31 20 32
REMARK H PARENT 20 33
REMARK Flexibility Score: inf
ROOT
ATOM      1  C   UNL     1      41.510  15.974 111.198  1.00  0.00     0.008 C 
ENDROOT
BRANCH   1   2
ATOM      2  C   UNL     1      42.240  14.951 112.088  1.00  0.00     0.031 C 
BRANCH   2   3
ATOM      3  C   UNL     1      41.614  14.906 113.464  1.00  0.00    -0.075 C 
ATOM      4  C   UNL     1      41.877  13.864 114.273  1.00  0.00     0.008 C 
BRANCH   3   5
ATOM      5  C   UNL     1      40.668  16.018 113.897  1.00  0.00     0.008 C 
ATOM      6  C   UNL     1      39.222  15.519 113.977  1.00  0.00     0.012 C 
ATOM      7  C   UNL     1      41.111  16.646 115.223  1.00  0.00     0.012 C 
ENDBRANCH   3   5
ENDBRANCH   2   3
ENDBRANCH   1   2
BRANCH   1   8
ATOM      8  C   UNL     1      41.610  15.678 109.671  1.00  0.00    -0.010 C 
ATOM      9  C   UNL     1      41.907  17.011 108.931  1.00  0.00     0.008 C 
BRANCH   8  10
ATOM     10  C   UNL     1      40.364  14.918 109.047  1.00  0.00    -0.002 C 
ATOM     11  C   UNL     1      39.118  14.990 109.935  1.00  0.00     0.005 C 
ATOM     12  C   UNL     1      40.509  13.360 108.723  1.00  0.00    -0.024 C 
ATOM     13  C   UNL     1      39.113  13.708 110.725  1.00  0.00     0.008 C 
ATOM     14  C   UNL     1      39.505  12.597 109.727  1.00  0.00    -0.024 C 
ATOM     15  C   UNL     1      40.087  13.141 107.236  1.00  0.00     0.008 C 
ATOM     16  C   UNL     1      41.986  12.852 108.837  1.00  0.00     0.012 C 
ATOM     17  C   UNL     1      40.178  11.439 110.524  1.00  0.00     0.012 C 
ATOM     18  C   UNL     1      38.183  12.044 109.013  1.00  0.00     0.002 C 
ATOM     19  C   UNL     1      39.775  11.677 106.942  1.00  0.00     0.008 C 
ATOM     20  C   UNL     1      38.484  11.266 107.685  1.00  0.00    -0.020 C 
ATOM     21  C   UNL     1      37.222  11.282 109.978  1.00  0.00     0.005 C 
ATOM     22  C   UNL     1      37.809   9.886 107.403  1.00  0.00    -0.020 C 
ATOM     23  C   UNL     1      37.314  11.152 106.695  1.00  0.00     0.015 C 
ATOM     24  C   UNL     1      37.294   9.754 109.863  1.00  0.00     0.005 C 
ATOM     25  C   UNL     1      36.805   9.332 108.469  1.00  0.00     0.004 C 
ATOM     26  C   UNL     1      38.784   8.925 106.670  1.00  0.00     0.010 C 
ATOM     27  C   UNL     1      36.446   7.805 108.277  1.00  0.00    -0.006 C 
ATOM     28  C   UNL     1      38.282   7.494 106.530  1.00  0.00     0.033 C 
ATOM     29  C   UNL     1      37.686   6.971 107.840  1.00  0.00     0.120 C 
ATOM     30  C   UNL     1      35.337   7.697 107.190  1.00  0.00     0.014 C 
ATOM     31  C   UNL     1      35.848   7.169 109.559  1.00  0.00     0.014 C 
BRANCH  29  32
ATOM     32  O   UNL     1      38.683   6.993 108.835  1.00  0.00    -0.393 OA
ATOM     33  H   UNL     1      38.255   6.726 109.689  1.00  0.00     0.210 HD
ENDBRANCH  29  32
ENDBRANCH   8  10
ENDBRANCH   1   8
TORSDOF 6
ENDMDL
MODEL 7
REMARK VINA RESULT:    -6.152     10.259     12.410
REMARK INTER + INTRA:          -9.194
REMARK INTER:                  -7.565
REMARK INTRA:                  -1.628
REMARK UNBOUND:                -1.064
REMARK SMILES C=C(CC[C@H](C)[C@@H]1CC[C@@]2(C)[C@@H]3CC[C@@H]4C(C)(C)[C@H](O)CC[C@@]45C[C@@]35CC[C@@]12C)C(C)C
REMARK SMILES IDX 4 1 3 2 2 3 1 4 30 5 31 6 32 7 5 8 6 9 7 10 8 11 28 12 9 13
REMARK SMILES IDX 10 14 27 15 29 16 11 17 12 18 26 19 25 20 13 21 23 22 24 23
REMARK SMILES IDX 14 24 15 25 22 26 16 27 21 28 19 29 17 30 18 31 20 32
REMARK H PARENT 20 33
REMARK Flexibility Score: inf
ROOT
ATOM      1  C   UNL     1      40.505   0.050 114.394  1.00  0.00     0.008 C 
ENDROOT
BRANCH   1   2
ATOM      2  C   UNL     1      41.458   1.241 114.599  1.00  0.00     0.031 C 
BRANCH   2   3
ATOM      3  C   UNL     1      42.349   1.419 113.389  1.00  0.00    -0.075 C 
ATOM      4  C   UNL     1      43.013   2.577 113.226  1.00  0.00     0.008 C 
BRANCH   3   5
ATOM      5  C   UNL     1      42.452   0.301 112.360  1.00  0.00     0.008 C 
ATOM      6  C   UNL     1      42.242   0.833 110.939  1.00  0.00     0.012 C 
ATOM      7  C   UNL     1      43.783  -0.450 112.479  1.00  0.00     0.012 C 
ENDBRANCH   3   5
ENDBRANCH   2   3
ENDBRANCH   1   2
BRANCH   1   8
ATOM      8  C   UNL     1      39.093   0.245 115.024  1.00  0.00    -0.010 C 
ATOM      9  C   UNL     1      38.693  -1.067 115.752  1.00  0.00     0.008 C 
BRANCH   8  10
ATOM     10  C   UNL     1      37.966   0.734 114.019  1.00  0.00    -0.002 C 
ATOM     11  C   UNL     1      38.301   0.427 112.556  1.00  0.00     0.005 C 
ATOM     12  C   UNL     1      37.582   2.285 114.003  1.00  0.00    -0.024 C 
ATOM     13  C   UNL     1      38.905   1.693 112.008  1.00  0.00     0.008 C 
ATOM     14  C   UNL     1      38.041   2.846 112.563  1.00  0.00    -0.024 C 
ATOM     15  C   UNL     1      36.035   2.395 114.180  1.00  0.00     0.008 C 
ATOM     16  C   UNL     1      38.216   3.079 115.196  1.00  0.00     0.012 C 
ATOM     17  C   UNL     1      38.927   4.125 112.644  1.00  0.00     0.012 C 
ATOM     18  C   UNL     1      36.821   3.114 111.562  1.00  0.00     0.002 C 
ATOM     19  C   UNL     1      35.510   3.763 113.757  1.00  0.00     0.008 C 
ATOM     20  C   UNL     1      35.650   3.919 112.226  1.00  0.00    -0.020 C 
ATOM     21  C   UNL     1      37.261   3.683 110.176  1.00  0.00     0.005 C 
ATOM     22  C   UNL     1      35.001   5.133 111.488  1.00  0.00    -0.020 C 
ATOM     23  C   UNL     1      34.276   3.784 111.550  1.00  0.00     0.015 C 
ATOM     24  C   UNL     1      37.043   5.194 110.017  1.00  0.00     0.005 C 
ATOM     25  C   UNL     1      35.536   5.490 110.060  1.00  0.00     0.004 C 
ATOM     26  C   UNL     1      34.621   6.259 112.487  1.00  0.00     0.010 C 
ATOM     27  C   UNL     1      35.080   6.912 109.543  1.00  0.00    -0.006 C 
ATOM     28  C   UNL     1      34.165   7.559 111.838  1.00  0.00     0.033 C 
ATOM     29  C   UNL     1      35.086   7.971 110.685  1.00  0.00     0.120 C 
ATOM     30  C   UNL     1      33.642   6.782 108.961  1.00  0.00     0.014 C 
ATOM     31  C   UNL     1      35.963   7.434 108.380  1.00  0.00     0.014 C 
BRANCH  29  32
ATOM     32  O   UNL     1      36.388   8.161 111.187  1.00  0.00    -0.393 OA
ATOM     33  H   UNL     1      37.018   8.035 110.432  1.00  0.00     0.210 HD
ENDBRANCH  29  32
ENDBRANCH   8  10
ENDBRANCH   1   8
TORSDOF 6
ENDMDL
MODEL 8
REMARK VINA RESULT:    -6.086      8.332     11.028
REMARK INTER + INTRA:          -9.107
REMARK INTER:                  -8.173
REMARK INTRA:                  -0.934
REMARK UNBOUND:                -1.064
REMARK SMILES C=C(CC[C@H](C)[C@@H]1CC[C@@]2(C)[C@@H]3CC[C@@H]4C(C)(C)[C@H](O)CC[C@@]45C[C@@]35CC[C@@]12C)C(C)C
REMARK SMILES IDX 4 1 3 2 2 3 1 4 30 5 31 6 32 7 5 8 6 9 7 10 8 11 28 12 9 13
REMARK SMILES IDX 10 14 27 15 29 16 11 17 12 18 26 19 25 20 13 21 23 22 24 23
REMARK SMILES IDX 14 24 15 25 22 26 16 27 21 28 19 29 17 30 18 31 20 32
REMARK H PARENT 20 33
REMARK Flexibility Score: inf
ROOT
ATOM      1  C   UNL     1      43.038   9.936 114.155  1.00  0.00     0.008 C 
ENDROOT
BRANCH   1   2
ATOM      2  C   UNL     1      44.226   9.501 115.031  1.00  0.00     0.031 C 
BRANCH   2   3
ATOM      3  C   UNL     1      43.895   8.228 115.777  1.00  0.00    -0.075 C 
ATOM      4  C   UNL     1      43.226   7.249 115.142  1.00  0.00     0.008 C 
BRANCH   3   5
ATOM      5  C   UNL     1      44.290   8.090 117.241  1.00  0.00     0.008 C 
ATOM      6  C   UNL     1      45.774   8.408 117.449  1.00  0.00     0.012 C 
ATOM      7  C   UNL     1      43.406   8.958 118.145  1.00  0.00     0.012 C 
ENDBRANCH   3   5
ENDBRANCH   2   3
ENDBRANCH   1   2
BRANCH   1   8
ATOM      8  C   UNL     1      42.628  11.430 114.328  1.00  0.00    -0.010 C 
ATOM      9  C   UNL     1      42.621  11.765 115.844  1.00  0.00     0.008 C 
BRANCH   8  10
ATOM     10  C   UNL     1      41.269  11.845 113.621  1.00  0.00    -0.002 C 
ATOM     11  C   UNL     1      40.874  10.893 112.488  1.00  0.00     0.005 C 
ATOM     12  C   UNL     1      41.171  13.293 112.952  1.00  0.00    -0.024 C 
ATOM     13  C   UNL     1      41.371  11.546 111.224  1.00  0.00     0.008 C 
ATOM     14  C   UNL     1      41.035  13.046 111.365  1.00  0.00    -0.024 C 
ATOM     15  C   UNL     1      39.899  13.996 113.520  1.00  0.00     0.008 C 
ATOM     16  C   UNL     1      42.382  14.215 113.323  1.00  0.00     0.012 C 
ATOM     17  C   UNL     1      42.058  13.857 110.516  1.00  0.00     0.012 C 
ATOM     18  C   UNL     1      39.560  13.307 110.800  1.00  0.00     0.002 C 
ATOM     19  C   UNL     1      39.468  15.178 112.659  1.00  0.00     0.008 C 
ATOM     20  C   UNL     1      38.945  14.661 111.299  1.00  0.00    -0.020 C 
ATOM     21  C   UNL     1      39.432  13.095 109.259  1.00  0.00     0.005 C 
ATOM     22  C   UNL     1      38.241  15.631 110.297  1.00  0.00    -0.020 C 
ATOM     23  C   UNL     1      37.411  14.761 111.247  1.00  0.00     0.015 C 
ATOM     24  C   UNL     1      39.411  14.394 108.443  1.00  0.00     0.005 C 
ATOM     25  C   UNL     1      38.145  15.188 108.798  1.00  0.00     0.004 C 
ATOM     26  C   UNL     1      38.525  17.114 110.660  1.00  0.00     0.010 C 
ATOM     27  C   UNL     1      37.743  16.356 107.811  1.00  0.00    -0.006 C 
ATOM     28  C   UNL     1      38.044  18.125 109.627  1.00  0.00     0.033 C 
ATOM     29  C   UNL     1      38.419  17.702 108.203  1.00  0.00     0.120 C 
ATOM     30  C   UNL     1      36.195  16.518 107.853  1.00  0.00     0.014 C 
ATOM     31  C   UNL     1      38.097  16.035 106.335  1.00  0.00     0.014 C 
BRANCH  29  32
ATOM     32  O   UNL     1      39.821  17.607 108.109  1.00  0.00    -0.393 OA
ATOM     33  H   UNL     1      40.118  18.266 107.430  1.00  0.00     0.210 HD
ENDBRANCH  29  32
ENDBRANCH   8  10
ENDBRANCH   1   8
TORSDOF 6
ENDMDL
MODEL 9
REMARK VINA RESULT:    -6.042     11.400     13.710
REMARK INTER + INTRA:          -9.048
REMARK INTER:                  -7.047
REMARK INTRA:                  -2.002
REMARK UNBOUND:                -1.064
REMARK SMILES C=C(CC[C@H](C)[C@@H]1CC[C@@]2(C)[C@@H]3CC[C@@H]4C(C)(C)[C@H](O)CC[C@@]45C[C@@]35CC[C@@]12C)C(C)C
REMARK SMILES IDX 4 1 3 2 2 3 1 4 30 5 31 6 32 7 5 8 6 9 7 10 8 11 28 12 9 13
REMARK SMILES IDX 10 14 27 15 29 16 11 17 12 18 26 19 25 20 13 21 23 22 24 23
REMARK SMILES IDX 14 24 15 25 22 26 16 27 21 28 19 29 17 30 18 31 20 32
REMARK H PARENT 20 33
REMARK Flexibility Score: inf
ROOT
ATOM      1  C   UNL     1      36.934  -1.216 115.291  1.00  0.00     0.008 C 
ENDROOT
BRANCH   1   2
ATOM      2  C   UNL     1      38.441  -1.223 115.604  1.00  0.00     0.031 C 
BRANCH   2   3
ATOM      3  C   UNL     1      39.211  -0.517 114.512  1.00  0.00    -0.075 C 
ATOM      4  C   UNL     1      39.442  -1.155 113.351  1.00  0.00     0.008 C 
BRANCH   3   5
ATOM      5  C   UNL     1      39.745   0.889 114.756  1.00  0.00     0.008 C 
ATOM      6  C   UNL     1      40.712   0.918 115.943  1.00  0.00     0.012 C 
ATOM      7  C   UNL     1      40.398   1.468 113.495  1.00  0.00     0.012 C 
ENDBRANCH   3   5
ENDBRANCH   2   3
ENDBRANCH   1   2
BRANCH   1   8
ATOM      8  C   UNL     1      36.183   0.056 115.790  1.00  0.00    -0.010 C 
ATOM      9  C   UNL     1      35.338  -0.330 117.035  1.00  0.00     0.008 C 
BRANCH   8  10
ATOM     10  C   UNL     1      35.315   0.803 114.692  1.00  0.00    -0.002 C 
ATOM     11  C   UNL     1      35.555   0.267 113.278  1.00  0.00     0.005 C 
ATOM     12  C   UNL     1      35.489   2.384 114.533  1.00  0.00    -0.024 C 
ATOM     13  C   UNL     1      36.570   1.195 112.663  1.00  0.00     0.008 C 
ATOM     14  C   UNL     1      36.144   2.619 113.078  1.00  0.00    -0.024 C 
ATOM     15  C   UNL     1      34.071   3.031 114.619  1.00  0.00     0.008 C 
ATOM     16  C   UNL     1      36.331   3.022 115.689  1.00  0.00     0.012 C 
ATOM     17  C   UNL     1      37.414   3.521 113.103  1.00  0.00     0.012 C 
ATOM     18  C   UNL     1      35.112   3.193 111.997  1.00  0.00     0.002 C 
ATOM     19  C   UNL     1      34.057   4.450 114.062  1.00  0.00     0.008 C 
ATOM     20  C   UNL     1      34.276   4.407 112.532  1.00  0.00    -0.020 C 
ATOM     21  C   UNL     1      35.751   3.447 110.595  1.00  0.00     0.005 C 
ATOM     22  C   UNL     1      34.100   5.695 111.667  1.00  0.00    -0.020 C 
ATOM     23  C   UNL     1      32.954   4.686 111.798  1.00  0.00     0.015 C 
ATOM     24  C   UNL     1      36.070   4.919 110.305  1.00  0.00     0.005 C 
ATOM     25  C   UNL     1      34.757   5.714 110.245  1.00  0.00     0.004 C 
ATOM     26  C   UNL     1      34.110   6.970 112.552  1.00  0.00     0.010 C 
ATOM     27  C   UNL     1      34.829   7.152 109.593  1.00  0.00    -0.006 C 
ATOM     28  C   UNL     1      34.143   8.282 111.778  1.00  0.00     0.033 C 
ATOM     29  C   UNL     1      35.174   8.247 110.646  1.00  0.00     0.120 C 
ATOM     30  C   UNL     1      33.447   7.466 108.950  1.00  0.00     0.014 C 
ATOM     31  C   UNL     1      35.863   7.231 108.440  1.00  0.00     0.014 C 
BRANCH  29  32
ATOM     32  O   UNL     1      36.451   8.028 111.199  1.00  0.00    -0.393 OA
ATOM     33  H   UNL     1      36.498   8.538 112.047  1.00  0.00     0.210 HD
ENDBRANCH  29  32
ENDBRANCH   8  10
ENDBRANCH   1   8
TORSDOF 6
ENDMDL
