MODEL 1
REMARK VINA RESULT:    -5.009      0.000      0.000
REMARK INTER + INTRA:          -5.009
REMARK INTER:                  -5.009
REMARK INTRA:                   0.000
REMARK UNBOUND:                 0.000
REMARK SMILES CC(C)=C1CC[C@H](C)CC1=O
REMARK SMILES IDX 8 1 7 2 6 3 5 4 4 5 2 6 1 7 3 8 10 9 11 10 9 11
REMARK H PARENT
REMARK Flexibility Score: inf
ROOT
ATOM      1  C   UNL     1      15.590  19.716  13.135  1.00  0.00     0.008 C 
ATOM      2  C   UNL     1      16.600  19.461  14.259  1.00  0.00    -0.006 C 
ATOM      3  C   UNL     1      16.551  20.594  15.297  1.00  0.00     0.008 C 
ATOM      4  C   UNL     1      17.626  20.410  16.375  1.00  0.00     0.039 C 
ATOM      5  C   UNL     1      17.581  19.028  17.015  1.00  0.00    -0.006 C 
ATOM      6  C   UNL     1      17.935  18.837  18.320  1.00  0.00    -0.070 C 
ATOM      7  C   UNL     1      18.403  19.988  19.181  1.00  0.00     0.039 C 
ATOM      8  C   UNL     1      17.839  17.482  18.981  1.00  0.00     0.039 C 
ATOM      9  C   UNL     1      17.243  17.894  16.102  1.00  0.00     0.159 C 
ATOM     10  O   UNL     1      17.725  16.744  16.283  1.00  0.00    -0.295 OA
ATOM     11  C   UNL     1      16.320  18.114  14.940  1.00  0.00     0.084 C 
ENDROOT
TORSDOF 0
ENDMDL
MODEL 2
REMARK VINA RESULT:    -4.687      1.726      4.591
REMARK INTER + INTRA:          -4.687
REMARK INTER:                  -4.687
REMARK INTRA:                   0.000
REMARK UNBOUND:                 0.000
REMARK SMILES CC(C)=C1CC[C@H](C)CC1=O
REMARK SMILES IDX 8 1 7 2 6 3 5 4 4 5 2 6 1 7 3 8 10 9 11 10 9 11
REMARK H PARENT
REMARK Flexibility Score: inf
ROOT
ATOM      1  C   UNL     1      18.485  19.685  19.094  1.00  0.00     0.008 C 
ATOM      2  C   UNL     1      18.080  19.405  17.644  1.00  0.00    -0.006 C 
ATOM      3  C   UNL     1      17.470  17.999  17.514  1.00  0.00     0.008 C 
ATOM      4  C   UNL     1      17.152  17.661  16.052  1.00  0.00     0.039 C 
ATOM      5  C   UNL     1      16.305  18.731  15.376  1.00  0.00    -0.006 C 
ATOM      6  C   UNL     1      15.407  18.412  14.399  1.00  0.00    -0.070 C 
ATOM      7  C   UNL     1      15.228  16.984  13.933  1.00  0.00     0.039 C 
ATOM      8  C   UNL     1      14.519  19.456  13.762  1.00  0.00     0.039 C 
ATOM      9  C   UNL     1      16.600  20.143  15.764  1.00  0.00     0.159 C 
ATOM     10  O   UNL     1      16.463  21.089  14.942  1.00  0.00    -0.295 OA
ATOM     11  C   UNL     1      17.077  20.458  17.151  1.00  0.00     0.084 C 
ENDROOT
TORSDOF 0
ENDMDL
MODEL 3
REMARK VINA RESULT:    -4.573      7.543      9.084
REMARK INTER + INTRA:          -4.573
REMARK INTER:                  -4.573
REMARK INTRA:                   0.000
REMARK UNBOUND:                 0.000
REMARK SMILES CC(C)=C1CC[C@H](C)CC1=O
REMARK SMILES IDX 8 1 7 2 6 3 5 4 4 5 2 6 1 7 3 8 10 9 11 10 9 11
REMARK H PARENT
REMARK Flexibility Score: inf
ROOT
ATOM      1  C   UNL     1      20.628  18.741   8.946  1.00  0.00     0.008 C 
ATOM      2  C   UNL     1      20.387  20.224   9.250  1.00  0.00    -0.006 C 
ATOM      3  C   UNL     1      20.850  21.099   8.075  1.00  0.00     0.008 C 
ATOM      4  C   UNL     1      20.712  22.592   8.402  1.00  0.00     0.039 C 
ATOM      5  C   UNL     1      19.315  22.956   8.889  1.00  0.00    -0.006 C 
ATOM      6  C   UNL     1      18.772  24.183   8.635  1.00  0.00    -0.070 C 
ATOM      7  C   UNL     1      19.543  25.239   7.875  1.00  0.00     0.039 C 
ATOM      8  C   UNL     1      17.367  24.535   9.062  1.00  0.00     0.039 C 
ATOM      9  C   UNL     1      18.635  21.942   9.749  1.00  0.00     0.159 C 
ATOM     10  O   UNL     1      17.838  22.287  10.662  1.00  0.00    -0.295 OA
ATOM     11  C   UNL     1      18.901  20.480   9.541  1.00  0.00     0.084 C 
ENDROOT
TORSDOF 0
ENDMDL
MODEL 4
REMARK VINA RESULT:    -4.550      1.609      4.207
REMARK INTER + INTRA:          -4.550
REMARK INTER:                  -4.550
REMARK INTRA:                   0.000
REMARK UNBOUND:                 0.000
REMARK SMILES CC(C)=C1CC[C@H](C)CC1=O
REMARK SMILES IDX 8 1 7 2 6 3 5 4 4 5 2 6 1 7 3 8 10 9 11 10 9 11
REMARK H PARENT
REMARK Flexibility Score: inf
ROOT
ATOM      1  C   UNL     1      18.003  17.510  19.388  1.00  0.00     0.008 C 
ATOM      2  C   UNL     1      17.223  18.461  18.474  1.00  0.00    -0.006 C 
ATOM      3  C   UNL     1      18.186  19.310  17.629  1.00  0.00     0.008 C 
ATOM      4  C   UNL     1      17.426  20.340  16.783  1.00  0.00     0.039 C 
ATOM      5  C   UNL     1      16.318  19.709  15.950  1.00  0.00    -0.006 C 
ATOM      6  C   UNL     1      15.966  20.219  14.734  1.00  0.00    -0.070 C 
ATOM      7  C   UNL     1      16.649  21.445  14.171  1.00  0.00     0.039 C 
ATOM      8  C   UNL     1      14.909  19.567  13.873  1.00  0.00     0.039 C 
ATOM      9  C   UNL     1      15.576  18.583  16.593  1.00  0.00     0.159 C 
ATOM     10  O   UNL     1      14.356  18.380  16.347  1.00  0.00    -0.295 OA
ATOM     11  C   UNL     1      16.277  17.672  17.557  1.00  0.00     0.084 C 
ENDROOT
TORSDOF 0
ENDMDL
MODEL 5
REMARK VINA RESULT:    -4.541      7.428      8.432
REMARK INTER + INTRA:          -4.541
REMARK INTER:                  -4.541
REMARK INTRA:                   0.000
REMARK UNBOUND:                 0.000
REMARK SMILES CC(C)=C1CC[C@H](C)CC1=O
REMARK SMILES IDX 8 1 7 2 6 3 5 4 4 5 2 6 1 7 3 8 10 9 11 10 9 11
REMARK H PARENT
REMARK Flexibility Score: inf
ROOT
ATOM      1  C   UNL     1      14.840  21.250   9.622  1.00  0.00     0.008 C 
ATOM      2  C   UNL     1      16.336  20.936   9.728  1.00  0.00    -0.006 C 
ATOM      3  C   UNL     1      16.761  19.949   8.629  1.00  0.00     0.008 C 
ATOM      4  C   UNL     1      18.233  19.543   8.781  1.00  0.00     0.039 C 
ATOM      5  C   UNL     1      19.163  20.745   8.879  1.00  0.00    -0.006 C 
ATOM      6  C   UNL     1      20.438  20.697   8.394  1.00  0.00    -0.070 C 
ATOM      7  C   UNL     1      20.987  19.442   7.756  1.00  0.00     0.039 C 
ATOM      8  C   UNL     1      21.350  21.901   8.433  1.00  0.00     0.039 C 
ATOM      9  C   UNL     1      18.636  21.922   9.633  1.00  0.00     0.159 C 
ATOM     10  O   UNL     1      19.404  22.675  10.290  1.00  0.00    -0.295 OA
ATOM     11  C   UNL     1      17.166  22.224   9.624  1.00  0.00     0.084 C 
ENDROOT
TORSDOF 0
ENDMDL
MODEL 6
REMARK VINA RESULT:    -4.386      7.647      8.798
REMARK INTER + INTRA:          -4.386
REMARK INTER:                  -4.386
REMARK INTRA:                   0.000
REMARK UNBOUND:                 0.000
REMARK SMILES CC(C)=C1CC[C@H](C)CC1=O
REMARK SMILES IDX 8 1 7 2 6 3 5 4 4 5 2 6 1 7 3 8 10 9 11 10 9 11
REMARK H PARENT
REMARK Flexibility Score: inf
ROOT
ATOM      1  C   UNL     1      21.224  25.181   8.252  1.00  0.00     0.008 C 
ATOM      2  C   UNL     1      20.302  24.190   8.969  1.00  0.00    -0.006 C 
ATOM      3  C   UNL     1      18.827  24.558   8.736  1.00  0.00     0.008 C 
ATOM      4  C   UNL     1      17.890  23.638   9.529  1.00  0.00     0.039 C 
ATOM      5  C   UNL     1      18.172  22.162   9.281  1.00  0.00    -0.006 C 
ATOM      6  C   UNL     1      17.173  21.232   9.321  1.00  0.00    -0.070 C 
ATOM      7  C   UNL     1      15.747  21.627   9.631  1.00  0.00     0.039 C 
ATOM      8  C   UNL     1      17.430  19.774   9.019  1.00  0.00     0.039 C 
ATOM      9  C   UNL     1      19.608  21.788   9.110  1.00  0.00     0.159 C 
ATOM     10  O   UNL     1      20.042  20.667   9.487  1.00  0.00    -0.295 OA
ATOM     11  C   UNL     1      20.568  22.758   8.485  1.00  0.00     0.084 C 
ENDROOT
TORSDOF 0
ENDMDL
MODEL 7
REMARK VINA RESULT:    -4.383      6.894      8.594
REMARK INTER + INTRA:          -4.383
REMARK INTER:                  -4.383
REMARK INTRA:                   0.000
REMARK UNBOUND:                 0.000
REMARK SMILES CC(C)=C1CC[C@H](C)CC1=O
REMARK SMILES IDX 8 1 7 2 6 3 5 4 4 5 2 6 1 7 3 8 10 9 11 10 9 11
REMARK H PARENT
REMARK Flexibility Score: inf
ROOT
ATOM      1  C   UNL     1      21.743  22.684   8.528  1.00  0.00     0.008 C 
ATOM      2  C   UNL     1      20.525  21.787   8.286  1.00  0.00    -0.006 C 
ATOM      3  C   UNL     1      20.947  20.311   8.207  1.00  0.00     0.008 C 
ATOM      4  C   UNL     1      19.756  19.407   7.864  1.00  0.00     0.039 C 
ATOM      5  C   UNL     1      18.569  19.627   8.793  1.00  0.00    -0.006 C 
ATOM      6  C   UNL     1      17.721  18.607   9.114  1.00  0.00    -0.070 C 
ATOM      7  C   UNL     1      17.914  17.219   8.546  1.00  0.00     0.039 C 
ATOM      8  C   UNL     1      16.575  18.799  10.080  1.00  0.00     0.039 C 
ATOM      9  C   UNL     1      18.330  21.035   9.229  1.00  0.00     0.159 C 
ATOM     10  O   UNL     1      17.165  21.462   9.452  1.00  0.00    -0.295 OA
ATOM     11  C   UNL     1      19.487  21.976   9.402  1.00  0.00     0.084 C 
ENDROOT
TORSDOF 0
ENDMDL
MODEL 8
REMARK VINA RESULT:    -4.346      1.658      2.572
REMARK INTER + INTRA:          -4.346
REMARK INTER:                  -4.346
REMARK INTRA:                   0.000
REMARK UNBOUND:                 0.000
REMARK SMILES CC(C)=C1CC[C@H](C)CC1=O
REMARK SMILES IDX 8 1 7 2 6 3 5 4 4 5 2 6 1 7 3 8 10 9 11 10 9 11
REMARK H PARENT
REMARK Flexibility Score: inf
ROOT
ATOM      1  C   UNL     1      17.128  17.480  12.606  1.00  0.00     0.008 C 
ATOM      2  C   UNL     1      16.837  17.742  14.087  1.00  0.00    -0.006 C 
ATOM      3  C   UNL     1      17.599  16.743  14.974  1.00  0.00     0.008 C 
ATOM      4  C   UNL     1      17.241  16.925  16.454  1.00  0.00     0.039 C 
ATOM      5  C   UNL     1      17.403  18.365  16.923  1.00  0.00    -0.006 C 
ATOM      6  C   UNL     1      17.767  18.657  18.206  1.00  0.00    -0.070 C 
ATOM      7  C   UNL     1      18.006  17.563  19.221  1.00  0.00     0.039 C 
ATOM      8  C   UNL     1      17.988  20.079  18.666  1.00  0.00     0.039 C 
ATOM      9  C   UNL     1      17.031  19.421  15.935  1.00  0.00     0.159 C 
ATOM     10  O   UNL     1      16.547  20.524  16.307  1.00  0.00    -0.295 OA
ATOM     11  C   UNL     1      17.223  19.179  14.466  1.00  0.00     0.084 C 
ENDROOT
TORSDOF 0
ENDMDL
MODEL 9
REMARK VINA RESULT:    -4.312      6.972      8.341
REMARK INTER + INTRA:          -4.312
REMARK INTER:                  -4.312
REMARK INTRA:                   0.000
REMARK UNBOUND:                 0.000
REMARK SMILES CC(C)=C1CC[C@H](C)CC1=O
REMARK SMILES IDX 8 1 7 2 6 3 5 4 4 5 2 6 1 7 3 8 10 9 11 10 9 11
REMARK H PARENT
REMARK Flexibility Score: inf
ROOT
ATOM      1  C   UNL     1      18.173   9.035  10.672  1.00  0.00     0.008 C 
ATOM      2  C   UNL     1      17.863  10.455  11.157  1.00  0.00    -0.006 C 
ATOM      3  C   UNL     1      17.308  10.428  12.590  1.00  0.00     0.008 C 
ATOM      4  C   UNL     1      16.895  11.830  13.056  1.00  0.00     0.039 C 
ATOM      5  C   UNL     1      18.008  12.855  12.879  1.00  0.00    -0.006 C 
ATOM      6  C   UNL     1      18.143  13.911  13.734  1.00  0.00    -0.070 C 
ATOM      7  C   UNL     1      17.183  14.117  14.883  1.00  0.00     0.039 C 
ATOM      8  C   UNL     1      19.277  14.901  13.603  1.00  0.00     0.039 C 
ATOM      9  C   UNL     1      18.856  12.698  11.659  1.00  0.00     0.159 C 
ATOM     10  O   UNL     1      19.356  13.698  11.077  1.00  0.00    -0.295 OA
ATOM     11  C   UNL     1      19.123  11.331  11.100  1.00  0.00     0.084 C 
ENDROOT
TORSDOF 0
ENDMDL
