MODEL 1
REMARK VINA RESULT:    -4.741      0.000      0.000
REMARK INTER + INTRA:         -14.858
REMARK INTER:                 -11.947
REMARK INTRA:                  -2.911
REMARK UNBOUND:                -2.911
REMARK SMILES CCCCCCCCCCCCCCCCCCCCCCCCCCCC(=O)[O-]
REMARK SMILES IDX 15 1 16 2 17 3 18 4 19 5 20 6 21 7 22 8 23 9 24 10 25 11
REMARK SMILES IDX 26 12 27 13 28 14 29 15 30 16 14 17 13 18 12 19 11 20 10 21
REMARK SMILES IDX 9 22 8 23 7 24 6 25 5 26 4 27 3 28 2 29 1 30
REMARK H PARENT
REMARK Flexibility Score: inf
ROOT
ATOM      1  C   UNL     1      40.328  -6.932   9.431  1.00  0.00     0.000 C 
ENDROOT
BRANCH   1   2
ATOM      2  C   UNL     1      39.382  -7.818  10.261  1.00  0.00     0.000 C 
BRANCH   2   3
ATOM      3  C   UNL     1      38.713  -8.930   9.424  1.00  0.00     0.000 C 
BRANCH   3   4
ATOM      4  C   UNL     1      38.445 -10.227  10.207  1.00  0.00     0.000 C 
BRANCH   4   5
ATOM      5  C   UNL     1      36.965 -10.649  10.295  1.00  0.00     0.000 C 
BRANCH   5   6
ATOM      6  C   UNL     1      36.234 -10.101  11.541  1.00  0.00     0.000 C 
BRANCH   6   7
ATOM      7  C   UNL     1      37.191  -9.804  12.707  1.00  0.00     0.000 C 
BRANCH   7   8
ATOM      8  C   UNL     1      37.169  -8.330  13.135  1.00  0.00     0.000 C 
BRANCH   8   9
ATOM      9  C   UNL     1      36.236  -7.475  12.258  1.00  0.00     0.000 C 
BRANCH   9  10
ATOM     10  C   UNL     1      35.047  -6.898  13.056  1.00  0.00     0.000 C 
BRANCH  10  11
ATOM     11  C   UNL     1      34.836  -7.577  14.424  1.00  0.00     0.000 C 
BRANCH  11  12
ATOM     12  C   UNL     1      33.983  -8.860  14.388  1.00  0.00     0.006 C 
BRANCH  12  13
ATOM     13  C   UNL     1      33.401  -9.265  15.753  1.00  0.00     0.053 C 
BRANCH  13  14
ATOM     14  C   UNL     1      31.941  -8.949  15.850  1.00  0.00     0.041 C 
ATOM     15  O   UNL     1      31.447  -8.552  16.936  1.00  0.00    -0.550 OA
ATOM     16  O   UNL     1      31.133  -9.054  14.726  1.00  0.00    -0.550 OA
ENDBRANCH  13  14
ENDBRANCH  12  13
ENDBRANCH  11  12
ENDBRANCH  10  11
ENDBRANCH   9  10
ENDBRANCH   8   9
ENDBRANCH   7   8
ENDBRANCH   6   7
ENDBRANCH   5   6
ENDBRANCH   4   5
ENDBRANCH   3   4
ENDBRANCH   2   3
ENDBRANCH   1   2
BRANCH   1  17
ATOM     17  C   UNL     1      39.907  -6.901   7.959  1.00  0.00     0.000 C 
BRANCH  17  18
ATOM     18  C   UNL     1      41.018  -7.460   7.057  1.00  0.00     0.000 C 
BRANCH  18  19
ATOM     19  C   UNL     1      42.297  -7.795   7.840  1.00  0.00     0.000 C 
BRANCH  19  20
ATOM     20  C   UNL     1      43.562  -7.659   6.976  1.00  0.00     0.000 C 
BRANCH  20  21
ATOM     21  C   UNL     1      43.987  -8.989   6.334  1.00  0.00     0.000 C 
BRANCH  21  22
ATOM     22  C   UNL     1      43.599  -9.080   4.847  1.00  0.00    -0.000 C 
BRANCH  22  23
ATOM     23  C   UNL     1      42.264  -9.805   4.628  1.00  0.00    -0.000 C 
BRANCH  23  24
ATOM     24  C   UNL     1      41.444  -9.209   3.469  1.00  0.00    -0.000 C 
BRANCH  24  25
ATOM     25  C   UNL     1      41.784  -7.729   3.225  1.00  0.00    -0.000 C 
BRANCH  25  26
ATOM     26  C   UNL     1      40.554  -6.812   3.364  1.00  0.00    -0.000 C 
BRANCH  26  27
ATOM     27  C   UNL     1      40.916  -5.418   3.906  1.00  0.00    -0.000 C 
BRANCH  27  28
ATOM     28  C   UNL     1      40.862  -4.343   2.799  1.00  0.00    -0.000 C 
BRANCH  28  29
ATOM     29  C   UNL     1      39.431  -4.035   2.330  1.00  0.00    -0.003 C 
ATOM     30  C   UNL     1      38.995  -2.611   2.669  1.00  0.00     0.004 C 
ENDBRANCH  28  29
ENDBRANCH  27  28
ENDBRANCH  26  27
ENDBRANCH  25  26
ENDBRANCH  24  25
ENDBRANCH  23  24
ENDBRANCH  22  23
ENDBRANCH  21  22
ENDBRANCH  20  21
ENDBRANCH  19  20
ENDBRANCH  18  19
ENDBRANCH  17  18
ENDBRANCH   1  17
TORSDOF 26
ENDMDL
MODEL 2
REMARK VINA RESULT:    -4.671      1.109      2.254
REMARK INTER + INTRA:         -14.682
REMARK INTER:                 -12.243
REMARK INTRA:                  -2.438
REMARK UNBOUND:                -2.911
REMARK SMILES CCCCCCCCCCCCCCCCCCCCCCCCCCCC(=O)[O-]
REMARK SMILES IDX 15 1 16 2 17 3 18 4 19 5 20 6 21 7 22 8 23 9 24 10 25 11
REMARK SMILES IDX 26 12 27 13 28 14 29 15 30 16 14 17 13 18 12 19 11 20 10 21
REMARK SMILES IDX 9 22 8 23 7 24 6 25 5 26 4 27 3 28 2 29 1 30
REMARK H PARENT
REMARK Flexibility Score: inf
ROOT
ATOM      1  C   UNL     1      41.887  -7.374   7.580  1.00  0.00     0.000 C 
ENDROOT
BRANCH   1   2
ATOM      2  C   UNL     1      40.367  -7.493   7.374  1.00  0.00     0.000 C 
BRANCH   2   3
ATOM      3  C   UNL     1      39.565  -6.496   8.240  1.00  0.00     0.000 C 
BRANCH   3   4
ATOM      4  C   UNL     1      38.728  -7.161   9.347  1.00  0.00     0.000 C 
BRANCH   4   5
ATOM      5  C   UNL     1      39.227  -8.545   9.808  1.00  0.00     0.000 C 
BRANCH   5   6
ATOM      6  C   UNL     1      38.178  -9.669   9.652  1.00  0.00     0.000 C 
BRANCH   6   7
ATOM      7  C   UNL     1      37.190  -9.725  10.829  1.00  0.00     0.000 C 
BRANCH   7   8
ATOM      8  C   UNL     1      37.890  -9.752  12.194  1.00  0.00     0.000 C 
BRANCH   8   9
ATOM      9  C   UNL     1      37.222  -8.818  13.219  1.00  0.00     0.000 C 
BRANCH   9  10
ATOM     10  C   UNL     1      37.275  -7.337  12.785  1.00  0.00     0.000 C 
BRANCH  10  11
ATOM     11  C   UNL     1      36.502  -6.392  13.727  1.00  0.00     0.000 C 
BRANCH  11  12
ATOM     12  C   UNL     1      35.579  -7.095  14.740  1.00  0.00     0.006 C 
BRANCH  12  13
ATOM     13  C   UNL     1      34.280  -7.647  14.128  1.00  0.00     0.053 C 
BRANCH  13  14
ATOM     14  C   UNL     1      33.363  -8.198  15.175  1.00  0.00     0.041 C 
ATOM     15  O   UNL     1      32.163  -7.826  15.230  1.00  0.00    -0.550 OA
ATOM     16  O   UNL     1      33.826  -9.158  16.066  1.00  0.00    -0.550 OA
ENDBRANCH  13  14
ENDBRANCH  12  13
ENDBRANCH  11  12
ENDBRANCH  10  11
ENDBRANCH   9  10
ENDBRANCH   8   9
ENDBRANCH   7   8
ENDBRANCH   6   7
ENDBRANCH   5   6
ENDBRANCH   4   5
ENDBRANCH   3   4
ENDBRANCH   2   3
ENDBRANCH   1   2
BRANCH   1  17
ATOM     17  C   UNL     1      42.496  -8.718   7.991  1.00  0.00     0.000 C 
BRANCH  17  18
ATOM     18  C   UNL     1      44.031  -8.654   7.978  1.00  0.00     0.000 C 
BRANCH  18  19
ATOM     19  C   UNL     1      44.662  -9.854   7.254  1.00  0.00     0.000 C 
BRANCH  19  20
ATOM     20  C   UNL     1      43.791 -10.357   6.090  1.00  0.00     0.000 C 
BRANCH  20  21
ATOM     21  C   UNL     1      44.243  -9.804   4.730  1.00  0.00     0.000 C 
BRANCH  21  22
ATOM     22  C   UNL     1      43.317  -8.692   4.205  1.00  0.00    -0.000 C 
BRANCH  22  23
ATOM     23  C   UNL     1      41.830  -9.042   4.353  1.00  0.00    -0.000 C 
BRANCH  23  24
ATOM     24  C   UNL     1      41.023  -8.777   3.068  1.00  0.00    -0.000 C 
BRANCH  24  25
ATOM     25  C   UNL     1      41.349  -7.404   2.457  1.00  0.00    -0.000 C 
BRANCH  25  26
ATOM     26  C   UNL     1      40.967  -6.239   3.391  1.00  0.00    -0.000 C 
BRANCH  26  27
ATOM     27  C   UNL     1      41.184  -4.864   2.738  1.00  0.00    -0.000 C 
BRANCH  27  28
ATOM     28  C   UNL     1      40.518  -3.733   3.551  1.00  0.00    -0.000 C 
BRANCH  28  29
ATOM     29  C   UNL     1      39.429  -2.988   2.763  1.00  0.00    -0.003 C 
ATOM     30  C   UNL     1      38.646  -3.907   1.827  1.00  0.00     0.004 C 
ENDBRANCH  28  29
ENDBRANCH  27  28
ENDBRANCH  26  27
ENDBRANCH  25  26
ENDBRANCH  24  25
ENDBRANCH  23  24
ENDBRANCH  22  23
ENDBRANCH  21  22
ENDBRANCH  20  21
ENDBRANCH  19  20
ENDBRANCH  18  19
ENDBRANCH  17  18
ENDBRANCH   1  17
TORSDOF 26
ENDMDL
MODEL 3
REMARK VINA RESULT:    -4.654      2.001      2.849
REMARK INTER + INTRA:         -14.639
REMARK INTER:                 -11.768
REMARK INTRA:                  -2.871
REMARK UNBOUND:                -2.911
REMARK SMILES CCCCCCCCCCCCCCCCCCCCCCCCCCCC(=O)[O-]
REMARK SMILES IDX 15 1 16 2 17 3 18 4 19 5 20 6 21 7 22 8 23 9 24 10 25 11
REMARK SMILES IDX 26 12 27 13 28 14 29 15 30 16 14 17 13 18 12 19 11 20 10 21
REMARK SMILES IDX 9 22 8 23 7 24 6 25 5 26 4 27 3 28 2 29 1 30
REMARK H PARENT
REMARK Flexibility Score: inf
ROOT
ATOM      1  C   UNL     1      41.302  -7.660   7.391  1.00  0.00     0.000 C 
ENDROOT
BRANCH   1   2
ATOM      2  C   UNL     1      39.896  -7.085   7.634  1.00  0.00     0.000 C 
BRANCH   2   3
ATOM      3  C   UNL     1      39.821  -6.196   8.895  1.00  0.00     0.000 C 
BRANCH   3   4
ATOM      4  C   UNL     1      40.290  -6.896  10.182  1.00  0.00     0.000 C 
BRANCH   4   5
ATOM      5  C   UNL     1      39.341  -7.983  10.725  1.00  0.00     0.000 C 
BRANCH   5   6
ATOM      6  C   UNL     1      37.851  -7.576  10.706  1.00  0.00     0.000 C 
BRANCH   6   7
ATOM      7  C   UNL     1      37.102  -8.012  11.977  1.00  0.00     0.000 C 
BRANCH   7   8
ATOM      8  C   UNL     1      37.398  -7.108  13.182  1.00  0.00     0.000 C 
BRANCH   8   9
ATOM      9  C   UNL     1      36.139  -6.397  13.709  1.00  0.00     0.000 C 
BRANCH   9  10
ATOM     10  C   UNL     1      35.821  -6.773  15.172  1.00  0.00     0.000 C 
BRANCH  10  11
ATOM     11  C   UNL     1      34.399  -7.334  15.369  1.00  0.00     0.000 C 
BRANCH  11  12
ATOM     12  C   UNL     1      33.923  -7.399  16.832  1.00  0.00     0.006 C 
BRANCH  12  13
ATOM     13  C   UNL     1      34.725  -6.507  17.794  1.00  0.00     0.053 C 
BRANCH  13  14
ATOM     14  C   UNL     1      34.645  -6.999  19.206  1.00  0.00     0.041 C 
ATOM     15  O   UNL     1      34.362  -6.207  20.140  1.00  0.00    -0.550 OA
ATOM     16  O   UNL     1      34.842  -8.345  19.482  1.00  0.00    -0.550 OA
ENDBRANCH  13  14
ENDBRANCH  12  13
ENDBRANCH  11  12
ENDBRANCH  10  11
ENDBRANCH   9  10
ENDBRANCH   8   9
ENDBRANCH   7   8
ENDBRANCH   6   7
ENDBRANCH   5   6
ENDBRANCH   4   5
ENDBRANCH   3   4
ENDBRANCH   2   3
ENDBRANCH   1   2
BRANCH   1  17
ATOM     17  C   UNL     1      41.302  -9.188   7.508  1.00  0.00     0.000 C 
BRANCH  17  18
ATOM     18  C   UNL     1      42.594  -9.690   8.170  1.00  0.00     0.000 C 
BRANCH  18  19
ATOM     19  C   UNL     1      43.749  -8.684   8.042  1.00  0.00     0.000 C 
BRANCH  19  20
ATOM     20  C   UNL     1      45.084  -9.370   7.708  1.00  0.00     0.000 C 
BRANCH  20  21
ATOM     21  C   UNL     1      44.899 -10.676   6.921  1.00  0.00     0.000 C 
BRANCH  21  22
ATOM     22  C   UNL     1      45.251 -10.526   5.430  1.00  0.00    -0.000 C 
BRANCH  22  23
ATOM     23  C   UNL     1      44.035 -10.720   4.514  1.00  0.00    -0.000 C 
BRANCH  23  24
ATOM     24  C   UNL     1      43.206  -9.434   4.340  1.00  0.00    -0.000 C 
BRANCH  24  25
ATOM     25  C   UNL     1      41.740  -9.738   3.988  1.00  0.00    -0.000 C 
BRANCH  25  26
ATOM     26  C   UNL     1      41.000  -8.504   3.437  1.00  0.00    -0.000 C 
BRANCH  26  27
ATOM     27  C   UNL     1      41.583  -7.182   3.964  1.00  0.00    -0.000 C 
BRANCH  27  28
ATOM     28  C   UNL     1      40.533  -6.051   3.957  1.00  0.00    -0.000 C 
BRANCH  28  29
ATOM     29  C   UNL     1      40.786  -5.002   2.861  1.00  0.00    -0.003 C 
ATOM     30  C   UNL     1      39.495  -4.391   2.322  1.00  0.00     0.004 C 
ENDBRANCH  28  29
ENDBRANCH  27  28
ENDBRANCH  26  27
ENDBRANCH  25  26
ENDBRANCH  24  25
ENDBRANCH  23  24
ENDBRANCH  22  23
ENDBRANCH  21  22
ENDBRANCH  20  21
ENDBRANCH  19  20
ENDBRANCH  18  19
ENDBRANCH  17  18
ENDBRANCH   1  17
TORSDOF 26
ENDMDL
MODEL 4
REMARK VINA RESULT:    -4.652      1.379      2.180
REMARK INTER + INTRA:         -14.633
REMARK INTER:                 -11.238
REMARK INTRA:                  -3.395
REMARK UNBOUND:                -2.911
REMARK SMILES CCCCCCCCCCCCCCCCCCCCCCCCCCCC(=O)[O-]
REMARK SMILES IDX 15 1 16 2 17 3 18 4 19 5 20 6 21 7 22 8 23 9 24 10 25 11
REMARK SMILES IDX 26 12 27 13 28 14 29 15 30 16 14 17 13 18 12 19 11 20 10 21
REMARK SMILES IDX 9 22 8 23 7 24 6 25 5 26 4 27 3 28 2 29 1 30
REMARK H PARENT
REMARK Flexibility Score: inf
ROOT
ATOM      1  C   UNL     1      40.989  -7.161   8.527  1.00  0.00     0.000 C 
ENDROOT
BRANCH   1   2
ATOM      2  C   UNL     1      39.508  -7.430   8.207  1.00  0.00     0.000 C 
BRANCH   2   3
ATOM      3  C   UNL     1      38.544  -6.587   9.071  1.00  0.00     0.000 C 
BRANCH   3   4
ATOM      4  C   UNL     1      38.095  -7.283  10.368  1.00  0.00     0.000 C 
BRANCH   4   5
ATOM      5  C   UNL     1      38.069  -8.823  10.314  1.00  0.00     0.000 C 
BRANCH   5   6
ATOM      6  C   UNL     1      39.106  -9.498  11.239  1.00  0.00     0.000 C 
BRANCH   6   7
ATOM      7  C   UNL     1      38.452 -10.278  12.392  1.00  0.00     0.000 C 
BRANCH   7   8
ATOM      8  C   UNL     1      36.925 -10.127  12.422  1.00  0.00     0.000 C 
BRANCH   8   9
ATOM      9  C   UNL     1      36.420  -9.496  13.732  1.00  0.00     0.000 C 
BRANCH   9  10
ATOM     10  C   UNL     1      36.540  -7.958  13.728  1.00  0.00     0.000 C 
BRANCH  10  11
ATOM     11  C   UNL     1      35.512  -7.257  14.638  1.00  0.00     0.000 C 
BRANCH  11  12
ATOM     12  C   UNL     1      34.110  -7.895  14.647  1.00  0.00     0.006 C 
BRANCH  12  13
ATOM     13  C   UNL     1      33.435  -7.910  16.029  1.00  0.00     0.053 C 
BRANCH  13  14
ATOM     14  C   UNL     1      32.002  -8.331  15.943  1.00  0.00     0.041 C 
ATOM     15  O   UNL     1      31.330  -8.518  16.990  1.00  0.00    -0.550 OA
ATOM     16  O   UNL     1      31.395  -8.476  14.702  1.00  0.00    -0.550 OA
ENDBRANCH  13  14
ENDBRANCH  12  13
ENDBRANCH  11  12
ENDBRANCH  10  11
ENDBRANCH   9  10
ENDBRANCH   8   9
ENDBRANCH   7   8
ENDBRANCH   6   7
ENDBRANCH   5   6
ENDBRANCH   4   5
ENDBRANCH   3   4
ENDBRANCH   2   3
ENDBRANCH   1   2
BRANCH   1  17
ATOM     17  C   UNL     1      41.828  -8.432   8.369  1.00  0.00     0.000 C 
BRANCH  17  18
ATOM     18  C   UNL     1      40.936  -9.649   8.078  1.00  0.00     0.000 C 
BRANCH  18  19
ATOM     19  C   UNL     1      41.751 -10.931   7.845  1.00  0.00     0.000 C 
BRANCH  19  20
ATOM     20  C   UNL     1      43.208 -10.790   8.318  1.00  0.00     0.000 C 
BRANCH  20  21
ATOM     21  C   UNL     1      44.224 -11.125   7.216  1.00  0.00     0.000 C 
BRANCH  21  22
ATOM     22  C   UNL     1      45.122  -9.928   6.855  1.00  0.00    -0.000 C 
BRANCH  22  23
ATOM     23  C   UNL     1      44.427  -8.930   5.918  1.00  0.00    -0.000 C 
BRANCH  23  24
ATOM     24  C   UNL     1      43.902  -9.587   4.628  1.00  0.00    -0.000 C 
BRANCH  24  25
ATOM     25  C   UNL     1      42.370  -9.503   4.523  1.00  0.00    -0.000 C 
BRANCH  25  26
ATOM     26  C   UNL     1      41.899  -8.212   3.827  1.00  0.00    -0.000 C 
BRANCH  26  27
ATOM     27  C   UNL     1      41.398  -7.153   4.825  1.00  0.00    -0.000 C 
BRANCH  27  28
ATOM     28  C   UNL     1      40.444  -6.141   4.154  1.00  0.00    -0.000 C 
BRANCH  28  29
ATOM     29  C   UNL     1      41.173  -4.907   3.596  1.00  0.00    -0.003 C 
ATOM     30  C   UNL     1      40.328  -4.131   2.589  1.00  0.00     0.004 C 
ENDBRANCH  28  29
ENDBRANCH  27  28
ENDBRANCH  26  27
ENDBRANCH  25  26
ENDBRANCH  24  25
ENDBRANCH  23  24
ENDBRANCH  22  23
ENDBRANCH  21  22
ENDBRANCH  20  21
ENDBRANCH  19  20
ENDBRANCH  18  19
ENDBRANCH  17  18
ENDBRANCH   1  17
TORSDOF 26
ENDMDL
MODEL 5
REMARK VINA RESULT:    -4.640      3.088      6.603
REMARK INTER + INTRA:         -14.603
REMARK INTER:                 -12.336
REMARK INTRA:                  -2.266
REMARK UNBOUND:                -2.911
REMARK SMILES CCCCCCCCCCCCCCCCCCCCCCCCCCCC(=O)[O-]
REMARK SMILES IDX 15 1 16 2 17 3 18 4 19 5 20 6 21 7 22 8 23 9 24 10 25 11
REMARK SMILES IDX 26 12 27 13 28 14 29 15 30 16 14 17 13 18 12 19 11 20 10 21
REMARK SMILES IDX 9 22 8 23 7 24 6 25 5 26 4 27 3 28 2 29 1 30
REMARK H PARENT
REMARK Flexibility Score: inf
ROOT
ATOM      1  C   UNL     1      35.020  -7.074  13.281  1.00  0.00     0.000 C 
ENDROOT
BRANCH   1   2
ATOM      2  C   UNL     1      34.532  -7.786  14.554  1.00  0.00     0.000 C 
BRANCH   2   3
ATOM      3  C   UNL     1      34.528  -9.324  14.418  1.00  0.00     0.000 C 
BRANCH   3   4
ATOM      4  C   UNL     1      33.175  -9.978  14.747  1.00  0.00     0.000 C 
BRANCH   4   5
ATOM      5  C   UNL     1      31.983  -9.008  14.856  1.00  0.00     0.000 C 
BRANCH   5   6
ATOM      6  C   UNL     1      30.923  -9.435  15.897  1.00  0.00     0.000 C 
BRANCH   6   7
ATOM      7  C   UNL     1      31.504 -10.341  16.996  1.00  0.00     0.000 C 
BRANCH   7   8
ATOM      8  C   UNL     1      31.872  -9.569  18.270  1.00  0.00     0.000 C 
BRANCH   8   9
ATOM      9  C   UNL     1      33.394  -9.440  18.464  1.00  0.00     0.000 C 
BRANCH   9  10
ATOM     10  C   UNL     1      33.800  -8.058  19.017  1.00  0.00     0.000 C 
BRANCH  10  11
ATOM     11  C   UNL     1      34.304  -7.085  17.933  1.00  0.00     0.000 C 
BRANCH  11  12
ATOM     12  C   UNL     1      35.160  -5.915  18.455  1.00  0.00     0.006 C 
BRANCH  12  13
ATOM     13  C   UNL     1      34.592  -5.234  19.712  1.00  0.00     0.053 C 
BRANCH  13  14
ATOM     14  C   UNL     1      34.628  -3.742  19.600  1.00  0.00     0.041 C 
ATOM     15  O   UNL     1      35.565  -3.174  18.983  1.00  0.00    -0.550 OA
ATOM     16  O   UNL     1      33.602  -2.981  20.143  1.00  0.00    -0.550 OA
ENDBRANCH  13  14
ENDBRANCH  12  13
ENDBRANCH  11  12
ENDBRANCH  10  11
ENDBRANCH   9  10
ENDBRANCH   8   9
ENDBRANCH   7   8
ENDBRANCH   6   7
ENDBRANCH   5   6
ENDBRANCH   4   5
ENDBRANCH   3   4
ENDBRANCH   2   3
ENDBRANCH   1   2
BRANCH   1  17
ATOM     17  C   UNL     1      36.354  -6.361  13.522  1.00  0.00     0.000 C 
BRANCH  17  18
ATOM     18  C   UNL     1      37.510  -7.114  12.848  1.00  0.00     0.000 C 
BRANCH  18  19
ATOM     19  C   UNL     1      37.170  -7.550  11.414  1.00  0.00     0.000 C 
BRANCH  19  20
ATOM     20  C   UNL     1      38.429  -7.830  10.576  1.00  0.00     0.000 C 
BRANCH  20  21
ATOM     21  C   UNL     1      38.951  -6.578   9.854  1.00  0.00     0.000 C 
BRANCH  21  22
ATOM     22  C   UNL     1      40.363  -6.776   9.271  1.00  0.00    -0.000 C 
BRANCH  22  23
ATOM     23  C   UNL     1      40.379  -7.741   8.078  1.00  0.00    -0.000 C 
BRANCH  23  24
ATOM     24  C   UNL     1      40.212  -7.024   6.726  1.00  0.00    -0.000 C 
BRANCH  24  25
ATOM     25  C   UNL     1      41.483  -7.116   5.865  1.00  0.00    -0.000 C 
BRANCH  25  26
ATOM     26  C   UNL     1      42.392  -8.287   6.283  1.00  0.00    -0.000 C 
BRANCH  26  27
ATOM     27  C   UNL     1      43.775  -7.817   6.765  1.00  0.00    -0.000 C 
BRANCH  27  28
ATOM     28  C   UNL     1      44.215  -8.557   8.047  1.00  0.00    -0.000 C 
BRANCH  28  29
ATOM     29  C   UNL     1      44.447 -10.060   7.823  1.00  0.00    -0.003 C 
ATOM     30  C   UNL     1      45.605 -10.340   6.869  1.00  0.00     0.004 C 
ENDBRANCH  28  29
ENDBRANCH  27  28
ENDBRANCH  26  27
ENDBRANCH  25  26
ENDBRANCH  24  25
ENDBRANCH  23  24
ENDBRANCH  22  23
ENDBRANCH  21  22
ENDBRANCH  20  21
ENDBRANCH  19  20
ENDBRANCH  18  19
ENDBRANCH  17  18
ENDBRANCH   1  17
TORSDOF 26
ENDMDL
MODEL 6
REMARK VINA RESULT:    -4.618      4.879     12.620
REMARK INTER + INTRA:         -14.548
REMARK INTER:                 -11.450
REMARK INTRA:                  -3.098
REMARK UNBOUND:                -2.911
REMARK SMILES CCCCCCCCCCCCCCCCCCCCCCCCCCCC(=O)[O-]
REMARK SMILES IDX 15 1 16 2 17 3 18 4 19 5 20 6 21 7 22 8 23 9 24 10 25 11
REMARK SMILES IDX 26 12 27 13 28 14 29 15 30 16 14 17 13 18 12 19 11 20 10 21
REMARK SMILES IDX 9 22 8 23 7 24 6 25 5 26 4 27 3 28 2 29 1 30
REMARK H PARENT
REMARK Flexibility Score: inf
ROOT
ATOM      1  C   UNL     1      37.252  -6.625  13.616  1.00  0.00     0.000 C 
ENDROOT
BRANCH   1   2
ATOM      2  C   UNL     1      37.684  -7.293  12.299  1.00  0.00     0.000 C 
BRANCH   2   3
ATOM      3  C   UNL     1      36.487  -7.763  11.443  1.00  0.00     0.000 C 
BRANCH   3   4
ATOM      4  C   UNL     1      36.483  -9.273  11.147  1.00  0.00     0.000 C 
BRANCH   4   5
ATOM      5  C   UNL     1      37.874  -9.922  11.015  1.00  0.00     0.000 C 
BRANCH   5   6
ATOM      6  C   UNL     1      38.301 -10.192   9.555  1.00  0.00     0.000 C 
BRANCH   6   7
ATOM      7  C   UNL     1      39.499  -9.330   9.119  1.00  0.00     0.000 C 
BRANCH   7   8
ATOM      8  C   UNL     1      39.109  -7.877   8.820  1.00  0.00     0.000 C 
BRANCH   8   9
ATOM      9  C   UNL     1      40.314  -7.017   8.399  1.00  0.00     0.000 C 
BRANCH   9  10
ATOM     10  C   UNL     1      41.206  -7.727   7.358  1.00  0.00     0.000 C 
BRANCH  10  11
ATOM     11  C   UNL     1      42.629  -8.027   7.869  1.00  0.00     0.000 C 
BRANCH  11  12
ATOM     12  C   UNL     1      43.114  -9.470   7.633  1.00  0.00     0.006 C 
BRANCH  12  13
ATOM     13  C   UNL     1      44.313  -9.581   6.676  1.00  0.00     0.053 C 
BRANCH  13  14
ATOM     14  C   UNL     1      43.889  -9.496   5.243  1.00  0.00     0.041 C 
ATOM     15  O   UNL     1      42.744  -9.881   4.895  1.00  0.00    -0.550 OA
ATOM     16  O   UNL     1      44.748  -8.951   4.297  1.00  0.00    -0.550 OA
ENDBRANCH  13  14
ENDBRANCH  12  13
ENDBRANCH  11  12
ENDBRANCH  10  11
ENDBRANCH   9  10
ENDBRANCH   8   9
ENDBRANCH   7   8
ENDBRANCH   6   7
ENDBRANCH   5   6
ENDBRANCH   4   5
ENDBRANCH   3   4
ENDBRANCH   2   3
ENDBRANCH   1   2
BRANCH   1  17
ATOM     17  C   UNL     1      35.728  -6.509  13.703  1.00  0.00     0.000 C 
BRANCH  17  18
ATOM     18  C   UNL     1      35.192  -7.227  14.951  1.00  0.00     0.000 C 
BRANCH  18  19
ATOM     19  C   UNL     1      34.597  -8.606  14.624  1.00  0.00     0.000 C 
BRANCH  19  20
ATOM     20  C   UNL     1      33.061  -8.614  14.714  1.00  0.00     0.000 C 
BRANCH  20  21
ATOM     21  C   UNL     1      32.532  -7.785  15.893  1.00  0.00     0.000 C 
BRANCH  21  22
ATOM     22  C   UNL     1      31.495  -8.548  16.738  1.00  0.00    -0.000 C 
BRANCH  22  23
ATOM     23  C   UNL     1      31.788 -10.053  16.814  1.00  0.00    -0.000 C 
BRANCH  23  24
ATOM     24  C   UNL     1      32.472 -10.462  18.132  1.00  0.00    -0.000 C 
BRANCH  24  25
ATOM     25  C   UNL     1      33.950 -10.040  18.168  1.00  0.00    -0.000 C 
BRANCH  25  26
ATOM     26  C   UNL     1      34.335  -9.358  19.495  1.00  0.00    -0.000 C 
BRANCH  26  27
ATOM     27  C   UNL     1      33.949  -7.869  19.527  1.00  0.00    -0.000 C 
BRANCH  27  28
ATOM     28  C   UNL     1      34.836  -7.029  18.583  1.00  0.00    -0.000 C 
BRANCH  28  29
ATOM     29  C   UNL     1      34.746  -5.519  18.860  1.00  0.00    -0.003 C 
ATOM     30  C   UNL     1      34.355  -5.208  20.303  1.00  0.00     0.004 C 
ENDBRANCH  28  29
ENDBRANCH  27  28
ENDBRANCH  26  27
ENDBRANCH  25  26
ENDBRANCH  24  25
ENDBRANCH  23  24
ENDBRANCH  22  23
ENDBRANCH  21  22
ENDBRANCH  20  21
ENDBRANCH  19  20
ENDBRANCH  18  19
ENDBRANCH  17  18
ENDBRANCH   1  17
TORSDOF 26
ENDMDL
MODEL 7
REMARK VINA RESULT:    -4.612      2.464      4.754
REMARK INTER + INTRA:         -14.534
REMARK INTER:                 -12.195
REMARK INTRA:                  -2.339
REMARK UNBOUND:                -2.911
REMARK SMILES CCCCCCCCCCCCCCCCCCCCCCCCCCCC(=O)[O-]
REMARK SMILES IDX 15 1 16 2 17 3 18 4 19 5 20 6 21 7 22 8 23 9 24 10 25 11
REMARK SMILES IDX 26 12 27 13 28 14 29 15 30 16 14 17 13 18 12 19 11 20 10 21
REMARK SMILES IDX 9 22 8 23 7 24 6 25 5 26 4 27 3 28 2 29 1 30
REMARK H PARENT
REMARK Flexibility Score: inf
ROOT
ATOM      1  C   UNL     1      37.325  -7.088  12.292  1.00  0.00     0.000 C 
ENDROOT
BRANCH   1   2
ATOM      2  C   UNL     1      35.936  -7.727  12.468  1.00  0.00     0.000 C 
BRANCH   2   3
ATOM      3  C   UNL     1      34.998  -6.888  13.363  1.00  0.00     0.000 C 
BRANCH   3   4
ATOM      4  C   UNL     1      34.658  -7.552  14.709  1.00  0.00     0.000 C 
BRANCH   4   5
ATOM      5  C   UNL     1      34.552  -9.089  14.677  1.00  0.00     0.000 C 
BRANCH   5   6
ATOM      6  C   UNL     1      33.101  -9.617  14.728  1.00  0.00     0.000 C 
BRANCH   6   7
ATOM      7  C   UNL     1      32.088  -8.526  15.113  1.00  0.00     0.000 C 
BRANCH   7   8
ATOM      8  C   UNL     1      31.778  -8.505  16.615  1.00  0.00     0.000 C 
BRANCH   8   9
ATOM      9  C   UNL     1      32.029  -9.865  17.289  1.00  0.00     0.000 C 
BRANCH   9  10
ATOM     10  C   UNL     1      33.161  -9.801  18.337  1.00  0.00     0.000 C 
BRANCH  10  11
ATOM     11  C   UNL     1      33.204  -8.472  19.116  1.00  0.00     0.000 C 
BRANCH  11  12
ATOM     12  C   UNL     1      34.585  -7.791  19.164  1.00  0.00     0.006 C 
BRANCH  12  13
ATOM     13  C   UNL     1      34.647  -6.445  18.422  1.00  0.00     0.053 C 
BRANCH  13  14
ATOM     14  C   UNL     1      34.835  -5.298  19.366  1.00  0.00     0.041 C 
ATOM     15  O   UNL     1      34.983  -4.130  18.925  1.00  0.00    -0.550 OA
ATOM     16  O   UNL     1      34.805  -5.517  20.737  1.00  0.00    -0.550 OA
ENDBRANCH  13  14
ENDBRANCH  12  13
ENDBRANCH  11  12
ENDBRANCH  10  11
ENDBRANCH   9  10
ENDBRANCH   8   9
ENDBRANCH   7   8
ENDBRANCH   6   7
ENDBRANCH   5   6
ENDBRANCH   4   5
ENDBRANCH   3   4
ENDBRANCH   2   3
ENDBRANCH   1   2
BRANCH   1  17
ATOM     17  C   UNL     1      38.357  -8.124  11.837  1.00  0.00     0.000 C 
BRANCH  17  18
ATOM     18  C   UNL     1      38.413  -8.210  10.304  1.00  0.00     0.000 C 
BRANCH  18  19
ATOM     19  C   UNL     1      38.377  -6.826   9.638  1.00  0.00     0.000 C 
BRANCH  19  20
ATOM     20  C   UNL     1      39.768  -6.373   9.159  1.00  0.00     0.000 C 
BRANCH  20  21
ATOM     21  C   UNL     1      40.810  -7.499   9.219  1.00  0.00     0.000 C 
BRANCH  21  22
ATOM     22  C   UNL     1      41.527  -7.716   7.873  1.00  0.00    -0.000 C 
BRANCH  22  23
ATOM     23  C   UNL     1      40.737  -7.147   6.686  1.00  0.00    -0.000 C 
BRANCH  23  24
ATOM     24  C   UNL     1      41.561  -7.105   5.386  1.00  0.00    -0.000 C 
BRANCH  24  25
ATOM     25  C   UNL     1      40.707  -6.686   4.177  1.00  0.00    -0.000 C 
BRANCH  25  26
ATOM     26  C   UNL     1      41.163  -7.365   2.871  1.00  0.00    -0.000 C 
BRANCH  26  27
ATOM     27  C   UNL     1      41.678  -6.356   1.830  1.00  0.00    -0.000 C 
BRANCH  27  28
ATOM     28  C   UNL     1      40.757  -5.121   1.729  1.00  0.00    -0.000 C 
BRANCH  28  29
ATOM     29  C   UNL     1      41.527  -3.791   1.790  1.00  0.00    -0.003 C 
ATOM     30  C   UNL     1      41.673  -3.262   3.215  1.00  0.00     0.004 C 
ENDBRANCH  28  29
ENDBRANCH  27  28
ENDBRANCH  26  27
ENDBRANCH  25  26
ENDBRANCH  24  25
ENDBRANCH  23  24
ENDBRANCH  22  23
ENDBRANCH  21  22
ENDBRANCH  20  21
ENDBRANCH  19  20
ENDBRANCH  18  19
ENDBRANCH  17  18
ENDBRANCH   1  17
TORSDOF 26
ENDMDL
MODEL 8
REMARK VINA RESULT:    -4.559      4.225     11.323
REMARK INTER + INTRA:         -14.398
REMARK INTER:                 -11.512
REMARK INTRA:                  -2.887
REMARK UNBOUND:                -2.911
REMARK SMILES CCCCCCCCCCCCCCCCCCCCCCCCCCCC(=O)[O-]
REMARK SMILES IDX 15 1 16 2 17 3 18 4 19 5 20 6 21 7 22 8 23 9 24 10 25 11
REMARK SMILES IDX 26 12 27 13 28 14 29 15 30 16 14 17 13 18 12 19 11 20 10 21
REMARK SMILES IDX 9 22 8 23 7 24 6 25 5 26 4 27 3 28 2 29 1 30
REMARK H PARENT
REMARK Flexibility Score: inf
ROOT
ATOM      1  C   UNL     1      40.157  -6.587   9.459  1.00  0.00     0.000 C 
ENDROOT
BRANCH   1   2
ATOM      2  C   UNL     1      39.851  -6.992   8.006  1.00  0.00     0.000 C 
BRANCH   2   3
ATOM      3  C   UNL     1      41.121  -7.346   7.202  1.00  0.00     0.000 C 
BRANCH   3   4
ATOM      4  C   UNL     1      42.047  -8.353   7.906  1.00  0.00     0.000 C 
BRANCH   4   5
ATOM      5  C   UNL     1      43.547  -8.206   7.584  1.00  0.00     0.000 C 
BRANCH   5   6
ATOM      6  C   UNL     1      43.996  -8.991   6.331  1.00  0.00     0.000 C 
BRANCH   6   7
ATOM      7  C   UNL     1      43.067 -10.174   6.010  1.00  0.00     0.000 C 
BRANCH   7   8
ATOM      8  C   UNL     1      42.478 -10.101   4.595  1.00  0.00     0.000 C 
BRANCH   8   9
ATOM      9  C   UNL     1      42.572  -8.690   3.988  1.00  0.00     0.000 C 
BRANCH   9  10
ATOM     10  C   UNL     1      41.291  -8.292   3.224  1.00  0.00     0.000 C 
BRANCH  10  11
ATOM     11  C   UNL     1      40.984  -6.782   3.282  1.00  0.00     0.000 C 
BRANCH  11  12
ATOM     12  C   UNL     1      40.803  -6.103   1.911  1.00  0.00     0.006 C 
BRANCH  12  13
ATOM     13  C   UNL     1      41.032  -4.582   1.929  1.00  0.00     0.053 C 
BRANCH  13  14
ATOM     14  C   UNL     1      39.926  -3.862   2.636  1.00  0.00     0.041 C 
ATOM     15  O   UNL     1      38.743  -3.948   2.219  1.00  0.00    -0.550 OA
ATOM     16  O   UNL     1      40.199  -3.129   3.783  1.00  0.00    -0.550 OA
ENDBRANCH  13  14
ENDBRANCH  12  13
ENDBRANCH  11  12
ENDBRANCH  10  11
ENDBRANCH   9  10
ENDBRANCH   8   9
ENDBRANCH   7   8
ENDBRANCH   6   7
ENDBRANCH   5   6
ENDBRANCH   4   5
ENDBRANCH   3   4
ENDBRANCH   2   3
ENDBRANCH   1   2
BRANCH   1  17
ATOM     17  C   UNL     1      39.451  -7.516  10.452  1.00  0.00     0.000 C 
BRANCH  17  18
ATOM     18  C   UNL     1      38.409  -8.392   9.741  1.00  0.00     0.000 C 
BRANCH  18  19
ATOM     19  C   UNL     1      38.708  -9.893   9.885  1.00  0.00     0.000 C 
BRANCH  19  20
ATOM     20  C   UNL     1      37.456 -10.702  10.267  1.00  0.00     0.000 C 
BRANCH  20  21
ATOM     21  C   UNL     1      36.416  -9.863  11.024  1.00  0.00     0.000 C 
BRANCH  21  22
ATOM     22  C   UNL     1      36.126 -10.409  12.434  1.00  0.00    -0.000 C 
BRANCH  22  23
ATOM     23  C   UNL     1      36.872  -9.636  13.530  1.00  0.00    -0.000 C 
BRANCH  23  24
ATOM     24  C   UNL     1      36.989  -8.131  13.227  1.00  0.00    -0.000 C 
BRANCH  24  25
ATOM     25  C   UNL     1      36.151  -7.282  14.199  1.00  0.00    -0.000 C 
BRANCH  25  26
ATOM     26  C   UNL     1      34.639  -7.390  13.921  1.00  0.00    -0.000 C 
BRANCH  26  27
ATOM     27  C   UNL     1      33.852  -7.909  15.136  1.00  0.00    -0.000 C 
BRANCH  27  28
ATOM     28  C   UNL     1      32.889  -9.052  14.748  1.00  0.00    -0.000 C 
BRANCH  28  29
ATOM     29  C   UNL     1      31.794  -9.298  15.798  1.00  0.00    -0.003 C 
ATOM     30  C   UNL     1      32.176  -8.774  17.180  1.00  0.00     0.004 C 
ENDBRANCH  28  29
ENDBRANCH  27  28
ENDBRANCH  26  27
ENDBRANCH  25  26
ENDBRANCH  24  25
ENDBRANCH  23  24
ENDBRANCH  22  23
ENDBRANCH  21  22
ENDBRANCH  20  21
ENDBRANCH  19  20
ENDBRANCH  18  19
ENDBRANCH  17  18
ENDBRANCH   1  17
TORSDOF 26
ENDMDL
MODEL 9
REMARK VINA RESULT:    -4.556      4.361     12.326
REMARK INTER + INTRA:         -14.393
REMARK INTER:                 -12.104
REMARK INTRA:                  -2.289
REMARK UNBOUND:                -2.911
REMARK SMILES CCCCCCCCCCCCCCCCCCCCCCCCCCCC(=O)[O-]
REMARK SMILES IDX 15 1 16 2 17 3 18 4 19 5 20 6 21 7 22 8 23 9 24 10 25 11
REMARK SMILES IDX 26 12 27 13 28 14 29 15 30 16 14 17 13 18 12 19 11 20 10 21
REMARK SMILES IDX 9 22 8 23 7 24 6 25 5 26 4 27 3 28 2 29 1 30
REMARK H PARENT
REMARK Flexibility Score: inf
ROOT
ATOM      1  C   UNL     1      38.311  -7.190  10.204  1.00  0.00     0.000 C 
ENDROOT
BRANCH   1   2
ATOM      2  C   UNL     1      39.560  -6.623   9.508  1.00  0.00     0.000 C 
BRANCH   2   3
ATOM      3  C   UNL     1      39.491  -6.731   7.969  1.00  0.00     0.000 C 
BRANCH   3   4
ATOM      4  C   UNL     1      40.757  -7.323   7.326  1.00  0.00     0.000 C 
BRANCH   4   5
ATOM      5  C   UNL     1      41.518  -8.346   8.191  1.00  0.00     0.000 C 
BRANCH   5   6
ATOM      6  C   UNL     1      43.044  -8.356   7.949  1.00  0.00     0.000 C 
BRANCH   6   7
ATOM      7  C   UNL     1      43.432  -7.748   6.590  1.00  0.00     0.000 C 
BRANCH   7   8
ATOM      8  C   UNL     1      44.084  -8.766   5.646  1.00  0.00     0.000 C 
BRANCH   8   9
ATOM      9  C   UNL     1      43.388  -8.831   4.275  1.00  0.00     0.000 C 
BRANCH   9  10
ATOM     10  C   UNL     1      41.900  -9.228   4.390  1.00  0.00     0.000 C 
BRANCH  10  11
ATOM     11  C   UNL     1      41.014  -8.624   3.283  1.00  0.00     0.000 C 
BRANCH  11  12
ATOM     12  C   UNL     1      41.316  -7.153   2.938  1.00  0.00     0.006 C 
BRANCH  12  13
ATOM     13  C   UNL     1      40.673  -6.138   3.900  1.00  0.00     0.053 C 
BRANCH  13  14
ATOM     14  C   UNL     1      40.607  -4.769   3.299  1.00  0.00     0.041 C 
ATOM     15  O   UNL     1      39.605  -4.420   2.622  1.00  0.00    -0.550 OA
ATOM     16  O   UNL     1      41.635  -3.863   3.522  1.00  0.00    -0.550 OA
ENDBRANCH  13  14
ENDBRANCH  12  13
ENDBRANCH  11  12
ENDBRANCH  10  11
ENDBRANCH   9  10
ENDBRANCH   8   9
ENDBRANCH   7   8
ENDBRANCH   6   7
ENDBRANCH   5   6
ENDBRANCH   4   5
ENDBRANCH   3   4
ENDBRANCH   2   3
ENDBRANCH   1   2
BRANCH   1  17
ATOM     17  C   UNL     1      38.312  -8.722  10.180  1.00  0.00     0.000 C 
BRANCH  17  18
ATOM     18  C   UNL     1      38.736  -9.294  11.542  1.00  0.00     0.000 C 
BRANCH  18  19
ATOM     19  C   UNL     1      37.552  -9.885  12.324  1.00  0.00     0.000 C 
BRANCH  19  20
ATOM     20  C   UNL     1      36.417  -8.866  12.521  1.00  0.00     0.000 C 
BRANCH  20  21
ATOM     21  C   UNL     1      35.822  -8.907  13.937  1.00  0.00     0.000 C 
BRANCH  21  22
ATOM     22  C   UNL     1      34.829  -7.760  14.196  1.00  0.00    -0.000 C 
BRANCH  22  23
ATOM     23  C   UNL     1      34.826  -7.302  15.661  1.00  0.00    -0.000 C 
BRANCH  23  24
ATOM     24  C   UNL     1      33.505  -7.625  16.385  1.00  0.00    -0.000 C 
BRANCH  24  25
ATOM     25  C   UNL     1      33.744  -8.313  17.739  1.00  0.00    -0.000 C 
BRANCH  25  26
ATOM     26  C   UNL     1      32.693  -9.397  18.043  1.00  0.00    -0.000 C 
BRANCH  26  27
ATOM     27  C   UNL     1      31.306  -9.049  17.473  1.00  0.00    -0.000 C 
BRANCH  27  28
ATOM     28  C   UNL     1      30.464 -10.316  17.206  1.00  0.00    -0.000 C 
BRANCH  28  29
ATOM     29  C   UNL     1      30.187 -10.550  15.712  1.00  0.00    -0.003 C 
ATOM     30  C   UNL     1      31.039  -9.659  14.810  1.00  0.00     0.004 C 
ENDBRANCH  28  29
ENDBRANCH  27  28
ENDBRANCH  26  27
ENDBRANCH  25  26
ENDBRANCH  24  25
ENDBRANCH  23  24
ENDBRANCH  22  23
ENDBRANCH  21  22
ENDBRANCH  20  21
ENDBRANCH  19  20
ENDBRANCH  18  19
ENDBRANCH  17  18
ENDBRANCH   1  17
TORSDOF 26
ENDMDL
