MODEL 1
REMARK VINA RESULT:    -7.518      0.000      0.000
REMARK INTER + INTRA:         -10.385
REMARK INTER:                 -10.155
REMARK INTRA:                  -0.230
REMARK UNBOUND:                -0.230
REMARK SMILES CC[C@H](CC[C@@H](C)[C@@H]1CC[C@H]2[C@@H]3CC(=O)C4=CC(=O)CC[C@]4(C)[C@@H]3CC[C@]21C)C(C)C
REMARK SMILES IDX 4 1 3 2 2 3 1 4 29 5 30 6 31 7 5 8 6 9 7 10 8 11 9 12 27 13
REMARK SMILES IDX 10 14 11 15 26 16 28 17 12 18 25 19 24 20 13 21 22 22 14 23
REMARK SMILES IDX 16 24 21 25 23 26 15 27 17 28 20 29 18 30 19 31
REMARK H PARENT
REMARK Flexibility Score: inf
ROOT
ATOM      1  C   UNL     1      -7.773  74.002  22.083  1.00  0.00     0.004 C 
ENDROOT
BRANCH   1   2
ATOM      2  C   UNL     1      -9.208  74.470  22.454  1.00  0.00    -0.009 C 
BRANCH   2   3
ATOM      3  C   UNL     1     -10.120  74.456  21.193  1.00  0.00     0.000 C 
ATOM      4  C   UNL     1      -9.372  74.661  19.875  1.00  0.00     0.004 C 
ENDBRANCH   2   3
BRANCH   2   5
ATOM      5  C   UNL     1      -9.743  73.650  23.679  1.00  0.00    -0.014 C 
ATOM      6  C   UNL     1     -11.006  72.833  23.379  1.00  0.00     0.007 C 
ATOM      7  C   UNL     1      -9.936  74.509  24.940  1.00  0.00     0.007 C 
ENDBRANCH   2   5
ENDBRANCH   1   2
BRANCH   1   8
ATOM      8  C   UNL     1      -7.659  72.465  21.950  1.00  0.00     0.004 C 
BRANCH   8   9
ATOM      9  C   UNL     1      -6.200  71.982  21.744  1.00  0.00    -0.011 C 
ATOM     10  C   UNL     1      -5.207  73.133  22.002  1.00  0.00     0.008 C 
BRANCH   9  11
ATOM     11  C   UNL     1      -5.915  70.694  22.596  1.00  0.00    -0.002 C 
ATOM     12  C   UNL     1      -6.986  69.613  22.608  1.00  0.00     0.005 C 
ATOM     13  C   UNL     1      -5.555  70.906  24.092  1.00  0.00    -0.026 C 
ATOM     14  C   UNL     1      -6.508  68.641  23.680  1.00  0.00     0.005 C 
ATOM     15  C   UNL     1      -5.651  69.458  24.683  1.00  0.00    -0.001 C 
ATOM     16  C   UNL     1      -4.132  71.527  24.232  1.00  0.00     0.007 C 
ATOM     17  C   UNL     1      -6.589  71.816  24.813  1.00  0.00     0.012 C 
ATOM     18  C   UNL     1      -4.254  68.811  24.927  1.00  0.00     0.004 C 
ATOM     19  C   UNL     1      -3.518  71.223  25.602  1.00  0.00     0.005 C 
ATOM     20  C   UNL     1      -3.347  69.699  25.852  1.00  0.00     0.003 C 
ATOM     21  C   UNL     1      -4.356  67.332  25.382  1.00  0.00     0.085 C 
ATOM     22  C   UNL     1      -3.283  69.292  27.383  1.00  0.00    -0.000 C 
ATOM     23  C   UNL     1      -3.260  66.952  26.320  1.00  0.00     0.159 C 
ATOM     24  C   UNL     1      -3.100  67.784  27.517  1.00  0.00     0.005 C 
ATOM     25  C   UNL     1      -4.563  69.657  28.189  1.00  0.00     0.020 C 
ATOM     26  C   UNL     1      -2.040  69.998  28.002  1.00  0.00     0.017 C 
ATOM     27  O   UNL     1      -2.586  65.900  26.151  1.00  0.00    -0.295 OA
ATOM     28  C   UNL     1      -3.219  67.186  28.715  1.00  0.00     0.055 C 
ATOM     29  C   UNL     1      -4.431  69.263  29.678  1.00  0.00     0.081 C 
ATOM     30  C   UNL     1      -3.778  67.919  29.862  1.00  0.00     0.156 C 
ATOM     31  O   UNL     1      -3.733  67.406  31.011  1.00  0.00    -0.295 OA
ENDBRANCH   9  11
ENDBRANCH   8   9
ENDBRANCH   1   8
TORSDOF 6
ENDMDL
MODEL 2
REMARK VINA RESULT:    -7.437      4.190      6.711
REMARK INTER + INTRA:         -10.276
REMARK INTER:                  -8.884
REMARK INTRA:                  -1.391
REMARK UNBOUND:                -0.230
REMARK SMILES CC[C@H](CC[C@@H](C)[C@@H]1CC[C@H]2[C@@H]3CC(=O)C4=CC(=O)CC[C@]4(C)[C@@H]3CC[C@]21C)C(C)C
REMARK SMILES IDX 4 1 3 2 2 3 1 4 29 5 30 6 31 7 5 8 6 9 7 10 8 11 9 12 27 13
REMARK SMILES IDX 10 14 11 15 26 16 28 17 12 18 25 19 24 20 13 21 22 22 14 23
REMARK SMILES IDX 16 24 21 25 23 26 15 27 17 28 20 29 18 30 19 31
REMARK H PARENT
REMARK Flexibility Score: inf
ROOT
ATOM      1  C   UNL     1      -5.110  67.504  24.708  1.00  0.00     0.004 C 
ENDROOT
BRANCH   1   2
ATOM      2  C   UNL     1      -5.658  66.132  24.224  1.00  0.00    -0.009 C 
BRANCH   2   3
ATOM      3  C   UNL     1      -5.579  65.087  25.374  1.00  0.00     0.000 C 
ATOM      4  C   UNL     1      -5.785  65.674  26.772  1.00  0.00     0.004 C 
ENDBRANCH   2   3
BRANCH   2   5
ATOM      5  C   UNL     1      -7.074  66.315  23.577  1.00  0.00    -0.014 C 
ATOM      6  C   UNL     1      -7.314  65.434  22.344  1.00  0.00     0.007 C 
ATOM      7  C   UNL     1      -7.413  67.784  23.272  1.00  0.00     0.007 C 
ENDBRANCH   2   5
ENDBRANCH   1   2
BRANCH   1   8
ATOM      8  C   UNL     1      -3.565  67.574  24.686  1.00  0.00     0.004 C 
BRANCH   8   9
ATOM      9  C   UNL     1      -2.995  68.668  25.626  1.00  0.00    -0.011 C 
ATOM     10  C   UNL     1      -2.873  70.011  24.881  1.00  0.00     0.008 C 
BRANCH   9  11
ATOM     11  C   UNL     1      -3.830  68.750  26.953  1.00  0.00    -0.002 C 
ATOM     12  C   UNL     1      -4.794  69.919  27.101  1.00  0.00     0.005 C 
ATOM     13  C   UNL     1      -3.035  68.728  28.287  1.00  0.00    -0.026 C 
ATOM     14  C   UNL     1      -5.254  69.829  28.550  1.00  0.00     0.005 C 
ATOM     15  C   UNL     1      -4.115  69.137  29.345  1.00  0.00    -0.001 C 
ATOM     16  C   UNL     1      -2.435  67.312  28.545  1.00  0.00     0.007 C 
ATOM     17  C   UNL     1      -1.892  69.782  28.297  1.00  0.00     0.012 C 
ATOM     18  C   UNL     1      -4.631  67.926  30.181  1.00  0.00     0.004 C 
ATOM     19  C   UNL     1      -2.166  67.078  30.034  1.00  0.00     0.005 C 
ATOM     20  C   UNL     1      -3.459  67.159  30.892  1.00  0.00     0.003 C 
ATOM     21  C   UNL     1      -5.795  68.312  31.130  1.00  0.00     0.085 C 
ATOM     22  C   UNL     1      -3.209  67.506  32.419  1.00  0.00    -0.000 C 
ATOM     23  C   UNL     1      -5.780  67.521  32.395  1.00  0.00     0.159 C 
ATOM     24  C   UNL     1      -4.535  67.546  33.171  1.00  0.00     0.005 C 
ATOM     25  C   UNL     1      -2.526  68.885  32.651  1.00  0.00     0.020 C 
ATOM     26  C   UNL     1      -2.334  66.365  33.019  1.00  0.00     0.017 C 
ATOM     27  O   UNL     1      -6.820  66.961  32.832  1.00  0.00    -0.295 OA
ATOM     28  C   UNL     1      -4.592  68.015  34.430  1.00  0.00     0.055 C 
ATOM     29  C   UNL     1      -2.283  69.154  34.154  1.00  0.00     0.081 C 
ATOM     30  C   UNL     1      -3.447  68.732  35.010  1.00  0.00     0.156 C 
ATOM     31  O   UNL     1      -3.449  69.021  36.235  1.00  0.00    -0.295 OA
ENDBRANCH   9  11
ENDBRANCH   8   9
ENDBRANCH   1   8
TORSDOF 6
ENDMDL
MODEL 3
REMARK VINA RESULT:    -7.335      3.633      6.636
REMARK INTER + INTRA:         -10.138
REMARK INTER:                  -9.163
REMARK INTRA:                  -0.975
REMARK UNBOUND:                -0.230
REMARK SMILES CC[C@H](CC[C@@H](C)[C@@H]1CC[C@H]2[C@@H]3CC(=O)C4=CC(=O)CC[C@]4(C)[C@@H]3CC[C@]21C)C(C)C
REMARK SMILES IDX 4 1 3 2 2 3 1 4 29 5 30 6 31 7 5 8 6 9 7 10 8 11 9 12 27 13
REMARK SMILES IDX 10 14 11 15 26 16 28 17 12 18 25 19 24 20 13 21 22 22 14 23
REMARK SMILES IDX 16 24 21 25 23 26 15 27 17 28 20 29 18 30 19 31
REMARK H PARENT
REMARK Flexibility Score: inf
ROOT
ATOM      1  C   UNL     1      -9.530  73.542  28.375  1.00  0.00     0.004 C 
ENDROOT
BRANCH   1   2
ATOM      2  C   UNL     1     -10.897  73.987  28.964  1.00  0.00    -0.009 C 
BRANCH   2   3
ATOM      3  C   UNL     1     -12.002  72.956  28.594  1.00  0.00     0.000 C 
ATOM      4  C   UNL     1     -13.119  73.520  27.715  1.00  0.00     0.004 C 
ENDBRANCH   2   3
BRANCH   2   5
ATOM      5  C   UNL     1     -10.751  74.296  30.495  1.00  0.00    -0.014 C 
ATOM      6  C   UNL     1      -9.333  74.705  30.915  1.00  0.00     0.007 C 
ATOM      7  C   UNL     1     -11.280  73.164  31.391  1.00  0.00     0.007 C 
ENDBRANCH   2   5
ENDBRANCH   1   2
BRANCH   1   8
ATOM      8  C   UNL     1      -9.029  74.477  27.249  1.00  0.00     0.004 C 
BRANCH   8   9
ATOM      9  C   UNL     1      -9.919  74.427  25.980  1.00  0.00    -0.011 C 
ATOM     10  C   UNL     1     -10.796  75.691  25.883  1.00  0.00     0.008 C 
BRANCH   9  11
ATOM     11  C   UNL     1      -9.050  74.156  24.701  1.00  0.00    -0.002 C 
ATOM     12  C   UNL     1      -9.661  74.510  23.353  1.00  0.00     0.005 C 
ATOM     13  C   UNL     1      -8.500  72.715  24.516  1.00  0.00    -0.026 C 
ATOM     14  C   UNL     1      -8.681  73.924  22.345  1.00  0.00     0.005 C 
ATOM     15  C   UNL     1      -7.977  72.728  23.039  1.00  0.00    -0.001 C 
ATOM     16  C   UNL     1      -7.378  72.418  25.557  1.00  0.00     0.007 C 
ATOM     17  C   UNL     1      -9.622  71.647  24.647  1.00  0.00     0.012 C 
ATOM     18  C   UNL     1      -6.424  72.824  22.950  1.00  0.00     0.004 C 
ATOM     19  C   UNL     1      -6.443  71.306  25.073  1.00  0.00     0.005 C 
ATOM     20  C   UNL     1      -5.714  71.675  23.751  1.00  0.00     0.003 C 
ATOM     21  C   UNL     1      -5.922  72.973  21.490  1.00  0.00     0.085 C 
ATOM     22  C   UNL     1      -5.218  70.426  22.909  1.00  0.00    -0.000 C 
ATOM     23  C   UNL     1      -4.601  72.313  21.275  1.00  0.00     0.159 C 
ATOM     24  C   UNL     1      -4.507  70.896  21.645  1.00  0.00     0.005 C 
ATOM     25  C   UNL     1      -6.362  69.478  22.448  1.00  0.00     0.020 C 
ATOM     26  C   UNL     1      -4.197  69.646  23.790  1.00  0.00     0.017 C 
ATOM     27  O   UNL     1      -3.655  72.910  20.696  1.00  0.00    -0.295 OA
ATOM     28  C   UNL     1      -4.177  70.020  20.680  1.00  0.00     0.055 C 
ATOM     29  C   UNL     1      -5.816  68.267  21.658  1.00  0.00     0.081 C 
ATOM     30  C   UNL     1      -4.719  68.652  20.701  1.00  0.00     0.156 C 
ATOM     31  O   UNL     1      -4.278  67.795  19.890  1.00  0.00    -0.295 OA
ENDBRANCH   9  11
ENDBRANCH   8   9
ENDBRANCH   1   8
TORSDOF 6
ENDMDL
MODEL 4
REMARK VINA RESULT:    -7.335      7.635     11.905
REMARK INTER + INTRA:         -10.138
REMARK INTER:                  -9.844
REMARK INTRA:                  -0.294
REMARK UNBOUND:                -0.230
REMARK SMILES CC[C@H](CC[C@@H](C)[C@@H]1CC[C@H]2[C@@H]3CC(=O)C4=CC(=O)CC[C@]4(C)[C@@H]3CC[C@]21C)C(C)C
REMARK SMILES IDX 4 1 3 2 2 3 1 4 29 5 30 6 31 7 5 8 6 9 7 10 8 11 9 12 27 13
REMARK SMILES IDX 10 14 11 15 26 16 28 17 12 18 25 19 24 20 13 21 22 22 14 23
REMARK SMILES IDX 16 24 21 25 23 26 15 27 17 28 20 29 18 30 19 31
REMARK H PARENT
REMARK Flexibility Score: inf
ROOT
ATOM      1  C   UNL     1     -10.891  70.465  37.772  1.00  0.00     0.004 C 
ENDROOT
BRANCH   1   2
ATOM      2  C   UNL     1     -11.563  71.814  37.390  1.00  0.00    -0.009 C 
BRANCH   2   3
ATOM      3  C   UNL     1     -12.010  72.572  38.672  1.00  0.00     0.000 C 
ATOM      4  C   UNL     1     -12.055  71.706  39.931  1.00  0.00     0.004 C 
ENDBRANCH   2   3
BRANCH   2   5
ATOM      5  C   UNL     1     -10.635  72.623  36.419  1.00  0.00    -0.014 C 
ATOM      6  C   UNL     1     -10.446  74.092  36.818  1.00  0.00     0.007 C 
ATOM      7  C   UNL     1     -11.060  72.508  34.945  1.00  0.00     0.007 C 
ENDBRANCH   2   5
ENDBRANCH   1   2
BRANCH   1   8
ATOM      8  C   UNL     1      -9.347  70.555  37.812  1.00  0.00     0.004 C 
BRANCH   8   9
ATOM      9  C   UNL     1      -8.674  69.224  38.236  1.00  0.00    -0.011 C 
ATOM     10  C   UNL     1      -9.693  68.067  38.201  1.00  0.00     0.008 C 
BRANCH   9  11
ATOM     11  C   UNL     1      -7.381  68.958  37.386  1.00  0.00    -0.002 C 
ATOM     12  C   UNL     1      -6.348  70.073  37.318  1.00  0.00     0.005 C 
ATOM     13  C   UNL     1      -7.588  68.525  35.909  1.00  0.00    -0.026 C 
ATOM     14  C   UNL     1      -5.364  69.592  36.259  1.00  0.00     0.005 C 
ATOM     15  C   UNL     1      -6.150  68.658  35.301  1.00  0.00    -0.001 C 
ATOM     16  C   UNL     1      -8.147  67.072  35.836  1.00  0.00     0.007 C 
ATOM     17  C   UNL     1      -8.547  69.486  35.153  1.00  0.00     0.012 C 
ATOM     18  C   UNL     1      -5.445  67.280  35.111  1.00  0.00     0.004 C 
ATOM     19  C   UNL     1      -7.828  66.413  34.491  1.00  0.00     0.005 C 
ATOM     20  C   UNL     1      -6.299  66.297  34.234  1.00  0.00     0.003 C 
ATOM     21  C   UNL     1      -3.975  67.426  34.639  1.00  0.00     0.085 C 
ATOM     22  C   UNL     1      -5.901  66.185  32.703  1.00  0.00    -0.000 C 
ATOM     23  C   UNL     1      -3.554  66.308  33.745  1.00  0.00     0.159 C 
ATOM     24  C   UNL     1      -4.388  66.061  32.564  1.00  0.00     0.005 C 
ATOM     25  C   UNL     1      -6.327  67.411  31.847  1.00  0.00     0.020 C 
ATOM     26  C   UNL     1      -6.557  64.886  32.145  1.00  0.00     0.017 C 
ATOM     27  O   UNL     1      -2.473  65.689  33.933  1.00  0.00    -0.295 OA
ATOM     28  C   UNL     1      -3.804  66.154  31.356  1.00  0.00     0.055 C 
ATOM     29  C   UNL     1      -5.938  67.232  30.361  1.00  0.00     0.081 C 
ATOM     30  C   UNL     1      -4.569  66.630  30.193  1.00  0.00     0.156 C 
ATOM     31  O   UNL     1      -4.063  66.558  29.043  1.00  0.00    -0.295 OA
ENDBRANCH   9  11
ENDBRANCH   8   9
ENDBRANCH   1   8
TORSDOF 6
ENDMDL
MODEL 5
REMARK VINA RESULT:    -7.315      4.882     10.268
REMARK INTER + INTRA:         -10.112
REMARK INTER:                  -8.274
REMARK INTRA:                  -1.838
REMARK UNBOUND:                -0.230
REMARK SMILES CC[C@H](CC[C@@H](C)[C@@H]1CC[C@H]2[C@@H]3CC(=O)C4=CC(=O)CC[C@]4(C)[C@@H]3CC[C@]21C)C(C)C
REMARK SMILES IDX 4 1 3 2 2 3 1 4 29 5 30 6 31 7 5 8 6 9 7 10 8 11 9 12 27 13
REMARK SMILES IDX 10 14 11 15 26 16 28 17 12 18 25 19 24 20 13 21 22 22 14 23
REMARK SMILES IDX 16 24 21 25 23 26 15 27 17 28 20 29 18 30 19 31
REMARK H PARENT
REMARK Flexibility Score: inf
ROOT
ATOM      1  C   UNL     1      -3.821  67.134  35.899  1.00  0.00     0.004 C 
ENDROOT
BRANCH   1   2
ATOM      2  C   UNL     1      -2.701  68.197  35.723  1.00  0.00    -0.009 C 
BRANCH   2   3
ATOM      3  C   UNL     1      -2.106  68.117  34.287  1.00  0.00     0.000 C 
ATOM      4  C   UNL     1      -2.318  69.378  33.448  1.00  0.00     0.004 C 
ENDBRANCH   2   3
BRANCH   2   5
ATOM      5  C   UNL     1      -3.225  69.610  36.156  1.00  0.00    -0.014 C 
ATOM      6  C   UNL     1      -2.671  70.095  37.501  1.00  0.00     0.007 C 
ATOM      7  C   UNL     1      -4.759  69.718  36.127  1.00  0.00     0.007 C 
ENDBRANCH   2   5
ENDBRANCH   1   2
BRANCH   1   8
ATOM      8  C   UNL     1      -3.739  65.997  34.854  1.00  0.00     0.004 C 
BRANCH   8   9
ATOM      9  C   UNL     1      -5.088  65.738  34.134  1.00  0.00    -0.011 C 
ATOM     10  C   UNL     1      -6.257  65.808  35.135  1.00  0.00     0.008 C 
BRANCH   9  11
ATOM     11  C   UNL     1      -5.251  66.693  32.898  1.00  0.00    -0.002 C 
ATOM     12  C   UNL     1      -6.434  67.651  32.906  1.00  0.00     0.005 C 
ATOM     13  C   UNL     1      -5.296  66.026  31.496  1.00  0.00    -0.026 C 
ATOM     14  C   UNL     1      -6.428  68.246  31.504  1.00  0.00     0.005 C 
ATOM     15  C   UNL     1      -5.772  67.196  30.568  1.00  0.00    -0.001 C 
ATOM     16  C   UNL     1      -3.892  65.473  31.106  1.00  0.00     0.007 C 
ATOM     17  C   UNL     1      -6.340  64.875  31.435  1.00  0.00     0.012 C 
ATOM     18  C   UNL     1      -4.613  67.804  29.720  1.00  0.00     0.004 C 
ATOM     19  C   UNL     1      -3.739  65.348  29.587  1.00  0.00     0.005 C 
ATOM     20  C   UNL     1      -3.878  66.715  28.861  1.00  0.00     0.003 C 
ATOM     21  C   UNL     1      -5.062  69.047  28.908  1.00  0.00     0.085 C 
ATOM     22  C   UNL     1      -4.307  66.604  27.338  1.00  0.00    -0.000 C 
ATOM     23  C   UNL     1      -4.342  69.161  27.606  1.00  0.00     0.159 C 
ATOM     24  C   UNL     1      -4.400  67.994  26.719  1.00  0.00     0.005 C 
ATOM     25  C   UNL     1      -5.690  65.927  27.118  1.00  0.00     0.020 C 
ATOM     26  C   UNL     1      -3.194  65.805  26.597  1.00  0.00     0.017 C 
ATOM     27  O   UNL     1      -3.816  70.245  27.240  1.00  0.00    -0.295 OA
ATOM     28  C   UNL     1      -4.938  68.163  25.498  1.00  0.00     0.055 C 
ATOM     29  C   UNL     1      -6.041  65.822  25.616  1.00  0.00     0.081 C 
ATOM     30  C   UNL     1      -5.677  67.067  24.852  1.00  0.00     0.156 C 
ATOM     31  O   UNL     1      -6.034  67.180  23.650  1.00  0.00    -0.295 OA
ENDBRANCH   9  11
ENDBRANCH   8   9
ENDBRANCH   1   8
TORSDOF 6
ENDMDL
MODEL 6
REMARK VINA RESULT:    -7.080      3.581      6.465
REMARK INTER + INTRA:          -9.793
REMARK INTER:                  -8.381
REMARK INTRA:                  -1.412
REMARK UNBOUND:                -0.230
REMARK SMILES CC[C@H](CC[C@@H](C)[C@@H]1CC[C@H]2[C@@H]3CC(=O)C4=CC(=O)CC[C@]4(C)[C@@H]3CC[C@]21C)C(C)C
REMARK SMILES IDX 4 1 3 2 2 3 1 4 29 5 30 6 31 7 5 8 6 9 7 10 8 11 9 12 27 13
REMARK SMILES IDX 10 14 11 15 26 16 28 17 12 18 25 19 24 20 13 21 22 22 14 23
REMARK SMILES IDX 16 24 21 25 23 26 15 27 17 28 20 29 18 30 19 31
REMARK H PARENT
REMARK Flexibility Score: inf
ROOT
ATOM      1  C   UNL     1      -4.894  67.147  25.022  1.00  0.00     0.004 C 
ENDROOT
BRANCH   1   2
ATOM      2  C   UNL     1      -5.593  67.092  23.636  1.00  0.00    -0.009 C 
BRANCH   2   3
ATOM      3  C   UNL     1      -7.022  66.493  23.779  1.00  0.00     0.000 C 
ATOM      4  C   UNL     1      -7.518  65.747  22.539  1.00  0.00     0.004 C 
ENDBRANCH   2   3
BRANCH   2   5
ATOM      5  C   UNL     1      -5.518  68.493  22.937  1.00  0.00    -0.014 C 
ATOM      6  C   UNL     1      -6.760  69.367  23.158  1.00  0.00     0.007 C 
ATOM      7  C   UNL     1      -5.174  68.403  21.441  1.00  0.00     0.007 C 
ENDBRANCH   2   5
ENDBRANCH   1   2
BRANCH   1   8
ATOM      8  C   UNL     1      -3.375  67.423  24.918  1.00  0.00     0.004 C 
BRANCH   8   9
ATOM      9  C   UNL     1      -2.914  68.611  25.801  1.00  0.00    -0.011 C 
ATOM     10  C   UNL     1      -2.899  69.918  24.984  1.00  0.00     0.008 C 
BRANCH   9  11
ATOM     11  C   UNL     1      -3.771  68.693  27.114  1.00  0.00    -0.002 C 
ATOM     12  C   UNL     1      -4.762  69.843  27.232  1.00  0.00     0.005 C 
ATOM     13  C   UNL     1      -2.995  68.705  28.460  1.00  0.00    -0.026 C 
ATOM     14  C   UNL     1      -5.241  69.761  28.676  1.00  0.00     0.005 C 
ATOM     15  C   UNL     1      -4.100  69.105  29.497  1.00  0.00    -0.001 C 
ATOM     16  C   UNL     1      -2.370  67.306  28.745  1.00  0.00     0.007 C 
ATOM     17  C   UNL     1      -1.875  69.784  28.473  1.00  0.00     0.012 C 
ATOM     18  C   UNL     1      -4.602  67.893  30.340  1.00  0.00     0.004 C 
ATOM     19  C   UNL     1      -2.118  67.097  30.241  1.00  0.00     0.005 C 
ATOM     20  C   UNL     1      -3.425  67.161  31.079  1.00  0.00     0.003 C 
ATOM     21  C   UNL     1      -5.788  68.267  31.267  1.00  0.00     0.085 C 
ATOM     22  C   UNL     1      -3.205  67.533  32.605  1.00  0.00    -0.000 C 
ATOM     23  C   UNL     1      -5.775  67.493  32.543  1.00  0.00     0.159 C 
ATOM     24  C   UNL     1      -4.543  67.554  33.336  1.00  0.00     0.005 C 
ATOM     25  C   UNL     1      -2.555  68.928  32.828  1.00  0.00     0.020 C 
ATOM     26  C   UNL     1      -2.315  66.419  33.232  1.00  0.00     0.017 C 
ATOM     27  O   UNL     1      -6.810  66.917  32.971  1.00  0.00    -0.295 OA
ATOM     28  C   UNL     1      -4.629  68.037  34.588  1.00  0.00     0.055 C 
ATOM     29  C   UNL     1      -2.340  69.222  34.331  1.00  0.00     0.081 C 
ATOM     30  C   UNL     1      -3.507  68.787  35.176  1.00  0.00     0.156 C 
ATOM     31  O   UNL     1      -3.534  69.091  36.397  1.00  0.00    -0.295 OA
ENDBRANCH   9  11
ENDBRANCH   8   9
ENDBRANCH   1   8
TORSDOF 6
ENDMDL
MODEL 7
REMARK VINA RESULT:    -6.829      4.997      9.278
REMARK INTER + INTRA:          -9.455
REMARK INTER:                  -8.290
REMARK INTRA:                  -1.165
REMARK UNBOUND:                -0.230
REMARK SMILES CC[C@H](CC[C@@H](C)[C@@H]1CC[C@H]2[C@@H]3CC(=O)C4=CC(=O)CC[C@]4(C)[C@@H]3CC[C@]21C)C(C)C
REMARK SMILES IDX 4 1 3 2 2 3 1 4 29 5 30 6 31 7 5 8 6 9 7 10 8 11 9 12 27 13
REMARK SMILES IDX 10 14 11 15 26 16 28 17 12 18 25 19 24 20 13 21 22 22 14 23
REMARK SMILES IDX 16 24 21 25 23 26 15 27 17 28 20 29 18 30 19 31
REMARK H PARENT
REMARK Flexibility Score: inf
ROOT
ATOM      1  C   UNL     1      -3.755  69.782  27.513  1.00  0.00     0.004 C 
ENDROOT
BRANCH   1   2
ATOM      2  C   UNL     1      -4.813  69.535  26.402  1.00  0.00    -0.009 C 
BRANCH   2   3
ATOM      3  C   UNL     1      -4.815  70.717  25.390  1.00  0.00     0.000 C 
ATOM      4  C   UNL     1      -3.448  71.373  25.188  1.00  0.00     0.004 C 
ENDBRANCH   2   3
BRANCH   2   5
ATOM      5  C   UNL     1      -4.614  68.112  25.774  1.00  0.00    -0.014 C 
ATOM      6  C   UNL     1      -3.148  67.752  25.499  1.00  0.00     0.007 C 
ATOM      7  C   UNL     1      -5.477  67.880  24.523  1.00  0.00     0.007 C 
ENDBRANCH   2   5
ENDBRANCH   1   2
BRANCH   1   8
ATOM      8  C   UNL     1      -4.286  69.459  28.930  1.00  0.00     0.004 C 
BRANCH   8   9
ATOM      9  C   UNL     1      -3.477  68.343  29.640  1.00  0.00    -0.011 C 
ATOM     10  C   UNL     1      -2.056  68.245  29.049  1.00  0.00     0.008 C 
BRANCH   9  11
ATOM     11  C   UNL     1      -3.505  68.541  31.198  1.00  0.00    -0.002 C 
ATOM     12  C   UNL     1      -2.166  68.620  31.917  1.00  0.00     0.005 C 
ATOM     13  C   UNL     1      -4.332  67.516  32.022  1.00  0.00    -0.026 C 
ATOM     14  C   UNL     1      -2.543  68.579  33.392  1.00  0.00     0.005 C 
ATOM     15  C   UNL     1      -3.889  67.814  33.495  1.00  0.00    -0.001 C 
ATOM     16  C   UNL     1      -5.859  67.731  31.790  1.00  0.00     0.007 C 
ATOM     17  C   UNL     1      -3.957  66.050  31.667  1.00  0.00     0.012 C 
ATOM     18  C   UNL     1      -4.962  68.612  34.298  1.00  0.00     0.004 C 
ATOM     19  C   UNL     1      -6.687  67.184  32.956  1.00  0.00     0.005 C 
ATOM     20  C   UNL     1      -6.355  67.888  34.302  1.00  0.00     0.003 C 
ATOM     21  C   UNL     1      -4.463  69.021  35.709  1.00  0.00     0.085 C 
ATOM     22  C   UNL     1      -6.705  67.031  35.590  1.00  0.00    -0.000 C 
ATOM     23  C   UNL     1      -5.566  69.043  36.714  1.00  0.00     0.159 C 
ATOM     24  C   UNL     1      -6.356  67.815  36.850  1.00  0.00     0.005 C 
ATOM     25  C   UNL     1      -5.937  65.681  35.680  1.00  0.00     0.020 C 
ATOM     26  C   UNL     1      -8.242  66.775  35.576  1.00  0.00     0.017 C 
ATOM     27  O   UNL     1      -5.730  70.024  37.486  1.00  0.00    -0.295 OA
ATOM     28  C   UNL     1      -6.378  67.217  38.054  1.00  0.00     0.055 C 
ATOM     29  C   UNL     1      -6.340  64.879  36.939  1.00  0.00     0.081 C 
ATOM     30  C   UNL     1      -6.481  65.752  38.157  1.00  0.00     0.156 C 
ATOM     31  O   UNL     1      -6.665  65.218  39.282  1.00  0.00    -0.295 OA
ENDBRANCH   9  11
ENDBRANCH   8   9
ENDBRANCH   1   8
TORSDOF 6
ENDMDL
MODEL 8
REMARK VINA RESULT:    -6.776      1.599      3.559
REMARK INTER + INTRA:          -9.384
REMARK INTER:                  -7.315
REMARK INTRA:                  -2.069
REMARK UNBOUND:                -0.230
REMARK SMILES CC[C@H](CC[C@@H](C)[C@@H]1CC[C@H]2[C@@H]3CC(=O)C4=CC(=O)CC[C@]4(C)[C@@H]3CC[C@]21C)C(C)C
REMARK SMILES IDX 4 1 3 2 2 3 1 4 29 5 30 6 31 7 5 8 6 9 7 10 8 11 9 12 27 13
REMARK SMILES IDX 10 14 11 15 26 16 28 17 12 18 25 19 24 20 13 21 22 22 14 23
REMARK SMILES IDX 16 24 21 25 23 26 15 27 17 28 20 29 18 30 19 31
REMARK H PARENT
REMARK Flexibility Score: inf
ROOT
ATOM      1  C   UNL     1      -6.112  72.391  22.046  1.00  0.00     0.004 C 
ENDROOT
BRANCH   1   2
ATOM      2  C   UNL     1      -7.599  72.187  22.449  1.00  0.00    -0.009 C 
BRANCH   2   3
ATOM      3  C   UNL     1      -7.688  71.484  23.834  1.00  0.00     0.000 C 
ATOM      4  C   UNL     1      -6.649  71.963  24.849  1.00  0.00     0.004 C 
ENDBRANCH   2   3
BRANCH   2   5
ATOM      5  C   UNL     1      -8.381  73.541  22.330  1.00  0.00    -0.014 C 
ATOM      6  C   UNL     1      -9.866  73.437  22.700  1.00  0.00     0.007 C 
ATOM      7  C   UNL     1      -8.206  74.220  20.962  1.00  0.00     0.007 C 
ENDBRANCH   2   5
ENDBRANCH   1   2
BRANCH   1   8
ATOM      8  C   UNL     1      -5.594  71.293  21.087  1.00  0.00     0.004 C 
BRANCH   8   9
ATOM      9  C   UNL     1      -4.141  70.851  21.402  1.00  0.00    -0.011 C 
ATOM     10  C   UNL     1      -3.130  71.768  20.687  1.00  0.00     0.008 C 
BRANCH   9  11
ATOM     11  C   UNL     1      -3.917  70.742  22.952  1.00  0.00    -0.002 C 
ATOM     12  C   UNL     1      -2.737  71.502  23.542  1.00  0.00     0.005 C 
ATOM     13  C   UNL     1      -3.799  69.312  23.547  1.00  0.00    -0.026 C 
ATOM     14  C   UNL     1      -2.672  71.008  24.982  1.00  0.00     0.005 C 
ATOM     15  C   UNL     1      -3.278  69.580  25.000  1.00  0.00    -0.001 C 
ATOM     16  C   UNL     1      -5.182  68.592  23.520  1.00  0.00     0.007 C 
ATOM     17  C   UNL     1      -2.753  68.452  22.785  1.00  0.00     0.012 C 
ATOM     18  C   UNL     1      -4.393  69.427  26.080  1.00  0.00     0.004 C 
ATOM     19  C   UNL     1      -5.258  67.480  24.570  1.00  0.00     0.005 C 
ATOM     20  C   UNL     1      -5.083  68.018  26.018  1.00  0.00     0.003 C 
ATOM     21  C   UNL     1      -3.905  69.825  27.497  1.00  0.00     0.085 C 
ATOM     22  C   UNL     1      -4.577  66.934  27.060  1.00  0.00    -0.000 C 
ATOM     23  C   UNL     1      -4.558  69.016  28.568  1.00  0.00     0.159 C 
ATOM     24  C   UNL     1      -4.454  67.558  28.445  1.00  0.00     0.005 C 
ATOM     25  C   UNL     1      -3.183  66.332  26.720  1.00  0.00     0.020 C 
ATOM     26  C   UNL     1      -5.650  65.806  27.118  1.00  0.00     0.017 C 
ATOM     27  O   UNL     1      -5.066  69.561  29.584  1.00  0.00    -0.295 OA
ATOM     28  C   UNL     1      -3.855  66.888  29.445  1.00  0.00     0.055 C 
ATOM     29  C   UNL     1      -2.757  65.264  27.753  1.00  0.00     0.081 C 
ATOM     30  C   UNL     1      -3.083  65.668  29.166  1.00  0.00     0.156 C 
ATOM     31  O   UNL     1      -2.666  64.962  30.122  1.00  0.00    -0.295 OA
ENDBRANCH   9  11
ENDBRANCH   8   9
ENDBRANCH   1   8
TORSDOF 6
ENDMDL
MODEL 9
REMARK VINA RESULT:    -6.700      7.289     11.637
REMARK INTER + INTRA:          -9.280
REMARK INTER:                  -7.622
REMARK INTRA:                  -1.659
REMARK UNBOUND:                -0.230
REMARK SMILES CC[C@H](CC[C@@H](C)[C@@H]1CC[C@H]2[C@@H]3CC(=O)C4=CC(=O)CC[C@]4(C)[C@@H]3CC[C@]21C)C(C)C
REMARK SMILES IDX 4 1 3 2 2 3 1 4 29 5 30 6 31 7 5 8 6 9 7 10 8 11 9 12 27 13
REMARK SMILES IDX 10 14 11 15 26 16 28 17 12 18 25 19 24 20 13 21 22 22 14 23
REMARK SMILES IDX 16 24 21 25 23 26 15 27 17 28 20 29 18 30 19 31
REMARK H PARENT
REMARK Flexibility Score: inf
ROOT
ATOM      1  C   UNL     1      -8.871  68.070  37.707  1.00  0.00     0.004 C 
ENDROOT
BRANCH   1   2
ATOM      2  C   UNL     1      -9.032  69.615  37.736  1.00  0.00    -0.009 C 
BRANCH   2   3
ATOM      3  C   UNL     1      -8.693  70.216  36.341  1.00  0.00     0.000 C 
ATOM      4  C   UNL     1      -8.666  69.191  35.206  1.00  0.00     0.004 C 
ENDBRANCH   2   3
BRANCH   2   5
ATOM      5  C   UNL     1     -10.438  70.001  38.311  1.00  0.00    -0.014 C 
ATOM      6  C   UNL     1     -10.953  71.366  37.834  1.00  0.00     0.007 C 
ATOM      7  C   UNL     1     -10.512  69.896  39.843  1.00  0.00     0.007 C 
ENDBRANCH   2   5
ENDBRANCH   1   2
BRANCH   1   8
ATOM      8  C   UNL     1      -7.616  67.583  38.469  1.00  0.00     0.004 C 
BRANCH   8   9
ATOM      9  C   UNL     1      -6.974  66.322  37.835  1.00  0.00    -0.011 C 
ATOM     10  C   UNL     1      -7.628  65.043  38.393  1.00  0.00     0.008 C 
BRANCH   9  11
ATOM     11  C   UNL     1      -6.997  66.415  36.267  1.00  0.00    -0.002 C 
ATOM     12  C   UNL     1      -7.894  65.437  35.522  1.00  0.00     0.005 C 
ATOM     13  C   UNL     1      -5.629  66.326  35.538  1.00  0.00    -0.026 C 
ATOM     14  C   UNL     1      -7.513  65.637  34.060  1.00  0.00     0.005 C 
ATOM     15  C   UNL     1      -6.044  66.135  34.039  1.00  0.00    -0.001 C 
ATOM     16  C   UNL     1      -4.793  67.620  35.778  1.00  0.00     0.007 C 
ATOM     17  C   UNL     1      -4.807  65.088  35.996  1.00  0.00     0.012 C 
ATOM     18  C   UNL     1      -5.874  67.436  33.195  1.00  0.00     0.004 C 
ATOM     19  C   UNL     1      -3.758  67.835  34.670  1.00  0.00     0.005 C 
ATOM     20  C   UNL     1      -4.411  68.001  33.270  1.00  0.00     0.003 C 
ATOM     21  C   UNL     1      -6.414  67.280  31.749  1.00  0.00     0.085 C 
ATOM     22  C   UNL     1      -3.452  67.647  32.057  1.00  0.00    -0.000 C 
ATOM     23  C   UNL     1      -5.632  68.082  30.765  1.00  0.00     0.159 C 
ATOM     24  C   UNL     1      -4.183  67.856  30.735  1.00  0.00     0.005 C 
ATOM     25  C   UNL     1      -2.947  66.176  32.057  1.00  0.00     0.020 C 
ATOM     26  C   UNL     1      -2.244  68.630  32.116  1.00  0.00     0.017 C 
ATOM     27  O   UNL     1      -6.203  68.825  29.922  1.00  0.00    -0.295 OA
ATOM     28  C   UNL     1      -3.640  67.432  29.580  1.00  0.00     0.055 C 
ATOM     29  C   UNL     1      -1.996  65.899  30.869  1.00  0.00     0.081 C 
ATOM     30  C   UNL     1      -2.472  66.537  29.591  1.00  0.00     0.156 C 
ATOM     31  O   UNL     1      -1.875  66.279  28.513  1.00  0.00    -0.295 OA
ENDBRANCH   9  11
ENDBRANCH   8   9
ENDBRANCH   1   8
TORSDOF 6
ENDMDL
