MODEL 1
REMARK VINA RESULT:    -4.820      0.000      0.000
REMARK INTER + INTRA:          -6.174
REMARK INTER:                  -5.947
REMARK INTRA:                  -0.226
REMARK UNBOUND:                -0.226
REMARK SMILES C=CC[C@@H](C)C(=O)CC
REMARK SMILES IDX 4 1 5 2 6 3 7 4 8 5 9 6 3 7 2 8 1 9
REMARK H PARENT
REMARK Flexibility Score: inf
ROOT
ATOM      1  C   UNL     1     -23.126  20.651 -31.355  1.00  0.00     0.057 C 
ATOM      2  C   UNL     1     -23.204  20.641 -29.822  1.00  0.00     0.016 C 
ENDROOT
BRANCH   1   3
ATOM      3  C   UNL     1     -23.700  19.364 -31.907  1.00  0.00     0.135 C 
ATOM      4  O   UNL     1     -22.951  18.515 -32.366  1.00  0.00    -0.299 OA
BRANCH   3   5
ATOM      5  C   UNL     1     -25.184  19.101 -31.892  1.00  0.00     0.072 C 
ATOM      6  C   UNL     1     -25.533  18.033 -30.862  1.00  0.00     0.012 C 
ENDBRANCH   3   5
ENDBRANCH   1   3
BRANCH   1   7
ATOM      7  C   UNL     1     -23.871  21.861 -31.957  1.00  0.00     0.038 C 
BRANCH   7   8
ATOM      8  C   UNL     1     -23.692  23.111 -31.135  1.00  0.00    -0.034 C 
ATOM      9  C   UNL     1     -23.219  24.242 -31.666  1.00  0.00     0.004 C 
ENDBRANCH   7   8
ENDBRANCH   1   7
TORSDOF 4
ENDMDL
MODEL 2
REMARK VINA RESULT:    -4.722      0.970      1.748
REMARK INTER + INTRA:          -6.052
REMARK INTER:                  -5.822
REMARK INTRA:                  -0.230
REMARK UNBOUND:                -0.226
REMARK SMILES C=CC[C@@H](C)C(=O)CC
REMARK SMILES IDX 4 1 5 2 6 3 7 4 8 5 9 6 3 7 2 8 1 9
REMARK H PARENT
REMARK Flexibility Score: inf
ROOT
ATOM      1  C   UNL     1     -24.440  19.944 -32.218  1.00  0.00     0.057 C 
ATOM      2  C   UNL     1     -24.398  20.160 -33.736  1.00  0.00     0.016 C 
ENDROOT
BRANCH   1   3
ATOM      3  C   UNL     1     -23.927  18.560 -31.881  1.00  0.00     0.135 C 
ATOM      4  O   UNL     1     -22.894  18.156 -32.393  1.00  0.00    -0.299 OA
BRANCH   3   5
ATOM      5  C   UNL     1     -24.663  17.670 -30.914  1.00  0.00     0.072 C 
ATOM      6  C   UNL     1     -26.164  17.929 -30.974  1.00  0.00     0.012 C 
ENDBRANCH   3   5
ENDBRANCH   1   3
BRANCH   1   7
ATOM      7  C   UNL     1     -23.615  21.010 -31.466  1.00  0.00     0.038 C 
BRANCH   7   8
ATOM      8  C   UNL     1     -23.942  22.410 -31.915  1.00  0.00    -0.034 C 
ATOM      9  C   UNL     1     -23.505  23.483 -31.249  1.00  0.00     0.004 C 
ENDBRANCH   7   8
ENDBRANCH   1   7
TORSDOF 4
ENDMDL
MODEL 3
REMARK VINA RESULT:    -4.643      1.734      3.660
REMARK INTER + INTRA:          -5.955
REMARK INTER:                  -5.651
REMARK INTRA:                  -0.304
REMARK UNBOUND:                -0.226
REMARK SMILES C=CC[C@@H](C)C(=O)CC
REMARK SMILES IDX 4 1 5 2 6 3 7 4 8 5 9 6 3 7 2 8 1 9
REMARK H PARENT
REMARK Flexibility Score: inf
ROOT
ATOM      1  C   UNL     1     -24.431  19.985 -32.159  1.00  0.00     0.057 C 
ATOM      2  C   UNL     1     -24.462  18.549 -31.619  1.00  0.00     0.016 C 
ENDROOT
BRANCH   1   3
ATOM      3  C   UNL     1     -23.231  20.719 -31.600  1.00  0.00     0.135 C 
ATOM      4  O   UNL     1     -22.104  20.315 -31.850  1.00  0.00    -0.299 OA
BRANCH   3   5
ATOM      5  C   UNL     1     -23.396  21.950 -30.748  1.00  0.00     0.072 C 
ATOM      6  C   UNL     1     -23.734  23.162 -31.608  1.00  0.00     0.012 C 
ENDBRANCH   3   5
ENDBRANCH   1   3
BRANCH   1   7
ATOM      7  C   UNL     1     -24.397  20.015 -33.702  1.00  0.00     0.038 C 
BRANCH   7   8
ATOM      8  C   UNL     1     -25.761  20.233 -34.302  1.00  0.00    -0.034 C 
ATOM      9  C   UNL     1     -26.820  20.546 -33.550  1.00  0.00     0.004 C 
ENDBRANCH   7   8
ENDBRANCH   1   7
TORSDOF 4
ENDMDL
MODEL 4
REMARK VINA RESULT:    -4.636      1.579      2.957
REMARK INTER + INTRA:          -5.946
REMARK INTER:                  -5.450
REMARK INTRA:                  -0.496
REMARK UNBOUND:                -0.226
REMARK SMILES C=CC[C@@H](C)C(=O)CC
REMARK SMILES IDX 4 1 5 2 6 3 7 4 8 5 9 6 3 7 2 8 1 9
REMARK H PARENT
REMARK Flexibility Score: inf
ROOT
ATOM      1  C   UNL     1     -23.755  20.337 -32.905  1.00  0.00     0.057 C 
ATOM      2  C   UNL     1     -24.031  21.563 -32.023  1.00  0.00     0.016 C 
ENDROOT
BRANCH   1   3
ATOM      3  C   UNL     1     -23.675  19.093 -32.045  1.00  0.00     0.135 C 
ATOM      4  O   UNL     1     -23.043  18.125 -32.439  1.00  0.00    -0.299 OA
BRANCH   3   5
ATOM      5  C   UNL     1     -24.354  19.029 -30.702  1.00  0.00     0.072 C 
ATOM      6  C   UNL     1     -25.425  17.944 -30.689  1.00  0.00     0.012 C 
ENDBRANCH   3   5
ENDBRANCH   1   3
BRANCH   1   7
ATOM      7  C   UNL     1     -24.838  20.159 -33.990  1.00  0.00     0.038 C 
BRANCH   7   8
ATOM      8  C   UNL     1     -26.213  20.520 -33.493  1.00  0.00    -0.034 C 
ATOM      9  C   UNL     1     -27.205  19.626 -33.453  1.00  0.00     0.004 C 
ENDBRANCH   7   8
ENDBRANCH   1   7
TORSDOF 4
ENDMDL
MODEL 5
REMARK VINA RESULT:    -4.612      2.046      4.019
REMARK INTER + INTRA:          -5.917
REMARK INTER:                  -5.646
REMARK INTRA:                  -0.271
REMARK UNBOUND:                -0.226
REMARK SMILES C=CC[C@@H](C)C(=O)CC
REMARK SMILES IDX 4 1 5 2 6 3 7 4 8 5 9 6 3 7 2 8 1 9
REMARK H PARENT
REMARK Flexibility Score: inf
ROOT
ATOM      1  C   UNL     1     -24.383  19.576 -31.237  1.00  0.00     0.057 C 
ATOM      2  C   UNL     1     -23.605  20.294 -30.127  1.00  0.00     0.016 C 
ENDROOT
BRANCH   1   3
ATOM      3  C   UNL     1     -23.686  19.778 -32.566  1.00  0.00     0.135 C 
ATOM      4  O   UNL     1     -22.491  19.542 -32.666  1.00  0.00    -0.299 OA
BRANCH   3   5
ATOM      5  C   UNL     1     -24.442  20.258 -33.778  1.00  0.00     0.072 C 
ATOM      6  C   UNL     1     -25.944  20.247 -33.517  1.00  0.00     0.012 C 
ENDBRANCH   3   5
ENDBRANCH   1   3
BRANCH   1   7
ATOM      7  C   UNL     1     -24.534  18.068 -30.946  1.00  0.00     0.038 C 
BRANCH   7   8
ATOM      8  C   UNL     1     -25.936  17.701 -30.533  1.00  0.00    -0.034 C 
ATOM      9  C   UNL     1     -26.276  16.443 -30.238  1.00  0.00     0.004 C 
ENDBRANCH   7   8
ENDBRANCH   1   7
TORSDOF 4
ENDMDL
MODEL 6
REMARK VINA RESULT:    -4.564      1.385      4.359
REMARK INTER + INTRA:          -5.857
REMARK INTER:                  -5.663
REMARK INTRA:                  -0.194
REMARK UNBOUND:                -0.226
REMARK SMILES C=CC[C@@H](C)C(=O)CC
REMARK SMILES IDX 4 1 5 2 6 3 7 4 8 5 9 6 3 7 2 8 1 9
REMARK H PARENT
REMARK Flexibility Score: inf
ROOT
ATOM      1  C   UNL     1     -23.818  19.869 -32.181  1.00  0.00     0.057 C 
ATOM      2  C   UNL     1     -24.976  20.067 -33.169  1.00  0.00     0.016 C 
ENDROOT
BRANCH   1   3
ATOM      3  C   UNL     1     -23.449  21.194 -31.549  1.00  0.00     0.135 C 
ATOM      4  O   UNL     1     -22.594  21.232 -30.677  1.00  0.00    -0.299 OA
BRANCH   3   5
ATOM      5  C   UNL     1     -24.111  22.476 -31.983  1.00  0.00     0.072 C 
ATOM      6  C   UNL     1     -23.425  23.680 -31.348  1.00  0.00     0.012 C 
ENDBRANCH   3   5
ENDBRANCH   1   3
BRANCH   1   7
ATOM      7  C   UNL     1     -24.172  18.842 -31.084  1.00  0.00     0.038 C 
BRANCH   7   8
ATOM      8  C   UNL     1     -25.583  18.330 -31.212  1.00  0.00    -0.034 C 
ATOM      9  C   UNL     1     -26.141  17.562 -30.272  1.00  0.00     0.004 C 
ENDBRANCH   7   8
ENDBRANCH   1   7
TORSDOF 4
ENDMDL
MODEL 7
REMARK VINA RESULT:    -4.477      1.819      2.787
REMARK INTER + INTRA:          -5.750
REMARK INTER:                  -5.282
REMARK INTRA:                  -0.468
REMARK UNBOUND:                -0.226
REMARK SMILES C=CC[C@@H](C)C(=O)CC
REMARK SMILES IDX 4 1 5 2 6 3 7 4 8 5 9 6 3 7 2 8 1 9
REMARK H PARENT
REMARK Flexibility Score: inf
ROOT
ATOM      1  C   UNL     1     -24.149  18.901 -31.677  1.00  0.00     0.057 C 
ATOM      2  C   UNL     1     -23.953  17.431 -31.284  1.00  0.00     0.016 C 
ENDROOT
BRANCH   1   3
ATOM      3  C   UNL     1     -25.532  19.097 -32.260  1.00  0.00     0.135 C 
ATOM      4  O   UNL     1     -26.463  18.420 -31.851  1.00  0.00    -0.299 OA
BRANCH   3   5
ATOM      5  C   UNL     1     -25.787  20.123 -33.334  1.00  0.00     0.072 C 
ATOM      6  C   UNL     1     -24.585  20.243 -34.264  1.00  0.00     0.012 C 
ENDBRANCH   3   5
ENDBRANCH   1   3
BRANCH   1   7
ATOM      7  C   UNL     1     -23.945  19.846 -30.474  1.00  0.00     0.038 C 
BRANCH   7   8
ATOM      8  C   UNL     1     -23.063  21.021 -30.810  1.00  0.00    -0.034 C 
ATOM      9  C   UNL     1     -23.570  22.194 -31.198  1.00  0.00     0.004 C 
ENDBRANCH   7   8
ENDBRANCH   1   7
TORSDOF 4
ENDMDL
MODEL 8
REMARK VINA RESULT:    -4.452      2.730      3.913
REMARK INTER + INTRA:          -5.719
REMARK INTER:                  -5.515
REMARK INTRA:                  -0.204
REMARK UNBOUND:                -0.226
REMARK SMILES C=CC[C@@H](C)C(=O)CC
REMARK SMILES IDX 4 1 5 2 6 3 7 4 8 5 9 6 3 7 2 8 1 9
REMARK H PARENT
REMARK Flexibility Score: inf
ROOT
ATOM      1  C   UNL     1     -25.455  20.112 -33.017  1.00  0.00     0.057 C 
ATOM      2  C   UNL     1     -24.365  20.147 -34.098  1.00  0.00     0.016 C 
ENDROOT
BRANCH   1   3
ATOM      3  C   UNL     1     -26.795  19.805 -33.649  1.00  0.00     0.135 C 
ATOM      4  O   UNL     1     -27.031  20.186 -34.786  1.00  0.00    -0.299 OA
BRANCH   3   5
ATOM      5  C   UNL     1     -27.847  19.024 -32.905  1.00  0.00     0.072 C 
ATOM      6  C   UNL     1     -29.233  19.609 -33.155  1.00  0.00     0.012 C 
ENDBRANCH   3   5
ENDBRANCH   1   3
BRANCH   1   7
ATOM      7  C   UNL     1     -25.138  19.074 -31.920  1.00  0.00     0.038 C 
BRANCH   7   8
ATOM      8  C   UNL     1     -23.781  19.290 -31.301  1.00  0.00    -0.034 C 
ATOM      9  C   UNL     1     -23.568  20.237 -30.384  1.00  0.00     0.004 C 
ENDBRANCH   7   8
ENDBRANCH   1   7
TORSDOF 4
ENDMDL
MODEL 9
REMARK VINA RESULT:    -4.428      4.027      5.778
REMARK INTER + INTRA:          -5.689
REMARK INTER:                  -5.483
REMARK INTRA:                  -0.207
REMARK UNBOUND:                -0.226
REMARK SMILES C=CC[C@@H](C)C(=O)CC
REMARK SMILES IDX 4 1 5 2 6 3 7 4 8 5 9 6 3 7 2 8 1 9
REMARK H PARENT
REMARK Flexibility Score: inf
ROOT
ATOM      1  C   UNL     1     -28.015  20.462 -34.129  1.00  0.00     0.057 C 
ATOM      2  C   UNL     1     -28.282  21.824 -33.474  1.00  0.00     0.016 C 
ENDROOT
BRANCH   1   3
ATOM      3  C   UNL     1     -26.523  20.242 -34.267  1.00  0.00     0.135 C 
ATOM      4  O   UNL     1     -26.009  20.258 -35.375  1.00  0.00    -0.299 OA
BRANCH   3   5
ATOM      5  C   UNL     1     -25.653  20.013 -33.058  1.00  0.00     0.072 C 
ATOM      6  C   UNL     1     -24.186  20.253 -33.396  1.00  0.00     0.012 C 
ENDBRANCH   3   5
ENDBRANCH   1   3
BRANCH   1   7
ATOM      7  C   UNL     1     -28.646  19.307 -33.323  1.00  0.00     0.038 C 
BRANCH   7   8
ATOM      8  C   UNL     1     -30.008  19.660 -32.784  1.00  0.00    -0.034 C 
ATOM      9  C   UNL     1     -31.124  19.132 -33.292  1.00  0.00     0.004 C 
ENDBRANCH   7   8
ENDBRANCH   1   7
TORSDOF 4
ENDMDL
