MODEL 1
REMARK VINA RESULT:    -5.912      0.000      0.000
REMARK INTER + INTRA:          -5.912
REMARK INTER:                  -5.912
REMARK INTRA:                   0.000
REMARK UNBOUND:                 0.000
REMARK SMILES CC(C)=C1CC[C@H](C)CC1=O
REMARK SMILES IDX 8 1 7 2 6 3 5 4 4 5 2 6 1 7 3 8 10 9 11 10 9 11
REMARK H PARENT
REMARK Flexibility Score: inf
ROOT
ATOM      1  C   UNL     1     -13.022 -36.067  36.509  1.00  0.00     0.008 C 
ATOM      2  C   UNL     1     -13.510 -37.009  37.614  1.00  0.00    -0.006 C 
ATOM      3  C   UNL     1     -12.786 -38.362  37.532  1.00  0.00     0.008 C 
ATOM      4  C   UNL     1     -13.336 -39.352  38.568  1.00  0.00     0.039 C 
ATOM      5  C   UNL     1     -13.343 -38.778  39.979  1.00  0.00    -0.006 C 
ATOM      6  C   UNL     1     -13.161 -39.577  41.071  1.00  0.00    -0.070 C 
ATOM      7  C   UNL     1     -13.109 -39.011  42.471  1.00  0.00     0.039 C 
ATOM      8  C   UNL     1     -12.964 -41.069  40.927  1.00  0.00     0.039 C 
ATOM      9  C   UNL     1     -13.673 -37.327  40.094  1.00  0.00     0.159 C 
ATOM     10  O   UNL     1     -14.282 -36.871  41.099  1.00  0.00    -0.295 OA
ATOM     11  C   UNL     1     -13.285 -36.377  38.997  1.00  0.00     0.084 C 
ENDROOT
TORSDOF 0
ENDMDL
MODEL 2
REMARK VINA RESULT:    -5.814      2.656      4.445
REMARK INTER + INTRA:          -5.814
REMARK INTER:                  -5.814
REMARK INTRA:                   0.000
REMARK UNBOUND:                 0.000
REMARK SMILES CC(C)=C1CC[C@H](C)CC1=O
REMARK SMILES IDX 8 1 7 2 6 3 5 4 4 5 2 6 1 7 3 8 10 9 11 10 9 11
REMARK H PARENT
REMARK Flexibility Score: inf
ROOT
ATOM      1  C   UNL     1     -13.539 -41.234  40.987  1.00  0.00     0.008 C 
ATOM      2  C   UNL     1     -12.731 -39.934  40.924  1.00  0.00    -0.006 C 
ATOM      3  C   UNL     1     -11.224 -40.227  41.009  1.00  0.00     0.008 C 
ATOM      4  C   UNL     1     -10.405 -38.930  41.049  1.00  0.00     0.039 C 
ATOM      5  C   UNL     1     -10.753 -37.983  39.909  1.00  0.00    -0.006 C 
ATOM      6  C   UNL     1      -9.815 -37.153  39.365  1.00  0.00    -0.070 C 
ATOM      7  C   UNL     1     -10.133 -36.251  38.196  1.00  0.00     0.039 C 
ATOM      8  C   UNL     1      -8.396 -37.126  39.885  1.00  0.00     0.039 C 
ATOM      9  C   UNL     1     -12.190 -37.938  39.510  1.00  0.00     0.159 C 
ATOM     10  O   UNL     1     -12.717 -36.879  39.074  1.00  0.00    -0.295 OA
ATOM     11  C   UNL     1     -13.044 -39.169  39.629  1.00  0.00     0.084 C 
ENDROOT
TORSDOF 0
ENDMDL
MODEL 3
REMARK VINA RESULT:    -5.798      1.788      2.728
REMARK INTER + INTRA:          -5.798
REMARK INTER:                  -5.798
REMARK INTRA:                   0.000
REMARK UNBOUND:                 0.000
REMARK SMILES CC(C)=C1CC[C@H](C)CC1=O
REMARK SMILES IDX 8 1 7 2 6 3 5 4 4 5 2 6 1 7 3 8 10 9 11 10 9 11
REMARK H PARENT
REMARK Flexibility Score: inf
ROOT
ATOM      1  C   UNL     1     -14.387 -35.074  38.755  1.00  0.00     0.008 C 
ATOM      2  C   UNL     1     -13.647 -36.365  39.121  1.00  0.00    -0.006 C 
ATOM      3  C   UNL     1     -14.244 -36.990  40.392  1.00  0.00     0.008 C 
ATOM      4  C   UNL     1     -13.451 -38.229  40.829  1.00  0.00     0.039 C 
ATOM      5  C   UNL     1     -13.281 -39.242  39.704  1.00  0.00    -0.006 C 
ATOM      6  C   UNL     1     -13.216 -40.582  39.960  1.00  0.00    -0.070 C 
ATOM      7  C   UNL     1     -13.106 -41.599  38.848  1.00  0.00     0.039 C 
ATOM      8  C   UNL     1     -13.292 -41.115  41.372  1.00  0.00     0.039 C 
ATOM      9  C   UNL     1     -13.076 -38.676  38.338  1.00  0.00     0.159 C 
ATOM     10  O   UNL     1     -12.366 -39.269  37.483  1.00  0.00    -0.295 OA
ATOM     11  C   UNL     1     -13.716 -37.370  37.961  1.00  0.00     0.084 C 
ENDROOT
TORSDOF 0
ENDMDL
MODEL 4
REMARK VINA RESULT:    -5.788      1.148      3.882
REMARK INTER + INTRA:          -5.788
REMARK INTER:                  -5.788
REMARK INTRA:                   0.000
REMARK UNBOUND:                 0.000
REMARK SMILES CC(C)=C1CC[C@H](C)CC1=O
REMARK SMILES IDX 8 1 7 2 6 3 5 4 4 5 2 6 1 7 3 8 10 9 11 10 9 11
REMARK H PARENT
REMARK Flexibility Score: inf
ROOT
ATOM      1  C   UNL     1     -12.378 -41.725  39.858  1.00  0.00     0.008 C 
ATOM      2  C   UNL     1     -12.387 -40.227  39.533  1.00  0.00    -0.006 C 
ATOM      3  C   UNL     1     -12.896 -39.987  38.102  1.00  0.00     0.008 C 
ATOM      4  C   UNL     1     -12.815 -38.502  37.724  1.00  0.00     0.039 C 
ATOM      5  C   UNL     1     -13.496 -37.601  38.746  1.00  0.00    -0.006 C 
ATOM      6  C   UNL     1     -14.102 -36.436  38.371  1.00  0.00    -0.070 C 
ATOM      7  C   UNL     1     -14.830 -35.563  39.367  1.00  0.00     0.039 C 
ATOM      8  C   UNL     1     -14.107 -35.982  36.930  1.00  0.00     0.039 C 
ATOM      9  C   UNL     1     -13.358 -38.010  40.175  1.00  0.00     0.159 C 
ATOM     10  O   UNL     1     -13.312 -37.154  41.099  1.00  0.00    -0.295 OA
ATOM     11  C   UNL     1     -13.265 -39.464  40.536  1.00  0.00     0.084 C 
ENDROOT
TORSDOF 0
ENDMDL
MODEL 5
REMARK VINA RESULT:    -5.776      1.656      4.597
REMARK INTER + INTRA:          -5.776
REMARK INTER:                  -5.776
REMARK INTRA:                   0.000
REMARK UNBOUND:                 0.000
REMARK SMILES CC(C)=C1CC[C@H](C)CC1=O
REMARK SMILES IDX 8 1 7 2 6 3 5 4 4 5 2 6 1 7 3 8 10 9 11 10 9 11
REMARK H PARENT
REMARK Flexibility Score: inf
ROOT
ATOM      1  C   UNL     1     -12.338 -40.182  42.131  1.00  0.00     0.008 C 
ATOM      2  C   UNL     1     -13.157 -39.352  41.138  1.00  0.00    -0.006 C 
ATOM      3  C   UNL     1     -13.373 -37.926  41.671  1.00  0.00     0.008 C 
ATOM      4  C   UNL     1     -14.277 -37.112  40.736  1.00  0.00     0.039 C 
ATOM      5  C   UNL     1     -13.791 -37.129  39.292  1.00  0.00    -0.006 C 
ATOM      6  C   UNL     1     -13.990 -36.061  38.465  1.00  0.00    -0.070 C 
ATOM      7  C   UNL     1     -13.461 -36.043  37.050  1.00  0.00     0.039 C 
ATOM      8  C   UNL     1     -14.716 -34.824  38.941  1.00  0.00     0.039 C 
ATOM      9  C   UNL     1     -13.197 -38.413  38.816  1.00  0.00     0.159 C 
ATOM     10  O   UNL     1     -13.310 -38.781  37.616  1.00  0.00    -0.295 OA
ATOM     11  C   UNL     1     -12.454 -39.300  39.773  1.00  0.00     0.084 C 
ENDROOT
TORSDOF 0
ENDMDL
MODEL 6
REMARK VINA RESULT:    -5.757      2.860      3.306
REMARK INTER + INTRA:          -5.757
REMARK INTER:                  -5.757
REMARK INTRA:                   0.000
REMARK UNBOUND:                 0.000
REMARK SMILES CC(C)=C1CC[C@H](C)CC1=O
REMARK SMILES IDX 8 1 7 2 6 3 5 4 4 5 2 6 1 7 3 8 10 9 11 10 9 11
REMARK H PARENT
REMARK Flexibility Score: inf
ROOT
ATOM      1  C   UNL     1     -13.718 -35.822  36.530  1.00  0.00     0.008 C 
ATOM      2  C   UNL     1     -12.559 -36.642  37.104  1.00  0.00    -0.006 C 
ATOM      3  C   UNL     1     -11.483 -35.718  37.697  1.00  0.00     0.008 C 
ATOM      4  C   UNL     1     -10.267 -36.518  38.185  1.00  0.00     0.039 C 
ATOM      5  C   UNL     1     -10.653 -37.647  39.132  1.00  0.00    -0.006 C 
ATOM      6  C   UNL     1      -9.819 -38.046  40.137  1.00  0.00    -0.070 C 
ATOM      7  C   UNL     1     -10.216 -39.125  41.117  1.00  0.00     0.039 C 
ATOM      8  C   UNL     1      -8.471 -37.396  40.341  1.00  0.00     0.039 C 
ATOM      9  C   UNL     1     -11.930 -38.356  38.820  1.00  0.00     0.159 C 
ATOM     10  O   UNL     1     -12.079 -39.581  39.077  1.00  0.00    -0.295 OA
ATOM     11  C   UNL     1     -13.068 -37.611  38.182  1.00  0.00     0.084 C 
ENDROOT
TORSDOF 0
ENDMDL
MODEL 7
REMARK VINA RESULT:    -5.710      2.137      3.261
REMARK INTER + INTRA:          -5.710
REMARK INTER:                  -5.710
REMARK INTRA:                   0.000
REMARK UNBOUND:                 0.000
REMARK SMILES CC(C)=C1CC[C@H](C)CC1=O
REMARK SMILES IDX 8 1 7 2 6 3 5 4 4 5 2 6 1 7 3 8 10 9 11 10 9 11
REMARK H PARENT
REMARK Flexibility Score: inf
ROOT
ATOM      1  C   UNL     1     -14.427 -34.278  38.777  1.00  0.00     0.008 C 
ATOM      2  C   UNL     1     -13.707 -35.629  38.727  1.00  0.00    -0.006 C 
ATOM      3  C   UNL     1     -14.392 -36.643  39.657  1.00  0.00     0.008 C 
ATOM      4  C   UNL     1     -13.623 -37.972  39.696  1.00  0.00     0.039 C 
ATOM      5  C   UNL     1     -13.363 -38.537  38.306  1.00  0.00    -0.006 C 
ATOM      6  C   UNL     1     -13.307 -39.884  38.087  1.00  0.00    -0.070 C 
ATOM      7  C   UNL     1     -13.106 -40.456  36.703  1.00  0.00     0.039 C 
ATOM      8  C   UNL     1     -13.483 -40.870  39.219  1.00  0.00     0.039 C 
ATOM      9  C   UNL     1     -13.061 -37.538  37.238  1.00  0.00     0.159 C 
ATOM     10  O   UNL     1     -12.285 -37.813  36.284  1.00  0.00    -0.295 OA
ATOM     11  C   UNL     1     -13.682 -36.171  37.289  1.00  0.00     0.084 C 
ENDROOT
TORSDOF 0
ENDMDL
MODEL 8
REMARK VINA RESULT:    -5.538      1.937      2.343
REMARK INTER + INTRA:          -5.538
REMARK INTER:                  -5.538
REMARK INTRA:                   0.000
REMARK UNBOUND:                 0.000
REMARK SMILES CC(C)=C1CC[C@H](C)CC1=O
REMARK SMILES IDX 8 1 7 2 6 3 5 4 4 5 2 6 1 7 3 8 10 9 11 10 9 11
REMARK H PARENT
REMARK Flexibility Score: inf
ROOT
ATOM      1  C   UNL     1     -13.793 -35.780  36.588  1.00  0.00     0.008 C 
ATOM      2  C   UNL     1     -13.266 -36.120  37.986  1.00  0.00    -0.006 C 
ATOM      3  C   UNL     1     -14.239 -37.058  38.719  1.00  0.00     0.008 C 
ATOM      4  C   UNL     1     -13.777 -37.328  40.158  1.00  0.00     0.039 C 
ATOM      5  C   UNL     1     -12.335 -37.812  40.227  1.00  0.00    -0.006 C 
ATOM      6  C   UNL     1     -11.924 -38.677  41.201  1.00  0.00    -0.070 C 
ATOM      7  C   UNL     1     -10.510 -39.209  41.246  1.00  0.00     0.039 C 
ATOM      8  C   UNL     1     -12.878 -39.176  42.261  1.00  0.00     0.039 C 
ATOM      9  C   UNL     1     -11.390 -37.198  39.249  1.00  0.00     0.159 C 
ATOM     10  O   UNL     1     -10.176 -37.017  39.535  1.00  0.00    -0.295 OA
ATOM     11  C   UNL     1     -11.879 -36.774  37.893  1.00  0.00     0.084 C 
ENDROOT
TORSDOF 0
ENDMDL
