MODEL 1
REMARK VINA RESULT:    -7.588      0.000      0.000
REMARK INTER + INTRA:          -8.531
REMARK INTER:                  -8.476
REMARK INTRA:                  -0.056
REMARK UNBOUND:                -0.056
REMARK SMILES CC1(C)CC[C@]2(CO)CC=C3[C@@]4(C)CC[C@H]5C(C)(C)[C@H](O)CC[C@]5(C)[C@H]4CC[C@@]3(C)[C@H]2C1
REMARK SMILES IDX 1 1 2 2 4 3 5 4 6 5 9 6 10 7 11 8 12 9 14 10 15 11 16 12
REMARK SMILES IDX 17 13 20 14 22 15 23 16 24 17 26 18 27 19 28 20 29 21 31 22
REMARK SMILES IDX 32 23 30 24 25 25 18 26 19 27 13 28 3 29 7 30 8 31 21 33
REMARK H PARENT 8 32 21 34
REMARK Flexibility Score: inf
ROOT
ATOM      1  C   UNL     1     147.392 143.417 141.010  1.00  0.00     0.011 C 
ATOM      2  C   UNL     1     148.353 142.218 140.848  1.00  0.00    -0.035 C 
ATOM      3  C   UNL     1     148.499 141.516 142.225  1.00  0.00     0.007 C 
ATOM      4  C   UNL     1     149.210 140.156 142.139  1.00  0.00     0.010 C 
ATOM      5  C   UNL     1     148.534 139.179 141.132  1.00  0.00     0.001 C 
ATOM      6  C   UNL     1     149.457 137.955 140.962  1.00  0.00     0.037 C 
ATOM      7  C   UNL     1     148.937 137.013 139.917  1.00  0.00    -0.026 C 
ATOM      8  C   UNL     1     148.153 137.395 138.869  1.00  0.00    -0.062 C 
ATOM      9  C   UNL     1     147.505 136.293 137.973  1.00  0.00    -0.008 C 
ATOM     10  C   UNL     1     146.837 135.218 138.890  1.00  0.00     0.012 C 
ATOM     11  C   UNL     1     146.185 134.042 138.138  1.00  0.00     0.006 C 
ATOM     12  C   UNL     1     145.482 134.432 136.810  1.00  0.00     0.003 C 
ATOM     13  C   UNL     1     144.392 133.388 136.319  1.00  0.00    -0.006 C 
ATOM     14  C   UNL     1     143.791 133.831 134.941  1.00  0.00     0.120 C 
ATOM     15  C   UNL     1     143.325 135.293 134.950  1.00  0.00     0.033 C 
ATOM     16  C   UNL     1     144.429 136.264 135.382  1.00  0.00     0.010 C 
ATOM     17  C   UNL     1     145.075 135.947 136.779  1.00  0.00    -0.025 C 
ATOM     18  C   UNL     1     146.407 136.827 136.921  1.00  0.00     0.005 C 
ATOM     19  C   UNL     1     146.080 138.355 136.936  1.00  0.00     0.006 C 
ATOM     20  C   UNL     1     146.520 139.122 138.175  1.00  0.00     0.012 C 
ATOM     21  C   UNL     1     147.999 138.894 138.543  1.00  0.00    -0.008 C 
ATOM     22  C   UNL     1     148.463 139.860 139.735  1.00  0.00     0.008 C 
ATOM     23  C   UNL     1     147.750 141.242 139.796  1.00  0.00     0.011 C 
ATOM     24  C   UNL     1     148.909 139.212 137.322  1.00  0.00     0.016 C 
ATOM     25  C   UNL     1     144.053 136.285 137.920  1.00  0.00     0.012 C 
ATOM     26  C   UNL     1     143.213 133.188 137.316  1.00  0.00     0.014 C 
ATOM     27  C   UNL     1     145.057 131.997 136.141  1.00  0.00     0.014 C 
ATOM     28  C   UNL     1     148.686 135.617 137.214  1.00  0.00     0.016 C 
ATOM     29  C   UNL     1     149.718 142.772 140.369  1.00  0.00     0.011 C 
ENDROOT
BRANCH   5  30
ATOM     30  C   UNL     1     147.133 138.735 141.667  1.00  0.00     0.163 C 
BRANCH  30  31
ATOM     31  O   UNL     1     147.259 137.736 142.647  1.00  0.00    -0.396 OA
ATOM     32  H   UNL     1     146.488 137.119 142.538  1.00  0.00     0.210 HD
ENDBRANCH  30  31
ENDBRANCH   5  30
BRANCH  14  33
ATOM     33  O   UNL     1     144.656 133.594 133.853  1.00  0.00    -0.393 OA
ATOM     34  H   UNL     1     145.294 134.347 133.779  1.00  0.00     0.210 HD
ENDBRANCH  14  33
TORSDOF 3
ENDMDL
MODEL 2
REMARK VINA RESULT:    -6.800      2.694      4.467
REMARK INTER + INTRA:          -7.651
REMARK INTER:                  -7.508
REMARK INTRA:                  -0.143
REMARK UNBOUND:                -0.056
REMARK SMILES CC1(C)CC[C@]2(CO)CC=C3[C@@]4(C)CC[C@H]5C(C)(C)[C@H](O)CC[C@]5(C)[C@H]4CC[C@@]3(C)[C@H]2C1
REMARK SMILES IDX 1 1 2 2 4 3 5 4 6 5 9 6 10 7 11 8 12 9 14 10 15 11 16 12
REMARK SMILES IDX 17 13 20 14 22 15 23 16 24 17 26 18 27 19 28 20 29 21 31 22
REMARK SMILES IDX 32 23 30 24 25 25 18 26 19 27 13 28 3 29 7 30 8 31 21 33
REMARK H PARENT 8 32 21 34
REMARK Flexibility Score: inf
ROOT
ATOM      1  C   UNL     1     149.747 142.278 141.210  1.00  0.00     0.011 C 
ATOM      2  C   UNL     1     148.455 141.747 140.551  1.00  0.00    -0.035 C 
ATOM      3  C   UNL     1     148.365 142.323 139.113  1.00  0.00     0.007 C 
ATOM      4  C   UNL     1     147.271 141.658 138.262  1.00  0.00     0.010 C 
ATOM      5  C   UNL     1     147.415 140.110 138.188  1.00  0.00     0.001 C 
ATOM      6  C   UNL     1     146.149 139.543 137.513  1.00  0.00     0.037 C 
ATOM      7  C   UNL     1     146.150 138.044 137.506  1.00  0.00    -0.026 C 
ATOM      8  C   UNL     1     146.801 137.279 138.428  1.00  0.00    -0.062 C 
ATOM      9  C   UNL     1     146.902 135.738 138.191  1.00  0.00    -0.008 C 
ATOM     10  C   UNL     1     147.371 135.477 136.724  1.00  0.00     0.012 C 
ATOM     11  C   UNL     1     147.481 133.991 136.334  1.00  0.00     0.006 C 
ATOM     12  C   UNL     1     148.005 133.063 137.462  1.00  0.00     0.003 C 
ATOM     13  C   UNL     1     148.612 131.690 136.946  1.00  0.00    -0.006 C 
ATOM     14  C   UNL     1     149.049 130.795 138.157  1.00  0.00     0.120 C 
ATOM     15  C   UNL     1     149.930 131.554 139.156  1.00  0.00     0.033 C 
ATOM     16  C   UNL     1     149.277 132.844 139.662  1.00  0.00     0.010 C 
ATOM     17  C   UNL     1     148.840 133.847 138.534  1.00  0.00    -0.025 C 
ATOM     18  C   UNL     1     147.891 134.956 139.195  1.00  0.00     0.005 C 
ATOM     19  C   UNL     1     148.664 135.810 140.252  1.00  0.00     0.006 C 
ATOM     20  C   UNL     1     148.721 137.308 139.993  1.00  0.00     0.012 C 
ATOM     21  C   UNL     1     147.339 137.934 139.716  1.00  0.00    -0.008 C 
ATOM     22  C   UNL     1     147.425 139.532 139.633  1.00  0.00     0.008 C 
ATOM     23  C   UNL     1     148.523 140.193 140.517  1.00  0.00     0.011 C 
ATOM     24  C   UNL     1     146.356 137.592 140.872  1.00  0.00     0.016 C 
ATOM     25  C   UNL     1     150.112 134.505 137.893  1.00  0.00     0.012 C 
ATOM     26  C   UNL     1     149.840 131.856 136.004  1.00  0.00     0.014 C 
ATOM     27  C   UNL     1     147.535 130.926 136.132  1.00  0.00     0.014 C 
ATOM     28  C   UNL     1     145.450 135.192 138.341  1.00  0.00     0.016 C 
ATOM     29  C   UNL     1     147.259 142.229 141.409  1.00  0.00     0.011 C 
ENDROOT
BRANCH   5  30
ATOM     30  C   UNL     1     148.689 139.723 137.368  1.00  0.00     0.163 C 
BRANCH  30  31
ATOM     31  O   UNL     1     148.694 140.355 136.113  1.00  0.00    -0.396 OA
ATOM     32  H   UNL     1     147.777 140.705 135.956  1.00  0.00     0.210 HD
ENDBRANCH  30  31
ENDBRANCH   5  30
BRANCH  14  33
ATOM     33  O   UNL     1     147.964 130.183 138.818  1.00  0.00    -0.393 OA
ATOM     34  H   UNL     1     147.611 130.806 139.501  1.00  0.00     0.210 HD
ENDBRANCH  14  33
TORSDOF 3
ENDMDL
MODEL 3
REMARK VINA RESULT:    -6.737      9.713     12.091
REMARK INTER + INTRA:          -7.580
REMARK INTER:                  -7.532
REMARK INTRA:                  -0.048
REMARK UNBOUND:                -0.056
REMARK SMILES CC1(C)CC[C@]2(CO)CC=C3[C@@]4(C)CC[C@H]5C(C)(C)[C@H](O)CC[C@]5(C)[C@H]4CC[C@@]3(C)[C@H]2C1
REMARK SMILES IDX 1 1 2 2 4 3 5 4 6 5 9 6 10 7 11 8 12 9 14 10 15 11 16 12
REMARK SMILES IDX 17 13 20 14 22 15 23 16 24 17 26 18 27 19 28 20 29 21 31 22
REMARK SMILES IDX 32 23 30 24 25 25 18 26 19 27 13 28 3 29 7 30 8 31 21 33
REMARK H PARENT 8 32 21 34
REMARK Flexibility Score: inf
ROOT
ATOM      1  C   UNL     1     133.253 134.539 137.167  1.00  0.00     0.011 C 
ATOM      2  C   UNL     1     134.565 133.780 137.468  1.00  0.00    -0.035 C 
ATOM      3  C   UNL     1     134.231 132.276 137.652  1.00  0.00     0.007 C 
ATOM      4  C   UNL     1     135.478 131.379 137.687  1.00  0.00     0.010 C 
ATOM      5  C   UNL     1     136.390 131.555 136.438  1.00  0.00     0.001 C 
ATOM      6  C   UNL     1     137.705 130.790 136.694  1.00  0.00     0.037 C 
ATOM      7  C   UNL     1     138.693 131.003 135.586  1.00  0.00    -0.026 C 
ATOM      8  C   UNL     1     138.722 132.113 134.795  1.00  0.00    -0.062 C 
ATOM      9  C   UNL     1     139.659 132.123 133.545  1.00  0.00    -0.008 C 
ATOM     10  C   UNL     1     139.455 130.795 132.746  1.00  0.00     0.012 C 
ATOM     11  C   UNL     1     140.348 130.648 131.498  1.00  0.00     0.006 C 
ATOM     12  C   UNL     1     140.583 131.965 130.712  1.00  0.00     0.003 C 
ATOM     13  C   UNL     1     141.024 131.752 129.202  1.00  0.00    -0.006 C 
ATOM     14  C   UNL     1     141.305 133.132 128.513  1.00  0.00     0.120 C 
ATOM     15  C   UNL     1     140.157 134.129 128.714  1.00  0.00     0.033 C 
ATOM     16  C   UNL     1     139.805 134.337 130.191  1.00  0.00     0.010 C 
ATOM     17  C   UNL     1     139.454 133.022 130.976  1.00  0.00    -0.025 C 
ATOM     18  C   UNL     1     139.447 133.366 132.542  1.00  0.00     0.005 C 
ATOM     19  C   UNL     1     138.318 134.389 132.894  1.00  0.00     0.006 C 
ATOM     20  C   UNL     1     137.284 133.924 133.908  1.00  0.00     0.012 C 
ATOM     21  C   UNL     1     137.905 133.357 135.200  1.00  0.00    -0.008 C 
ATOM     22  C   UNL     1     136.786 133.054 136.306  1.00  0.00     0.008 C 
ATOM     23  C   UNL     1     135.538 133.985 136.272  1.00  0.00     0.011 C 
ATOM     24  C   UNL     1     138.887 134.391 135.820  1.00  0.00     0.016 C 
ATOM     25  C   UNL     1     138.055 132.489 130.511  1.00  0.00     0.012 C 
ATOM     26  C   UNL     1     139.977 130.988 128.339  1.00  0.00     0.014 C 
ATOM     27  C   UNL     1     142.325 130.908 129.162  1.00  0.00     0.014 C 
ATOM     28  C   UNL     1     141.113 132.134 134.107  1.00  0.00     0.016 C 
ATOM     29  C   UNL     1     135.159 134.371 138.771  1.00  0.00     0.011 C 
ENDROOT
BRANCH   5  30
ATOM     30  C   UNL     1     135.675 130.998 135.163  1.00  0.00     0.163 C 
BRANCH  30  31
ATOM     31  O   UNL     1     134.888 129.877 135.473  1.00  0.00    -0.396 OA
ATOM     32  H   UNL     1     134.078 129.919 134.900  1.00  0.00     0.210 HD
ENDBRANCH  30  31
ENDBRANCH   5  30
BRANCH  14  33
ATOM     33  O   UNL     1     142.534 133.707 128.897  1.00  0.00    -0.393 OA
ATOM     34  H   UNL     1     142.483 134.687 128.771  1.00  0.00     0.210 HD
ENDBRANCH  14  33
TORSDOF 3
ENDMDL
MODEL 4
REMARK VINA RESULT:    -6.600      7.972      9.824
REMARK INTER + INTRA:          -7.427
REMARK INTER:                  -7.284
REMARK INTRA:                  -0.143
REMARK UNBOUND:                -0.056
REMARK SMILES CC1(C)CC[C@]2(CO)CC=C3[C@@]4(C)CC[C@H]5C(C)(C)[C@H](O)CC[C@]5(C)[C@H]4CC[C@@]3(C)[C@H]2C1
REMARK SMILES IDX 1 1 2 2 4 3 5 4 6 5 9 6 10 7 11 8 12 9 14 10 15 11 16 12
REMARK SMILES IDX 17 13 20 14 22 15 23 16 24 17 26 18 27 19 28 20 29 21 31 22
REMARK SMILES IDX 32 23 30 24 25 25 18 26 19 27 13 28 3 29 7 30 8 31 21 33
REMARK H PARENT 8 32 21 34
REMARK Flexibility Score: inf
ROOT
ATOM      1  C   UNL     1     145.450 139.269 143.235  1.00  0.00     0.011 C 
ATOM      2  C   UNL     1     144.832 138.005 142.596  1.00  0.00    -0.035 C 
ATOM      3  C   UNL     1     145.241 136.774 143.449  1.00  0.00     0.007 C 
ATOM      4  C   UNL     1     144.472 135.497 143.077  1.00  0.00     0.010 C 
ATOM      5  C   UNL     1     142.927 135.678 143.142  1.00  0.00     0.001 C 
ATOM      6  C   UNL     1     142.272 134.421 142.532  1.00  0.00     0.037 C 
ATOM      7  C   UNL     1     140.782 134.559 142.447  1.00  0.00    -0.026 C 
ATOM      8  C   UNL     1     140.133 135.754 142.342  1.00  0.00    -0.062 C 
ATOM      9  C   UNL     1     138.577 135.780 142.476  1.00  0.00    -0.008 C 
ATOM     10  C   UNL     1     138.159 134.954 143.734  1.00  0.00     0.012 C 
ATOM     11  C   UNL     1     136.640 134.860 143.972  1.00  0.00     0.006 C 
ATOM     12  C   UNL     1     135.850 136.153 143.631  1.00  0.00     0.003 C 
ATOM     13  C   UNL     1     134.436 136.259 144.344  1.00  0.00    -0.006 C 
ATOM     14  C   UNL     1     133.688 137.558 143.884  1.00  0.00     0.120 C 
ATOM     15  C   UNL     1     134.565 138.810 144.004  1.00  0.00     0.033 C 
ATOM     16  C   UNL     1     135.896 138.675 143.256  1.00  0.00     0.010 C 
ATOM     17  C   UNL     1     136.761 137.430 143.671  1.00  0.00    -0.025 C 
ATOM     18  C   UNL     1     137.925 137.250 142.584  1.00  0.00     0.005 C 
ATOM     19  C   UNL     1     138.901 138.471 142.589  1.00  0.00     0.006 C 
ATOM     20  C   UNL     1     140.361 138.160 142.883  1.00  0.00     0.012 C 
ATOM     21  C   UNL     1     140.935 137.028 142.008  1.00  0.00    -0.008 C 
ATOM     22  C   UNL     1     142.515 136.863 142.223  1.00  0.00     0.008 C 
ATOM     23  C   UNL     1     143.285 138.169 142.577  1.00  0.00     0.011 C 
ATOM     24  C   UNL     1     140.713 137.350 140.503  1.00  0.00     0.016 C 
ATOM     25  C   UNL     1     137.358 137.658 145.103  1.00  0.00     0.012 C 
ATOM     26  C   UNL     1     134.510 136.271 145.898  1.00  0.00     0.014 C 
ATOM     27  C   UNL     1     133.572 135.030 143.955  1.00  0.00     0.014 C 
ATOM     28  C   UNL     1     138.033 135.048 141.211  1.00  0.00     0.016 C 
ATOM     29  C   UNL     1     145.392 137.885 141.158  1.00  0.00     0.011 C 
ENDROOT
BRANCH   5  30
ATOM     30  C   UNL     1     142.466 135.866 144.625  1.00  0.00     0.163 C 
BRANCH  30  31
ATOM     31  O   UNL     1     142.968 134.841 145.445  1.00  0.00    -0.396 OA
ATOM     32  H   UNL     1     142.366 134.058 145.338  1.00  0.00     0.210 HD
ENDBRANCH  30  31
ENDBRANCH   5  30
BRANCH  14  33
ATOM     33  O   UNL     1     133.141 137.458 142.588  1.00  0.00    -0.393 OA
ATOM     34  H   UNL     1     132.212 137.123 142.656  1.00  0.00     0.210 HD
ENDBRANCH  14  33
TORSDOF 3
ENDMDL
MODEL 5
REMARK VINA RESULT:    -6.599      2.270      2.881
REMARK INTER + INTRA:          -7.426
REMARK INTER:                  -7.428
REMARK INTRA:                   0.002
REMARK UNBOUND:                -0.056
REMARK SMILES CC1(C)CC[C@]2(CO)CC=C3[C@@]4(C)CC[C@H]5C(C)(C)[C@H](O)CC[C@]5(C)[C@H]4CC[C@@]3(C)[C@H]2C1
REMARK SMILES IDX 1 1 2 2 4 3 5 4 6 5 9 6 10 7 11 8 12 9 14 10 15 11 16 12
REMARK SMILES IDX 17 13 20 14 22 15 23 16 24 17 26 18 27 19 28 20 29 21 31 22
REMARK SMILES IDX 32 23 30 24 25 25 18 26 19 27 13 28 3 29 7 30 8 31 21 33
REMARK H PARENT 8 32 21 34
REMARK Flexibility Score: inf
ROOT
ATOM      1  C   UNL     1     148.417 142.664 140.720  1.00  0.00     0.011 C 
ATOM      2  C   UNL     1     148.739 141.167 140.512  1.00  0.00    -0.035 C 
ATOM      3  C   UNL     1     148.947 140.511 141.903  1.00  0.00     0.007 C 
ATOM      4  C   UNL     1     149.006 138.976 141.846  1.00  0.00     0.010 C 
ATOM      5  C   UNL     1     147.758 138.345 141.161  1.00  0.00     0.001 C 
ATOM      6  C   UNL     1     148.035 136.841 140.956  1.00  0.00     0.037 C 
ATOM      7  C   UNL     1     146.929 136.175 140.194  1.00  0.00    -0.026 C 
ATOM      8  C   UNL     1     146.118 136.821 139.307  1.00  0.00    -0.062 C 
ATOM      9  C   UNL     1     144.873 136.067 138.739  1.00  0.00    -0.008 C 
ATOM     10  C   UNL     1     144.097 135.402 139.921  1.00  0.00     0.012 C 
ATOM     11  C   UNL     1     142.857 134.588 139.504  1.00  0.00     0.006 C 
ATOM     12  C   UNL     1     142.048 135.198 138.328  1.00  0.00     0.003 C 
ATOM     13  C   UNL     1     140.544 134.696 138.243  1.00  0.00    -0.006 C 
ATOM     14  C   UNL     1     139.833 135.310 136.988  1.00  0.00     0.120 C 
ATOM     15  C   UNL     1     140.010 136.831 136.902  1.00  0.00     0.033 C 
ATOM     16  C   UNL     1     141.481 137.259 136.937  1.00  0.00     0.010 C 
ATOM     17  C   UNL     1     142.287 136.742 138.183  1.00  0.00    -0.025 C 
ATOM     18  C   UNL     1     143.847 136.982 137.899  1.00  0.00     0.005 C 
ATOM     19  C   UNL     1     144.174 138.506 137.779  1.00  0.00     0.006 C 
ATOM     20  C   UNL     1     145.191 139.053 138.769  1.00  0.00     0.012 C 
ATOM     21  C   UNL     1     146.496 138.234 138.822  1.00  0.00    -0.008 C 
ATOM     22  C   UNL     1     147.602 138.950 139.736  1.00  0.00     0.008 C 
ATOM     23  C   UNL     1     147.544 140.505 139.766  1.00  0.00     0.011 C 
ATOM     24  C   UNL     1     147.103 138.102 137.396  1.00  0.00     0.016 C 
ATOM     25  C   UNL     1     141.824 137.513 139.467  1.00  0.00     0.012 C 
ATOM     26  C   UNL     1     139.690 135.041 139.497  1.00  0.00     0.014 C 
ATOM     27  C   UNL     1     140.527 133.150 138.111  1.00  0.00     0.014 C 
ATOM     28  C   UNL     1     145.443 134.935 137.833  1.00  0.00     0.016 C 
ATOM     29  C   UNL     1     150.034 141.080 139.667  1.00  0.00     0.011 C 
ENDROOT
BRANCH   5  30
ATOM     30  C   UNL     1     146.490 138.549 142.053  1.00  0.00     0.163 C 
BRANCH  30  31
ATOM     31  O   UNL     1     146.387 137.539 143.024  1.00  0.00    -0.396 OA
ATOM     32  H   UNL     1     145.545 137.043 142.845  1.00  0.00     0.210 HD
ENDBRANCH  30  31
ENDBRANCH   5  30
BRANCH  14  33
ATOM     33  O   UNL     1     140.213 134.698 135.776  1.00  0.00    -0.393 OA
ATOM     34  H   UNL     1     139.423 134.251 135.380  1.00  0.00     0.210 HD
ENDBRANCH  14  33
TORSDOF 3
ENDMDL
MODEL 6
REMARK VINA RESULT:    -6.483      1.980      3.266
REMARK INTER + INTRA:          -7.297
REMARK INTER:                  -7.160
REMARK INTRA:                  -0.137
REMARK UNBOUND:                -0.056
REMARK SMILES CC1(C)CC[C@]2(CO)CC=C3[C@@]4(C)CC[C@H]5C(C)(C)[C@H](O)CC[C@]5(C)[C@H]4CC[C@@]3(C)[C@H]2C1
REMARK SMILES IDX 1 1 2 2 4 3 5 4 6 5 9 6 10 7 11 8 12 9 14 10 15 11 16 12
REMARK SMILES IDX 17 13 20 14 22 15 23 16 24 17 26 18 27 19 28 20 29 21 31 22
REMARK SMILES IDX 32 23 30 24 25 25 18 26 19 27 13 28 3 29 7 30 8 31 21 33
REMARK H PARENT 8 32 21 34
REMARK Flexibility Score: inf
ROOT
ATOM      1  C   UNL     1     148.901 141.061 142.268  1.00  0.00     0.011 C 
ATOM      2  C   UNL     1     148.704 141.261 140.748  1.00  0.00    -0.035 C 
ATOM      3  C   UNL     1     150.001 140.817 140.022  1.00  0.00     0.007 C 
ATOM      4  C   UNL     1     149.836 140.713 138.498  1.00  0.00     0.010 C 
ATOM      5  C   UNL     1     148.664 139.779 138.075  1.00  0.00     0.001 C 
ATOM      6  C   UNL     1     148.451 139.936 136.555  1.00  0.00     0.037 C 
ATOM      7  C   UNL     1     147.261 139.158 136.081  1.00  0.00    -0.026 C 
ATOM      8  C   UNL     1     146.189 138.852 136.865  1.00  0.00    -0.062 C 
ATOM      9  C   UNL     1     145.114 137.859 136.318  1.00  0.00    -0.008 C 
ATOM     10  C   UNL     1     145.833 136.602 135.730  1.00  0.00     0.012 C 
ATOM     11  C   UNL     1     144.894 135.547 135.116  1.00  0.00     0.006 C 
ATOM     12  C   UNL     1     143.554 135.354 135.876  1.00  0.00     0.003 C 
ATOM     13  C   UNL     1     142.842 133.963 135.597  1.00  0.00    -0.006 C 
ATOM     14  C   UNL     1     141.468 133.890 136.349  1.00  0.00     0.120 C 
ATOM     15  C   UNL     1     141.594 134.264 137.831  1.00  0.00     0.033 C 
ATOM     16  C   UNL     1     142.240 135.637 138.043  1.00  0.00     0.010 C 
ATOM     17  C   UNL     1     143.651 135.811 137.374  1.00  0.00    -0.025 C 
ATOM     18  C   UNL     1     144.023 137.370 137.398  1.00  0.00     0.005 C 
ATOM     19  C   UNL     1     144.177 137.895 138.863  1.00  0.00     0.006 C 
ATOM     20  C   UNL     1     145.531 138.487 139.225  1.00  0.00     0.012 C 
ATOM     21  C   UNL     1     146.018 139.556 138.226  1.00  0.00    -0.008 C 
ATOM     22  C   UNL     1     147.351 140.279 138.745  1.00  0.00     0.008 C 
ATOM     23  C   UNL     1     147.494 140.396 140.290  1.00  0.00     0.011 C 
ATOM     24  C   UNL     1     144.938 140.662 138.058  1.00  0.00     0.016 C 
ATOM     25  C   UNL     1     144.714 134.966 138.158  1.00  0.00     0.012 C 
ATOM     26  C   UNL     1     143.686 132.725 136.017  1.00  0.00     0.014 C 
ATOM     27  C   UNL     1     142.578 133.818 134.075  1.00  0.00     0.014 C 
ATOM     28  C   UNL     1     144.407 138.607 135.147  1.00  0.00     0.016 C 
ATOM     29  C   UNL     1     148.430 142.766 140.506  1.00  0.00     0.011 C 
ENDROOT
BRANCH   5  30
ATOM     30  C   UNL     1     149.002 138.293 138.427  1.00  0.00     0.163 C 
BRANCH  30  31
ATOM     31  O   UNL     1     150.093 137.830 137.672  1.00  0.00    -0.396 OA
ATOM     32  H   UNL     1     150.674 138.613 137.484  1.00  0.00     0.210 HD
ENDBRANCH  30  31
ENDBRANCH   5  30
BRANCH  14  33
ATOM     33  O   UNL     1     140.453 134.649 135.731  1.00  0.00    -0.393 OA
ATOM     34  H   UNL     1     140.795 135.561 135.554  1.00  0.00     0.210 HD
ENDBRANCH  14  33
TORSDOF 3
ENDMDL
MODEL 7
REMARK VINA RESULT:    -6.392      4.855      7.850
REMARK INTER + INTRA:          -7.195
REMARK INTER:                  -7.050
REMARK INTRA:                  -0.145
REMARK UNBOUND:                -0.056
REMARK SMILES CC1(C)CC[C@]2(CO)CC=C3[C@@]4(C)CC[C@H]5C(C)(C)[C@H](O)CC[C@]5(C)[C@H]4CC[C@@]3(C)[C@H]2C1
REMARK SMILES IDX 1 1 2 2 4 3 5 4 6 5 9 6 10 7 11 8 12 9 14 10 15 11 16 12
REMARK SMILES IDX 17 13 20 14 22 15 23 16 24 17 26 18 27 19 28 20 29 21 31 22
REMARK SMILES IDX 32 23 30 24 25 25 18 26 19 27 13 28 3 29 7 30 8 31 21 33
REMARK H PARENT 8 32 21 34
REMARK Flexibility Score: inf
ROOT
ATOM      1  C   UNL     1     138.128 134.397 142.840  1.00  0.00     0.011 C 
ATOM      2  C   UNL     1     139.088 135.193 143.752  1.00  0.00    -0.035 C 
ATOM      3  C   UNL     1     139.753 134.205 144.747  1.00  0.00     0.007 C 
ATOM      4  C   UNL     1     140.925 134.825 145.524  1.00  0.00     0.010 C 
ATOM      5  C   UNL     1     142.017 135.432 144.595  1.00  0.00     0.001 C 
ATOM      6  C   UNL     1     143.010 136.219 145.475  1.00  0.00     0.037 C 
ATOM      7  C   UNL     1     144.033 136.937 144.647  1.00  0.00    -0.026 C 
ATOM      8  C   UNL     1     143.821 137.351 143.365  1.00  0.00    -0.062 C 
ATOM      9  C   UNL     1     145.031 137.897 142.540  1.00  0.00    -0.008 C 
ATOM     10  C   UNL     1     146.233 136.909 142.684  1.00  0.00     0.012 C 
ATOM     11  C   UNL     1     147.516 137.340 141.948  1.00  0.00     0.006 C 
ATOM     12  C   UNL     1     147.276 138.031 140.579  1.00  0.00     0.003 C 
ATOM     13  C   UNL     1     148.528 137.995 139.604  1.00  0.00    -0.006 C 
ATOM     14  C   UNL     1     148.213 138.776 138.281  1.00  0.00     0.120 C 
ATOM     15  C   UNL     1     146.888 138.337 137.645  1.00  0.00     0.033 C 
ATOM     16  C   UNL     1     145.705 138.439 138.613  1.00  0.00     0.010 C 
ATOM     17  C   UNL     1     145.886 137.651 139.960  1.00  0.00    -0.025 C 
ATOM     18  C   UNL     1     144.739 138.129 140.973  1.00  0.00     0.005 C 
ATOM     19  C   UNL     1     143.318 137.750 140.442  1.00  0.00     0.006 C 
ATOM     20  C   UNL     1     142.484 136.849 141.341  1.00  0.00     0.012 C 
ATOM     21  C   UNL     1     142.389 137.355 142.795  1.00  0.00    -0.008 C 
ATOM     22  C   UNL     1     141.356 136.481 143.654  1.00  0.00     0.008 C 
ATOM     23  C   UNL     1     140.162 135.877 142.858  1.00  0.00     0.011 C 
ATOM     24  C   UNL     1     141.870 138.821 142.818  1.00  0.00     0.016 C 
ATOM     25  C   UNL     1     145.788 136.110 139.686  1.00  0.00     0.012 C 
ATOM     26  C   UNL     1     148.988 136.560 139.217  1.00  0.00     0.014 C 
ATOM     27  C   UNL     1     149.739 138.672 140.298  1.00  0.00     0.014 C 
ATOM     28  C   UNL     1     145.426 139.245 143.214  1.00  0.00     0.016 C 
ATOM     29  C   UNL     1     138.247 136.249 144.510  1.00  0.00     0.011 C 
ENDROOT
BRANCH   5  30
ATOM     30  C   UNL     1     142.760 134.297 143.817  1.00  0.00     0.163 C 
BRANCH  30  31
ATOM     31  O   UNL     1     143.388 133.405 144.703  1.00  0.00    -0.396 OA
ATOM     32  H   UNL     1     143.928 133.949 145.334  1.00  0.00     0.210 HD
ENDBRANCH  30  31
ENDBRANCH   5  30
BRANCH  14  33
ATOM     33  O   UNL     1     148.248 140.177 138.438  1.00  0.00    -0.393 OA
ATOM     34  H   UNL     1     148.178 140.602 137.547  1.00  0.00     0.210 HD
ENDBRANCH  14  33
TORSDOF 3
ENDMDL
MODEL 8
REMARK VINA RESULT:    -6.377      2.213      3.298
REMARK INTER + INTRA:          -7.179
REMARK INTER:                  -7.038
REMARK INTRA:                  -0.140
REMARK UNBOUND:                -0.056
REMARK SMILES CC1(C)CC[C@]2(CO)CC=C3[C@@]4(C)CC[C@H]5C(C)(C)[C@H](O)CC[C@]5(C)[C@H]4CC[C@@]3(C)[C@H]2C1
REMARK SMILES IDX 1 1 2 2 4 3 5 4 6 5 9 6 10 7 11 8 12 9 14 10 15 11 16 12
REMARK SMILES IDX 17 13 20 14 22 15 23 16 24 17 26 18 27 19 28 20 29 21 31 22
REMARK SMILES IDX 32 23 30 24 25 25 18 26 19 27 13 28 3 29 7 30 8 31 21 33
REMARK H PARENT 8 32 21 34
REMARK Flexibility Score: inf
ROOT
ATOM      1  C   UNL     1     148.986 140.707 142.202  1.00  0.00     0.011 C 
ATOM      2  C   UNL     1     149.128 140.087 140.793  1.00  0.00    -0.035 C 
ATOM      3  C   UNL     1     150.058 138.849 140.893  1.00  0.00     0.007 C 
ATOM      4  C   UNL     1     150.061 137.990 139.619  1.00  0.00     0.010 C 
ATOM      5  C   UNL     1     148.637 137.531 139.190  1.00  0.00     0.001 C 
ATOM      6  C   UNL     1     148.742 136.885 137.793  1.00  0.00     0.037 C 
ATOM      7  C   UNL     1     147.394 136.518 137.251  1.00  0.00    -0.026 C 
ATOM      8  C   UNL     1     146.236 137.151 137.596  1.00  0.00    -0.062 C 
ATOM      9  C   UNL     1     144.876 136.541 137.128  1.00  0.00    -0.008 C 
ATOM     10  C   UNL     1     144.867 135.011 137.446  1.00  0.00     0.012 C 
ATOM     11  C   UNL     1     143.594 134.266 137.002  1.00  0.00     0.006 C 
ATOM     12  C   UNL     1     142.279 135.072 137.174  1.00  0.00     0.003 C 
ATOM     13  C   UNL     1     140.969 134.177 137.233  1.00  0.00    -0.006 C 
ATOM     14  C   UNL     1     139.692 135.081 137.336  1.00  0.00     0.120 C 
ATOM     15  C   UNL     1     139.807 136.130 138.450  1.00  0.00     0.033 C 
ATOM     16  C   UNL     1     141.062 137.000 138.317  1.00  0.00     0.010 C 
ATOM     17  C   UNL     1     142.414 136.201 138.255  1.00  0.00    -0.025 C 
ATOM     18  C   UNL     1     143.566 137.211 137.783  1.00  0.00     0.005 C 
ATOM     19  C   UNL     1     143.788 138.349 138.831  1.00  0.00     0.006 C 
ATOM     20  C   UNL     1     145.186 138.453 139.422  1.00  0.00     0.012 C 
ATOM     21  C   UNL     1     146.300 138.490 138.357  1.00  0.00    -0.008 C 
ATOM     22  C   UNL     1     147.731 138.785 139.015  1.00  0.00     0.008 C 
ATOM     23  C   UNL     1     147.714 139.673 140.293  1.00  0.00     0.011 C 
ATOM     24  C   UNL     1     146.026 139.632 137.337  1.00  0.00     0.016 C 
ATOM     25  C   UNL     1     142.736 135.601 139.667  1.00  0.00     0.012 C 
ATOM     26  C   UNL     1     140.943 133.172 138.421  1.00  0.00     0.014 C 
ATOM     27  C   UNL     1     140.868 133.329 135.938  1.00  0.00     0.014 C 
ATOM     28  C   UNL     1     144.847 136.716 135.579  1.00  0.00     0.016 C 
ATOM     29  C   UNL     1     149.748 141.163 139.868  1.00  0.00     0.011 C 
ENDROOT
BRANCH   5  30
ATOM     30  C   UNL     1     148.065 136.505 140.223  1.00  0.00     0.163 C 
BRANCH  30  31
ATOM     31  O   UNL     1     148.831 135.328 140.244  1.00  0.00    -0.396 OA
ATOM     32  H   UNL     1     149.750 135.570 139.953  1.00  0.00     0.210 HD
ENDBRANCH  30  31
ENDBRANCH   5  30
BRANCH  14  33
ATOM     33  O   UNL     1     139.342 135.693 136.114  1.00  0.00    -0.393 OA
ATOM     34  H   UNL     1     139.980 136.426 135.927  1.00  0.00     0.210 HD
ENDBRANCH  14  33
TORSDOF 3
ENDMDL
MODEL 9
REMARK VINA RESULT:    -6.344      4.298      7.502
REMARK INTER + INTRA:          -7.141
REMARK INTER:                  -7.002
REMARK INTRA:                  -0.139
REMARK UNBOUND:                -0.056
REMARK SMILES CC1(C)CC[C@]2(CO)CC=C3[C@@]4(C)CC[C@H]5C(C)(C)[C@H](O)CC[C@]5(C)[C@H]4CC[C@@]3(C)[C@H]2C1
REMARK SMILES IDX 1 1 2 2 4 3 5 4 6 5 9 6 10 7 11 8 12 9 14 10 15 11 16 12
REMARK SMILES IDX 17 13 20 14 22 15 23 16 24 17 26 18 27 19 28 20 29 21 31 22
REMARK SMILES IDX 32 23 30 24 25 25 18 26 19 27 13 28 3 29 7 30 8 31 21 33
REMARK H PARENT 8 32 21 34
REMARK Flexibility Score: inf
ROOT
ATOM      1  C   UNL     1     143.582 134.929 147.523  1.00  0.00     0.011 C 
ATOM      2  C   UNL     1     143.138 134.629 146.073  1.00  0.00    -0.035 C 
ATOM      3  C   UNL     1     141.797 135.364 145.809  1.00  0.00     0.007 C 
ATOM      4  C   UNL     1     141.391 135.367 144.326  1.00  0.00     0.010 C 
ATOM      5  C   UNL     1     142.492 135.954 143.395  1.00  0.00     0.001 C 
ATOM      6  C   UNL     1     142.072 135.692 141.934  1.00  0.00     0.037 C 
ATOM      7  C   UNL     1     143.135 136.122 140.968  1.00  0.00    -0.026 C 
ATOM      8  C   UNL     1     144.463 136.171 141.270  1.00  0.00    -0.062 C 
ATOM      9  C   UNL     1     145.443 136.835 140.250  1.00  0.00    -0.008 C 
ATOM     10  C   UNL     1     144.856 138.212 139.801  1.00  0.00     0.012 C 
ATOM     11  C   UNL     1     145.704 138.968 138.760  1.00  0.00     0.006 C 
ATOM     12  C   UNL     1     147.238 138.839 138.958  1.00  0.00     0.003 C 
ATOM     13  C   UNL     1     148.083 139.990 138.265  1.00  0.00    -0.006 C 
ATOM     14  C   UNL     1     149.617 139.736 138.459  1.00  0.00     0.120 C 
ATOM     15  C   UNL     1     149.983 139.461 139.923  1.00  0.00     0.033 C 
ATOM     16  C   UNL     1     149.175 138.308 140.529  1.00  0.00     0.010 C 
ATOM     17  C   UNL     1     147.616 138.477 140.437  1.00  0.00    -0.025 C 
ATOM     18  C   UNL     1     146.942 137.067 140.795  1.00  0.00     0.005 C 
ATOM     19  C   UNL     1     147.242 136.653 142.272  1.00  0.00     0.006 C 
ATOM     20  C   UNL     1     146.031 136.441 143.169  1.00  0.00     0.012 C 
ATOM     21  C   UNL     1     144.975 135.497 142.559  1.00  0.00    -0.008 C 
ATOM     22  C   UNL     1     143.813 135.159 143.609  1.00  0.00     0.008 C 
ATOM     23  C   UNL     1     144.244 135.138 145.105  1.00  0.00     0.011 C 
ATOM     24  C   UNL     1     145.633 134.145 142.160  1.00  0.00     0.016 C 
ATOM     25  C   UNL     1     147.148 139.594 141.433  1.00  0.00     0.012 C 
ATOM     26  C   UNL     1     147.761 141.418 138.795  1.00  0.00     0.014 C 
ATOM     27  C   UNL     1     147.775 140.008 136.744  1.00  0.00     0.014 C 
ATOM     28  C   UNL     1     145.467 135.890 139.012  1.00  0.00     0.016 C 
ATOM     29  C   UNL     1     142.955 133.096 145.946  1.00  0.00     0.011 C 
ENDROOT
BRANCH   5  30
ATOM     30  C   UNL     1     142.655 137.488 143.649  1.00  0.00     0.163 C 
BRANCH  30  31
ATOM     31  O   UNL     1     141.487 138.186 143.297  1.00  0.00    -0.396 OA
ATOM     32  H   UNL     1     141.514 139.060 143.767  1.00  0.00     0.210 HD
ENDBRANCH  30  31
ENDBRANCH   5  30
BRANCH  14  33
ATOM     33  O   UNL     1     150.125 138.720 137.622  1.00  0.00    -0.393 OA
ATOM     34  H   UNL     1     149.481 137.968 137.603  1.00  0.00     0.210 HD
ENDBRANCH  14  33
TORSDOF 3
ENDMDL
