MODEL 1
REMARK VINA RESULT:    -6.444      0.000      0.000
REMARK INTER + INTRA:          -7.848
REMARK INTER:                  -7.575
REMARK INTRA:                  -0.273
REMARK UNBOUND:                -0.273
REMARK SMILES O=c1cc(-c2ccc(O)c(O)c2)oc2cc(O)cc(O)c12
REMARK SMILES IDX 4 1 3 2 2 3 1 4 21 5 19 6 18 7 16 8 15 9 14 10 13 11 5 12
REMARK SMILES IDX 6 13 7 14 8 15 12 16 10 17 9 18 11 20 20 22 17 24
REMARK H PARENT 9 19 11 21 20 23 17 25
REMARK Flexibility Score: inf
ROOT
ATOM      1  C   UNL     1      69.481  48.389   8.023  1.00  0.00     0.138 A 
ATOM      2  C   UNL     1      69.767  48.511   6.656  1.00  0.00     0.100 A 
ATOM      3  C   UNL     1      71.080  48.354   6.210  1.00  0.00     0.197 A 
ATOM      4  O   UNL     1      71.295  48.415   4.972  1.00  0.00    -0.289 OA
ATOM      5  C   UNL     1      72.116  48.109   7.142  1.00  0.00     0.107 A 
ATOM      6  C   UNL     1      73.497  47.966   6.807  1.00  0.00     0.134 A 
ATOM      7  C   UNL     1      74.418  47.626   7.805  1.00  0.00     0.093 A 
ATOM      8  C   UNL     1      74.018  47.483   9.136  1.00  0.00     0.123 A 
ATOM      9  C   UNL     1      72.683  47.670   9.482  1.00  0.00     0.094 A 
ATOM     10  C   UNL     1      71.733  47.975   8.503  1.00  0.00     0.146 A 
ATOM     11  O   UNL     1      70.466  48.127   8.875  1.00  0.00    -0.456 OA
ENDROOT
BRANCH   1  12
ATOM     12  C   UNL     1      68.103  48.550   8.554  1.00  0.00     0.021 A 
ATOM     13  C   UNL     1      67.826  49.385   9.653  1.00  0.00     0.016 A 
ATOM     14  C   UNL     1      66.519  49.525  10.125  1.00  0.00     0.051 A 
ATOM     15  C   UNL     1      65.465  48.841   9.506  1.00  0.00     0.157 A 
ATOM     16  C   UNL     1      67.038  47.877   7.929  1.00  0.00     0.062 A 
ATOM     17  C   UNL     1      65.727  48.015   8.401  1.00  0.00     0.158 A 
BRANCH  15  18
ATOM     18  O   UNL     1      64.162  48.982   9.981  1.00  0.00    -0.504 OA
ATOM     19  H   UNL     1      63.404  49.267   9.372  1.00  0.00     0.293 HD
ENDBRANCH  15  18
BRANCH  17  20
ATOM     20  O   UNL     1      64.700  47.323   7.759  1.00  0.00    -0.504 OA
ATOM     21  H   UNL     1      63.725  47.559   7.897  1.00  0.00     0.293 HD
ENDBRANCH  17  20
ENDBRANCH   1  12
BRANCH   6  22
ATOM     22  O   UNL     1      74.016  48.166   5.524  1.00  0.00    -0.507 OA
ATOM     23  H   UNL     1      74.538  47.483   4.997  1.00  0.00     0.293 HD
ENDBRANCH   6  22
BRANCH   8  24
ATOM     24  O   UNL     1      74.946  47.160  10.125  1.00  0.00    -0.508 OA
ATOM     25  H   UNL     1      75.768  47.729  10.287  1.00  0.00     0.293 HD
ENDBRANCH   8  24
TORSDOF 5
ENDMDL
MODEL 2
REMARK VINA RESULT:    -6.366      1.326      2.654
REMARK INTER + INTRA:          -7.756
REMARK INTER:                  -7.437
REMARK INTRA:                  -0.318
REMARK UNBOUND:                -0.273
REMARK SMILES O=c1cc(-c2ccc(O)c(O)c2)oc2cc(O)cc(O)c12
REMARK SMILES IDX 4 1 3 2 2 3 1 4 21 5 19 6 18 7 16 8 15 9 14 10 13 11 5 12
REMARK SMILES IDX 6 13 7 14 8 15 12 16 10 17 9 18 11 20 20 22 17 24
REMARK H PARENT 9 19 11 21 20 23 17 25
REMARK Flexibility Score: inf
ROOT
ATOM      1  C   UNL     1      69.635  48.182   8.386  1.00  0.00     0.138 A 
ATOM      2  C   UNL     1      70.555  48.486   9.399  1.00  0.00     0.100 A 
ATOM      3  C   UNL     1      71.918  48.527   9.103  1.00  0.00     0.197 A 
ATOM      4  O   UNL     1      72.713  48.857  10.020  1.00  0.00    -0.289 OA
ATOM      5  C   UNL     1      72.363  48.225   7.793  1.00  0.00     0.107 A 
ATOM      6  C   UNL     1      73.731  48.202   7.384  1.00  0.00     0.134 A 
ATOM      7  C   UNL     1      74.044  47.987   6.036  1.00  0.00     0.093 A 
ATOM      8  C   UNL     1      73.043  47.736   5.095  1.00  0.00     0.123 A 
ATOM      9  C   UNL     1      71.709  47.708   5.493  1.00  0.00     0.094 A 
ATOM     10  C   UNL     1      71.362  47.953   6.824  1.00  0.00     0.146 A 
ATOM     11  O   UNL     1      70.075  47.934   7.158  1.00  0.00    -0.456 OA
ENDROOT
BRANCH   1  12
ATOM     12  C   UNL     1      68.173  48.122   8.645  1.00  0.00     0.021 A 
ATOM     13  C   UNL     1      67.633  48.420   9.910  1.00  0.00     0.016 A 
ATOM     14  C   UNL     1      66.252  48.365  10.121  1.00  0.00     0.051 A 
ATOM     15  C   UNL     1      65.389  48.019   9.075  1.00  0.00     0.157 A 
ATOM     16  C   UNL     1      67.299  47.788   7.596  1.00  0.00     0.062 A 
ATOM     17  C   UNL     1      65.916  47.731   7.806  1.00  0.00     0.158 A 
BRANCH  15  18
ATOM     18  O   UNL     1      64.012  47.963   9.290  1.00  0.00    -0.504 OA
ATOM     19  H   UNL     1      63.589  47.207   9.815  1.00  0.00     0.293 HD
ENDBRANCH  15  18
BRANCH  17  20
ATOM     20  O   UNL     1      65.083  47.387   6.741  1.00  0.00    -0.504 OA
ATOM     21  H   UNL     1      64.976  46.429   6.429  1.00  0.00     0.293 HD
ENDBRANCH  17  20
ENDBRANCH   1  12
BRANCH   6  22
ATOM     22  O   UNL     1      74.813  48.360   8.256  1.00  0.00    -0.507 OA
ATOM     23  H   UNL     1      74.887  47.942   9.170  1.00  0.00     0.293 HD
ENDBRANCH   6  22
BRANCH   8  24
ATOM     24  O   UNL     1      73.366  47.508   3.758  1.00  0.00    -0.508 OA
ATOM     25  H   UNL     1      72.720  47.731   3.011  1.00  0.00     0.293 HD
ENDBRANCH   8  24
TORSDOF 5
ENDMDL
MODEL 3
REMARK VINA RESULT:    -5.785      3.391      5.828
REMARK INTER + INTRA:          -7.073
REMARK INTER:                  -6.778
REMARK INTRA:                  -0.295
REMARK UNBOUND:                -0.273
REMARK SMILES O=c1cc(-c2ccc(O)c(O)c2)oc2cc(O)cc(O)c12
REMARK SMILES IDX 4 1 3 2 2 3 1 4 21 5 19 6 18 7 16 8 15 9 14 10 13 11 5 12
REMARK SMILES IDX 6 13 7 14 8 15 12 16 10 17 9 18 11 20 20 22 17 24
REMARK H PARENT 9 19 11 21 20 23 17 25
REMARK Flexibility Score: inf
ROOT
ATOM      1  C   UNL     1      65.251  46.201   8.719  1.00  0.00     0.138 A 
ATOM      2  C   UNL     1      65.077  47.370   9.472  1.00  0.00     0.100 A 
ATOM      3  C   UNL     1      66.082  48.338   9.485  1.00  0.00     0.197 A 
ATOM      4  O   UNL     1      65.873  49.400  10.125  1.00  0.00    -0.289 OA
ATOM      5  C   UNL     1      67.283  48.116   8.769  1.00  0.00     0.107 A 
ATOM      6  C   UNL     1      68.391  49.016   8.738  1.00  0.00     0.134 A 
ATOM      7  C   UNL     1      69.487  48.733   7.913  1.00  0.00     0.093 A 
ATOM      8  C   UNL     1      69.541  47.555   7.165  1.00  0.00     0.123 A 
ATOM      9  C   UNL     1      68.488  46.647   7.227  1.00  0.00     0.094 A 
ATOM     10  C   UNL     1      67.364  46.916   8.013  1.00  0.00     0.146 A 
ATOM     11  O   UNL     1      66.374  46.030   8.030  1.00  0.00    -0.456 OA
ENDROOT
BRANCH   1  12
ATOM     12  C   UNL     1      64.216  45.136   8.671  1.00  0.00     0.021 A 
ATOM     13  C   UNL     1      64.424  43.933   7.969  1.00  0.00     0.016 A 
ATOM     14  C   UNL     1      63.437  42.945   7.950  1.00  0.00     0.051 A 
ATOM     15  C   UNL     1      62.230  43.135   8.634  1.00  0.00     0.157 A 
ATOM     16  C   UNL     1      63.008  45.314   9.367  1.00  0.00     0.062 A 
ATOM     17  C   UNL     1      62.017  44.326   9.348  1.00  0.00     0.158 A 
BRANCH  15  18
ATOM     18  O   UNL     1      61.246  42.148   8.611  1.00  0.00    -0.504 OA
ATOM     19  H   UNL     1      60.787  41.838   9.460  1.00  0.00     0.293 HD
ENDBRANCH  15  18
BRANCH  17  20
ATOM     20  O   UNL     1      60.828  44.546  10.043  1.00  0.00    -0.504 OA
ATOM     21  H   UNL     1      60.076  45.106   9.660  1.00  0.00     0.293 HD
ENDBRANCH  17  20
ENDBRANCH   1  12
BRANCH   6  22
ATOM     22  O   UNL     1      68.475  50.181   9.506  1.00  0.00    -0.507 OA
ATOM     23  H   UNL     1      67.883  50.990   9.401  1.00  0.00     0.293 HD
ENDBRANCH   6  22
BRANCH   8  24
ATOM     24  O   UNL     1      70.643  47.276   6.359  1.00  0.00    -0.508 OA
ATOM     25  H   UNL     1      70.626  47.443   5.361  1.00  0.00     0.293 HD
ENDBRANCH   8  24
TORSDOF 5
ENDMDL
MODEL 4
REMARK VINA RESULT:    -5.699      1.797      7.159
REMARK INTER + INTRA:          -6.972
REMARK INTER:                  -6.680
REMARK INTRA:                  -0.292
REMARK UNBOUND:                -0.273
REMARK SMILES O=c1cc(-c2ccc(O)c(O)c2)oc2cc(O)cc(O)c12
REMARK SMILES IDX 4 1 3 2 2 3 1 4 21 5 19 6 18 7 16 8 15 9 14 10 13 11 5 12
REMARK SMILES IDX 6 13 7 14 8 15 12 16 10 17 9 18 11 20 20 22 17 24
REMARK H PARENT 9 19 11 21 20 23 17 25
REMARK Flexibility Score: inf
ROOT
ATOM      1  C   UNL     1      69.678  48.187   7.450  1.00  0.00     0.138 A 
ATOM      2  C   UNL     1      69.279  49.207   8.324  1.00  0.00     0.100 A 
ATOM      3  C   UNL     1      67.996  49.184   8.871  1.00  0.00     0.197 A 
ATOM      4  O   UNL     1      67.687  50.083   9.694  1.00  0.00    -0.289 OA
ATOM      5  C   UNL     1      67.095  48.154   8.510  1.00  0.00     0.107 A 
ATOM      6  C   UNL     1      65.749  48.048   8.977  1.00  0.00     0.134 A 
ATOM      7  C   UNL     1      64.984  46.927   8.628  1.00  0.00     0.093 A 
ATOM      8  C   UNL     1      65.495  45.941   7.782  1.00  0.00     0.123 A 
ATOM      9  C   UNL     1      66.789  46.060   7.281  1.00  0.00     0.094 A 
ATOM     10  C   UNL     1      67.590  47.147   7.639  1.00  0.00     0.146 A 
ATOM     11  O   UNL     1      68.825  47.213   7.151  1.00  0.00    -0.456 OA
ENDROOT
BRANCH   1  12
ATOM     12  C   UNL     1      71.031  48.162   6.837  1.00  0.00     0.021 A 
ATOM     13  C   UNL     1      72.193  48.379   7.600  1.00  0.00     0.016 A 
ATOM     14  C   UNL     1      73.454  48.339   6.997  1.00  0.00     0.051 A 
ATOM     15  C   UNL     1      73.576  48.076   5.628  1.00  0.00     0.157 A 
ATOM     16  C   UNL     1      71.163  47.884   5.465  1.00  0.00     0.062 A 
ATOM     17  C   UNL     1      72.424  47.845   4.859  1.00  0.00     0.158 A 
BRANCH  15  18
ATOM     18  O   UNL     1      74.835  48.039   5.030  1.00  0.00    -0.504 OA
ATOM     19  H   UNL     1      75.011  47.487   4.199  1.00  0.00     0.293 HD
ENDBRANCH  15  18
BRANCH  17  20
ATOM     20  O   UNL     1      72.512  47.576   3.493  1.00  0.00    -0.504 OA
ATOM     21  H   UNL     1      73.186  46.920   3.116  1.00  0.00     0.293 HD
ENDBRANCH  17  20
ENDBRANCH   1  12
BRANCH   6  22
ATOM     22  O   UNL     1      65.113  49.015   9.761  1.00  0.00    -0.507 OA
ATOM     23  H   UNL     1      64.121  49.194   9.770  1.00  0.00     0.293 HD
ENDBRANCH   6  22
BRANCH   8  24
ATOM     24  O   UNL     1      64.720  44.838   7.428  1.00  0.00    -0.508 OA
ATOM     25  H   UNL     1      64.251  44.273   8.126  1.00  0.00     0.293 HD
ENDBRANCH   8  24
TORSDOF 5
ENDMDL
MODEL 5
REMARK VINA RESULT:    -5.676      1.827      7.140
REMARK INTER + INTRA:          -6.945
REMARK INTER:                  -6.636
REMARK INTRA:                  -0.309
REMARK UNBOUND:                -0.273
REMARK SMILES O=c1cc(-c2ccc(O)c(O)c2)oc2cc(O)cc(O)c12
REMARK SMILES IDX 4 1 3 2 2 3 1 4 21 5 19 6 18 7 16 8 15 9 14 10 13 11 5 12
REMARK SMILES IDX 6 13 7 14 8 15 12 16 10 17 9 18 11 20 20 22 17 24
REMARK H PARENT 9 19 11 21 20 23 17 25
REMARK Flexibility Score: inf
ROOT
ATOM      1  C   UNL     1      69.459  48.210   8.766  1.00  0.00     0.138 A 
ATOM      2  C   UNL     1      68.730  49.231   9.390  1.00  0.00     0.100 A 
ATOM      3  C   UNL     1      67.345  49.115   9.511  1.00  0.00     0.197 A 
ATOM      4  O   UNL     1      66.726  50.022  10.125  1.00  0.00    -0.289 OA
ATOM      5  C   UNL     1      66.683  47.986   8.971  1.00  0.00     0.107 A 
ATOM      6  C   UNL     1      65.271  47.777   9.004  1.00  0.00     0.134 A 
ATOM      7  C   UNL     1      64.740  46.573   8.524  1.00  0.00     0.093 A 
ATOM      8  C   UNL     1      65.564  45.597   7.959  1.00  0.00     0.123 A 
ATOM      9  C   UNL     1      66.936  45.812   7.876  1.00  0.00     0.094 A 
ATOM     10  C   UNL     1      67.501  46.988   8.378  1.00  0.00     0.146 A 
ATOM     11  O   UNL     1      68.818  47.145   8.295  1.00  0.00    -0.456 OA
ENDROOT
BRANCH   1  12
ATOM     12  C   UNL     1      70.934  48.282   8.606  1.00  0.00     0.021 A 
ATOM     13  C   UNL     1      71.617  49.513   8.585  1.00  0.00     0.016 A 
ATOM     14  C   UNL     1      73.007  49.549   8.445  1.00  0.00     0.051 A 
ATOM     15  C   UNL     1      73.738  48.361   8.329  1.00  0.00     0.157 A 
ATOM     16  C   UNL     1      71.677  47.093   8.503  1.00  0.00     0.062 A 
ATOM     17  C   UNL     1      73.069  47.127   8.361  1.00  0.00     0.158 A 
BRANCH  15  18
ATOM     18  O   UNL     1      75.125  48.402   8.187  1.00  0.00    -0.504 OA
ATOM     19  H   UNL     1      75.565  48.911   7.430  1.00  0.00     0.293 HD
ENDBRANCH  15  18
BRANCH  17  20
ATOM     20  O   UNL     1      73.769  45.925   8.252  1.00  0.00    -0.504 OA
ATOM     21  H   UNL     1      74.183  45.469   9.056  1.00  0.00     0.293 HD
ENDBRANCH  17  20
ENDBRANCH   1  12
BRANCH   6  22
ATOM     22  O   UNL     1      64.350  48.719   9.473  1.00  0.00    -0.507 OA
ATOM     23  H   UNL     1      64.581  49.534  10.021  1.00  0.00     0.293 HD
ENDBRANCH   6  22
BRANCH   8  24
ATOM     24  O   UNL     1      65.024  44.409   7.470  1.00  0.00    -0.508 OA
ATOM     25  H   UNL     1      65.577  43.564   7.401  1.00  0.00     0.293 HD
ENDBRANCH   8  24
TORSDOF 5
ENDMDL
MODEL 6
REMARK VINA RESULT:    -5.641      1.937      3.134
REMARK INTER + INTRA:          -6.904
REMARK INTER:                  -6.628
REMARK INTRA:                  -0.276
REMARK UNBOUND:                -0.273
REMARK SMILES O=c1cc(-c2ccc(O)c(O)c2)oc2cc(O)cc(O)c12
REMARK SMILES IDX 4 1 3 2 2 3 1 4 21 5 19 6 18 7 16 8 15 9 14 10 13 11 5 12
REMARK SMILES IDX 6 13 7 14 8 15 12 16 10 17 9 18 11 20 20 22 17 24
REMARK H PARENT 9 19 11 21 20 23 17 25
REMARK Flexibility Score: inf
ROOT
ATOM      1  C   UNL     1      68.925  47.449   8.069  1.00  0.00     0.138 A 
ATOM      2  C   UNL     1      69.366  48.234   9.143  1.00  0.00     0.100 A 
ATOM      3  C   UNL     1      70.688  48.677   9.177  1.00  0.00     0.197 A 
ATOM      4  O   UNL     1      71.038  49.425  10.125  1.00  0.00    -0.289 OA
ATOM      5  C   UNL     1      71.584  48.300   8.147  1.00  0.00     0.107 A 
ATOM      6  C   UNL     1      72.963  48.664   8.094  1.00  0.00     0.134 A 
ATOM      7  C   UNL     1      73.727  48.315   6.973  1.00  0.00     0.093 A 
ATOM      8  C   UNL     1      73.176  47.565   5.931  1.00  0.00     0.123 A 
ATOM      9  C   UNL     1      71.845  47.163   5.996  1.00  0.00     0.094 A 
ATOM     10  C   UNL     1      71.047  47.525   7.085  1.00  0.00     0.146 A 
ATOM     11  O   UNL     1      69.776  47.135   7.098  1.00  0.00    -0.456 OA
ENDROOT
BRANCH   1  12
ATOM     12  C   UNL     1      67.529  46.947   7.983  1.00  0.00     0.021 A 
ATOM     13  C   UNL     1      66.433  47.824   7.886  1.00  0.00     0.016 A 
ATOM     14  C   UNL     1      65.131  47.322   7.796  1.00  0.00     0.051 A 
ATOM     15  C   UNL     1      64.903  45.941   7.793  1.00  0.00     0.157 A 
ATOM     16  C   UNL     1      67.293  45.561   7.966  1.00  0.00     0.062 A 
ATOM     17  C   UNL     1      65.990  45.057   7.877  1.00  0.00     0.158 A 
BRANCH  15  18
ATOM     18  O   UNL     1      63.603  45.445   7.705  1.00  0.00    -0.504 OA
ATOM     19  H   UNL     1      62.810  46.059   7.557  1.00  0.00     0.293 HD
ENDBRANCH  15  18
BRANCH  17  20
ATOM     20  O   UNL     1      65.797  43.675   7.873  1.00  0.00    -0.504 OA
ATOM     21  H   UNL     1      64.886  43.259   8.025  1.00  0.00     0.293 HD
ENDBRANCH  17  20
ENDBRANCH   1  12
BRANCH   6  22
ATOM     22  O   UNL     1      73.634  49.343   9.116  1.00  0.00    -0.507 OA
ATOM     23  H   UNL     1      74.491  49.037   9.550  1.00  0.00     0.293 HD
ENDBRANCH   6  22
BRANCH   8  24
ATOM     24  O   UNL     1      73.948  47.209   4.827  1.00  0.00    -0.508 OA
ATOM     25  H   UNL     1      73.672  47.456   3.885  1.00  0.00     0.293 HD
ENDBRANCH   8  24
TORSDOF 5
ENDMDL
MODEL 7
REMARK VINA RESULT:    -5.632      2.118      7.237
REMARK INTER + INTRA:          -6.893
REMARK INTER:                  -6.605
REMARK INTRA:                  -0.289
REMARK UNBOUND:                -0.273
REMARK SMILES O=c1cc(-c2ccc(O)c(O)c2)oc2cc(O)cc(O)c12
REMARK SMILES IDX 4 1 3 2 2 3 1 4 21 5 19 6 18 7 16 8 15 9 14 10 13 11 5 12
REMARK SMILES IDX 6 13 7 14 8 15 12 16 10 17 9 18 11 20 20 22 17 24
REMARK H PARENT 9 19 11 21 20 23 17 25
REMARK Flexibility Score: inf
ROOT
ATOM      1  C   UNL     1      68.400  47.767   9.009  1.00  0.00     0.138 A 
ATOM      2  C   UNL     1      67.451  48.641   9.557  1.00  0.00     0.100 A 
ATOM      3  C   UNL     1      66.105  48.273   9.576  1.00  0.00     0.197 A 
ATOM      4  O   UNL     1      65.286  49.054  10.123  1.00  0.00    -0.289 OA
ATOM      5  C   UNL     1      65.704  47.040   9.009  1.00  0.00     0.107 A 
ATOM      6  C   UNL     1      64.355  46.576   8.940  1.00  0.00     0.134 A 
ATOM      7  C   UNL     1      64.092  45.292   8.445  1.00  0.00     0.093 A 
ATOM      8  C   UNL     1      65.121  44.480   7.963  1.00  0.00     0.123 A 
ATOM      9  C   UNL     1      66.433  44.943   7.979  1.00  0.00     0.094 A 
ATOM     10  C   UNL     1      66.734  46.205   8.499  1.00  0.00     0.146 A 
ATOM     11  O   UNL     1      68.003  46.600   8.512  1.00  0.00    -0.456 OA
ENDROOT
BRANCH   1  12
ATOM     12  C   UNL     1      69.846  48.107   8.959  1.00  0.00     0.021 A 
ATOM     13  C   UNL     1      70.540  48.551  10.100  1.00  0.00     0.016 A 
ATOM     14  C   UNL     1      71.903  48.854  10.026  1.00  0.00     0.051 A 
ATOM     15  C   UNL     1      72.595  48.713   8.817  1.00  0.00     0.157 A 
ATOM     16  C   UNL     1      70.551  47.955   7.753  1.00  0.00     0.062 A 
ATOM     17  C   UNL     1      71.915  48.259   7.676  1.00  0.00     0.158 A 
BRANCH  15  18
ATOM     18  O   UNL     1      73.954  49.018   8.747  1.00  0.00    -0.504 OA
ATOM     19  H   UNL     1      74.664  48.310   8.891  1.00  0.00     0.293 HD
ENDBRANCH  15  18
BRANCH  17  20
ATOM     20  O   UNL     1      72.576  48.104   6.457  1.00  0.00    -0.504 OA
ATOM     21  H   UNL     1      72.953  47.212   6.159  1.00  0.00     0.293 HD
ENDBRANCH  17  20
ENDBRANCH   1  12
BRANCH   6  22
ATOM     22  O   UNL     1      63.245  47.335   9.321  1.00  0.00    -0.507 OA
ATOM     23  H   UNL     1      63.223  48.341   9.379  1.00  0.00     0.293 HD
ENDBRANCH   6  22
BRANCH   8  24
ATOM     24  O   UNL     1      64.846  43.211   7.458  1.00  0.00    -0.508 OA
ATOM     25  H   UNL     1      65.164  42.924   6.541  1.00  0.00     0.293 HD
ENDBRANCH   8  24
TORSDOF 5
ENDMDL
MODEL 8
REMARK VINA RESULT:    -5.555      2.795      7.280
REMARK INTER + INTRA:          -6.802
REMARK INTER:                  -6.527
REMARK INTRA:                  -0.275
REMARK UNBOUND:                -0.273
REMARK SMILES O=c1cc(-c2ccc(O)c(O)c2)oc2cc(O)cc(O)c12
REMARK SMILES IDX 4 1 3 2 2 3 1 4 21 5 19 6 18 7 16 8 15 9 14 10 13 11 5 12
REMARK SMILES IDX 6 13 7 14 8 15 12 16 10 17 9 18 11 20 20 22 17 24
REMARK H PARENT 9 19 11 21 20 23 17 25
REMARK Flexibility Score: inf
ROOT
ATOM      1  C   UNL     1      68.412  46.650   8.068  1.00  0.00     0.138 A 
ATOM      2  C   UNL     1      68.653  45.270   8.053  1.00  0.00     0.100 A 
ATOM      3  C   UNL     1      67.578  44.383   7.985  1.00  0.00     0.197 A 
ATOM      4  O   UNL     1      67.829  43.153   7.918  1.00  0.00    -0.289 OA
ATOM      5  C   UNL     1      66.253  44.882   7.970  1.00  0.00     0.107 A 
ATOM      6  C   UNL     1      65.078  44.072   7.937  1.00  0.00     0.134 A 
ATOM      7  C   UNL     1      63.822  44.682   7.823  1.00  0.00     0.093 A 
ATOM      8  C   UNL     1      63.696  46.073   7.801  1.00  0.00     0.123 A 
ATOM      9  C   UNL     1      64.832  46.873   7.884  1.00  0.00     0.094 A 
ATOM     10  C   UNL     1      66.102  46.294   7.962  1.00  0.00     0.146 A 
ATOM     11  O   UNL     1      67.161  47.095   8.021  1.00  0.00    -0.456 OA
ENDROOT
BRANCH   1  12
ATOM     12  C   UNL     1      69.518  47.640   8.143  1.00  0.00     0.021 A 
ATOM     13  C   UNL     1      69.478  48.729   9.034  1.00  0.00     0.016 A 
ATOM     14  C   UNL     1      70.537  49.638   9.089  1.00  0.00     0.051 A 
ATOM     15  C   UNL     1      71.656  49.474   8.264  1.00  0.00     0.157 A 
ATOM     16  C   UNL     1      70.651  47.474   7.327  1.00  0.00     0.062 A 
ATOM     17  C   UNL     1      71.713  48.384   7.380  1.00  0.00     0.158 A 
BRANCH  15  18
ATOM     18  O   UNL     1      72.711  50.384   8.321  1.00  0.00    -0.504 OA
ATOM     19  H   UNL     1      72.995  50.916   7.507  1.00  0.00     0.293 HD
ENDBRANCH  15  18
BRANCH  17  20
ATOM     20  O   UNL     1      72.815  48.189   6.547  1.00  0.00    -0.504 OA
ATOM     21  H   UNL     1      72.903  47.372   5.954  1.00  0.00     0.293 HD
ENDBRANCH  17  20
ENDBRANCH   1  12
BRANCH   6  22
ATOM     22  O   UNL     1      65.085  42.677   8.033  1.00  0.00    -0.507 OA
ATOM     23  H   UNL     1      65.777  42.071   7.621  1.00  0.00     0.293 HD
ENDBRANCH   6  22
BRANCH   8  24
ATOM     24  O   UNL     1      62.441  46.670   7.704  1.00  0.00    -0.508 OA
ATOM     25  H   UNL     1      62.215  47.515   8.213  1.00  0.00     0.293 HD
ENDBRANCH   8  24
TORSDOF 5
ENDMDL
MODEL 9
REMARK VINA RESULT:    -5.499      4.243      7.086
REMARK INTER + INTRA:          -6.737
REMARK INTER:                  -6.429
REMARK INTRA:                  -0.308
REMARK UNBOUND:                -0.273
REMARK SMILES O=c1cc(-c2ccc(O)c(O)c2)oc2cc(O)cc(O)c12
REMARK SMILES IDX 4 1 3 2 2 3 1 4 21 5 19 6 18 7 16 8 15 9 14 10 13 11 5 12
REMARK SMILES IDX 6 13 7 14 8 15 12 16 10 17 9 18 11 20 20 22 17 24
REMARK H PARENT 9 19 11 21 20 23 17 25
REMARK Flexibility Score: inf
ROOT
ATOM      1  C   UNL     1      72.953  45.103   6.566  1.00  0.00     0.138 A 
ATOM      2  C   UNL     1      73.969  45.480   7.455  1.00  0.00     0.100 A 
ATOM      3  C   UNL     1      73.936  46.746   8.042  1.00  0.00     0.197 A 
ATOM      4  O   UNL     1      74.831  47.034   8.877  1.00  0.00    -0.289 OA
ATOM      5  C   UNL     1      72.900  47.651   7.708  1.00  0.00     0.107 A 
ATOM      6  C   UNL     1      72.784  48.979   8.218  1.00  0.00     0.134 A 
ATOM      7  C   UNL     1      71.659  49.748   7.892  1.00  0.00     0.093 A 
ATOM      8  C   UNL     1      70.677  49.257   7.028  1.00  0.00     0.123 A 
ATOM      9  C   UNL     1      70.806  47.981   6.486  1.00  0.00     0.094 A 
ATOM     10  C   UNL     1      71.899  47.176   6.820  1.00  0.00     0.146 A 
ATOM     11  O   UNL     1      71.974  45.958   6.293  1.00  0.00    -0.456 OA
ENDROOT
BRANCH   1  12
ATOM     12  C   UNL     1      72.939  43.770   5.910  1.00  0.00     0.021 A 
ATOM     13  C   UNL     1      74.125  43.053   5.666  1.00  0.00     0.016 A 
ATOM     14  C   UNL     1      74.080  41.796   5.056  1.00  0.00     0.051 A 
ATOM     15  C   UNL     1      72.853  41.232   4.686  1.00  0.00     0.157 A 
ATOM     16  C   UNL     1      71.710  43.191   5.548  1.00  0.00     0.062 A 
ATOM     17  C   UNL     1      71.662  41.933   4.935  1.00  0.00     0.158 A 
BRANCH  15  18
ATOM     18  O   UNL     1      72.812  39.979   4.076  1.00  0.00    -0.504 OA
ATOM     19  H   UNL     1      72.622  39.878   3.086  1.00  0.00     0.293 HD
ENDBRANCH  15  18
BRANCH  17  20
ATOM     20  O   UNL     1      70.423  41.398   4.583  1.00  0.00    -0.504 OA
ATOM     21  H   UNL     1      70.116  40.490   4.911  1.00  0.00     0.293 HD
ENDBRANCH  17  20
ENDBRANCH   1  12
BRANCH   6  22
ATOM     22  O   UNL     1      73.745  49.597   9.024  1.00  0.00    -0.507 OA
ATOM     23  H   UNL     1      74.504  49.122   9.488  1.00  0.00     0.293 HD
ENDBRANCH   6  22
BRANCH   8  24
ATOM     24  O   UNL     1      69.569  50.035   6.697  1.00  0.00    -0.508 OA
ATOM     25  H   UNL     1      69.668  50.995   6.389  1.00  0.00     0.293 HD
ENDBRANCH   8  24
TORSDOF 5
ENDMDL
