MODEL 1
REMARK VINA RESULT:    -3.622      0.000      0.000
REMARK INTER + INTRA:          -5.820
REMARK INTER:                  -5.315
REMARK INTRA:                  -0.505
REMARK UNBOUND:                -0.505
REMARK SMILES O=C([O-])CCCCCCCC(=O)[O-]
REMARK SMILES IDX 7 1 6 2 5 3 4 4 2 5 1 6 3 7 8 8 9 9 10 10 11 11 12 12 13 13
REMARK H PARENT
REMARK Flexibility Score: inf
ROOT
ATOM      1  C   UNL     1      16.964  15.719  16.554  1.00  0.00     0.000 C 
ENDROOT
BRANCH   1   2
ATOM      2  C   UNL     1      17.594  17.113  16.663  1.00  0.00     0.000 C 
BRANCH   2   3
ATOM      3  C   UNL     1      17.664  17.572  18.124  1.00  0.00     0.006 C 
BRANCH   3   4
ATOM      4  C   UNL     1      18.288  16.491  19.011  1.00  0.00     0.053 C 
BRANCH   4   5
ATOM      5  C   UNL     1      17.673  16.511  20.374  1.00  0.00     0.041 C 
ATOM      6  O   UNL     1      18.020  15.664  21.239  1.00  0.00    -0.550 OA
ATOM      7  O   UNL     1      16.752  17.497  20.707  1.00  0.00    -0.550 OA
ENDBRANCH   4   5
ENDBRANCH   3   4
ENDBRANCH   2   3
ENDBRANCH   1   2
BRANCH   1   8
ATOM      8  C   UNL     1      17.702  14.860  15.521  1.00  0.00     0.000 C 
BRANCH   8   9
ATOM      9  C   UNL     1      19.115  14.507  16.006  1.00  0.00     0.006 C 
BRANCH   9  10
ATOM     10  C   UNL     1      19.281  13.005  16.272  1.00  0.00     0.053 C 
BRANCH  10  11
ATOM     11  C   UNL     1      20.033  12.746  17.542  1.00  0.00     0.041 C 
ATOM     12  O   UNL     1      20.294  13.694  18.328  1.00  0.00    -0.550 OA
ATOM     13  O   UNL     1      20.418  11.452  17.872  1.00  0.00    -0.550 OA
ENDBRANCH  10  11
ENDBRANCH   9  10
ENDBRANCH   8   9
ENDBRANCH   1   8
TORSDOF 8
ENDMDL
MODEL 2
REMARK VINA RESULT:    -3.600      1.741      2.997
REMARK INTER + INTRA:          -5.788
REMARK INTER:                  -5.155
REMARK INTRA:                  -0.633
REMARK UNBOUND:                -0.505
REMARK SMILES O=C([O-])CCCCCCCC(=O)[O-]
REMARK SMILES IDX 7 1 6 2 5 3 4 4 2 5 1 6 3 7 8 8 9 9 10 10 11 11 12 12 13 13
REMARK H PARENT
REMARK Flexibility Score: inf
ROOT
ATOM      1  C   UNL     1      19.032  14.648  15.797  1.00  0.00     0.000 C 
ENDROOT
BRANCH   1   2
ATOM      2  C   UNL     1      17.557  14.839  15.428  1.00  0.00     0.000 C 
BRANCH   2   3
ATOM      3  C   UNL     1      16.910  15.930  16.291  1.00  0.00     0.006 C 
BRANCH   3   4
ATOM      4  C   UNL     1      17.714  17.232  16.223  1.00  0.00     0.053 C 
BRANCH   4   5
ATOM      5  C   UNL     1      17.731  17.907  17.558  1.00  0.00     0.041 C 
ATOM      6  O   UNL     1      17.456  17.257  18.600  1.00  0.00    -0.550 OA
ATOM      7  O   UNL     1      18.099  19.243  17.657  1.00  0.00    -0.550 OA
ENDBRANCH   4   5
ENDBRANCH   3   4
ENDBRANCH   2   3
ENDBRANCH   1   2
BRANCH   1   8
ATOM      8  C   UNL     1      19.275  13.255  16.391  1.00  0.00     0.000 C 
BRANCH   8   9
ATOM      9  C   UNL     1      20.124  13.341  17.667  1.00  0.00     0.006 C 
BRANCH   9  10
ATOM     10  C   UNL     1      19.933  14.674  18.405  1.00  0.00     0.053 C 
BRANCH  10  11
ATOM     11  C   UNL     1      19.932  14.490  19.891  1.00  0.00     0.041 C 
ATOM     12  O   UNL     1      20.880  13.884  20.455  1.00  0.00    -0.550 OA
ATOM     13  O   UNL     1      18.900  15.017  20.658  1.00  0.00    -0.550 OA
ENDBRANCH  10  11
ENDBRANCH   9  10
ENDBRANCH   8   9
ENDBRANCH   1   8
TORSDOF 8
ENDMDL
MODEL 3
REMARK VINA RESULT:    -3.589      1.406      4.879
REMARK INTER + INTRA:          -5.772
REMARK INTER:                  -5.210
REMARK INTRA:                  -0.562
REMARK UNBOUND:                -0.505
REMARK SMILES O=C([O-])CCCCCCCC(=O)[O-]
REMARK SMILES IDX 7 1 6 2 5 3 4 4 2 5 1 6 3 7 8 8 9 9 10 10 11 11 12 12 13 13
REMARK H PARENT
REMARK Flexibility Score: inf
ROOT
ATOM      1  C   UNL     1      18.819  15.282  15.054  1.00  0.00     0.000 C 
ENDROOT
BRANCH   1   2
ATOM      2  C   UNL     1      19.909  14.249  15.359  1.00  0.00     0.000 C 
BRANCH   2   3
ATOM      3  C   UNL     1      19.456  13.278  16.456  1.00  0.00     0.006 C 
BRANCH   3   4
ATOM      4  C   UNL     1      20.129  13.606  17.793  1.00  0.00     0.053 C 
BRANCH   4   5
ATOM      5  C   UNL     1      20.907  12.431  18.290  1.00  0.00     0.041 C 
ATOM      6  O   UNL     1      21.962  12.605  18.955  1.00  0.00    -0.550 OA
ATOM      7  O   UNL     1      20.442  11.142  18.062  1.00  0.00    -0.550 OA
ENDBRANCH   4   5
ENDBRANCH   3   4
ENDBRANCH   2   3
ENDBRANCH   1   2
BRANCH   1   8
ATOM      8  C   UNL     1      17.455  14.816  15.578  1.00  0.00     0.000 C 
BRANCH   8   9
ATOM      9  C   UNL     1      16.737  15.947  16.327  1.00  0.00     0.006 C 
BRANCH   9  10
ATOM     10  C   UNL     1      17.669  17.127  16.632  1.00  0.00     0.053 C 
BRANCH  10  11
ATOM     11  C   UNL     1      17.757  17.399  18.102  1.00  0.00     0.041 C 
ATOM     12  O   UNL     1      17.464  16.499  18.932  1.00  0.00    -0.550 OA
ATOM     13  O   UNL     1      18.193  18.638  18.557  1.00  0.00    -0.550 OA
ENDBRANCH  10  11
ENDBRANCH   9  10
ENDBRANCH   8   9
ENDBRANCH   1   8
TORSDOF 8
ENDMDL
MODEL 4
REMARK VINA RESULT:    -3.582      1.439      2.227
REMARK INTER + INTRA:          -5.762
REMARK INTER:                  -5.210
REMARK INTRA:                  -0.552
REMARK UNBOUND:                -0.505
REMARK SMILES O=C([O-])CCCCCCCC(=O)[O-]
REMARK SMILES IDX 7 1 6 2 5 3 4 4 2 5 1 6 3 7 8 8 9 9 10 10 11 11 12 12 13 13
REMARK H PARENT
REMARK Flexibility Score: inf
ROOT
ATOM      1  C   UNL     1      19.030  15.487  15.096  1.00  0.00     0.000 C 
ENDROOT
BRANCH   1   2
ATOM      2  C   UNL     1      17.613  14.938  15.296  1.00  0.00     0.000 C 
BRANCH   2   3
ATOM      3  C   UNL     1      16.834  15.783  16.312  1.00  0.00     0.006 C 
BRANCH   3   4
ATOM      4  C   UNL     1      17.533  17.122  16.564  1.00  0.00     0.053 C 
BRANCH   4   5
ATOM      5  C   UNL     1      17.730  17.343  18.029  1.00  0.00     0.041 C 
ATOM      6  O   UNL     1      17.512  16.409  18.846  1.00  0.00    -0.550 OA
ATOM      7  O   UNL     1      18.201  18.566  18.491  1.00  0.00    -0.550 OA
ENDBRANCH   4   5
ENDBRANCH   3   4
ENDBRANCH   2   3
ENDBRANCH   1   2
BRANCH   1   8
ATOM      8  C   UNL     1      20.083  14.399  15.336  1.00  0.00     0.000 C 
BRANCH   8   9
ATOM      9  C   UNL     1      19.555  13.326  16.300  1.00  0.00     0.006 C 
BRANCH   9  10
ATOM     10  C   UNL     1      20.060  13.534  17.734  1.00  0.00     0.053 C 
BRANCH  10  11
ATOM     11  C   UNL     1      20.888  12.378  18.204  1.00  0.00     0.041 C 
ATOM     12  O   UNL     1      21.994  12.580  18.771  1.00  0.00    -0.550 OA
ATOM     13  O   UNL     1      20.423  11.078  18.046  1.00  0.00    -0.550 OA
ENDBRANCH  10  11
ENDBRANCH   9  10
ENDBRANCH   8   9
ENDBRANCH   1   8
TORSDOF 8
ENDMDL
MODEL 5
REMARK VINA RESULT:    -3.558      1.773      4.278
REMARK INTER + INTRA:          -5.727
REMARK INTER:                  -5.122
REMARK INTRA:                  -0.605
REMARK UNBOUND:                -0.505
REMARK SMILES O=C([O-])CCCCCCCC(=O)[O-]
REMARK SMILES IDX 7 1 6 2 5 3 4 4 2 5 1 6 3 7 8 8 9 9 10 10 11 11 12 12 13 13
REMARK H PARENT
REMARK Flexibility Score: inf
ROOT
ATOM      1  C   UNL     1      19.090  14.544  15.827  1.00  0.00     0.000 C 
ENDROOT
BRANCH   1   2
ATOM      2  C   UNL     1      19.367  13.122  16.328  1.00  0.00     0.000 C 
BRANCH   2   3
ATOM      3  C   UNL     1      20.056  13.145  17.698  1.00  0.00     0.006 C 
BRANCH   3   4
ATOM      4  C   UNL     1      19.999  14.544  18.319  1.00  0.00     0.053 C 
BRANCH   4   5
ATOM      5  C   UNL     1      20.137  14.464  19.805  1.00  0.00     0.041 C 
ATOM      6  O   UNL     1      19.196  14.844  20.551  1.00  0.00    -0.550 OA
ATOM      7  O   UNL     1      21.286  13.923  20.369  1.00  0.00    -0.550 OA
ENDBRANCH   4   5
ENDBRANCH   3   4
ENDBRANCH   2   3
ENDBRANCH   1   2
BRANCH   1   8
ATOM      8  C   UNL     1      17.613  14.720  15.456  1.00  0.00     0.000 C 
BRANCH   8   9
ATOM      9  C   UNL     1      16.932  15.744  16.375  1.00  0.00     0.006 C 
BRANCH   9  10
ATOM     10  C   UNL     1      17.503  17.157  16.195  1.00  0.00     0.053 C 
BRANCH  10  11
ATOM     11  C   UNL     1      17.746  17.829  17.512  1.00  0.00     0.041 C 
ATOM     12  O   UNL     1      18.120  19.031  17.550  1.00  0.00    -0.550 OA
ATOM     13  O   UNL     1      17.530  17.138  18.697  1.00  0.00    -0.550 OA
ENDBRANCH  10  11
ENDBRANCH   9  10
ENDBRANCH   8   9
ENDBRANCH   1   8
TORSDOF 8
ENDMDL
MODEL 6
REMARK VINA RESULT:    -3.523      2.061      3.863
REMARK INTER + INTRA:          -5.676
REMARK INTER:                  -5.004
REMARK INTRA:                  -0.671
REMARK UNBOUND:                -0.505
REMARK SMILES O=C([O-])CCCCCCCC(=O)[O-]
REMARK SMILES IDX 7 1 6 2 5 3 4 4 2 5 1 6 3 7 8 8 9 9 10 10 11 11 12 12 13 13
REMARK H PARENT
REMARK Flexibility Score: inf
ROOT
ATOM      1  C   UNL     1      19.568  14.239  16.347  1.00  0.00     0.000 C 
ENDROOT
BRANCH   1   2
ATOM      2  C   UNL     1      18.143  13.952  15.861  1.00  0.00     0.000 C 
BRANCH   2   3
ATOM      3  C   UNL     1      17.474  15.226  15.332  1.00  0.00     0.006 C 
BRANCH   3   4
ATOM      4  C   UNL     1      16.975  16.104  16.484  1.00  0.00     0.053 C 
BRANCH   4   5
ATOM      5  C   UNL     1      17.719  17.401  16.515  1.00  0.00     0.041 C 
ATOM      6  O   UNL     1      17.697  18.120  17.548  1.00  0.00    -0.550 OA
ATOM      7  O   UNL     1      18.478  17.794  15.419  1.00  0.00    -0.550 OA
ENDBRANCH   4   5
ENDBRANCH   3   4
ENDBRANCH   2   3
ENDBRANCH   1   2
BRANCH   1   8
ATOM      8  C   UNL     1      20.016  13.203  17.385  1.00  0.00     0.000 C 
BRANCH   8   9
ATOM      9  C   UNL     1      20.352  13.876  18.724  1.00  0.00     0.006 C 
BRANCH   9  10
ATOM     10  C   UNL     1      19.686  15.251  18.868  1.00  0.00     0.053 C 
BRANCH  10  11
ATOM     11  C   UNL     1      18.902  15.358  20.139  1.00  0.00     0.041 C 
ATOM     12  O   UNL     1      17.821  16.003  20.164  1.00  0.00    -0.550 OA
ATOM     13  O   UNL     1      19.347  14.717  21.288  1.00  0.00    -0.550 OA
ENDBRANCH  10  11
ENDBRANCH   9  10
ENDBRANCH   8   9
ENDBRANCH   1   8
TORSDOF 8
ENDMDL
MODEL 7
REMARK VINA RESULT:    -3.485      0.455      4.754
REMARK INTER + INTRA:          -5.619
REMARK INTER:                  -5.099
REMARK INTRA:                  -0.521
REMARK UNBOUND:                -0.505
REMARK SMILES O=C([O-])CCCCCCCC(=O)[O-]
REMARK SMILES IDX 7 1 6 2 5 3 4 4 2 5 1 6 3 7 8 8 9 9 10 10 11 11 12 12 13 13
REMARK H PARENT
REMARK Flexibility Score: inf
ROOT
ATOM      1  C   UNL     1      16.951  16.046  16.373  1.00  0.00     0.000 C 
ENDROOT
BRANCH   1   2
ATOM      2  C   UNL     1      17.570  14.937  15.515  1.00  0.00     0.000 C 
BRANCH   2   3
ATOM      3  C   UNL     1      19.014  14.650  15.946  1.00  0.00     0.006 C 
BRANCH   3   4
ATOM      4  C   UNL     1      19.186  13.182  16.347  1.00  0.00     0.053 C 
BRANCH   4   5
ATOM      5  C   UNL     1      20.025  13.071  17.580  1.00  0.00     0.041 C 
ATOM      6  O   UNL     1      20.047  14.010  18.419  1.00  0.00    -0.550 OA
ATOM      7  O   UNL     1      20.747  11.909  17.828  1.00  0.00    -0.550 OA
ENDBRANCH   4   5
ENDBRANCH   3   4
ENDBRANCH   2   3
ENDBRANCH   1   2
BRANCH   1   8
ATOM      8  C   UNL     1      18.033  16.962  16.957  1.00  0.00     0.000 C 
BRANCH   8   9
ATOM      9  C   UNL     1      17.669  17.408  18.380  1.00  0.00     0.006 C 
BRANCH   9  10
ATOM     10  C   UNL     1      17.725  16.250  19.385  1.00  0.00     0.053 C 
BRANCH  10  11
ATOM     11  C   UNL     1      17.356  16.696  20.766  1.00  0.00     0.041 C 
ATOM     12  O   UNL     1      16.630  17.712  20.932  1.00  0.00    -0.550 OA
ATOM     13  O   UNL     1      17.786  15.971  21.871  1.00  0.00    -0.550 OA
ENDBRANCH  10  11
ENDBRANCH   9  10
ENDBRANCH   8   9
ENDBRANCH   1   8
TORSDOF 8
ENDMDL
MODEL 8
REMARK VINA RESULT:    -3.472      2.767      4.579
REMARK INTER + INTRA:          -5.600
REMARK INTER:                  -4.897
REMARK INTRA:                  -0.703
REMARK UNBOUND:                -0.505
REMARK SMILES O=C([O-])CCCCCCCC(=O)[O-]
REMARK SMILES IDX 7 1 6 2 5 3 4 4 2 5 1 6 3 7 8 8 9 9 10 10 11 11 12 12 13 13
REMARK H PARENT
REMARK Flexibility Score: inf
ROOT
ATOM      1  C   UNL     1      19.103  16.163  18.302  1.00  0.00     0.000 C 
ENDROOT
BRANCH   1   2
ATOM      2  C   UNL     1      19.285  15.394  19.616  1.00  0.00     0.000 C 
BRANCH   2   3
ATOM      3  C   UNL     1      20.251  14.217  19.436  1.00  0.00     0.006 C 
BRANCH   3   4
ATOM      4  C   UNL     1      20.547  13.971  17.953  1.00  0.00     0.053 C 
BRANCH   4   5
ATOM      5  C   UNL     1      20.150  12.584  17.562  1.00  0.00     0.041 C 
ATOM      6  O   UNL     1      20.699  11.590  18.107  1.00  0.00    -0.550 OA
ATOM      7  O   UNL     1      19.139  12.387  16.630  1.00  0.00    -0.550 OA
ENDBRANCH   4   5
ENDBRANCH   3   4
ENDBRANCH   2   3
ENDBRANCH   1   2
BRANCH   1   8
ATOM      8  C   UNL     1      17.655  16.641  18.140  1.00  0.00     0.000 C 
BRANCH   8   9
ATOM      9  C   UNL     1      17.259  16.705  16.658  1.00  0.00     0.006 C 
BRANCH   9  10
ATOM     10  C   UNL     1      17.343  15.334  15.973  1.00  0.00     0.053 C 
BRANCH  10  11
ATOM     11  C   UNL     1      18.177  15.384  14.730  1.00  0.00     0.041 C 
ATOM     12  O   UNL     1      19.413  15.152  14.787  1.00  0.00    -0.550 OA
ATOM     13  O   UNL     1      17.583  15.655  13.503  1.00  0.00    -0.550 OA
ENDBRANCH  10  11
ENDBRANCH   9  10
ENDBRANCH   8   9
ENDBRANCH   1   8
TORSDOF 8
ENDMDL
MODEL 9
REMARK VINA RESULT:    -3.469      2.198      3.727
REMARK INTER + INTRA:          -5.596
REMARK INTER:                  -4.897
REMARK INTRA:                  -0.699
REMARK UNBOUND:                -0.505
REMARK SMILES O=C([O-])CCCCCCCC(=O)[O-]
REMARK SMILES IDX 7 1 6 2 5 3 4 4 2 5 1 6 3 7 8 8 9 9 10 10 11 11 12 12 13 13
REMARK H PARENT
REMARK Flexibility Score: inf
ROOT
ATOM      1  C   UNL     1      20.002  12.787  17.459  1.00  0.00     0.000 C 
ENDROOT
BRANCH   1   2
ATOM      2  C   UNL     1      20.819  13.767  18.309  1.00  0.00     0.000 C 
BRANCH   2   3
ATOM      3  C   UNL     1      19.958  14.385  19.417  1.00  0.00     0.006 C 
BRANCH   3   4
ATOM      4  C   UNL     1      19.356  15.719  18.966  1.00  0.00     0.053 C 
BRANCH   4   5
ATOM      5  C   UNL     1      18.243  16.127  19.878  1.00  0.00     0.041 C 
ATOM      6  O   UNL     1      17.356  16.927  19.477  1.00  0.00    -0.550 OA
ATOM      7  O   UNL     1      18.157  15.586  21.155  1.00  0.00    -0.550 OA
ENDBRANCH   4   5
ENDBRANCH   3   4
ENDBRANCH   2   3
ENDBRANCH   1   2
BRANCH   1   8
ATOM      8  C   UNL     1      19.770  13.341  16.049  1.00  0.00     0.000 C 
BRANCH   8   9
ATOM      9  C   UNL     1      18.317  13.804  15.872  1.00  0.00     0.006 C 
BRANCH   9  10
ATOM     10  C   UNL     1      18.221  15.169  15.177  1.00  0.00     0.053 C 
BRANCH  10  11
ATOM     11  C   UNL     1      17.314  16.105  15.915  1.00  0.00     0.041 C 
ATOM     12  O   UNL     1      16.313  15.660  16.535  1.00  0.00    -0.550 OA
ATOM     13  O   UNL     1      17.592  17.466  15.945  1.00  0.00    -0.550 OA
ENDBRANCH  10  11
ENDBRANCH   9  10
ENDBRANCH   8   9
ENDBRANCH   1   8
TORSDOF 8
ENDMDL
