MODEL 1
REMARK VINA RESULT:    -4.632      0.000      0.000
REMARK INTER + INTRA:          -4.632
REMARK INTER:                  -4.632
REMARK INTRA:                   0.000
REMARK UNBOUND:                 0.000
REMARK SMILES CC1=CC(=O)[C@@H]2C[C@H]1C2(C)C
REMARK SMILES IDX 1 1 2 2 3 3 4 4 5 5 6 6 7 7 8 8 9 9 10 10 11 11
REMARK H PARENT
REMARK Flexibility Score: inf
ROOT
ATOM      1  C   UNL     1      47.121  55.564  25.504  1.00  0.00     0.040 C 
ATOM      2  C   UNL     1      46.418  56.760  26.063  1.00  0.00    -0.066 C 
ATOM      3  C   UNL     1      46.087  57.821  25.273  1.00  0.00     0.047 C 
ATOM      4  C   UNL     1      45.358  58.945  25.945  1.00  0.00     0.159 C 
ATOM      5  O   UNL     1      44.965  59.961  25.314  1.00  0.00    -0.295 OA
ATOM      6  C   UNL     1      45.126  58.770  27.445  1.00  0.00     0.067 C 
ATOM      7  C   UNL     1      46.487  58.282  27.985  1.00  0.00     0.021 C 
ATOM      8  C   UNL     1      46.050  56.862  27.558  1.00  0.00     0.022 C 
ATOM      9  C   UNL     1      44.574  57.338  27.697  1.00  0.00    -0.019 C 
ATOM     10  C   UNL     1      44.031  57.160  29.138  1.00  0.00     0.012 C 
ATOM     11  C   UNL     1      43.521  56.766  26.705  1.00  0.00     0.012 C 
ENDROOT
TORSDOF 0
ENDMDL
MODEL 2
REMARK VINA RESULT:    -4.577      1.503      3.182
REMARK INTER + INTRA:          -4.577
REMARK INTER:                  -4.577
REMARK INTRA:                   0.000
REMARK UNBOUND:                 0.000
REMARK SMILES CC1=CC(=O)[C@@H]2C[C@H]1C2(C)C
REMARK SMILES IDX 1 1 2 2 3 3 4 4 5 5 6 6 7 7 8 8 9 9 10 10 11 11
REMARK H PARENT
REMARK Flexibility Score: inf
ROOT
ATOM      1  C   UNL     1      44.158  57.195  29.120  1.00  0.00     0.040 C 
ATOM      2  C   UNL     1      44.932  57.721  27.953  1.00  0.00    -0.066 C 
ATOM      3  C   UNL     1      46.248  58.059  28.070  1.00  0.00     0.047 C 
ATOM      4  C   UNL     1      46.920  58.543  26.821  1.00  0.00     0.159 C 
ATOM      5  O   UNL     1      48.141  58.848  26.791  1.00  0.00    -0.295 OA
ATOM      6  C   UNL     1      46.020  58.641  25.589  1.00  0.00     0.067 C 
ATOM      7  C   UNL     1      44.739  59.326  26.109  1.00  0.00     0.021 C 
ATOM      8  C   UNL     1      44.280  57.924  26.569  1.00  0.00     0.022 C 
ATOM      9  C   UNL     1      45.202  57.324  25.468  1.00  0.00    -0.019 C 
ATOM     10  C   UNL     1      44.483  57.199  24.101  1.00  0.00     0.012 C 
ATOM     11  C   UNL     1      45.921  55.976  25.766  1.00  0.00     0.012 C 
ENDROOT
TORSDOF 0
ENDMDL
MODEL 3
REMARK VINA RESULT:    -4.455      1.634      3.289
REMARK INTER + INTRA:          -4.455
REMARK INTER:                  -4.455
REMARK INTRA:                   0.000
REMARK UNBOUND:                 0.000
REMARK SMILES CC1=CC(=O)[C@@H]2C[C@H]1C2(C)C
REMARK SMILES IDX 1 1 2 2 3 3 4 4 5 5 6 6 7 7 8 8 9 9 10 10 11 11
REMARK H PARENT
REMARK Flexibility Score: inf
ROOT
ATOM      1  C   UNL     1      43.925  57.151  29.298  1.00  0.00     0.040 C 
ATOM      2  C   UNL     1      44.609  56.987  27.978  1.00  0.00    -0.066 C 
ATOM      3  C   UNL     1      43.988  56.379  26.928  1.00  0.00     0.047 C 
ATOM      4  C   UNL     1      44.768  56.305  25.650  1.00  0.00     0.159 C 
ATOM      5  O   UNL     1      44.288  55.802  24.600  1.00  0.00    -0.295 OA
ATOM      6  C   UNL     1      46.182  56.882  25.711  1.00  0.00     0.067 C 
ATOM      7  C   UNL     1      46.766  56.315  27.023  1.00  0.00     0.021 C 
ATOM      8  C   UNL     1      46.053  57.481  27.743  1.00  0.00     0.022 C 
ATOM      9  C   UNL     1      46.119  58.272  26.404  1.00  0.00    -0.019 C 
ATOM     10  C   UNL     1      47.441  59.067  26.254  1.00  0.00     0.012 C 
ATOM     11  C   UNL     1      44.938  59.222  26.053  1.00  0.00     0.012 C 
ENDROOT
TORSDOF 0
ENDMDL
MODEL 4
REMARK VINA RESULT:    -4.451      0.956      3.126
REMARK INTER + INTRA:          -4.451
REMARK INTER:                  -4.451
REMARK INTRA:                   0.000
REMARK UNBOUND:                 0.000
REMARK SMILES CC1=CC(=O)[C@@H]2C[C@H]1C2(C)C
REMARK SMILES IDX 1 1 2 2 3 3 4 4 5 5 6 6 7 7 8 8 9 9 10 10 11 11
REMARK H PARENT
REMARK Flexibility Score: inf
ROOT
ATOM      1  C   UNL     1      44.058  57.285  29.005  1.00  0.00     0.040 C 
ATOM      2  C   UNL     1      44.816  57.570  27.746  1.00  0.00    -0.066 C 
ATOM      3  C   UNL     1      44.561  58.684  27.003  1.00  0.00     0.047 C 
ATOM      4  C   UNL     1      45.409  58.873  25.782  1.00  0.00     0.159 C 
ATOM      5  O   UNL     1      45.296  59.881  25.036  1.00  0.00    -0.295 OA
ATOM      6  C   UNL     1      46.417  57.758  25.506  1.00  0.00     0.067 C 
ATOM      7  C   UNL     1      45.610  56.458  25.710  1.00  0.00     0.021 C 
ATOM      8  C   UNL     1      45.906  56.613  27.219  1.00  0.00     0.022 C 
ATOM      9  C   UNL     1      47.170  57.434  26.828  1.00  0.00    -0.019 C 
ATOM     10  C   UNL     1      48.409  56.531  26.595  1.00  0.00     0.012 C 
ATOM     11  C   UNL     1      47.593  58.615  27.747  1.00  0.00     0.012 C 
ENDROOT
TORSDOF 0
ENDMDL
MODEL 5
REMARK VINA RESULT:    -4.379      1.923      3.157
REMARK INTER + INTRA:          -4.379
REMARK INTER:                  -4.379
REMARK INTRA:                   0.000
REMARK UNBOUND:                 0.000
REMARK SMILES CC1=CC(=O)[C@@H]2C[C@H]1C2(C)C
REMARK SMILES IDX 1 1 2 2 3 3 4 4 5 5 6 6 7 7 8 8 9 9 10 10 11 11
REMARK H PARENT
REMARK Flexibility Score: inf
ROOT
ATOM      1  C   UNL     1      44.624  59.781  25.974  1.00  0.00     0.040 C 
ATOM      2  C   UNL     1      44.881  58.350  26.329  1.00  0.00    -0.066 C 
ATOM      3  C   UNL     1      46.143  57.897  26.576  1.00  0.00     0.047 C 
ATOM      4  C   UNL     1      46.265  56.452  26.952  1.00  0.00     0.159 C 
ATOM      5  O   UNL     1      47.372  55.925  27.242  1.00  0.00    -0.295 OA
ATOM      6  C   UNL     1      44.955  55.664  26.960  1.00  0.00     0.067 C 
ATOM      7  C   UNL     1      44.256  56.079  25.649  1.00  0.00     0.021 C 
ATOM      8  C   UNL     1      43.739  57.316  26.416  1.00  0.00     0.022 C 
ATOM      9  C   UNL     1      43.886  56.491  27.728  1.00  0.00    -0.019 C 
ATOM     10  C   UNL     1      42.616  55.662  28.048  1.00  0.00     0.012 C 
ATOM     11  C   UNL     1      44.317  57.240  29.022  1.00  0.00     0.012 C 
ENDROOT
TORSDOF 0
ENDMDL
MODEL 6
REMARK VINA RESULT:    -4.236      1.932      3.196
REMARK INTER + INTRA:          -4.236
REMARK INTER:                  -4.236
REMARK INTRA:                   0.000
REMARK UNBOUND:                 0.000
REMARK SMILES CC1=CC(=O)[C@@H]2C[C@H]1C2(C)C
REMARK SMILES IDX 1 1 2 2 3 3 4 4 5 5 6 6 7 7 8 8 9 9 10 10 11 11
REMARK H PARENT
REMARK Flexibility Score: inf
ROOT
ATOM      1  C   UNL     1      43.786  55.934  24.872  1.00  0.00     0.040 C 
ATOM      2  C   UNL     1      44.261  56.761  26.024  1.00  0.00    -0.066 C 
ATOM      3  C   UNL     1      43.862  56.495  27.300  1.00  0.00     0.047 C 
ATOM      4  C   UNL     1      44.432  57.376  28.370  1.00  0.00     0.159 C 
ATOM      5  O   UNL     1      44.170  57.206  29.589  1.00  0.00    -0.295 OA
ATOM      6  C   UNL     1      45.354  58.492  27.877  1.00  0.00     0.067 C 
ATOM      7  C   UNL     1      44.601  59.101  26.675  1.00  0.00     0.021 C 
ATOM      8  C   UNL     1      45.210  57.962  25.826  1.00  0.00     0.022 C 
ATOM      9  C   UNL     1      46.367  57.885  26.865  1.00  0.00    -0.019 C 
ATOM     10  C   UNL     1      47.524  58.862  26.532  1.00  0.00     0.012 C 
ATOM     11  C   UNL     1      46.982  56.491  27.179  1.00  0.00     0.012 C 
ENDROOT
TORSDOF 0
ENDMDL
MODEL 7
REMARK VINA RESULT:    -4.159      2.569      4.155
REMARK INTER + INTRA:          -4.159
REMARK INTER:                  -4.159
REMARK INTRA:                   0.000
REMARK UNBOUND:                 0.000
REMARK SMILES CC1=CC(=O)[C@@H]2C[C@H]1C2(C)C
REMARK SMILES IDX 1 1 2 2 3 3 4 4 5 5 6 6 7 7 8 8 9 9 10 10 11 11
REMARK H PARENT
REMARK Flexibility Score: inf
ROOT
ATOM      1  C   UNL     1      44.318  57.292  29.013  1.00  0.00     0.040 C 
ATOM      2  C   UNL     1      43.482  56.697  27.925  1.00  0.00    -0.066 C 
ATOM      3  C   UNL     1      43.575  57.137  26.638  1.00  0.00     0.047 C 
ATOM      4  C   UNL     1      42.708  56.439  25.635  1.00  0.00     0.159 C 
ATOM      5  O   UNL     1      42.733  56.729  24.410  1.00  0.00    -0.295 OA
ATOM      6  C   UNL     1      41.796  55.352  26.202  1.00  0.00     0.067 C 
ATOM      7  C   UNL     1      41.179  55.995  27.462  1.00  0.00     0.021 C 
ATOM      8  C   UNL     1      42.465  55.570  28.204  1.00  0.00     0.022 C 
ATOM      9  C   UNL     1      42.636  54.443  27.144  1.00  0.00    -0.019 C 
ATOM     10  C   UNL     1      41.884  53.146  27.537  1.00  0.00     0.012 C 
ATOM     11  C   UNL     1      44.078  54.057  26.707  1.00  0.00     0.012 C 
ENDROOT
TORSDOF 0
ENDMDL
MODEL 8
REMARK VINA RESULT:    -3.994      1.628      2.126
REMARK INTER + INTRA:          -3.994
REMARK INTER:                  -3.994
REMARK INTRA:                   0.000
REMARK UNBOUND:                 0.000
REMARK SMILES CC1=CC(=O)[C@@H]2C[C@H]1C2(C)C
REMARK SMILES IDX 1 1 2 2 3 3 4 4 5 5 6 6 7 7 8 8 9 9 10 10 11 11
REMARK H PARENT
REMARK Flexibility Score: inf
ROOT
ATOM      1  C   UNL     1      45.080  56.535  23.710  1.00  0.00     0.040 C 
ATOM      2  C   UNL     1      45.768  56.946  24.973  1.00  0.00    -0.066 C 
ATOM      3  C   UNL     1      46.853  57.771  24.954  1.00  0.00     0.047 C 
ATOM      4  C   UNL     1      47.433  58.134  26.287  1.00  0.00     0.159 C 
ATOM      5  O   UNL     1      48.411  58.918  26.402  1.00  0.00    -0.295 OA
ATOM      6  C   UNL     1      46.755  57.486  27.494  1.00  0.00     0.067 C 
ATOM      7  C   UNL     1      46.586  56.008  27.086  1.00  0.00     0.021 C 
ATOM      8  C   UNL     1      45.297  56.446  26.355  1.00  0.00     0.022 C 
ATOM      9  C   UNL     1      45.215  57.647  27.342  1.00  0.00    -0.019 C 
ATOM     10  C   UNL     1      44.453  57.290  28.643  1.00  0.00     0.012 C 
ATOM     11  C   UNL     1      44.662  59.000  26.808  1.00  0.00     0.012 C 
ENDROOT
TORSDOF 0
ENDMDL
MODEL 9
REMARK VINA RESULT:    -3.974      2.037      2.754
REMARK INTER + INTRA:          -3.974
REMARK INTER:                  -3.974
REMARK INTRA:                   0.000
REMARK UNBOUND:                 0.000
REMARK SMILES CC1=CC(=O)[C@@H]2C[C@H]1C2(C)C
REMARK SMILES IDX 1 1 2 2 3 3 4 4 5 5 6 6 7 7 8 8 9 9 10 10 11 11
REMARK H PARENT
REMARK Flexibility Score: inf
ROOT
ATOM      1  C   UNL     1      45.279  53.555  26.389  1.00  0.00     0.040 C 
ATOM      2  C   UNL     1      44.667  54.911  26.235  1.00  0.00    -0.066 C 
ATOM      3  C   UNL     1      43.445  55.075  25.653  1.00  0.00     0.047 C 
ATOM      4  C   UNL     1      42.927  56.479  25.586  1.00  0.00     0.159 C 
ATOM      5  O   UNL     1      41.795  56.755  25.107  1.00  0.00    -0.295 OA
ATOM      6  C   UNL     1      43.866  57.551  26.139  1.00  0.00     0.067 C 
ATOM      7  C   UNL     1      45.243  57.192  25.543  1.00  0.00     0.021 C 
ATOM      8  C   UNL     1      45.391  56.189  26.710  1.00  0.00     0.022 C 
ATOM      9  C   UNL     1      44.400  57.075  27.520  1.00  0.00    -0.019 C 
ATOM     10  C   UNL     1      45.122  58.206  28.296  1.00  0.00     0.012 C 
ATOM     11  C   UNL     1      43.412  56.370  28.494  1.00  0.00     0.012 C 
ENDROOT
TORSDOF 0
ENDMDL
