MODEL 1
REMARK VINA RESULT:    -4.696      0.000      0.000
REMARK INTER + INTRA:          -5.660
REMARK INTER:                  -5.657
REMARK INTRA:                  -0.003
REMARK UNBOUND:                -0.003
REMARK SMILES OCC(O)CO
REMARK SMILES IDX 3 1 5 2 6 3 2 5 1 6 4 8
REMARK H PARENT 6 4 1 7 4 9
REMARK Flexibility Score: inf
ROOT
ATOM      1  C   UNL     1     -17.048  35.656  14.070  1.00  0.00     0.165 C 
ENDROOT
BRANCH   1   2
ATOM      2  C   UNL     1     -16.893  37.160  13.794  1.00  0.00     0.190 C 
BRANCH   2   3
ATOM      3  O   UNL     1     -16.536  37.381  12.455  1.00  0.00    -0.394 OA
ATOM      4  H   UNL     1     -17.377  37.355  11.929  1.00  0.00     0.210 HD
ENDBRANCH   2   3
ENDBRANCH   1   2
BRANCH   1   5
ATOM      5  C   UNL     1     -16.692  35.341  15.529  1.00  0.00     0.190 C 
BRANCH   5   6
ATOM      6  O   UNL     1     -16.584  33.956  15.718  1.00  0.00    -0.394 OA
ATOM      7  H   UNL     1     -16.357  33.815  16.674  1.00  0.00     0.210 HD
ENDBRANCH   5   6
ENDBRANCH   1   5
BRANCH   1   8
ATOM      8  O   UNL     1     -18.373  35.259  13.824  1.00  0.00    -0.388 OA
ATOM      9  H   UNL     1     -18.637  35.660  12.954  1.00  0.00     0.211 HD
ENDBRANCH   1   8
TORSDOF 5
ENDMDL
MODEL 2
REMARK VINA RESULT:    -4.430      0.567      3.069
REMARK INTER + INTRA:          -5.339
REMARK INTER:                  -5.336
REMARK INTRA:                  -0.002
REMARK UNBOUND:                -0.003
REMARK SMILES OCC(O)CO
REMARK SMILES IDX 3 1 5 2 6 3 2 5 1 6 4 8
REMARK H PARENT 6 4 1 7 4 9
REMARK Flexibility Score: inf
ROOT
ATOM      1  C   UNL     1     -17.422  35.783  14.501  1.00  0.00     0.165 C 
ENDROOT
BRANCH   1   2
ATOM      2  C   UNL     1     -16.580  35.333  15.705  1.00  0.00     0.190 C 
BRANCH   2   3
ATOM      3  O   UNL     1     -16.450  33.936  15.721  1.00  0.00    -0.394 OA
ATOM      4  H   UNL     1     -15.517  33.735  15.450  1.00  0.00     0.210 HD
ENDBRANCH   2   3
ENDBRANCH   1   2
BRANCH   1   5
ATOM      5  C   UNL     1     -16.901  37.118  13.953  1.00  0.00     0.190 C 
BRANCH   5   6
ATOM      6  O   UNL     1     -16.730  37.044  12.563  1.00  0.00    -0.394 OA
ATOM      7  H   UNL     1     -16.547  37.968  12.249  1.00  0.00     0.210 HD
ENDBRANCH   5   6
ENDBRANCH   1   5
BRANCH   1   8
ATOM      8  O   UNL     1     -17.361  34.814  13.486  1.00  0.00    -0.388 OA
ATOM      9  H   UNL     1     -17.853  35.183  12.705  1.00  0.00     0.211 HD
ENDBRANCH   1   8
TORSDOF 5
ENDMDL
MODEL 3
REMARK VINA RESULT:    -4.278      8.504      9.383
REMARK INTER + INTRA:          -5.156
REMARK INTER:                  -4.933
REMARK INTRA:                  -0.224
REMARK UNBOUND:                -0.003
REMARK SMILES OCC(O)CO
REMARK SMILES IDX 3 1 5 2 6 3 2 5 1 6 4 8
REMARK H PARENT 6 4 1 7 4 9
REMARK Flexibility Score: inf
ROOT
ATOM      1  C   UNL     1     -25.954  33.386  13.202  1.00  0.00     0.165 C 
ENDROOT
BRANCH   1   2
ATOM      2  C   UNL     1     -26.814  33.099  14.443  1.00  0.00     0.190 C 
BRANCH   2   3
ATOM      3  O   UNL     1     -27.370  34.286  14.944  1.00  0.00    -0.394 OA
ATOM      4  H   UNL     1     -27.292  34.241  15.932  1.00  0.00     0.210 HD
ENDBRANCH   2   3
ENDBRANCH   1   2
BRANCH   1   5
ATOM      5  C   UNL     1     -24.696  34.173  13.593  1.00  0.00     0.190 C 
BRANCH   5   6
ATOM      6  O   UNL     1     -24.459  34.066  14.970  1.00  0.00    -0.394 OA
ATOM      7  H   UNL     1     -24.082  33.160  15.125  1.00  0.00     0.210 HD
ENDBRANCH   5   6
ENDBRANCH   1   5
BRANCH   1   8
ATOM      8  O   UNL     1     -25.571  32.179  12.595  1.00  0.00    -0.388 OA
ATOM      9  H   UNL     1     -24.861  32.399  11.937  1.00  0.00     0.211 HD
ENDBRANCH   1   8
TORSDOF 5
ENDMDL
MODEL 4
REMARK VINA RESULT:    -4.075      1.213      1.589
REMARK INTER + INTRA:          -4.912
REMARK INTER:                  -4.896
REMARK INTRA:                  -0.015
REMARK UNBOUND:                -0.003
REMARK SMILES OCC(O)CO
REMARK SMILES IDX 3 1 5 2 6 3 2 5 1 6 4 8
REMARK H PARENT 6 4 1 7 4 9
REMARK Flexibility Score: inf
ROOT
ATOM      1  C   UNL     1     -17.202  36.509  14.838  1.00  0.00     0.165 C 
ENDROOT
BRANCH   1   2
ATOM      2  C   UNL     1     -16.757  37.596  13.846  1.00  0.00     0.190 C 
BRANCH   2   3
ATOM      3  O   UNL     1     -16.623  37.061  12.556  1.00  0.00    -0.394 OA
ATOM      4  H   UNL     1     -17.080  37.689  11.939  1.00  0.00     0.210 HD
ENDBRANCH   2   3
ENDBRANCH   1   2
BRANCH   1   5
ATOM      5  C   UNL     1     -17.468  35.189  14.103  1.00  0.00     0.190 C 
BRANCH   5   6
ATOM      6  O   UNL     1     -17.295  34.102  14.970  1.00  0.00    -0.394 OA
ATOM      7  H   UNL     1     -18.013  34.166  15.654  1.00  0.00     0.210 HD
ENDBRANCH   5   6
ENDBRANCH   1   5
BRANCH   1   8
ATOM      8  O   UNL     1     -16.202  36.305  15.803  1.00  0.00    -0.388 OA
ATOM      9  H   UNL     1     -15.576  37.073  15.737  1.00  0.00     0.211 HD
ENDBRANCH   1   8
TORSDOF 5
ENDMDL
MODEL 5
REMARK VINA RESULT:    -4.015      8.543      9.463
REMARK INTER + INTRA:          -4.839
REMARK INTER:                  -4.827
REMARK INTRA:                  -0.012
REMARK UNBOUND:                -0.003
REMARK SMILES OCC(O)CO
REMARK SMILES IDX 3 1 5 2 6 3 2 5 1 6 4 8
REMARK H PARENT 6 4 1 7 4 9
REMARK Flexibility Score: inf
ROOT
ATOM      1  C   UNL     1     -25.470  34.116  14.075  1.00  0.00     0.165 C 
ENDROOT
BRANCH   1   2
ATOM      2  C   UNL     1     -25.192  33.449  12.719  1.00  0.00     0.190 C 
BRANCH   2   3
ATOM      3  O   UNL     1     -25.711  32.146  12.695  1.00  0.00    -0.394 OA
ATOM      4  H   UNL     1     -25.796  31.892  11.739  1.00  0.00     0.210 HD
ENDBRANCH   2   3
ENDBRANCH   1   2
BRANCH   1   5
ATOM      5  C   UNL     1     -26.803  33.623  14.652  1.00  0.00     0.190 C 
BRANCH   5   6
ATOM      6  O   UNL     1     -27.599  34.708  15.045  1.00  0.00    -0.394 OA
ATOM      7  H   UNL     1     -28.500  34.343  15.245  1.00  0.00     0.210 HD
ENDBRANCH   5   6
ENDBRANCH   1   5
BRANCH   1   8
ATOM      8  O   UNL     1     -24.438  33.812  14.978  1.00  0.00    -0.388 OA
ATOM      9  H   UNL     1     -23.592  33.801  14.456  1.00  0.00     0.211 HD
ENDBRANCH   1   8
TORSDOF 5
ENDMDL
MODEL 6
REMARK VINA RESULT:    -3.952      8.441      9.280
REMARK INTER + INTRA:          -4.764
REMARK INTER:                  -4.540
REMARK INTRA:                  -0.224
REMARK UNBOUND:                -0.003
REMARK SMILES OCC(O)CO
REMARK SMILES IDX 3 1 5 2 6 3 2 5 1 6 4 8
REMARK H PARENT 6 4 1 7 4 9
REMARK Flexibility Score: inf
ROOT
ATOM      1  C   UNL     1     -25.578  32.930  13.774  1.00  0.00     0.165 C 
ENDROOT
BRANCH   1   2
ATOM      2  C   UNL     1     -24.787  34.221  14.036  1.00  0.00     0.190 C 
BRANCH   2   3
ATOM      3  O   UNL     1     -24.270  34.226  15.340  1.00  0.00    -0.394 OA
ATOM      4  H   UNL     1     -24.136  35.177  15.588  1.00  0.00     0.210 HD
ENDBRANCH   2   3
ENDBRANCH   1   2
BRANCH   1   5
ATOM      5  C   UNL     1     -27.005  33.056  14.322  1.00  0.00     0.190 C 
BRANCH   5   6
ATOM      6  O   UNL     1     -27.174  34.287  14.971  1.00  0.00    -0.394 OA
ATOM      7  H   UNL     1     -26.861  34.163  15.905  1.00  0.00     0.210 HD
ENDBRANCH   5   6
ENDBRANCH   1   5
BRANCH   1   8
ATOM      8  O   UNL     1     -25.636  32.677  12.393  1.00  0.00    -0.388 OA
ATOM      9  H   UNL     1     -25.786  31.701  12.285  1.00  0.00     0.211 HD
ENDBRANCH   1   8
TORSDOF 5
ENDMDL
MODEL 7
REMARK VINA RESULT:    -3.950      8.458      9.289
REMARK INTER + INTRA:          -4.761
REMARK INTER:                  -4.744
REMARK INTRA:                  -0.017
REMARK UNBOUND:                -0.003
REMARK SMILES OCC(O)CO
REMARK SMILES IDX 3 1 5 2 6 3 2 5 1 6 4 8
REMARK H PARENT 6 4 1 7 4 9
REMARK Flexibility Score: inf
ROOT
ATOM      1  C   UNL     1     -26.244  33.792  13.879  1.00  0.00     0.165 C 
ENDROOT
BRANCH   1   2
ATOM      2  C   UNL     1     -24.815  34.332  14.043  1.00  0.00     0.190 C 
BRANCH   2   3
ATOM      3  O   UNL     1     -24.337  34.078  15.337  1.00  0.00    -0.394 OA
ATOM      4  H   UNL     1     -24.332  33.093  15.450  1.00  0.00     0.210 HD
ENDBRANCH   2   3
ENDBRANCH   1   2
BRANCH   1   5
ATOM      5  C   UNL     1     -26.225  32.267  13.711  1.00  0.00     0.190 C 
BRANCH   5   6
ATOM      6  O   UNL     1     -25.695  31.919  12.460  1.00  0.00    -0.394 OA
ATOM      7  H   UNL     1     -25.927  32.657  11.837  1.00  0.00     0.210 HD
ENDBRANCH   5   6
ENDBRANCH   1   5
BRANCH   1   8
ATOM      8  O   UNL     1     -27.012  34.120  15.008  1.00  0.00    -0.388 OA
ATOM      9  H   UNL     1     -27.962  33.961  14.768  1.00  0.00     0.211 HD
ENDBRANCH   1   8
TORSDOF 5
ENDMDL
MODEL 8
REMARK VINA RESULT:    -3.697      1.366      2.166
REMARK INTER + INTRA:          -4.456
REMARK INTER:                  -4.232
REMARK INTRA:                  -0.224
REMARK UNBOUND:                -0.003
REMARK SMILES OCC(O)CO
REMARK SMILES IDX 3 1 5 2 6 3 2 5 1 6 4 8
REMARK H PARENT 6 4 1 7 4 9
REMARK Flexibility Score: inf
ROOT
ATOM      1  C   UNL     1     -16.690  36.186  13.875  1.00  0.00     0.165 C 
ENDROOT
BRANCH   1   2
ATOM      2  C   UNL     1     -16.552  37.120  15.087  1.00  0.00     0.190 C 
BRANCH   2   3
ATOM      3  O   UNL     1     -16.207  36.392  16.235  1.00  0.00    -0.394 OA
ATOM      4  H   UNL     1     -15.217  36.411  16.296  1.00  0.00     0.210 HD
ENDBRANCH   2   3
ENDBRANCH   1   2
BRANCH   1   5
ATOM      5  C   UNL     1     -17.808  35.162  14.111  1.00  0.00     0.190 C 
BRANCH   5   6
ATOM      6  O   UNL     1     -17.325  34.070  14.846  1.00  0.00    -0.394 OA
ATOM      7  H   UNL     1     -16.738  34.442  15.556  1.00  0.00     0.210 HD
ENDBRANCH   5   6
ENDBRANCH   1   5
BRANCH   1   8
ATOM      8  O   UNL     1     -16.988  36.935  12.724  1.00  0.00    -0.388 OA
ATOM      9  H   UNL     1     -16.449  36.552  11.983  1.00  0.00     0.211 HD
ENDBRANCH   1   8
TORSDOF 5
ENDMDL
MODEL 9
REMARK VINA RESULT:    -3.611     11.151     11.753
REMARK INTER + INTRA:          -4.352
REMARK INTER:                  -4.147
REMARK INTRA:                  -0.205
REMARK UNBOUND:                -0.003
REMARK SMILES OCC(O)CO
REMARK SMILES IDX 3 1 5 2 6 3 2 5 1 6 4 8
REMARK H PARENT 6 4 1 7 4 9
REMARK Flexibility Score: inf
ROOT
ATOM      1  C   UNL     1     -12.253  25.262  15.845  1.00  0.00     0.165 C 
ENDROOT
BRANCH   1   2
ATOM      2  C   UNL     1     -12.335  24.449  14.543  1.00  0.00     0.190 C 
BRANCH   2   3
ATOM      3  O   UNL     1     -11.325  24.842  13.652  1.00  0.00    -0.394 OA
ATOM      4  H   UNL     1     -11.736  24.866  12.750  1.00  0.00     0.210 HD
ENDBRANCH   2   3
ENDBRANCH   1   2
BRANCH   1   5
ATOM      5  C   UNL     1     -10.807  25.698  16.114  1.00  0.00     0.190 C 
BRANCH   5   6
ATOM      6  O   UNL     1     -10.499  26.854  15.382  1.00  0.00    -0.394 OA
ATOM      7  H   UNL     1     -10.975  26.776  14.514  1.00  0.00     0.210 HD
ENDBRANCH   5   6
ENDBRANCH   1   5
BRANCH   1   8
ATOM      8  O   UNL     1     -13.067  26.402  15.749  1.00  0.00    -0.388 OA
ATOM      9  H   UNL     1     -13.742  26.337  16.475  1.00  0.00     0.211 HD
ENDBRANCH   1   8
TORSDOF 5
ENDMDL
