MODEL 1
REMARK VINA RESULT:     7.699      0.000      0.000
REMARK INTER + INTRA:          12.228
REMARK INTER:                  11.300
REMARK INTRA:                   0.928
REMARK UNBOUND:                 0.928
REMARK SMILES C=C1C=C[C@H](C(C)C)CCC(C)=CCC1
REMARK SMILES IDX 3 1 4 2 5 3 9 4 10 5 11 6 12 7 13 8 6 10 7 11 8 12 2 13 1 14
REMARK SMILES IDX 15 15 14 16
REMARK H PARENT
REMARK Flexibility Score: 70.00
ROOT
ATOM      1  C   UNL     1       1.324   5.822 -10.402  1.00  0.00    -0.001 C 
ATOM      2  C   UNL     1       0.304   6.208 -11.181  1.00  0.00    -0.023 C 
ENDROOT
BRANCH   2   3
ATOM      3  C   UNL     1      -1.094   5.621 -11.165  1.00  0.00     0.014 C 
BRANCH   3   4
ATOM      4  C   UNL     1      -1.940   6.374 -10.107  1.00  0.00     0.012 C 
BRANCH   4   5
ATOM      5  C   UNL     1      -1.593   6.004  -8.653  1.00  0.00     0.031 C 
BRANCH   5   6
ATOM      6  C   UNL     1      -1.206   7.219  -7.826  1.00  0.00    -0.077 C 
ATOM      7  C   UNL     1      -2.272   8.244  -7.534  1.00  0.00     0.039 C 
ATOM      8  C   UNL     1       0.031   7.434  -7.317  1.00  0.00    -0.028 CG0
ATOM      9  G   UNL     1       1.219   6.508  -7.418  1.00  0.00     0.000 G0
ENDBRANCH   5   6
ENDBRANCH   4   5
ENDBRANCH   3   4
BRANCH   3  10
ATOM     10  C   UNL     1      -1.719   5.714 -12.593  1.00  0.00    -0.010 C 
ATOM     11  C   UNL     1      -0.720   5.253 -13.671  1.00  0.00     0.008 C 
ATOM     12  C   UNL     1      -3.008   4.880 -12.725  1.00  0.00     0.008 C 
ENDBRANCH   3  10
ENDBRANCH   2   3
BRANCH   1  13
ATOM     13  C   UNL     1       1.253   4.802  -9.329  1.00  0.00    -0.055 C 
ATOM     14  C   UNL     1       1.605   3.551  -9.636  1.00  0.00     0.012 C 
BRANCH  13  15
ATOM     15  C   UNL     1       0.828   5.117  -7.905  1.00  0.00     0.039 C 
BRANCH  15  16
ATOM     16  C   UNL     1       1.229   6.521  -7.398  1.00  0.00     0.032 CG0
ATOM     17  G   UNL     1       0.028   7.433  -7.314  1.00  0.00     0.000 G0
ENDBRANCH  15  16
ENDBRANCH  13  15
ENDBRANCH   1  13
TORSDOF 1
ENDMDL
