MODEL 1
REMARK VINA RESULT:    -3.128      0.000      0.000
REMARK INTER + INTRA:          -4.476
REMARK INTER:                  -4.225
REMARK INTRA:                  -0.252
REMARK UNBOUND:                -0.252
REMARK SMILES CCCCCCCC(=O)[O-]
REMARK SMILES IDX 5 1 6 2 7 3 8 4 9 5 10 6 4 7 3 8 2 9 1 10
REMARK H PARENT
REMARK Flexibility Score: inf
ROOT
ATOM      1  C   UNL     1       5.227  -0.597  -5.327  1.00  0.00     0.000 C 
ENDROOT
BRANCH   1   2
ATOM      2  C   UNL     1       5.436  -0.993  -3.853  1.00  0.00     0.006 C 
BRANCH   2   3
ATOM      3  C   UNL     1       4.140  -1.322  -3.095  1.00  0.00     0.053 C 
BRANCH   3   4
ATOM      4  C   UNL     1       3.362  -2.418  -3.757  1.00  0.00     0.041 C 
ATOM      5  O   UNL     1       2.131  -2.276  -3.980  1.00  0.00    -0.550 OA
ATOM      6  O   UNL     1       3.990  -3.609  -4.096  1.00  0.00    -0.550 OA
ENDBRANCH   3   4
ENDBRANCH   2   3
ENDBRANCH   1   2
BRANCH   1   7
ATOM      7  C   UNL     1       5.829   0.778  -5.664  1.00  0.00     0.000 C 
BRANCH   7   8
ATOM      8  C   UNL     1       6.395   1.503  -4.429  1.00  0.00    -0.000 C 
BRANCH   8   9
ATOM      9  C   UNL     1       7.081   2.849  -4.721  1.00  0.00    -0.003 C 
ATOM     10  C   UNL     1       6.681   3.951  -3.740  1.00  0.00     0.004 C 
ENDBRANCH   8   9
ENDBRANCH   7   8
ENDBRANCH   1   7
TORSDOF 6
ENDMDL
MODEL 2
REMARK VINA RESULT:    -3.090      6.397      7.136
REMARK INTER + INTRA:          -4.426
REMARK INTER:                  -4.246
REMARK INTRA:                  -0.180
REMARK UNBOUND:                -0.252
REMARK SMILES CCCCCCCC(=O)[O-]
REMARK SMILES IDX 5 1 6 2 7 3 8 4 9 5 10 6 4 7 3 8 2 9 1 10
REMARK H PARENT
REMARK Flexibility Score: inf
ROOT
ATOM      1  C   UNL     1      -0.702   0.566  -9.506  1.00  0.00     0.000 C 
ENDROOT
BRANCH   1   2
ATOM      2  C   UNL     1      -2.045   0.197  -8.848  1.00  0.00     0.006 C 
BRANCH   2   3
ATOM      3  C   UNL     1      -2.072  -1.197  -8.199  1.00  0.00     0.053 C 
BRANCH   3   4
ATOM      4  C   UNL     1      -1.874  -1.131  -6.716  1.00  0.00     0.041 C 
ATOM      5  O   UNL     1      -0.818  -0.640  -6.238  1.00  0.00    -0.550 OA
ATOM      6  O   UNL     1      -2.842  -1.645  -5.862  1.00  0.00    -0.550 OA
ENDBRANCH   3   4
ENDBRANCH   2   3
ENDBRANCH   1   2
BRANCH   1   7
ATOM      7  C   UNL     1       0.022   1.711  -8.778  1.00  0.00     0.000 C 
BRANCH   7   8
ATOM      8  C   UNL     1       1.309   2.158  -9.495  1.00  0.00    -0.000 C 
BRANCH   8   9
ATOM      9  C   UNL     1       1.455   3.678  -9.684  1.00  0.00    -0.003 C 
ATOM     10  C   UNL     1       2.879   4.178  -9.444  1.00  0.00     0.004 C 
ENDBRANCH   8   9
ENDBRANCH   7   8
ENDBRANCH   1   7
TORSDOF 6
ENDMDL
MODEL 3
REMARK VINA RESULT:    -3.038      1.052      1.602
REMARK INTER + INTRA:          -4.356
REMARK INTER:                  -4.245
REMARK INTRA:                  -0.111
REMARK UNBOUND:                -0.252
REMARK SMILES CCCCCCCC(=O)[O-]
REMARK SMILES IDX 5 1 6 2 7 3 8 4 9 5 10 6 4 7 3 8 2 9 1 10
REMARK H PARENT
REMARK Flexibility Score: inf
ROOT
ATOM      1  C   UNL     1       5.874   0.570  -4.936  1.00  0.00     0.000 C 
ENDROOT
BRANCH   1   2
ATOM      2  C   UNL     1       5.329  -0.387  -3.860  1.00  0.00     0.006 C 
BRANCH   2   3
ATOM      3  C   UNL     1       4.455  -1.527  -4.408  1.00  0.00     0.053 C 
BRANCH   3   4
ATOM      4  C   UNL     1       3.343  -1.884  -3.471  1.00  0.00     0.041 C 
ATOM      5  O   UNL     1       3.507  -1.789  -2.226  1.00  0.00    -0.550 OA
ATOM      6  O   UNL     1       2.136  -2.355  -3.972  1.00  0.00    -0.550 OA
ENDBRANCH   3   4
ENDBRANCH   2   3
ENDBRANCH   1   2
BRANCH   1   7
ATOM      7  C   UNL     1       6.966   1.511  -4.398  1.00  0.00     0.000 C 
BRANCH   7   8
ATOM      8  C   UNL     1       6.780   2.969  -4.856  1.00  0.00    -0.000 C 
BRANCH   8   9
ATOM      9  C   UNL     1       6.733   4.007  -3.721  1.00  0.00    -0.003 C 
ATOM     10  C   UNL     1       7.045   5.427  -4.195  1.00  0.00     0.004 C 
ENDBRANCH   8   9
ENDBRANCH   7   8
ENDBRANCH   1   7
TORSDOF 6
ENDMDL
MODEL 4
REMARK VINA RESULT:    -3.004      1.742      2.703
REMARK INTER + INTRA:          -4.310
REMARK INTER:                  -3.799
REMARK INTRA:                  -0.511
REMARK UNBOUND:                -0.252
REMARK SMILES CCCCCCCC(=O)[O-]
REMARK SMILES IDX 5 1 6 2 7 3 8 4 9 5 10 6 4 7 3 8 2 9 1 10
REMARK H PARENT
REMARK Flexibility Score: inf
ROOT
ATOM      1  C   UNL     1       6.699  -0.813  -4.224  1.00  0.00     0.000 C 
ENDROOT
BRANCH   1   2
ATOM      2  C   UNL     1       5.889  -1.907  -3.503  1.00  0.00     0.006 C 
BRANCH   2   3
ATOM      3  C   UNL     1       4.612  -2.340  -4.241  1.00  0.00     0.053 C 
BRANCH   3   4
ATOM      4  C   UNL     1       3.377  -2.062  -3.441  1.00  0.00     0.041 C 
ATOM      5  O   UNL     1       3.469  -1.630  -2.263  1.00  0.00    -0.550 OA
ATOM      6  O   UNL     1       2.124  -2.312  -3.987  1.00  0.00    -0.550 OA
ENDBRANCH   3   4
ENDBRANCH   2   3
ENDBRANCH   1   2
BRANCH   1   7
ATOM      7  C   UNL     1       5.915   0.500  -4.384  1.00  0.00     0.000 C 
BRANCH   7   8
ATOM      8  C   UNL     1       5.959   1.053  -5.820  1.00  0.00    -0.000 C 
BRANCH   8   9
ATOM      9  C   UNL     1       6.099  -0.010  -6.923  1.00  0.00    -0.003 C 
ATOM     10  C   UNL     1       4.754  -0.477  -7.479  1.00  0.00     0.004 C 
ENDBRANCH   8   9
ENDBRANCH   7   8
ENDBRANCH   1   7
TORSDOF 6
ENDMDL
MODEL 5
REMARK VINA RESULT:    -2.876     10.047     11.338
REMARK INTER + INTRA:          -4.137
REMARK INTER:                  -3.720
REMARK INTRA:                  -0.417
REMARK UNBOUND:                -0.252
REMARK SMILES CCCCCCCC(=O)[O-]
REMARK SMILES IDX 5 1 6 2 7 3 8 4 9 5 10 6 4 7 3 8 2 9 1 10
REMARK H PARENT
REMARK Flexibility Score: inf
ROOT
ATOM      1  C   UNL     1      -4.565  -2.703  -3.943  1.00  0.00     0.000 C 
ENDROOT
BRANCH   1   2
ATOM      2  C   UNL     1      -4.524  -3.340  -2.541  1.00  0.00     0.006 C 
BRANCH   2   3
ATOM      3  C   UNL     1      -4.634  -4.873  -2.536  1.00  0.00     0.053 C 
BRANCH   3   4
ATOM      4  C   UNL     1      -3.369  -5.527  -2.070  1.00  0.00     0.041 C 
ATOM      5  O   UNL     1      -2.267  -5.225  -2.599  1.00  0.00    -0.550 OA
ATOM      6  O   UNL     1      -3.413  -6.494  -1.075  1.00  0.00    -0.550 OA
ENDBRANCH   3   4
ENDBRANCH   2   3
ENDBRANCH   1   2
BRANCH   1   7
ATOM      7  C   UNL     1      -5.518  -1.499  -4.022  1.00  0.00     0.000 C 
BRANCH   7   8
ATOM      8  C   UNL     1      -6.882  -1.854  -4.641  1.00  0.00    -0.000 C 
BRANCH   8   9
ATOM      9  C   UNL     1      -7.890  -2.496  -3.672  1.00  0.00    -0.003 C 
ATOM     10  C   UNL     1      -7.942  -1.800  -2.313  1.00  0.00     0.004 C 
ENDBRANCH   8   9
ENDBRANCH   7   8
ENDBRANCH   1   7
TORSDOF 6
ENDMDL
MODEL 6
REMARK VINA RESULT:    -2.836      7.832     10.365
REMARK INTER + INTRA:          -4.083
REMARK INTER:                  -3.723
REMARK INTRA:                  -0.360
REMARK UNBOUND:                -0.252
REMARK SMILES CCCCCCCC(=O)[O-]
REMARK SMILES IDX 5 1 6 2 7 3 8 4 9 5 10 6 4 7 3 8 2 9 1 10
REMARK H PARENT
REMARK Flexibility Score: inf
ROOT
ATOM      1  C   UNL     1      -5.488  -1.188  -5.602  1.00  0.00     0.000 C 
ENDROOT
BRANCH   1   2
ATOM      2  C   UNL     1      -4.360  -0.884  -6.605  1.00  0.00     0.006 C 
BRANCH   2   3
ATOM      3  C   UNL     1      -3.065  -1.676  -6.364  1.00  0.00     0.053 C 
BRANCH   3   4
ATOM      4  C   UNL     1      -1.869  -0.994  -6.954  1.00  0.00     0.041 C 
ATOM      5  O   UNL     1      -0.901  -0.664  -6.219  1.00  0.00    -0.550 OA
ATOM      6  O   UNL     1      -1.839  -0.692  -8.309  1.00  0.00    -0.550 OA
ENDBRANCH   3   4
ENDBRANCH   2   3
ENDBRANCH   1   2
BRANCH   1   7
ATOM      7  C   UNL     1      -4.973  -1.369  -4.164  1.00  0.00     0.000 C 
BRANCH   7   8
ATOM      8  C   UNL     1      -5.940  -2.175  -3.278  1.00  0.00    -0.000 C 
BRANCH   8   9
ATOM      9  C   UNL     1      -5.598  -3.667  -3.130  1.00  0.00    -0.003 C 
ATOM     10  C   UNL     1      -4.131  -3.978  -3.422  1.00  0.00     0.004 C 
ENDBRANCH   8   9
ENDBRANCH   7   8
ENDBRANCH   1   7
TORSDOF 6
ENDMDL
MODEL 7
REMARK VINA RESULT:    -2.810     10.474     11.276
REMARK INTER + INTRA:          -4.047
REMARK INTER:                  -3.615
REMARK INTRA:                  -0.432
REMARK UNBOUND:                -0.252
REMARK SMILES CCCCCCCC(=O)[O-]
REMARK SMILES IDX 5 1 6 2 7 3 8 4 9 5 10 6 4 7 3 8 2 9 1 10
REMARK H PARENT
REMARK Flexibility Score: inf
ROOT
ATOM      1  C   UNL     1      -0.830   7.789   0.402  1.00  0.00     0.000 C 
ENDROOT
BRANCH   1   2
ATOM      2  C   UNL     1      -2.255   7.260   0.655  1.00  0.00     0.006 C 
BRANCH   2   3
ATOM      3  C   UNL     1      -2.315   5.796   1.120  1.00  0.00     0.053 C 
BRANCH   3   4
ATOM      4  C   UNL     1      -3.646   5.170   0.836  1.00  0.00     0.041 C 
ATOM      5  O   UNL     1      -4.051   5.053  -0.350  1.00  0.00    -0.550 OA
ATOM      6  O   UNL     1      -4.452   4.746   1.885  1.00  0.00    -0.550 OA
ENDBRANCH   3   4
ENDBRANCH   2   3
ENDBRANCH   1   2
BRANCH   1   7
ATOM      7  C   UNL     1       0.253   6.924   1.069  1.00  0.00     0.000 C 
BRANCH   7   8
ATOM      8  C   UNL     1       1.172   7.730   2.004  1.00  0.00    -0.000 C 
BRANCH   8   9
ATOM      9  C   UNL     1       0.713   7.797   3.471  1.00  0.00    -0.003 C 
ATOM     10  C   UNL     1      -0.036   6.543   3.922  1.00  0.00     0.004 C 
ENDBRANCH   8   9
ENDBRANCH   7   8
ENDBRANCH   1   7
TORSDOF 6
ENDMDL
MODEL 8
REMARK VINA RESULT:    -2.794     10.235     11.241
REMARK INTER + INTRA:          -4.026
REMARK INTER:                  -3.751
REMARK INTRA:                  -0.275
REMARK UNBOUND:                -0.252
REMARK SMILES CCCCCCCC(=O)[O-]
REMARK SMILES IDX 5 1 6 2 7 3 8 4 9 5 10 6 4 7 3 8 2 9 1 10
REMARK H PARENT
REMARK Flexibility Score: inf
ROOT
ATOM      1  C   UNL     1      -1.670   6.531   1.265  1.00  0.00     0.000 C 
ENDROOT
BRANCH   1   2
ATOM      2  C   UNL     1      -2.584   5.405   0.748  1.00  0.00     0.006 C 
BRANCH   2   3
ATOM      3  C   UNL     1      -4.029   5.471   1.268  1.00  0.00     0.053 C 
BRANCH   3   4
ATOM      4  C   UNL     1      -5.028   5.508   0.153  1.00  0.00     0.041 C 
ATOM      5  O   UNL     1      -5.079   6.501  -0.620  1.00  0.00    -0.550 OA
ATOM      6  O   UNL     1      -5.925   4.461  -0.012  1.00  0.00    -0.550 OA
ENDBRANCH   3   4
ENDBRANCH   2   3
ENDBRANCH   1   2
BRANCH   1   7
ATOM      7  C   UNL     1      -1.744   7.802   0.402  1.00  0.00     0.000 C 
BRANCH   7   8
ATOM      8  C   UNL     1      -0.357   8.333  -0.003  1.00  0.00    -0.000 C 
BRANCH   8   9
ATOM      9  C   UNL     1       0.835   7.570   0.600  1.00  0.00    -0.003 C 
ATOM     10  C   UNL     1       2.165   7.905  -0.074  1.00  0.00     0.004 C 
ENDBRANCH   8   9
ENDBRANCH   7   8
ENDBRANCH   1   7
TORSDOF 6
ENDMDL
MODEL 9
REMARK VINA RESULT:    -2.771      2.416      3.343
REMARK INTER + INTRA:          -3.995
REMARK INTER:                  -3.351
REMARK INTRA:                  -0.645
REMARK UNBOUND:                -0.252
REMARK SMILES CCCCCCCC(=O)[O-]
REMARK SMILES IDX 5 1 6 2 7 3 8 4 9 5 10 6 4 7 3 8 2 9 1 10
REMARK H PARENT
REMARK Flexibility Score: inf
ROOT
ATOM      1  C   UNL     1       5.707  -3.591  -4.244  1.00  0.00     0.000 C 
ENDROOT
BRANCH   1   2
ATOM      2  C   UNL     1       4.251  -4.093  -4.260  1.00  0.00     0.006 C 
BRANCH   2   3
ATOM      3  C   UNL     1       3.395  -3.520  -5.401  1.00  0.00     0.053 C 
BRANCH   3   4
ATOM      4  C   UNL     1       2.393  -2.522  -4.907  1.00  0.00     0.041 C 
ATOM      5  O   UNL     1       2.324  -2.247  -3.680  1.00  0.00    -0.550 OA
ATOM      6  O   UNL     1       1.513  -1.920  -5.798  1.00  0.00    -0.550 OA
ENDBRANCH   3   4
ENDBRANCH   2   3
ENDBRANCH   1   2
BRANCH   1   7
ATOM      7  C   UNL     1       5.936  -2.463  -3.224  1.00  0.00     0.000 C 
BRANCH   7   8
ATOM      8  C   UNL     1       5.684  -1.063  -3.813  1.00  0.00    -0.000 C 
BRANCH   8   9
ATOM      9  C   UNL     1       6.306  -0.817  -5.198  1.00  0.00    -0.003 C 
ATOM     10  C   UNL     1       5.282  -0.380  -6.246  1.00  0.00     0.004 C 
ENDBRANCH   8   9
ENDBRANCH   7   8
ENDBRANCH   1   7
TORSDOF 6
ENDMDL
