MODEL 1
REMARK VINA RESULT:    -5.407      0.000      0.000
REMARK INTER + INTRA:          -7.155
REMARK INTER:                  -6.671
REMARK INTRA:                  -0.483
REMARK UNBOUND:                -0.483
REMARK SMILES COc1ccc(-c2cc3cc(O)c(OC)cc3o2)c(O)c1
REMARK SMILES IDX 7 1 8 2 9 3 10 4 11 5 13 6 16 7 17 8 18 9 6 10 3 11 21 12
REMARK SMILES IDX 4 13 19 14 5 15 2 16 1 17 20 18 12 20 14 22 15 23
REMARK H PARENT 20 19 12 21
REMARK Flexibility Score: inf
ROOT
ATOM      1  C   UNL     1      33.881 -37.824   9.430  1.00  0.00     0.139 A 
ATOM      2  C   UNL     1      33.883 -36.856  10.438  1.00  0.00     0.060 A 
ATOM      3  C   UNL     1      34.305 -37.531  11.560  1.00  0.00     0.025 A 
ATOM      4  C   UNL     1      34.511 -37.091  12.862  1.00  0.00     0.062 A 
ATOM      5  C   UNL     1      34.962 -38.026  13.814  1.00  0.00     0.158 A 
ATOM      6  C   UNL     1      35.200 -39.377  13.439  1.00  0.00     0.164 A 
ATOM      7  C   UNL     1      34.982 -39.780  12.097  1.00  0.00     0.098 A 
ATOM      8  C   UNL     1      34.535 -38.824  11.190  1.00  0.00     0.138 A 
ATOM      9  O   UNL     1      34.281 -38.988   9.916  1.00  0.00    -0.456 OA
ENDROOT
BRANCH   1  10
ATOM     10  C   UNL     1      33.525 -37.625   8.005  1.00  0.00     0.059 A 
ATOM     11  C   UNL     1      32.734 -37.247   5.319  1.00  0.00     0.122 A 
ATOM     12  C   UNL     1      34.087 -37.466   5.638  1.00  0.00     0.093 A 
ATOM     13  C   UNL     1      31.791 -37.206   6.348  1.00  0.00     0.047 A 
ATOM     14  C   UNL     1      34.488 -37.644   6.971  1.00  0.00     0.130 A 
ATOM     15  C   UNL     1      32.180 -37.389   7.677  1.00  0.00     0.020 A 
BRANCH  11  16
ATOM     16  O   UNL     1      32.292 -37.063   4.001  1.00  0.00    -0.497 OA
ATOM     17  C   UNL     1      33.023 -37.455   2.844  1.00  0.00     0.278 C 
ENDBRANCH  11  16
BRANCH  14  18
ATOM     18  O   UNL     1      35.841 -37.813   7.261  1.00  0.00    -0.507 OA
ATOM     19  H   UNL     1      36.166 -37.997   8.203  1.00  0.00     0.293 HD
ENDBRANCH  14  18
ENDBRANCH   1  10
BRANCH   5  20
ATOM     20  O   UNL     1      35.169 -37.599  15.125  1.00  0.00    -0.504 OA
ATOM     21  H   UNL     1      34.603 -37.931  15.896  1.00  0.00     0.293 HD
ENDBRANCH   5  20
BRANCH   6  22
ATOM     22  O   UNL     1      35.650 -40.279  14.416  1.00  0.00    -0.493 OA
ATOM     23  C   UNL     1      35.591 -41.696  14.291  1.00  0.00     0.278 C 
ENDBRANCH   6  22
TORSDOF 5
ENDMDL
MODEL 2
REMARK VINA RESULT:    -5.134     13.734     14.904
REMARK INTER + INTRA:          -6.818
REMARK INTER:                  -6.234
REMARK INTRA:                  -0.583
REMARK UNBOUND:                -0.483
REMARK SMILES COc1ccc(-c2cc3cc(O)c(OC)cc3o2)c(O)c1
REMARK SMILES IDX 7 1 8 2 9 3 10 4 11 5 13 6 16 7 17 8 18 9 6 10 3 11 21 12
REMARK SMILES IDX 4 13 19 14 5 15 2 16 1 17 20 18 12 20 14 22 15 23
REMARK H PARENT 20 19 12 21
REMARK Flexibility Score: inf
ROOT
ATOM      1  C   UNL     1      35.450 -41.592  -3.983  1.00  0.00     0.139 A 
ATOM      2  C   UNL     1      36.692 -42.081  -4.395  1.00  0.00     0.060 A 
ATOM      3  C   UNL     1      37.571 -41.058  -4.125  1.00  0.00     0.025 A 
ATOM      4  C   UNL     1      38.945 -40.965  -4.313  1.00  0.00     0.062 A 
ATOM      5  C   UNL     1      39.587 -39.773  -3.928  1.00  0.00     0.158 A 
ATOM      6  C   UNL     1      38.840 -38.703  -3.362  1.00  0.00     0.164 A 
ATOM      7  C   UNL     1      37.440 -38.844  -3.185  1.00  0.00     0.098 A 
ATOM      8  C   UNL     1      36.846 -40.038  -3.580  1.00  0.00     0.138 A 
ATOM      9  O   UNL     1      35.582 -40.368  -3.496  1.00  0.00    -0.456 OA
ENDROOT
BRANCH   1  10
ATOM     10  C   UNL     1      34.151 -42.305  -4.030  1.00  0.00     0.059 A 
ATOM     11  C   UNL     1      31.734 -43.764  -4.130  1.00  0.00     0.122 A 
ATOM     12  C   UNL     1      31.717 -42.357  -4.148  1.00  0.00     0.093 A 
ATOM     13  C   UNL     1      32.960 -44.428  -4.049  1.00  0.00     0.047 A 
ATOM     14  C   UNL     1      32.914 -41.626  -4.088  1.00  0.00     0.130 A 
ATOM     15  C   UNL     1      34.156 -43.709  -3.996  1.00  0.00     0.020 A 
BRANCH  11  16
ATOM     16  O   UNL     1      30.562 -44.532  -4.186  1.00  0.00    -0.497 OA
ATOM     17  C   UNL     1      29.876 -45.038  -3.046  1.00  0.00     0.278 C 
ENDBRANCH  11  16
BRANCH  14  18
ATOM     18  O   UNL     1      32.863 -40.233  -4.061  1.00  0.00    -0.507 OA
ATOM     19  H   UNL     1      32.285 -39.733  -3.396  1.00  0.00     0.293 HD
ENDBRANCH  14  18
ENDBRANCH   1  10
BRANCH   5  20
ATOM     20  O   UNL     1      40.965 -39.665  -4.113  1.00  0.00    -0.504 OA
ATOM     21  H   UNL     1      41.545 -39.081  -3.523  1.00  0.00     0.293 HD
ENDBRANCH   5  20
BRANCH   6  22
ATOM     22  O   UNL     1      39.516 -37.530  -2.991  1.00  0.00    -0.493 OA
ATOM     23  C   UNL     1      38.889 -36.385  -2.423  1.00  0.00     0.278 C 
ENDBRANCH   6  22
TORSDOF 5
ENDMDL
MODEL 3
REMARK VINA RESULT:    -4.980      1.712      7.943
REMARK INTER + INTRA:          -6.628
REMARK INTER:                  -6.098
REMARK INTRA:                  -0.530
REMARK UNBOUND:                -0.483
REMARK SMILES COc1ccc(-c2cc3cc(O)c(OC)cc3o2)c(O)c1
REMARK SMILES IDX 7 1 8 2 9 3 10 4 11 5 13 6 16 7 17 8 18 9 6 10 3 11 21 12
REMARK SMILES IDX 4 13 19 14 5 15 2 16 1 17 20 18 12 20 14 22 15 23
REMARK H PARENT 20 19 12 21
REMARK Flexibility Score: inf
ROOT
ATOM      1  C   UNL     1      34.364 -37.763   8.025  1.00  0.00     0.139 A 
ATOM      2  C   UNL     1      33.239 -37.497   7.239  1.00  0.00     0.060 A 
ATOM      3  C   UNL     1      33.736 -37.366   5.963  1.00  0.00     0.025 A 
ATOM      4  C   UNL     1      33.093 -37.106   4.759  1.00  0.00     0.062 A 
ATOM      5  C   UNL     1      33.877 -37.033   3.592  1.00  0.00     0.158 A 
ATOM      6  C   UNL     1      35.285 -37.226   3.656  1.00  0.00     0.164 A 
ATOM      7  C   UNL     1      35.897 -37.493   4.907  1.00  0.00     0.098 A 
ATOM      8  C   UNL     1      35.086 -37.555   6.035  1.00  0.00     0.138 A 
ATOM      9  O   UNL     1      35.450 -37.795   7.270  1.00  0.00    -0.456 OA
ENDROOT
BRANCH   1  10
ATOM     10  C   UNL     1      34.391 -38.013   9.486  1.00  0.00     0.059 A 
ATOM     11  C   UNL     1      34.422 -38.376  12.288  1.00  0.00     0.122 A 
ATOM     12  C   UNL     1      34.768 -39.435  11.429  1.00  0.00     0.093 A 
ATOM     13  C   UNL     1      34.051 -37.148  11.737  1.00  0.00     0.047 A 
ATOM     14  C   UNL     1      34.744 -39.265  10.037  1.00  0.00     0.130 A 
ATOM     15  C   UNL     1      34.031 -36.967  10.352  1.00  0.00     0.020 A 
BRANCH  11  16
ATOM     16  O   UNL     1      34.430 -38.504  13.685  1.00  0.00    -0.497 OA
ATOM     17  C   UNL     1      35.370 -39.284  14.416  1.00  0.00     0.278 C 
ENDBRANCH  11  16
BRANCH  14  18
ATOM     18  O   UNL     1      35.048 -40.346   9.211  1.00  0.00    -0.507 OA
ATOM     19  H   UNL     1      34.360 -40.750   8.586  1.00  0.00     0.293 HD
ENDBRANCH  14  18
ENDBRANCH   1  10
BRANCH   5  20
ATOM     20  O   UNL     1      33.244 -36.771   2.377  1.00  0.00    -0.504 OA
ATOM     21  H   UNL     1      32.300 -36.408   2.328  1.00  0.00     0.293 HD
ENDBRANCH   5  20
BRANCH   6  22
ATOM     22  O   UNL     1      36.031 -37.146   2.471  1.00  0.00    -0.493 OA
ATOM     23  C   UNL     1      36.668 -35.963   1.999  1.00  0.00     0.278 C 
ENDBRANCH   6  22
TORSDOF 5
ENDMDL
MODEL 4
REMARK VINA RESULT:    -4.975      3.377      8.327
REMARK INTER + INTRA:          -6.622
REMARK INTER:                  -6.054
REMARK INTRA:                  -0.568
REMARK UNBOUND:                -0.483
REMARK SMILES COc1ccc(-c2cc3cc(O)c(OC)cc3o2)c(O)c1
REMARK SMILES IDX 7 1 8 2 9 3 10 4 11 5 13 6 16 7 17 8 18 9 6 10 3 11 21 12
REMARK SMILES IDX 4 13 19 14 5 15 2 16 1 17 20 18 12 20 14 22 15 23
REMARK H PARENT 20 19 12 21
REMARK Flexibility Score: inf
ROOT
ATOM      1  C   UNL     1      33.857 -36.798   6.175  1.00  0.00     0.139 A 
ATOM      2  C   UNL     1      34.873 -36.013   5.623  1.00  0.00     0.060 A 
ATOM      3  C   UNL     1      35.063 -36.535   4.365  1.00  0.00     0.025 A 
ATOM      4  C   UNL     1      35.935 -36.163   3.349  1.00  0.00     0.062 A 
ATOM      5  C   UNL     1      35.899 -36.892   2.145  1.00  0.00     0.158 A 
ATOM      6  C   UNL     1      34.989 -37.973   1.985  1.00  0.00     0.164 A 
ATOM      7  C   UNL     1      34.114 -38.315   3.048  1.00  0.00     0.098 A 
ATOM      8  C   UNL     1      34.184 -37.569   4.220  1.00  0.00     0.138 A 
ATOM      9  O   UNL     1      33.466 -37.716   5.305  1.00  0.00    -0.456 OA
ENDROOT
BRANCH   1  10
ATOM     10  C   UNL     1      33.246 -36.650   7.518  1.00  0.00     0.059 A 
ATOM     11  C   UNL     1      32.185 -36.396  10.124  1.00  0.00     0.122 A 
ATOM     12  C   UNL     1      31.344 -36.296   9.000  1.00  0.00     0.093 A 
ATOM     13  C   UNL     1      33.551 -36.609   9.933  1.00  0.00     0.047 A 
ATOM     14  C   UNL     1      31.866 -36.411   7.703  1.00  0.00     0.130 A 
ATOM     15  C   UNL     1      34.079 -36.732   8.646  1.00  0.00     0.020 A 
BRANCH  11  16
ATOM     16  O   UNL     1      31.704 -36.285  11.437  1.00  0.00    -0.497 OA
ATOM     17  C   UNL     1      30.379 -36.615  11.840  1.00  0.00     0.278 C 
ENDBRANCH  11  16
BRANCH  14  18
ATOM     18  O   UNL     1      31.016 -36.261   6.608  1.00  0.00    -0.507 OA
ATOM     19  H   UNL     1      31.078 -35.461   5.990  1.00  0.00     0.293 HD
ENDBRANCH  14  18
ENDBRANCH   1  10
BRANCH   5  20
ATOM     20  O   UNL     1      36.770 -36.531   1.118  1.00  0.00    -0.504 OA
ATOM     21  H   UNL     1      36.684 -36.905   0.181  1.00  0.00     0.293 HD
ENDBRANCH   5  20
BRANCH   6  22
ATOM     22  O   UNL     1      34.983 -38.675   0.770  1.00  0.00    -0.493 OA
ATOM     23  C   UNL     1      33.840 -39.325   0.221  1.00  0.00     0.278 C 
ENDBRANCH   6  22
TORSDOF 5
ENDMDL
MODEL 5
REMARK VINA RESULT:    -4.926      5.238     10.279
REMARK INTER + INTRA:          -6.560
REMARK INTER:                  -5.937
REMARK INTRA:                  -0.624
REMARK UNBOUND:                -0.483
REMARK SMILES COc1ccc(-c2cc3cc(O)c(OC)cc3o2)c(O)c1
REMARK SMILES IDX 7 1 8 2 9 3 10 4 11 5 13 6 16 7 17 8 18 9 6 10 3 11 21 12
REMARK SMILES IDX 4 13 19 14 5 15 2 16 1 17 20 18 12 20 14 22 15 23
REMARK H PARENT 20 19 12 21
REMARK Flexibility Score: inf
ROOT
ATOM      1  C   UNL     1      35.604 -36.976   2.466  1.00  0.00     0.139 A 
ATOM      2  C   UNL     1      36.592 -35.995   2.345  1.00  0.00     0.060 A 
ATOM      3  C   UNL     1      37.388 -36.436   1.313  1.00  0.00     0.025 A 
ATOM      4  C   UNL     1      38.521 -35.875   0.735  1.00  0.00     0.062 A 
ATOM      5  C   UNL     1      39.132 -36.564  -0.330  1.00  0.00     0.158 A 
ATOM      6  C   UNL     1      38.593 -37.797  -0.793  1.00  0.00     0.164 A 
ATOM      7  C   UNL     1      37.432 -38.329  -0.176  1.00  0.00     0.098 A 
ATOM      8  C   UNL     1      36.862 -37.616   0.874  1.00  0.00     0.138 A 
ATOM      9  O   UNL     1      35.795 -37.928   1.566  1.00  0.00    -0.456 OA
ENDROOT
BRANCH   1  10
ATOM     10  C   UNL     1      34.469 -36.985   3.419  1.00  0.00     0.059 A 
ATOM     11  C   UNL     1      32.380 -36.974   5.322  1.00  0.00     0.122 A 
ATOM     12  C   UNL     1      32.139 -37.397   4.002  1.00  0.00     0.093 A 
ATOM     13  C   UNL     1      33.662 -36.548   5.675  1.00  0.00     0.047 A 
ATOM     14  C   UNL     1      33.169 -37.395   3.049  1.00  0.00     0.130 A 
ATOM     15  C   UNL     1      34.696 -36.549   4.735  1.00  0.00     0.020 A 
BRANCH  11  16
ATOM     16  O   UNL     1      31.379 -36.959   6.303  1.00  0.00    -0.497 OA
ATOM     17  C   UNL     1      31.627 -36.939   7.705  1.00  0.00     0.278 C 
ENDBRANCH  11  16
BRANCH  14  18
ATOM     18  O   UNL     1      32.888 -37.775   1.738  1.00  0.00    -0.507 OA
ATOM     19  H   UNL     1      32.368 -37.176   1.108  1.00  0.00     0.293 HD
ENDBRANCH  14  18
ENDBRANCH   1  10
BRANCH   5  20
ATOM     20  O   UNL     1      40.270 -36.014  -0.917  1.00  0.00    -0.504 OA
ATOM     21  H   UNL     1      40.850 -36.536  -1.563  1.00  0.00     0.293 HD
ENDBRANCH   5  20
BRANCH   6  22
ATOM     22  O   UNL     1      39.230 -38.454  -1.857  1.00  0.00    -0.493 OA
ATOM     23  C   UNL     1      38.777 -38.425  -3.207  1.00  0.00     0.278 C 
ENDBRANCH   6  22
TORSDOF 5
ENDMDL
MODEL 6
REMARK VINA RESULT:    -4.911      4.690      8.109
REMARK INTER + INTRA:          -6.543
REMARK INTER:                  -5.980
REMARK INTRA:                  -0.563
REMARK UNBOUND:                -0.483
REMARK SMILES COc1ccc(-c2cc3cc(O)c(OC)cc3o2)c(O)c1
REMARK SMILES IDX 7 1 8 2 9 3 10 4 11 5 13 6 16 7 17 8 18 9 6 10 3 11 21 12
REMARK SMILES IDX 4 13 19 14 5 15 2 16 1 17 20 18 12 20 14 22 15 23
REMARK H PARENT 20 19 12 21
REMARK Flexibility Score: inf
ROOT
ATOM      1  C   UNL     1      36.009 -36.854   3.008  1.00  0.00     0.139 A 
ATOM      2  C   UNL     1      34.770 -37.270   2.514  1.00  0.00     0.060 A 
ATOM      3  C   UNL     1      33.907 -37.112   3.575  1.00  0.00     0.025 A 
ATOM      4  C   UNL     1      32.543 -37.355   3.681  1.00  0.00     0.062 A 
ATOM      5  C   UNL     1      31.917 -37.087   4.914  1.00  0.00     0.158 A 
ATOM      6  C   UNL     1      32.670 -36.581   6.009  1.00  0.00     0.164 A 
ATOM      7  C   UNL     1      34.060 -36.344   5.853  1.00  0.00     0.098 A 
ATOM      8  C   UNL     1      34.638 -36.623   4.618  1.00  0.00     0.138 A 
ATOM      9  O   UNL     1      35.891 -36.470   4.269  1.00  0.00    -0.456 OA
ENDROOT
BRANCH   1  10
ATOM     10  C   UNL     1      37.291 -36.799   2.266  1.00  0.00     0.059 A 
ATOM     11  C   UNL     1      39.682 -36.632   0.770  1.00  0.00     0.122 A 
ATOM     12  C   UNL     1      39.615 -37.445   1.917  1.00  0.00     0.093 A 
ATOM     13  C   UNL     1      38.555 -35.900   0.389  1.00  0.00     0.047 A 
ATOM     14  C   UNL     1      38.434 -37.524   2.670  1.00  0.00     0.130 A 
ATOM     15  C   UNL     1      37.373 -35.978   1.129  1.00  0.00     0.020 A 
BRANCH  11  16
ATOM     16  O   UNL     1      40.842 -36.523  -0.010  1.00  0.00    -0.497 OA
ATOM     17  C   UNL     1      40.882 -35.970  -1.321  1.00  0.00     0.278 C 
ENDBRANCH  11  16
BRANCH  14  18
ATOM     18  O   UNL     1      38.413 -38.301   3.828  1.00  0.00    -0.507 OA
ATOM     19  H   UNL     1      38.619 -37.908   4.738  1.00  0.00     0.293 HD
ENDBRANCH  14  18
ENDBRANCH   1  10
BRANCH   5  20
ATOM     20  O   UNL     1      30.549 -37.329   5.035  1.00  0.00    -0.504 OA
ATOM     21  H   UNL     1      30.136 -38.222   4.799  1.00  0.00     0.293 HD
ENDBRANCH   5  20
BRANCH   6  22
ATOM     22  O   UNL     1      32.010 -36.327   7.221  1.00  0.00    -0.493 OA
ATOM     23  C   UNL     1      32.667 -36.003   8.443  1.00  0.00     0.278 C 
ENDBRANCH   6  22
TORSDOF 5
ENDMDL
MODEL 7
REMARK VINA RESULT:    -4.870      5.375      7.792
REMARK INTER + INTRA:          -6.492
REMARK INTER:                  -5.869
REMARK INTRA:                  -0.623
REMARK UNBOUND:                -0.483
REMARK SMILES COc1ccc(-c2cc3cc(O)c(OC)cc3o2)c(O)c1
REMARK SMILES IDX 7 1 8 2 9 3 10 4 11 5 13 6 16 7 17 8 18 9 6 10 3 11 21 12
REMARK SMILES IDX 4 13 19 14 5 15 2 16 1 17 20 18 12 20 14 22 15 23
REMARK H PARENT 20 19 12 21
REMARK Flexibility Score: inf
ROOT
ATOM      1  C   UNL     1      35.319 -36.803   3.022  1.00  0.00     0.139 A 
ATOM      2  C   UNL     1      35.500 -36.190   4.264  1.00  0.00     0.060 A 
ATOM      3  C   UNL     1      34.292 -36.349   4.904  1.00  0.00     0.025 A 
ATOM      4  C   UNL     1      33.874 -35.954   6.169  1.00  0.00     0.062 A 
ATOM      5  C   UNL     1      32.558 -36.268   6.560  1.00  0.00     0.158 A 
ATOM      6  C   UNL     1      31.694 -36.974   5.677  1.00  0.00     0.164 A 
ATOM      7  C   UNL     1      32.166 -37.361   4.397  1.00  0.00     0.098 A 
ATOM      8  C   UNL     1      33.472 -37.029   4.051  1.00  0.00     0.138 A 
ATOM      9  O   UNL     1      34.095 -37.298   2.932  1.00  0.00    -0.456 OA
ENDROOT
BRANCH   1  10
ATOM     10  C   UNL     1      36.324 -36.938   1.940  1.00  0.00     0.059 A 
ATOM     11  C   UNL     1      38.270 -37.083  -0.103  1.00  0.00     0.122 A 
ATOM     12  C   UNL     1      37.385 -38.155   0.115  1.00  0.00     0.093 A 
ATOM     13  C   UNL     1      38.182 -35.953   0.712  1.00  0.00     0.047 A 
ATOM     14  C   UNL     1      36.424 -38.094   1.135  1.00  0.00     0.130 A 
ATOM     15  C   UNL     1      37.223 -35.880   1.725  1.00  0.00     0.020 A 
BRANCH  11  16
ATOM     16  O   UNL     1      39.246 -37.104  -1.110  1.00  0.00    -0.497 OA
ATOM     17  C   UNL     1      39.755 -35.946  -1.763  1.00  0.00     0.278 C 
ENDBRANCH  11  16
BRANCH  14  18
ATOM     18  O   UNL     1      35.592 -39.190   1.357  1.00  0.00    -0.507 OA
ATOM     19  H   UNL     1      34.704 -39.099   1.836  1.00  0.00     0.293 HD
ENDBRANCH  14  18
ENDBRANCH   1  10
BRANCH   5  20
ATOM     20  O   UNL     1      32.124 -35.875   7.825  1.00  0.00    -0.504 OA
ATOM     21  H   UNL     1      31.304 -36.276   8.263  1.00  0.00     0.293 HD
ENDBRANCH   5  20
BRANCH   6  22
ATOM     22  O   UNL     1      30.390 -37.269   6.103  1.00  0.00    -0.493 OA
ATOM     23  C   UNL     1      29.924 -38.576   6.423  1.00  0.00     0.278 C 
ENDBRANCH   6  22
TORSDOF 5
ENDMDL
MODEL 8
REMARK VINA RESULT:    -4.857     12.784     15.045
REMARK INTER + INTRA:          -6.476
REMARK INTER:                  -5.860
REMARK INTRA:                  -0.615
REMARK UNBOUND:                -0.483
REMARK SMILES COc1ccc(-c2cc3cc(O)c(OC)cc3o2)c(O)c1
REMARK SMILES IDX 7 1 8 2 9 3 10 4 11 5 13 6 16 7 17 8 18 9 6 10 3 11 21 12
REMARK SMILES IDX 4 13 19 14 5 15 2 16 1 17 20 18 12 20 14 22 15 23
REMARK H PARENT 20 19 12 21
REMARK Flexibility Score: inf
ROOT
ATOM      1  C   UNL     1      37.747 -39.809  -3.601  1.00  0.00     0.139 A 
ATOM      2  C   UNL     1      36.861 -39.294  -2.652  1.00  0.00     0.060 A 
ATOM      3  C   UNL     1      35.663 -39.910  -2.931  1.00  0.00     0.025 A 
ATOM      4  C   UNL     1      34.420 -39.802  -2.318  1.00  0.00     0.062 A 
ATOM      5  C   UNL     1      33.360 -40.576  -2.829  1.00  0.00     0.158 A 
ATOM      6  C   UNL     1      33.571 -41.442  -3.938  1.00  0.00     0.164 A 
ATOM      7  C   UNL     1      34.858 -41.523  -4.529  1.00  0.00     0.098 A 
ATOM      8  C   UNL     1      35.875 -40.740  -3.993  1.00  0.00     0.138 A 
ATOM      9  O   UNL     1      37.124 -40.675  -4.384  1.00  0.00    -0.456 OA
ENDROOT
BRANCH   1  10
ATOM     10  C   UNL     1      39.189 -39.493  -3.737  1.00  0.00     0.059 A 
ATOM     11  C   UNL     1      41.911 -38.778  -3.992  1.00  0.00     0.122 A 
ATOM     12  C   UNL     1      41.513 -40.122  -4.122  1.00  0.00     0.093 A 
ATOM     13  C   UNL     1      40.945 -37.806  -3.723  1.00  0.00     0.047 A 
ATOM     14  C   UNL     1      40.164 -40.485  -3.986  1.00  0.00     0.130 A 
ATOM     15  C   UNL     1      39.600 -38.157  -3.593  1.00  0.00     0.020 A 
BRANCH  11  16
ATOM     16  O   UNL     1      43.247 -38.373  -4.119  1.00  0.00    -0.497 OA
ATOM     17  C   UNL     1      44.368 -39.242  -3.990  1.00  0.00     0.278 C 
ENDBRANCH  11  16
BRANCH  14  18
ATOM     18  O   UNL     1      39.806 -41.829  -4.074  1.00  0.00    -0.507 OA
ATOM     19  H   UNL     1      39.403 -42.220  -4.917  1.00  0.00     0.293 HD
ENDBRANCH  14  18
ENDBRANCH   1  10
BRANCH   5  20
ATOM     20  O   UNL     1      32.108 -40.476  -2.226  1.00  0.00    -0.504 OA
ATOM     21  H   UNL     1      31.380 -41.164  -2.375  1.00  0.00     0.293 HD
ENDBRANCH   5  20
BRANCH   6  22
ATOM     22  O   UNL     1      32.490 -42.197  -4.419  1.00  0.00    -0.493 OA
ATOM     23  C   UNL     1      32.214 -43.541  -4.036  1.00  0.00     0.278 C 
ENDBRANCH   6  22
TORSDOF 5
ENDMDL
MODEL 9
REMARK VINA RESULT:    -4.778      2.241      3.373
REMARK INTER + INTRA:          -6.379
REMARK INTER:                  -5.799
REMARK INTRA:                  -0.579
REMARK UNBOUND:                -0.483
REMARK SMILES COc1ccc(-c2cc3cc(O)c(OC)cc3o2)c(O)c1
REMARK SMILES IDX 7 1 8 2 9 3 10 4 11 5 13 6 16 7 17 8 18 9 6 10 3 11 21 12
REMARK SMILES IDX 4 13 19 14 5 15 2 16 1 17 20 18 12 20 14 22 15 23
REMARK H PARENT 20 19 12 21
REMARK Flexibility Score: inf
ROOT
ATOM      1  C   UNL     1      34.078 -37.271   7.107  1.00  0.00     0.139 A 
ATOM      2  C   UNL     1      32.800 -36.883   7.517  1.00  0.00     0.060 A 
ATOM      3  C   UNL     1      32.791 -37.110   8.874  1.00  0.00     0.025 A 
ATOM      4  C   UNL     1      31.797 -36.907   9.824  1.00  0.00     0.062 A 
ATOM      5  C   UNL     1      32.085 -37.232  11.164  1.00  0.00     0.158 A 
ATOM      6  C   UNL     1      33.362 -37.749  11.521  1.00  0.00     0.164 A 
ATOM      7  C   UNL     1      34.347 -37.935  10.518  1.00  0.00     0.098 A 
ATOM      8  C   UNL     1      34.020 -37.602   9.208  1.00  0.00     0.138 A 
ATOM      9  O   UNL     1      34.781 -37.691   8.146  1.00  0.00    -0.456 OA
ENDROOT
BRANCH   1  10
ATOM     10  C   UNL     1      34.629 -37.211   5.732  1.00  0.00     0.059 A 
ATOM     11  C   UNL     1      35.570 -37.103   3.070  1.00  0.00     0.122 A 
ATOM     12  C   UNL     1      36.475 -37.218   4.141  1.00  0.00     0.093 A 
ATOM     13  C   UNL     1      34.202 -37.030   3.342  1.00  0.00     0.047 A 
ATOM     14  C   UNL     1      36.015 -37.261   5.466  1.00  0.00     0.130 A 
ATOM     15  C   UNL     1      33.734 -37.079   4.657  1.00  0.00     0.020 A 
BRANCH  11  16
ATOM     16  O   UNL     1      35.987 -37.053   1.732  1.00  0.00    -0.497 OA
ATOM     17  C   UNL     1      37.143 -36.359   1.275  1.00  0.00     0.278 C 
ENDBRANCH  11  16
BRANCH  14  18
ATOM     18  O   UNL     1      36.938 -37.329   6.508  1.00  0.00    -0.507 OA
ATOM     19  H   UNL     1      37.398 -36.502   6.869  1.00  0.00     0.293 HD
ENDBRANCH  14  18
ENDBRANCH   1  10
BRANCH   5  20
ATOM     20  O   UNL     1      31.096 -37.036  12.127  1.00  0.00    -0.504 OA
ATOM     21  H   UNL     1      31.282 -36.562  13.002  1.00  0.00     0.293 HD
ENDBRANCH   5  20
BRANCH   6  22
ATOM     22  O   UNL     1      33.610 -38.060  12.867  1.00  0.00    -0.493 OA
ATOM     23  C   UNL     1      34.819 -37.751  13.554  1.00  0.00     0.278 C 
ENDBRANCH   6  22
TORSDOF 5
ENDMDL
