MODEL 1
REMARK VINA RESULT:    -6.140      0.000      0.000
REMARK INTER + INTRA:          -9.885
REMARK INTER:                  -8.474
REMARK INTRA:                  -1.412
REMARK UNBOUND:                -1.412
REMARK SMILES O=C([O-])[C@H]1O[C@@H](Oc2cc3oc(-c4ccccc4)cc(=O)c3c(O)c2O)[C@H](O)[C@@H](O)[C@@H]1O
REMARK SMILES IDX 7 1 6 2 4 3 31 4 5 5 29 6 27 7 2 8 1 9 3 10 32 11 30 13
REMARK SMILES IDX 28 15 8 17 25 18 9 19 23 20 10 21 22 22 11 23 20 24 12 25
REMARK SMILES IDX 19 26 21 27 26 28 24 30 13 32 14 33 18 34 15 35 17 36 16 37
REMARK H PARENT 32 12 30 14 28 16 26 29 24 31
REMARK Flexibility Score: inf
ROOT
ATOM      1  O   UNL     1      29.708  -6.550 -29.215  1.00  0.00    -0.458 OA
ENDROOT
BRANCH   1   2
ATOM      2  C   UNL     1      30.127  -7.768 -29.844  1.00  0.00     0.339 C 
ATOM      3  C   UNL     1      32.369  -7.047 -30.209  1.00  0.00     0.199 C 
ATOM      4  C   UNL     1      32.166  -6.958 -31.742  1.00  0.00     0.180 C 
ATOM      5  O   UNL     1      31.508  -8.002 -29.597  1.00  0.00    -0.328 OA
ATOM      6  C   UNL     1      30.683  -6.764 -32.106  1.00  0.00     0.181 C 
ATOM      7  C   UNL     1      29.807  -7.780 -31.357  1.00  0.00     0.214 C 
BRANCH   3   8
ATOM      8  C   UNL     1      32.353  -5.717 -29.489  1.00  0.00     0.073 C 
ATOM      9  O   UNL     1      32.501  -5.683 -28.238  1.00  0.00    -0.547 OA
ATOM     10  O   UNL     1      32.266  -4.521 -30.192  1.00  0.00    -0.547 OA
ENDBRANCH   3   8
BRANCH   4  11
ATOM     11  O   UNL     1      32.650  -8.140 -32.329  1.00  0.00    -0.387 OA
ATOM     12  H   UNL     1      33.596  -8.240 -32.043  1.00  0.00     0.211 HD
ENDBRANCH   4  11
BRANCH   6  13
ATOM     13  O   UNL     1      30.287  -5.450 -31.798  1.00  0.00    -0.387 OA
ATOM     14  H   UNL     1      30.402  -5.336 -30.819  1.00  0.00     0.211 HD
ENDBRANCH   6  13
BRANCH   7  15
ATOM     15  O   UNL     1      30.029  -9.065 -31.881  1.00  0.00    -0.384 OA
ATOM     16  H   UNL     1      30.438  -8.943 -32.778  1.00  0.00     0.211 HD
ENDBRANCH   7  15
ENDBRANCH   1   2
BRANCH   1  17
ATOM     17  C   UNL     1      28.441  -6.244 -28.680  1.00  0.00     0.172 A 
ATOM     18  C   UNL     1      27.631  -5.169 -29.119  1.00  0.00     0.201 A 
ATOM     19  C   UNL     1      27.978  -7.086 -27.669  1.00  0.00     0.098 A 
ATOM     20  C   UNL     1      26.395  -4.909 -28.472  1.00  0.00     0.176 A 
ATOM     21  C   UNL     1      26.749  -6.866 -27.054  1.00  0.00     0.146 A 
ATOM     22  C   UNL     1      25.945  -5.774 -27.443  1.00  0.00     0.111 A 
ATOM     23  O   UNL     1      26.352  -7.694 -26.094  1.00  0.00    -0.456 OA
ATOM     24  C   UNL     1      24.718  -5.597 -26.766  1.00  0.00     0.197 A 
ATOM     25  C   UNL     1      25.198  -7.563 -25.445  1.00  0.00     0.138 A 
ATOM     26  C   UNL     1      24.346  -6.495 -25.764  1.00  0.00     0.100 A 
ATOM     27  O   UNL     1      23.944  -4.642 -27.043  1.00  0.00    -0.289 OA
BRANCH  18  28
ATOM     28  O   UNL     1      28.048  -4.404 -30.210  1.00  0.00    -0.502 OA
ATOM     29  H   UNL     1      28.386  -4.785 -31.082  1.00  0.00     0.293 HD
ENDBRANCH  18  28
BRANCH  20  30
ATOM     30  O   UNL     1      25.610  -3.804 -28.820  1.00  0.00    -0.504 OA
ATOM     31  H   UNL     1      25.111  -3.226 -28.160  1.00  0.00     0.293 HD
ENDBRANCH  20  30
BRANCH  25  32
ATOM     32  C   UNL     1      24.856  -8.550 -24.389  1.00  0.00     0.017 A 
ATOM     33  C   UNL     1      23.520  -8.893 -24.097  1.00  0.00     0.012 A 
ATOM     34  C   UNL     1      25.890  -9.187 -23.677  1.00  0.00     0.012 A 
ATOM     35  C   UNL     1      23.231  -9.834 -23.104  1.00  0.00     0.001 A 
ATOM     36  C   UNL     1      25.595 -10.125 -22.683  1.00  0.00     0.001 A 
ATOM     37  C   UNL     1      24.267 -10.446 -22.395  1.00  0.00     0.000 A 
ENDBRANCH  25  32
ENDBRANCH   1  17
TORSDOF 9
ENDMDL
MODEL 2
REMARK VINA RESULT:    -5.771      0.922      1.593
REMARK INTER + INTRA:          -9.375
REMARK INTER:                  -7.963
REMARK INTRA:                  -1.413
REMARK UNBOUND:                -1.412
REMARK SMILES O=C([O-])[C@H]1O[C@@H](Oc2cc3oc(-c4ccccc4)cc(=O)c3c(O)c2O)[C@H](O)[C@@H](O)[C@@H]1O
REMARK SMILES IDX 7 1 6 2 4 3 31 4 5 5 29 6 27 7 2 8 1 9 3 10 32 11 30 13
REMARK SMILES IDX 28 15 8 17 25 18 9 19 23 20 10 21 22 22 11 23 20 24 12 25
REMARK SMILES IDX 19 26 21 27 26 28 24 30 13 32 14 33 18 34 15 35 17 36 16 37
REMARK H PARENT 32 12 30 14 28 16 26 29 24 31
REMARK Flexibility Score: inf
ROOT
ATOM      1  O   UNL     1      29.580  -6.511 -29.478  1.00  0.00    -0.458 OA
ENDROOT
BRANCH   1   2
ATOM      2  C   UNL     1      30.794  -6.915 -28.833  1.00  0.00     0.339 C 
ATOM      3  C   UNL     1      32.226  -5.991 -30.501  1.00  0.00     0.199 C 
ATOM      4  C   UNL     1      32.661  -7.391 -31.003  1.00  0.00     0.180 C 
ATOM      5  O   UNL     1      31.839  -5.997 -29.130  1.00  0.00    -0.328 OA
ATOM      6  C   UNL     1      31.610  -8.464 -30.669  1.00  0.00     0.181 C 
ATOM      7  C   UNL     1      31.188  -8.366 -29.195  1.00  0.00     0.214 C 
BRANCH   3   8
ATOM      8  C   UNL     1      31.213  -5.289 -31.378  1.00  0.00     0.073 C 
ATOM      9  O   UNL     1      30.792  -4.148 -31.054  1.00  0.00    -0.547 OA
ATOM     10  O   UNL     1      30.802  -5.845 -32.584  1.00  0.00    -0.547 OA
ENDBRANCH   3   8
BRANCH   4  11
ATOM     11  O   UNL     1      33.888  -7.722 -30.401  1.00  0.00    -0.387 OA
ATOM     12  H   UNL     1      34.587  -7.175 -30.847  1.00  0.00     0.211 HD
ENDBRANCH   4  11
BRANCH   6  13
ATOM     13  O   UNL     1      30.495  -8.313 -31.512  1.00  0.00    -0.387 OA
ATOM     14  H   UNL     1      30.724  -8.744 -32.376  1.00  0.00     0.211 HD
ENDBRANCH   6  13
BRANCH   7  15
ATOM     15  O   UNL     1      32.249  -8.789 -28.376  1.00  0.00    -0.384 OA
ATOM     16  H   UNL     1      32.894  -8.035 -28.328  1.00  0.00     0.211 HD
ENDBRANCH   7  15
ENDBRANCH   1   2
BRANCH   1  17
ATOM     17  C   UNL     1      28.347  -6.190 -28.878  1.00  0.00     0.172 A 
ATOM     18  C   UNL     1      27.559  -5.068 -29.232  1.00  0.00     0.201 A 
ATOM     19  C   UNL     1      27.895  -7.063 -27.888  1.00  0.00     0.098 A 
ATOM     20  C   UNL     1      26.358  -4.799 -28.523  1.00  0.00     0.176 A 
ATOM     21  C   UNL     1      26.700  -6.832 -27.214  1.00  0.00     0.146 A 
ATOM     22  C   UNL     1      25.920  -5.697 -27.518  1.00  0.00     0.111 A 
ATOM     23  O   UNL     1      26.312  -7.692 -26.277  1.00  0.00    -0.456 OA
ATOM     24  C   UNL     1      24.728  -5.512 -26.783  1.00  0.00     0.197 A 
ATOM     25  C   UNL     1      25.190  -7.554 -25.577  1.00  0.00     0.138 A 
ATOM     26  C   UNL     1      24.365  -6.444 -25.810  1.00  0.00     0.100 A 
ATOM     27  O   UNL     1      23.977  -4.520 -26.983  1.00  0.00    -0.289 OA
BRANCH  18  28
ATOM     28  O   UNL     1      27.959  -4.266 -30.303  1.00  0.00    -0.502 OA
ATOM     29  H   UNL     1      28.696  -3.578 -30.260  1.00  0.00     0.293 HD
ENDBRANCH  18  28
BRANCH  20  30
ATOM     30  O   UNL     1      25.600  -3.653 -28.787  1.00  0.00    -0.504 OA
ATOM     31  H   UNL     1      25.590  -2.828 -28.205  1.00  0.00     0.293 HD
ENDBRANCH  20  30
BRANCH  25  32
ATOM     32  C   UNL     1      24.856  -8.578 -24.554  1.00  0.00     0.017 A 
ATOM     33  C   UNL     1      23.549  -9.085 -24.411  1.00  0.00     0.012 A 
ATOM     34  C   UNL     1      25.874  -9.084 -23.723  1.00  0.00     0.012 A 
ATOM     35  C   UNL     1      23.268 -10.058 -23.445  1.00  0.00     0.001 A 
ATOM     36  C   UNL     1      25.587 -10.055 -22.759  1.00  0.00     0.001 A 
ATOM     37  C   UNL     1      24.285 -10.539 -22.618  1.00  0.00     0.000 A 
ENDBRANCH  25  32
ENDBRANCH   1  17
TORSDOF 9
ENDMDL
MODEL 3
REMARK VINA RESULT:    -5.702     11.134     15.014
REMARK INTER + INTRA:          -9.281
REMARK INTER:                  -7.810
REMARK INTRA:                  -1.471
REMARK UNBOUND:                -1.412
REMARK SMILES O=C([O-])[C@H]1O[C@@H](Oc2cc3oc(-c4ccccc4)cc(=O)c3c(O)c2O)[C@H](O)[C@@H](O)[C@@H]1O
REMARK SMILES IDX 7 1 6 2 4 3 31 4 5 5 29 6 27 7 2 8 1 9 3 10 32 11 30 13
REMARK SMILES IDX 28 15 8 17 25 18 9 19 23 20 10 21 22 22 11 23 20 24 12 25
REMARK SMILES IDX 19 26 21 27 26 28 24 30 13 32 14 33 18 34 15 35 17 36 16 37
REMARK H PARENT 32 12 30 14 28 16 26 29 24 31
REMARK Flexibility Score: inf
ROOT
ATOM      1  O   UNL     1      21.979   3.290 -24.934  1.00  0.00    -0.458 OA
ENDROOT
BRANCH   1   2
ATOM      2  C   UNL     1      20.592   3.423 -24.599  1.00  0.00     0.339 C 
ATOM      3  C   UNL     1      20.379   1.212 -23.733  1.00  0.00     0.199 C 
ATOM      4  C   UNL     1      19.494   0.756 -24.920  1.00  0.00     0.180 C 
ATOM      5  O   UNL     1      20.274   2.609 -23.476  1.00  0.00    -0.328 OA
ATOM      6  C   UNL     1      19.729   1.625 -26.168  1.00  0.00     0.181 C 
ATOM      7  C   UNL     1      19.672   3.117 -25.804  1.00  0.00     0.214 C 
BRANCH   3   8
ATOM      8  C   UNL     1      21.817   0.748 -23.800  1.00  0.00     0.073 C 
ATOM      9  O   UNL     1      22.618   1.067 -22.882  1.00  0.00    -0.547 OA
ATOM     10  O   UNL     1      22.251  -0.098 -24.813  1.00  0.00    -0.547 OA
ENDBRANCH   3   8
BRANCH   4  11
ATOM     11  O   UNL     1      18.145   0.836 -24.531  1.00  0.00    -0.387 OA
ATOM     12  H   UNL     1      18.044   0.277 -23.716  1.00  0.00     0.211 HD
ENDBRANCH   4  11
BRANCH   6  13
ATOM     13  O   UNL     1      20.972   1.305 -26.741  1.00  0.00    -0.387 OA
ATOM     14  H   UNL     1      21.334   0.533 -26.233  1.00  0.00     0.211 HD
ENDBRANCH   6  13
BRANCH   7  15
ATOM     15  O   UNL     1      18.348   3.473 -25.495  1.00  0.00    -0.384 OA
ATOM     16  H   UNL     1      17.908   3.718 -26.351  1.00  0.00     0.211 HD
ENDBRANCH   7  15
ENDBRANCH   1   2
BRANCH   1  17
ATOM     17  C   UNL     1      23.031   4.172 -24.624  1.00  0.00     0.172 A 
ATOM     18  C   UNL     1      23.363   4.584 -23.311  1.00  0.00     0.201 A 
ATOM     19  C   UNL     1      23.787   4.635 -25.702  1.00  0.00     0.098 A 
ATOM     20  C   UNL     1      24.407   5.526 -23.111  1.00  0.00     0.176 A 
ATOM     21  C   UNL     1      24.838   5.527 -25.515  1.00  0.00     0.146 A 
ATOM     22  C   UNL     1      25.159   5.987 -24.220  1.00  0.00     0.111 A 
ATOM     23  O   UNL     1      25.527   5.942 -26.574  1.00  0.00    -0.456 OA
ATOM     24  C   UNL     1      26.225   6.906 -24.104  1.00  0.00     0.197 A 
ATOM     25  C   UNL     1      26.544   6.795 -26.496  1.00  0.00     0.138 A 
ATOM     26  C   UNL     1      26.918   7.311 -25.246  1.00  0.00     0.100 A 
ATOM     27  O   UNL     1      26.571   7.375 -22.986  1.00  0.00    -0.289 OA
BRANCH  18  28
ATOM     28  O   UNL     1      22.680   4.025 -22.230  1.00  0.00    -0.502 OA
ATOM     29  H   UNL     1      22.456   4.516 -21.377  1.00  0.00     0.293 HD
ENDBRANCH  18  28
BRANCH  20  30
ATOM     30  O   UNL     1      24.705   6.021 -21.837  1.00  0.00    -0.504 OA
ATOM     31  H   UNL     1      24.194   5.785 -20.998  1.00  0.00     0.293 HD
ENDBRANCH  20  30
BRANCH  25  32
ATOM     32  C   UNL     1      27.243   7.189 -27.747  1.00  0.00     0.017 A 
ATOM     33  C   UNL     1      26.918   8.374 -28.437  1.00  0.00     0.012 A 
ATOM     34  C   UNL     1      28.279   6.378 -28.245  1.00  0.00     0.012 A 
ATOM     35  C   UNL     1      27.601   8.723 -29.606  1.00  0.00     0.001 A 
ATOM     36  C   UNL     1      28.958   6.730 -29.415  1.00  0.00     0.001 A 
ATOM     37  C   UNL     1      28.617   7.900 -30.097  1.00  0.00     0.000 A 
ENDBRANCH  25  32
ENDBRANCH   1  17
TORSDOF 9
ENDMDL
MODEL 4
REMARK VINA RESULT:    -5.435      0.875      2.264
REMARK INTER + INTRA:          -8.911
REMARK INTER:                  -7.661
REMARK INTRA:                  -1.251
REMARK UNBOUND:                -1.412
REMARK SMILES O=C([O-])[C@H]1O[C@@H](Oc2cc3oc(-c4ccccc4)cc(=O)c3c(O)c2O)[C@H](O)[C@@H](O)[C@@H]1O
REMARK SMILES IDX 7 1 6 2 4 3 31 4 5 5 29 6 27 7 2 8 1 9 3 10 32 11 30 13
REMARK SMILES IDX 28 15 8 17 25 18 9 19 23 20 10 21 22 22 11 23 20 24 12 25
REMARK SMILES IDX 19 26 21 27 26 28 24 30 13 32 14 33 18 34 15 35 17 36 16 37
REMARK H PARENT 32 12 30 14 28 16 26 29 24 31
REMARK Flexibility Score: inf
ROOT
ATOM      1  O   UNL     1      29.528  -6.797 -29.100  1.00  0.00    -0.458 OA
ENDROOT
BRANCH   1   2
ATOM      2  C   UNL     1      30.620  -5.926 -29.420  1.00  0.00     0.339 C 
ATOM      3  C   UNL     1      30.862  -6.718 -31.656  1.00  0.00     0.199 C 
ATOM      4  C   UNL     1      32.211  -7.411 -31.340  1.00  0.00     0.180 C 
ATOM      5  O   UNL     1      30.606  -5.604 -30.806  1.00  0.00    -0.328 OA
ATOM      6  C   UNL     1      32.339  -7.744 -29.844  1.00  0.00     0.181 C 
ATOM      7  C   UNL     1      31.981  -6.520 -28.986  1.00  0.00     0.214 C 
BRANCH   3   8
ATOM      8  C   UNL     1      29.675  -7.651 -31.749  1.00  0.00     0.073 C 
ATOM      9  O   UNL     1      29.858  -8.897 -31.719  1.00  0.00    -0.547 OA
ATOM     10  O   UNL     1      28.375  -7.159 -31.781  1.00  0.00    -0.547 OA
ENDBRANCH   3   8
BRANCH   4  11
ATOM     11  O   UNL     1      33.257  -6.557 -31.730  1.00  0.00    -0.387 OA
ATOM     12  H   UNL     1      34.073  -6.859 -31.252  1.00  0.00     0.211 HD
ENDBRANCH   4  11
BRANCH   6  13
ATOM     13  O   UNL     1      31.504  -8.829 -29.526  1.00  0.00    -0.387 OA
ATOM     14  H   UNL     1      31.091  -8.628 -28.646  1.00  0.00     0.211 HD
ENDBRANCH   6  13
BRANCH   7  15
ATOM     15  O   UNL     1      32.988  -5.548 -29.116  1.00  0.00    -0.384 OA
ATOM     16  H   UNL     1      33.693  -5.773 -28.454  1.00  0.00     0.211 HD
ENDBRANCH   7  15
ENDBRANCH   1   2
BRANCH   1  17
ATOM     17  C   UNL     1      28.283  -6.451 -28.539  1.00  0.00     0.172 A 
ATOM     18  C   UNL     1      27.442  -5.428 -29.039  1.00  0.00     0.201 A 
ATOM     19  C   UNL     1      27.875  -7.198 -27.433  1.00  0.00     0.098 A 
ATOM     20  C   UNL     1      26.232  -5.118 -28.363  1.00  0.00     0.176 A 
ATOM     21  C   UNL     1      26.673  -6.930 -26.786  1.00  0.00     0.146 A 
ATOM     22  C   UNL     1      25.839  -5.886 -27.239  1.00  0.00     0.111 A 
ATOM     23  O   UNL     1      26.328  -7.668 -25.735  1.00  0.00    -0.456 OA
ATOM     24  C   UNL     1      24.642  -5.655 -26.525  1.00  0.00     0.197 A 
ATOM     25  C   UNL     1      25.203  -7.485 -25.050  1.00  0.00     0.138 A 
ATOM     26  C   UNL     1      24.326  -6.457 -25.428  1.00  0.00     0.100 A 
ATOM     27  O   UNL     1      23.845  -4.736 -26.855  1.00  0.00    -0.289 OA
BRANCH  18  28
ATOM     28  O   UNL     1      27.801  -4.766 -30.214  1.00  0.00    -0.502 OA
ATOM     29  H   UNL     1      28.372  -3.935 -30.253  1.00  0.00     0.293 HD
ENDBRANCH  18  28
BRANCH  20  30
ATOM     30  O   UNL     1      25.420  -4.057 -28.777  1.00  0.00    -0.504 OA
ATOM     31  H   UNL     1      24.862  -3.488 -28.157  1.00  0.00     0.293 HD
ENDBRANCH  20  30
BRANCH  25  32
ATOM     32  C   UNL     1      24.921  -8.371 -23.892  1.00  0.00     0.017 A 
ATOM     33  C   UNL     1      23.835  -8.135 -23.025  1.00  0.00     0.012 A 
ATOM     34  C   UNL     1      25.737  -9.495 -23.665  1.00  0.00     0.012 A 
ATOM     35  C   UNL     1      23.588  -8.993 -21.948  1.00  0.00     0.001 A 
ATOM     36  C   UNL     1      25.488 -10.349 -22.586  1.00  0.00     0.001 A 
ATOM     37  C   UNL     1      24.416 -10.096 -21.727  1.00  0.00     0.000 A 
ENDBRANCH  25  32
ENDBRANCH   1  17
TORSDOF 9
ENDMDL
MODEL 5
REMARK VINA RESULT:    -5.302      1.754      1.994
REMARK INTER + INTRA:          -8.729
REMARK INTER:                  -7.685
REMARK INTRA:                  -1.044
REMARK UNBOUND:                -1.412
REMARK SMILES O=C([O-])[C@H]1O[C@@H](Oc2cc3oc(-c4ccccc4)cc(=O)c3c(O)c2O)[C@H](O)[C@@H](O)[C@@H]1O
REMARK SMILES IDX 7 1 6 2 4 3 31 4 5 5 29 6 27 7 2 8 1 9 3 10 32 11 30 13
REMARK SMILES IDX 28 15 8 17 25 18 9 19 23 20 10 21 22 22 11 23 20 24 12 25
REMARK SMILES IDX 19 26 21 27 26 28 24 30 13 32 14 33 18 34 15 35 17 36 16 37
REMARK H PARENT 32 12 30 14 28 16 26 29 24 31
REMARK Flexibility Score: inf
ROOT
ATOM      1  O   UNL     1      30.833  -6.142 -29.323  1.00  0.00    -0.458 OA
ENDROOT
BRANCH   1   2
ATOM      2  C   UNL     1      31.163  -7.434 -29.846  1.00  0.00     0.339 C 
ATOM      3  C   UNL     1      33.256  -6.753 -30.763  1.00  0.00     0.199 C 
ATOM      4  C   UNL     1      32.743  -6.889 -32.218  1.00  0.00     0.180 C 
ATOM      5  O   UNL     1      32.574  -7.617 -29.858  1.00  0.00    -0.328 OA
ATOM      6  C   UNL     1      31.212  -6.764 -32.293  1.00  0.00     0.181 C 
ATOM      7  C   UNL     1      30.545  -7.669 -31.245  1.00  0.00     0.214 C 
BRANCH   3   8
ATOM      8  C   UNL     1      33.335  -5.333 -30.248  1.00  0.00     0.073 C 
ATOM      9  O   UNL     1      33.083  -4.374 -31.024  1.00  0.00    -0.547 OA
ATOM     10  O   UNL     1      33.596  -5.069 -28.908  1.00  0.00    -0.547 OA
ENDBRANCH   3   8
BRANCH   4  11
ATOM     11  O   UNL     1      33.145  -8.140 -32.720  1.00  0.00    -0.387 OA
ATOM     12  H   UNL     1      33.855  -7.968 -33.393  1.00  0.00     0.211 HD
ENDBRANCH   4  11
BRANCH   6  13
ATOM     13  O   UNL     1      30.836  -5.424 -32.098  1.00  0.00    -0.387 OA
ATOM     14  H   UNL     1      31.666  -4.881 -32.143  1.00  0.00     0.211 HD
ENDBRANCH   6  13
BRANCH   7  15
ATOM     15  O   UNL     1      30.707  -9.014 -31.618  1.00  0.00    -0.384 OA
ATOM     16  H   UNL     1      31.207  -9.458 -30.883  1.00  0.00     0.211 HD
ENDBRANCH   7  15
ENDBRANCH   1   2
BRANCH   1  17
ATOM     17  C   UNL     1      29.866  -5.825 -28.349  1.00  0.00     0.172 A 
ATOM     18  C   UNL     1      29.265  -4.550 -28.212  1.00  0.00     0.201 A 
ATOM     19  C   UNL     1      29.486  -6.860 -27.495  1.00  0.00     0.098 A 
ATOM     20  C   UNL     1      28.343  -4.317 -27.158  1.00  0.00     0.176 A 
ATOM     21  C   UNL     1      28.553  -6.655 -26.483  1.00  0.00     0.146 A 
ATOM     22  C   UNL     1      27.974  -5.381 -26.298  1.00  0.00     0.111 A 
ATOM     23  O   UNL     1      28.225  -7.672 -25.693  1.00  0.00    -0.456 OA
ATOM     24  C   UNL     1      27.049  -5.237 -25.241  1.00  0.00     0.197 A 
ATOM     25  C   UNL     1      27.348  -7.572 -24.698  1.00  0.00     0.138 A 
ATOM     26  C   UNL     1      26.737  -6.336 -24.439  1.00  0.00     0.100 A 
ATOM     27  O   UNL     1      26.492  -4.132 -24.999  1.00  0.00    -0.289 OA
BRANCH  18  28
ATOM     28  O   UNL     1      29.562  -3.554 -29.143  1.00  0.00    -0.502 OA
ATOM     29  H   UNL     1      29.997  -2.671 -28.920  1.00  0.00     0.293 HD
ENDBRANCH  18  28
BRANCH  20  30
ATOM     30  O   UNL     1      27.796  -3.048 -26.939  1.00  0.00    -0.504 OA
ATOM     31  H   UNL     1      27.995  -2.470 -26.134  1.00  0.00     0.293 HD
ENDBRANCH  20  30
BRANCH  25  32
ATOM     32  C   UNL     1      27.057  -8.777 -23.879  1.00  0.00     0.017 A 
ATOM     33  C   UNL     1      25.737  -9.198 -23.622  1.00  0.00     0.012 A 
ATOM     34  C   UNL     1      28.123  -9.541 -23.370  1.00  0.00     0.012 A 
ATOM     35  C   UNL     1      25.495 -10.343 -22.856  1.00  0.00     0.001 A 
ATOM     36  C   UNL     1      27.877 -10.685 -22.603  1.00  0.00     0.001 A 
ATOM     37  C   UNL     1      26.563 -11.083 -22.344  1.00  0.00     0.000 A 
ENDBRANCH  25  32
ENDBRANCH   1  17
TORSDOF 9
ENDMDL
MODEL 6
REMARK VINA RESULT:    -5.282      2.882      4.917
REMARK INTER + INTRA:          -8.700
REMARK INTER:                  -7.571
REMARK INTRA:                  -1.130
REMARK UNBOUND:                -1.412
REMARK SMILES O=C([O-])[C@H]1O[C@@H](Oc2cc3oc(-c4ccccc4)cc(=O)c3c(O)c2O)[C@H](O)[C@@H](O)[C@@H]1O
REMARK SMILES IDX 7 1 6 2 4 3 31 4 5 5 29 6 27 7 2 8 1 9 3 10 32 11 30 13
REMARK SMILES IDX 28 15 8 17 25 18 9 19 23 20 10 21 22 22 11 23 20 24 12 25
REMARK SMILES IDX 19 26 21 27 26 28 24 30 13 32 14 33 18 34 15 35 17 36 16 37
REMARK H PARENT 32 12 30 14 28 16 26 29 24 31
REMARK Flexibility Score: inf
ROOT
ATOM      1  O   UNL     1      31.434  -6.328 -29.003  1.00  0.00    -0.458 OA
ENDROOT
BRANCH   1   2
ATOM      2  C   UNL     1      31.207  -5.055 -29.622  1.00  0.00     0.339 C 
ATOM      3  C   UNL     1      29.993  -5.941 -31.472  1.00  0.00     0.199 C 
ATOM      4  C   UNL     1      31.135  -5.617 -32.467  1.00  0.00     0.180 C 
ATOM      5  O   UNL     1      29.983  -5.068 -30.346  1.00  0.00    -0.328 OA
ATOM      6  C   UNL     1      32.496  -5.523 -31.757  1.00  0.00     0.181 C 
ATOM      7  C   UNL     1      32.395  -4.624 -30.514  1.00  0.00     0.214 C 
BRANCH   3   8
ATOM      8  C   UNL     1      29.896  -7.395 -31.069  1.00  0.00     0.073 C 
ATOM      9  O   UNL     1      28.995  -7.763 -30.270  1.00  0.00    -0.547 OA
ATOM     10  O   UNL     1      30.732  -8.353 -31.633  1.00  0.00    -0.547 OA
ENDBRANCH   3   8
BRANCH   4  11
ATOM     11  O   UNL     1      30.844  -4.397 -33.103  1.00  0.00    -0.387 OA
ATOM     12  H   UNL     1      31.372  -3.695 -32.640  1.00  0.00     0.211 HD
ENDBRANCH   4  11
BRANCH   6  13
ATOM     13  O   UNL     1      32.933  -6.810 -31.398  1.00  0.00    -0.387 OA
ATOM     14  H   UNL     1      32.166  -7.425 -31.537  1.00  0.00     0.211 HD
ENDBRANCH   6  13
BRANCH   7  15
ATOM     15  O   UNL     1      32.228  -3.288 -30.917  1.00  0.00    -0.384 OA
ATOM     16  H   UNL     1      32.996  -2.778 -30.547  1.00  0.00     0.211 HD
ENDBRANCH   7  15
ENDBRANCH   1   2
BRANCH   1  17
ATOM     17  C   UNL     1      31.562  -6.611 -27.630  1.00  0.00     0.172 A 
ATOM     18  C   UNL     1      32.684  -6.249 -26.845  1.00  0.00     0.201 A 
ATOM     19  C   UNL     1      30.491  -7.276 -27.033  1.00  0.00     0.098 A 
ATOM     20  C   UNL     1      32.742  -6.635 -25.480  1.00  0.00     0.176 A 
ATOM     21  C   UNL     1      30.518  -7.625 -25.686  1.00  0.00     0.146 A 
ATOM     22  C   UNL     1      31.644  -7.314 -24.894  1.00  0.00     0.111 A 
ATOM     23  O   UNL     1      29.474  -8.259 -25.163  1.00  0.00    -0.456 OA
ATOM     24  C   UNL     1      31.615  -7.713 -23.540  1.00  0.00     0.197 A 
ATOM     25  C   UNL     1      29.410  -8.636 -23.890  1.00  0.00     0.138 A 
ATOM     26  C   UNL     1      30.495  -8.377 -23.038  1.00  0.00     0.100 A 
ATOM     27  O   UNL     1      32.582  -7.485 -22.765  1.00  0.00    -0.289 OA
BRANCH  18  28
ATOM     28  O   UNL     1      33.698  -5.481 -27.421  1.00  0.00    -0.502 OA
ATOM     29  H   UNL     1      34.024  -4.597 -27.059  1.00  0.00     0.293 HD
ENDBRANCH  18  28
BRANCH  20  30
ATOM     30  O   UNL     1      33.871  -6.371 -24.698  1.00  0.00    -0.504 OA
ATOM     31  H   UNL     1      33.848  -5.916 -23.796  1.00  0.00     0.293 HD
ENDBRANCH  20  30
BRANCH  25  32
ATOM     32  C   UNL     1      28.191  -9.339 -23.414  1.00  0.00     0.017 A 
ATOM     33  C   UNL     1      28.267 -10.492 -22.605  1.00  0.00     0.012 A 
ATOM     34  C   UNL     1      26.923  -8.829 -23.749  1.00  0.00     0.012 A 
ATOM     35  C   UNL     1      27.100 -11.125 -22.164  1.00  0.00     0.001 A 
ATOM     36  C   UNL     1      25.760  -9.467 -23.307  1.00  0.00     0.001 A 
ATOM     37  C   UNL     1      25.849 -10.616 -22.518  1.00  0.00     0.000 A 
ENDBRANCH  25  32
ENDBRANCH   1  17
TORSDOF 9
ENDMDL
MODEL 7
REMARK VINA RESULT:    -5.265      1.549      2.252
REMARK INTER + INTRA:          -8.678
REMARK INTER:                  -7.214
REMARK INTRA:                  -1.464
REMARK UNBOUND:                -1.412
REMARK SMILES O=C([O-])[C@H]1O[C@@H](Oc2cc3oc(-c4ccccc4)cc(=O)c3c(O)c2O)[C@H](O)[C@@H](O)[C@@H]1O
REMARK SMILES IDX 7 1 6 2 4 3 31 4 5 5 29 6 27 7 2 8 1 9 3 10 32 11 30 13
REMARK SMILES IDX 28 15 8 17 25 18 9 19 23 20 10 21 22 22 11 23 20 24 12 25
REMARK SMILES IDX 19 26 21 27 26 28 24 30 13 32 14 33 18 34 15 35 17 36 16 37
REMARK H PARENT 32 12 30 14 28 16 26 29 24 31
REMARK Flexibility Score: inf
ROOT
ATOM      1  O   UNL     1      31.035  -5.883 -29.270  1.00  0.00    -0.458 OA
ENDROOT
BRANCH   1   2
ATOM      2  C   UNL     1      31.176  -7.216 -29.776  1.00  0.00     0.339 C 
ATOM      3  C   UNL     1      33.380  -6.880 -30.621  1.00  0.00     0.199 C 
ATOM      4  C   UNL     1      32.902  -6.949 -32.093  1.00  0.00     0.180 C 
ATOM      5  O   UNL     1      32.540  -7.618 -29.737  1.00  0.00    -0.328 OA
ATOM      6  C   UNL     1      31.412  -6.587 -32.223  1.00  0.00     0.181 C 
ATOM      7  C   UNL     1      30.577  -7.365 -31.194  1.00  0.00     0.214 C 
BRANCH   3   8
ATOM      8  C   UNL     1      33.662  -5.485 -30.111  1.00  0.00     0.073 C 
ATOM      9  O   UNL     1      34.049  -5.321 -28.924  1.00  0.00    -0.547 OA
ATOM     10  O   UNL     1      33.586  -4.383 -30.955  1.00  0.00    -0.547 OA
ENDBRANCH   3   8
BRANCH   4  11
ATOM     11  O   UNL     1      33.119  -8.252 -32.575  1.00  0.00    -0.387 OA
ATOM     12  H   UNL     1      34.103  -8.390 -32.607  1.00  0.00     0.211 HD
ENDBRANCH   4  11
BRANCH   6  13
ATOM     13  O   UNL     1      31.244  -5.202 -32.047  1.00  0.00    -0.387 OA
ATOM     14  H   UNL     1      32.066  -4.765 -32.392  1.00  0.00     0.211 HD
ENDBRANCH   6  13
BRANCH   7  15
ATOM     15  O   UNL     1      30.538  -8.723 -31.555  1.00  0.00    -0.384 OA
ATOM     16  H   UNL     1      31.253  -9.179 -31.037  1.00  0.00     0.211 HD
ENDBRANCH   7  15
ENDBRANCH   1   2
BRANCH   1  17
ATOM     17  C   UNL     1      29.847  -5.214 -28.917  1.00  0.00     0.172 A 
ATOM     18  C   UNL     1      29.557  -3.872 -29.264  1.00  0.00     0.201 A 
ATOM     19  C   UNL     1      28.911  -5.955 -28.195  1.00  0.00     0.098 A 
ATOM     20  C   UNL     1      28.355  -3.270 -28.807  1.00  0.00     0.176 A 
ATOM     21  C   UNL     1      27.711  -5.388 -27.776  1.00  0.00     0.146 A 
ATOM     22  C   UNL     1      27.420  -4.040 -28.071  1.00  0.00     0.111 A 
ATOM     23  O   UNL     1      26.851  -6.135 -27.090  1.00  0.00    -0.456 OA
ATOM     24  C   UNL     1      26.193  -3.523 -27.600  1.00  0.00     0.197 A 
ATOM     25  C   UNL     1      25.683  -5.682 -26.643  1.00  0.00     0.138 A 
ATOM     26  C   UNL     1      25.325  -4.347 -26.883  1.00  0.00     0.100 A 
ATOM     27  O   UNL     1      25.859  -2.326 -27.810  1.00  0.00    -0.289 OA
BRANCH  18  28
ATOM     28  O   UNL     1      30.445  -3.175 -30.086  1.00  0.00    -0.502 OA
ATOM     29  H   UNL     1      30.189  -2.400 -30.680  1.00  0.00     0.293 HD
ENDBRANCH  18  28
BRANCH  20  30
ATOM     30  O   UNL     1      28.077  -1.922 -29.057  1.00  0.00    -0.504 OA
ATOM     31  H   UNL     1      28.739  -1.170 -28.937  1.00  0.00     0.293 HD
ENDBRANCH  20  30
BRANCH  25  32
ATOM     32  C   UNL     1      24.801  -6.607 -25.886  1.00  0.00     0.017 A 
ATOM     33  C   UNL     1      25.276  -7.831 -25.372  1.00  0.00     0.012 A 
ATOM     34  C   UNL     1      23.463  -6.244 -25.645  1.00  0.00     0.012 A 
ATOM     35  C   UNL     1      24.423  -8.675 -24.654  1.00  0.00     0.001 A 
ATOM     36  C   UNL     1      22.614  -7.093 -24.928  1.00  0.00     0.001 A 
ATOM     37  C   UNL     1      23.093  -8.309 -24.436  1.00  0.00     0.000 A 
ENDBRANCH  25  32
ENDBRANCH   1  17
TORSDOF 9
ENDMDL
MODEL 8
REMARK VINA RESULT:    -5.264     10.240     13.754
REMARK INTER + INTRA:          -8.676
REMARK INTER:                  -7.737
REMARK INTRA:                  -0.939
REMARK UNBOUND:                -1.412
REMARK SMILES O=C([O-])[C@H]1O[C@@H](Oc2cc3oc(-c4ccccc4)cc(=O)c3c(O)c2O)[C@H](O)[C@@H](O)[C@@H]1O
REMARK SMILES IDX 7 1 6 2 4 3 31 4 5 5 29 6 27 7 2 8 1 9 3 10 32 11 30 13
REMARK SMILES IDX 28 15 8 17 25 18 9 19 23 20 10 21 22 22 11 23 20 24 12 25
REMARK SMILES IDX 19 26 21 27 26 28 24 30 13 32 14 33 18 34 15 35 17 36 16 37
REMARK H PARENT 32 12 30 14 28 16 26 29 24 31
REMARK Flexibility Score: inf
ROOT
ATOM      1  O   UNL     1      21.715   1.766 -25.491  1.00  0.00    -0.458 OA
ENDROOT
BRANCH   1   2
ATOM      2  C   UNL     1      22.127   0.550 -26.128  1.00  0.00     0.339 C 
ATOM      3  C   UNL     1      20.294  -0.738 -25.311  1.00  0.00     0.199 C 
ATOM      4  C   UNL     1      21.203  -1.559 -24.362  1.00  0.00     0.180 C 
ATOM      5  O   UNL     1      20.994  -0.247 -26.451  1.00  0.00    -0.328 OA
ATOM      6  C   UNL     1      22.489  -0.793 -24.006  1.00  0.00     0.181 C 
ATOM      7  C   UNL     1      23.152  -0.233 -25.274  1.00  0.00     0.214 C 
BRANCH   3   8
ATOM      8  C   UNL     1      19.479   0.340 -24.633  1.00  0.00     0.073 C 
ATOM      9  O   UNL     1      18.712   1.067 -25.318  1.00  0.00    -0.547 OA
ATOM     10  O   UNL     1      19.493   0.488 -23.250  1.00  0.00    -0.547 OA
ENDBRANCH   3   8
BRANCH   4  11
ATOM     11  O   UNL     1      21.530  -2.772 -24.993  1.00  0.00    -0.387 OA
ATOM     12  H   UNL     1      20.853  -3.441 -24.706  1.00  0.00     0.211 HD
ENDBRANCH   4  11
BRANCH   6  13
ATOM     13  O   UNL     1      22.188   0.246 -23.108  1.00  0.00    -0.387 OA
ATOM     14  H   UNL     1      21.993   1.052 -23.653  1.00  0.00     0.211 HD
ENDBRANCH   6  13
BRANCH   7  15
ATOM     15  O   UNL     1      23.689  -1.291 -26.027  1.00  0.00    -0.384 OA
ATOM     16  H   UNL     1      24.670  -1.284 -25.874  1.00  0.00     0.211 HD
ENDBRANCH   7  15
ENDBRANCH   1   2
BRANCH   1  17
ATOM     17  C   UNL     1      22.488   2.916 -25.241  1.00  0.00     0.172 A 
ATOM     18  C   UNL     1      23.391   3.485 -26.171  1.00  0.00     0.201 A 
ATOM     19  C   UNL     1      22.314   3.518 -23.994  1.00  0.00     0.098 A 
ATOM     20  C   UNL     1      24.169   4.612 -25.798  1.00  0.00     0.176 A 
ATOM     21  C   UNL     1      23.042   4.648 -23.631  1.00  0.00     0.146 A 
ATOM     22  C   UNL     1      23.981   5.206 -24.525  1.00  0.00     0.111 A 
ATOM     23  O   UNL     1      22.842   5.184 -22.432  1.00  0.00    -0.456 OA
ATOM     24  C   UNL     1      24.698   6.340 -24.086  1.00  0.00     0.197 A 
ATOM     25  C   UNL     1      23.492   6.259 -21.994  1.00  0.00     0.138 A 
ATOM     26  C   UNL     1      24.453   6.866 -22.817  1.00  0.00     0.100 A 
ATOM     27  O   UNL     1      25.563   6.896 -24.816  1.00  0.00    -0.289 OA
BRANCH  18  28
ATOM     28  O   UNL     1      23.472   2.947 -27.457  1.00  0.00    -0.502 OA
ATOM     29  H   UNL     1      23.074   3.372 -28.282  1.00  0.00     0.293 HD
ENDBRANCH  18  28
BRANCH  20  30
ATOM     30  O   UNL     1      25.134   5.147 -26.659  1.00  0.00    -0.504 OA
ATOM     31  H   UNL     1      26.021   5.525 -26.360  1.00  0.00     0.293 HD
ENDBRANCH  20  30
BRANCH  25  32
ATOM     32  C   UNL     1      23.188   6.772 -20.634  1.00  0.00     0.017 A 
ATOM     33  C   UNL     1      22.834   8.119 -20.411  1.00  0.00     0.012 A 
ATOM     34  C   UNL     1      23.220   5.891 -19.538  1.00  0.00     0.012 A 
ATOM     35  C   UNL     1      22.542   8.570 -19.120  1.00  0.00     0.001 A 
ATOM     36  C   UNL     1      22.930   6.347 -18.249  1.00  0.00     0.001 A 
ATOM     37  C   UNL     1      22.594   7.687 -18.040  1.00  0.00     0.000 A 
ENDBRANCH  25  32
ENDBRANCH   1  17
TORSDOF 9
ENDMDL
MODEL 9
REMARK VINA RESULT:    -5.225      3.114      4.011
REMARK INTER + INTRA:          -8.622
REMARK INTER:                  -7.367
REMARK INTRA:                  -1.255
REMARK UNBOUND:                -1.412
REMARK SMILES O=C([O-])[C@H]1O[C@@H](Oc2cc3oc(-c4ccccc4)cc(=O)c3c(O)c2O)[C@H](O)[C@@H](O)[C@@H]1O
REMARK SMILES IDX 7 1 6 2 4 3 31 4 5 5 29 6 27 7 2 8 1 9 3 10 32 11 30 13
REMARK SMILES IDX 28 15 8 17 25 18 9 19 23 20 10 21 22 22 11 23 20 24 12 25
REMARK SMILES IDX 19 26 21 27 26 28 24 30 13 32 14 33 18 34 15 35 17 36 16 37
REMARK H PARENT 32 12 30 14 28 16 26 29 24 31
REMARK Flexibility Score: inf
ROOT
ATOM      1  O   UNL     1      29.074  -5.593 -29.347  1.00  0.00    -0.458 OA
ENDROOT
BRANCH   1   2
ATOM      2  C   UNL     1      28.768  -6.963 -29.636  1.00  0.00     0.339 C 
ATOM      3  C   UNL     1      31.044  -7.634 -29.865  1.00  0.00     0.199 C 
ATOM      4  C   UNL     1      30.902  -7.842 -31.394  1.00  0.00     0.180 C 
ATOM      5  O   UNL     1      29.812  -7.810 -29.172  1.00  0.00    -0.328 OA
ATOM      6  C   UNL     1      29.750  -7.004 -31.975  1.00  0.00     0.181 C 
ATOM      7  C   UNL     1      28.475  -7.188 -31.138  1.00  0.00     0.214 C 
BRANCH   3   8
ATOM      8  C   UNL     1      31.751  -6.360 -29.461  1.00  0.00     0.073 C 
ATOM      9  O   UNL     1      32.266  -5.625 -30.345  1.00  0.00    -0.547 OA
ATOM     10  O   UNL     1      31.769  -5.938 -28.137  1.00  0.00    -0.547 OA
ENDBRANCH   3   8
BRANCH   4  11
ATOM     11  O   UNL     1      30.672  -9.207 -31.641  1.00  0.00    -0.387 OA
ATOM     12  H   UNL     1      30.754  -9.679 -30.771  1.00  0.00     0.211 HD
ENDBRANCH   4  11
BRANCH   6  13
ATOM     13  O   UNL     1      30.123  -5.649 -32.014  1.00  0.00    -0.387 OA
ATOM     14  H   UNL     1      31.070  -5.618 -32.311  1.00  0.00     0.211 HD
ENDBRANCH   6  13
BRANCH   7  15
ATOM     15  O   UNL     1      27.968  -8.484 -31.335  1.00  0.00    -0.384 OA
ATOM     16  H   UNL     1      28.454  -9.081 -30.707  1.00  0.00     0.211 HD
ENDBRANCH   7  15
ENDBRANCH   1   2
BRANCH   1  17
ATOM     17  C   UNL     1      28.310  -4.675 -28.601  1.00  0.00     0.172 A 
ATOM     18  C   UNL     1      28.846  -3.539 -27.948  1.00  0.00     0.201 A 
ATOM     19  C   UNL     1      26.938  -4.920 -28.538  1.00  0.00     0.098 A 
ATOM     20  C   UNL     1      27.998  -2.707 -27.170  1.00  0.00     0.176 A 
ATOM     21  C   UNL     1      26.089  -4.089 -27.812  1.00  0.00     0.146 A 
ATOM     22  C   UNL     1      26.608  -2.977 -27.116  1.00  0.00     0.111 A 
ATOM     23  O   UNL     1      24.789  -4.366 -27.780  1.00  0.00    -0.456 OA
ATOM     24  C   UNL     1      25.695  -2.187 -26.384  1.00  0.00     0.197 A 
ATOM     25  C   UNL     1      23.902  -3.635 -27.111  1.00  0.00     0.138 A 
ATOM     26  C   UNL     1      24.339  -2.519 -26.382  1.00  0.00     0.100 A 
ATOM     27  O   UNL     1      26.074  -1.182 -25.725  1.00  0.00    -0.289 OA
BRANCH  18  28
ATOM     28  O   UNL     1      30.198  -3.234 -28.114  1.00  0.00    -0.502 OA
ATOM     29  H   UNL     1      30.949  -3.907 -28.058  1.00  0.00     0.293 HD
ENDBRANCH  18  28
BRANCH  20  30
ATOM     30  O   UNL     1      28.508  -1.628 -26.441  1.00  0.00    -0.504 OA
ATOM     31  H   UNL     1      28.134  -0.690 -26.471  1.00  0.00     0.293 HD
ENDBRANCH  20  30
BRANCH  25  32
ATOM     32  C   UNL     1      22.473  -4.038 -27.147  1.00  0.00     0.017 A 
ATOM     33  C   UNL     1      21.574  -3.502 -28.092  1.00  0.00     0.012 A 
ATOM     34  C   UNL     1      22.003  -5.003 -26.237  1.00  0.00     0.012 A 
ATOM     35  C   UNL     1      20.236  -3.910 -28.107  1.00  0.00     0.001 A 
ATOM     36  C   UNL     1      20.664  -5.406 -26.255  1.00  0.00     0.001 A 
ATOM     37  C   UNL     1      19.781  -4.857 -27.188  1.00  0.00     0.000 A 
ENDBRANCH  25  32
ENDBRANCH   1  17
TORSDOF 9
ENDMDL
