MODEL 1
REMARK VINA RESULT:    -3.542      0.000      0.000
REMARK INTER + INTRA:          -4.611
REMARK INTER:                  -4.992
REMARK INTRA:                   0.381
REMARK UNBOUND:                 0.381
REMARK SMILES CC1=CCC(=C(C)C)C(=O)CC(C)=CCC1
REMARK SMILES IDX 12 1 14 2 13 3 15 4 16 5 2 6 1 7 3 8 11 10 9 11 10 12 5 13
REMARK SMILES IDX 6 14 7 15 8 16 4 17
REMARK H PARENT
REMARK Flexibility Score: 60.00
ROOT
ATOM      1  C   UNL     1      -6.752  -0.778  10.509  1.00  0.00    -0.070 C 
ATOM      2  C   UNL     1      -7.898  -0.245   9.996  1.00  0.00    -0.027 C 
ATOM      3  C   UNL     1      -5.921   0.125  11.391  1.00  0.00     0.039 C 
ENDROOT
BRANCH   2   4
ATOM      4  C   UNL     1      -8.995  -0.854   9.130  1.00  0.00     0.032 C 
BRANCH   4   5
ATOM      5  C   UNL     1      -9.204  -0.254   7.735  1.00  0.00     0.034 C 
BRANCH   5   6
ATOM      6  C   UNL     1      -8.390  -0.826   6.566  1.00  0.00    -0.077 C 
ATOM      7  C   UNL     1      -8.280   0.071   5.352  1.00  0.00     0.039 C 
ATOM      8  C   UNL     1      -7.684  -1.994   6.500  1.00  0.00    -0.023 CG0
ATOM      9  G   UNL     1      -7.501  -3.103   7.519  1.00  0.00     0.000 G0
ENDBRANCH   5   6
ENDBRANCH   4   5
ENDBRANCH   2   4
BRANCH   1  10
ATOM     10  C   UNL     1      -6.215  -2.181  10.277  1.00  0.00     0.111 C 
BRANCH  10  11
ATOM     11  C   UNL     1      -5.556  -2.312   8.938  1.00  0.00     0.163 C 
ATOM     12  O   UNL     1      -4.537  -1.612   8.688  1.00  0.00    -0.294 OA
BRANCH  11  13
ATOM     13  C   UNL     1      -6.063  -3.280   7.931  1.00  0.00    -0.002 C 
ATOM     14  C   UNL     1      -5.271  -4.275   7.437  1.00  0.00    -0.069 C 
ATOM     15  C   UNL     1      -3.805  -4.361   7.801  1.00  0.00     0.039 C 
ATOM     16  C   UNL     1      -5.814  -5.326   6.495  1.00  0.00     0.039 C 
BRANCH  13  17
ATOM     17  C   UNL     1      -7.506  -3.103   7.508  1.00  0.00     0.066 CG0
ATOM     18  G   UNL     1      -7.670  -1.977   6.505  1.00  0.00     0.000 G0
ENDBRANCH  13  17
ENDBRANCH  11  13
ENDBRANCH  10  11
ENDBRANCH   1  10
TORSDOF 0
ENDMDL
MODEL 2
REMARK VINA RESULT:    -3.536      1.523      4.144
REMARK INTER + INTRA:          -4.603
REMARK INTER:                  -5.774
REMARK INTRA:                   1.171
REMARK UNBOUND:                 0.381
REMARK SMILES CC1=CCC(=C(C)C)C(=O)CC(C)=CCC1
REMARK SMILES IDX 12 1 14 2 13 3 15 4 16 5 2 6 1 7 3 8 11 10 9 11 10 12 5 13
REMARK SMILES IDX 6 14 7 15 8 16 4 17
REMARK H PARENT
REMARK Flexibility Score: 60.00
ROOT
ATOM      1  C   UNL     1      -5.703  -1.831  10.299  1.00  0.00    -0.070 C 
ATOM      2  C   UNL     1      -4.589  -2.570  10.024  1.00  0.00    -0.027 C 
ATOM      3  C   UNL     1      -5.474  -0.428  10.810  1.00  0.00     0.039 C 
ENDROOT
BRANCH   2   4
ATOM      4  C   UNL     1      -4.425  -3.974   9.452  1.00  0.00     0.032 C 
BRANCH   4   5
ATOM      5  C   UNL     1      -4.325  -4.106   7.928  1.00  0.00     0.034 C 
BRANCH   5   6
ATOM      6  C   UNL     1      -5.623  -4.087   7.108  1.00  0.00    -0.077 C 
ATOM      7  C   UNL     1      -6.038  -5.419   6.522  1.00  0.00     0.039 C 
ATOM      8  C   UNL     1      -6.496  -3.057   6.904  1.00  0.00    -0.023 CG0
ATOM      9  G   UNL     1      -6.460  -1.616   7.376  1.00  0.00     0.000 G0
ENDBRANCH   5   6
ENDBRANCH   4   5
ENDBRANCH   2   4
BRANCH   1  10
ATOM     10  C   UNL     1      -7.149  -2.275  10.154  1.00  0.00     0.111 C 
BRANCH  10  11
ATOM     11  C   UNL     1      -7.963  -1.280   9.385  1.00  0.00     0.163 C 
ATOM     12  O   UNL     1      -8.788  -0.555  10.006  1.00  0.00    -0.294 OA
BRANCH  11  13
ATOM     13  C   UNL     1      -7.776  -1.113   7.921  1.00  0.00    -0.002 C 
ATOM     14  C   UNL     1      -8.738  -0.540   7.140  1.00  0.00    -0.069 C 
ATOM     15  C   UNL     1     -10.086  -0.163   7.711  1.00  0.00     0.039 C 
ATOM     16  C   UNL     1      -8.508  -0.271   5.669  1.00  0.00     0.039 C 
BRANCH  13  17
ATOM     17  C   UNL     1      -6.456  -1.597   7.361  1.00  0.00     0.066 CG0
ATOM     18  G   UNL     1      -6.524  -3.046   6.915  1.00  0.00     0.000 G0
ENDBRANCH  13  17
ENDBRANCH  11  13
ENDBRANCH  10  11
ENDBRANCH   1  10
TORSDOF 0
ENDMDL
MODEL 3
REMARK VINA RESULT:    -3.415      1.675      4.787
REMARK INTER + INTRA:          -4.432
REMARK INTER:                  -5.252
REMARK INTRA:                   0.821
REMARK UNBOUND:                 0.381
REMARK SMILES CC1=CCC(=C(C)C)C(=O)CC(C)=CCC1
REMARK SMILES IDX 12 1 14 2 13 3 15 4 16 5 2 6 1 7 3 8 11 10 9 11 10 12 5 13
REMARK SMILES IDX 6 14 7 15 8 16 4 17
REMARK H PARENT
REMARK Flexibility Score: 60.00
ROOT
ATOM      1  C   UNL     1      -5.391  -3.932   7.523  1.00  0.00    -0.070 C 
ATOM      2  C   UNL     1      -4.949  -4.220   8.781  1.00  0.00    -0.027 C 
ATOM      3  C   UNL     1      -5.572  -5.102   6.584  1.00  0.00     0.039 C 
ENDROOT
BRANCH   2   4
ATOM      4  C   UNL     1      -4.706  -3.329   9.994  1.00  0.00     0.032 C 
BRANCH   4   5
ATOM      5  C   UNL     1      -4.760  -1.812   9.775  1.00  0.00     0.034 C 
BRANCH   5   6
ATOM      6  C   UNL     1      -5.958  -1.036  10.340  1.00  0.00    -0.077 C 
ATOM      7  C   UNL     1      -5.613   0.093  11.286  1.00  0.00     0.039 C 
ATOM      8  C   UNL     1      -7.285  -1.170  10.043  1.00  0.00    -0.023 CG0
ATOM      9  G   UNL     1      -8.003  -2.125   9.109  1.00  0.00     0.000 G0
ENDBRANCH   5   6
ENDBRANCH   4   5
ENDBRANCH   2   4
BRANCH   1  10
ATOM     10  C   UNL     1      -5.712  -2.556   6.962  1.00  0.00     0.111 C 
BRANCH  10  11
ATOM     11  C   UNL     1      -7.179  -2.383   6.713  1.00  0.00     0.163 C 
ATOM     12  O   UNL     1      -7.691  -2.909   5.687  1.00  0.00    -0.294 OA
BRANCH  11  13
ATOM     13  C   UNL     1      -8.032  -1.642   7.677  1.00  0.00    -0.002 C 
ATOM     14  C   UNL     1      -8.809  -0.592   7.282  1.00  0.00    -0.069 C 
ATOM     15  C   UNL     1      -8.740  -0.058   5.869  1.00  0.00     0.039 C 
ATOM     16  C   UNL     1      -9.759   0.096   8.237  1.00  0.00     0.039 C 
BRANCH  13  17
ATOM     17  C   UNL     1      -7.999  -2.135   9.109  1.00  0.00     0.066 CG0
ATOM     18  G   UNL     1      -7.273  -1.168  10.026  1.00  0.00     0.000 G0
ENDBRANCH  13  17
ENDBRANCH  11  13
ENDBRANCH  10  11
ENDBRANCH   1  10
TORSDOF 0
ENDMDL
MODEL 4
REMARK VINA RESULT:    -3.146      1.620      3.226
REMARK INTER + INTRA:          -4.053
REMARK INTER:                  -5.171
REMARK INTRA:                   1.118
REMARK UNBOUND:                 0.381
REMARK SMILES CC1=CCC(=C(C)C)C(=O)CC(C)=CCC1
REMARK SMILES IDX 12 1 14 2 13 3 15 4 16 5 2 6 1 7 3 8 11 10 9 11 10 12 5 13
REMARK SMILES IDX 6 14 7 15 8 16 4 17
REMARK H PARENT
REMARK Flexibility Score: 60.00
ROOT
ATOM      1  C   UNL     1      -5.139  -3.949   9.943  1.00  0.00    -0.070 C 
ATOM      2  C   UNL     1      -6.198  -3.654  10.751  1.00  0.00    -0.027 C 
ATOM      3  C   UNL     1      -4.002  -4.720  10.573  1.00  0.00     0.039 C 
ENDROOT
BRANCH   2   4
ATOM      4  C   UNL     1      -7.522  -2.955  10.464  1.00  0.00     0.032 C 
BRANCH   4   5
ATOM      5  C   UNL     1      -7.561  -1.431  10.621  1.00  0.00     0.034 C 
BRANCH   5   6
ATOM      6  C   UNL     1      -8.419  -0.619   9.640  1.00  0.00    -0.077 C 
ATOM      7  C   UNL     1      -9.796  -0.241  10.141  1.00  0.00     0.039 C 
ATOM      8  C   UNL     1      -8.083  -0.121   8.413  1.00  0.00    -0.023 CG0
ATOM      9  G   UNL     1      -6.797  -0.228   7.615  1.00  0.00     0.000 G0
ENDBRANCH   5   6
ENDBRANCH   4   5
ENDBRANCH   2   4
BRANCH   1  10
ATOM     10  C   UNL     1      -4.977  -3.574   8.479  1.00  0.00     0.111 C 
BRANCH  10  11
ATOM     11  C   UNL     1      -5.223  -2.115   8.247  1.00  0.00     0.163 C 
ATOM     12  O   UNL     1      -4.427  -1.274   8.747  1.00  0.00    -0.294 OA
BRANCH  11  13
ATOM     13  C   UNL     1      -6.360  -1.659   7.406  1.00  0.00    -0.002 C 
ATOM     14  C   UNL     1      -6.971  -2.497   6.518  1.00  0.00    -0.069 C 
ATOM     15  C   UNL     1      -6.437  -3.888   6.262  1.00  0.00     0.039 C 
ATOM     16  C   UNL     1      -8.196  -2.070   5.740  1.00  0.00     0.039 C 
BRANCH  13  17
ATOM     17  C   UNL     1      -6.804  -0.227   7.610  1.00  0.00     0.066 CG0
ATOM     18  G   UNL     1      -8.082  -0.138   8.423  1.00  0.00     0.000 G0
ENDBRANCH  13  17
ENDBRANCH  11  13
ENDBRANCH  10  11
ENDBRANCH   1  10
TORSDOF 0
ENDMDL
MODEL 5
REMARK VINA RESULT:    -2.960      1.293      3.975
REMARK INTER + INTRA:          -3.791
REMARK INTER:                  -4.443
REMARK INTRA:                   0.652
REMARK UNBOUND:                 0.381
REMARK SMILES CC1=CCC(=C(C)C)C(=O)CC(C)=CCC1
REMARK SMILES IDX 12 1 14 2 13 3 15 4 16 5 2 6 1 7 3 8 11 10 9 11 10 12 5 13
REMARK SMILES IDX 6 14 7 15 8 16 4 17
REMARK H PARENT
REMARK Flexibility Score: 60.00
ROOT
ATOM      1  C   UNL     1      -4.290  -4.005   8.107  1.00  0.00    -0.070 C 
ATOM      2  C   UNL     1      -5.131  -4.732   7.315  1.00  0.00    -0.027 C 
ATOM      3  C   UNL     1      -3.078  -4.727   8.647  1.00  0.00     0.039 C 
ENDROOT
BRANCH   2   4
ATOM      4  C   UNL     1      -6.396  -4.341   6.561  1.00  0.00     0.032 C 
BRANCH   4   5
ATOM      5  C   UNL     1      -6.540  -2.873   6.140  1.00  0.00     0.034 C 
BRANCH   5   6
ATOM      6  C   UNL     1      -7.712  -2.063   6.713  1.00  0.00    -0.077 C 
ATOM      7  C   UNL     1      -8.556  -1.333   5.690  1.00  0.00     0.039 C 
ATOM      8  C   UNL     1      -8.146  -1.975   8.005  1.00  0.00    -0.023 CG0
ATOM      9  G   UNL     1      -7.612  -2.603   9.278  1.00  0.00     0.000 G0
ENDBRANCH   5   6
ENDBRANCH   4   5
ENDBRANCH   2   4
BRANCH   1  10
ATOM     10  C   UNL     1      -4.450  -2.548   8.510  1.00  0.00     0.111 C 
BRANCH  10  11
ATOM     11  C   UNL     1      -5.142  -2.409   9.832  1.00  0.00     0.163 C 
ATOM     12  O   UNL     1      -4.537  -2.767  10.879  1.00  0.00    -0.294 OA
BRANCH  11  13
ATOM     13  C   UNL     1      -6.503  -1.820   9.920  1.00  0.00    -0.002 C 
ATOM     14  C   UNL     1      -6.721  -0.618  10.529  1.00  0.00    -0.069 C 
ATOM     15  C   UNL     1      -5.607   0.107  11.249  1.00  0.00     0.039 C 
ATOM     16  C   UNL     1      -8.086   0.036  10.526  1.00  0.00     0.039 C 
BRANCH  13  17
ATOM     17  C   UNL     1      -7.617  -2.621   9.280  1.00  0.00     0.066 CG0
ATOM     18  G   UNL     1      -8.148  -1.955   8.025  1.00  0.00     0.000 G0
ENDBRANCH  13  17
ENDBRANCH  11  13
ENDBRANCH  10  11
ENDBRANCH   1  10
TORSDOF 0
ENDMDL
MODEL 6
REMARK VINA RESULT:    -2.876      1.463      2.113
REMARK INTER + INTRA:          -3.672
REMARK INTER:                  -3.627
REMARK INTRA:                  -0.045
REMARK UNBOUND:                 0.381
REMARK SMILES CC1=CCC(=C(C)C)C(=O)CC(C)=CCC1
REMARK SMILES IDX 12 1 14 2 13 3 15 4 16 5 2 6 1 7 3 8 11 10 9 11 10 12 5 13
REMARK SMILES IDX 6 14 7 15 8 16 4 17
REMARK H PARENT
REMARK Flexibility Score: 60.00
ROOT
ATOM      1  C   UNL     1      -9.047  -0.514  10.318  1.00  0.00    -0.070 C 
ATOM      2  C   UNL     1      -9.701   0.125   9.305  1.00  0.00    -0.027 C 
ATOM      3  C   UNL     1      -9.160   0.105  11.692  1.00  0.00     0.039 C 
ENDROOT
BRANCH   2   4
ATOM      4  C   UNL     1      -9.859  -0.222   7.829  1.00  0.00     0.032 C 
BRANCH   4   5
ATOM      5  C   UNL     1      -8.605  -0.149   6.950  1.00  0.00     0.034 C 
BRANCH   5   6
ATOM      6  C   UNL     1      -8.032  -1.458   6.387  1.00  0.00    -0.077 C 
ATOM      7  C   UNL     1      -8.858  -2.113   5.301  1.00  0.00     0.039 C 
ATOM      8  C   UNL     1      -6.844  -2.069   6.671  1.00  0.00    -0.023 CG0
ATOM      9  G   UNL     1      -5.737  -1.688   7.636  1.00  0.00     0.000 G0
ENDBRANCH   5   6
ENDBRANCH   4   5
ENDBRANCH   2   4
BRANCH   1  10
ATOM     10  C   UNL     1      -8.209  -1.777  10.208  1.00  0.00     0.111 C 
BRANCH  10  11
ATOM     11  C   UNL     1      -6.765  -1.467   9.957  1.00  0.00     0.163 C 
ATOM     12  O   UNL     1      -6.224  -0.519  10.588  1.00  0.00    -0.294 OA
BRANCH  11  13
ATOM     13  C   UNL     1      -5.964  -2.288   9.012  1.00  0.00    -0.002 C 
ATOM     14  C   UNL     1      -5.485  -3.517   9.364  1.00  0.00    -0.069 C 
ATOM     15  C   UNL     1      -5.644  -4.043  10.773  1.00  0.00     0.039 C 
ATOM     16  C   UNL     1      -4.762  -4.400   8.371  1.00  0.00     0.039 C 
BRANCH  13  17
ATOM     17  C   UNL     1      -5.732  -1.687   7.642  1.00  0.00     0.066 CG0
ATOM     18  G   UNL     1      -6.832  -2.058   6.665  1.00  0.00     0.000 G0
ENDBRANCH  13  17
ENDBRANCH  11  13
ENDBRANCH  10  11
ENDBRANCH   1  10
TORSDOF 0
ENDMDL
MODEL 7
REMARK VINA RESULT:    -2.853      1.970      3.862
REMARK INTER + INTRA:          -3.640
REMARK INTER:                  -4.067
REMARK INTRA:                   0.427
REMARK UNBOUND:                 0.381
REMARK SMILES CC1=CCC(=C(C)C)C(=O)CC(C)=CCC1
REMARK SMILES IDX 12 1 14 2 13 3 15 4 16 5 2 6 1 7 3 8 11 10 9 11 10 12 5 13
REMARK SMILES IDX 6 14 7 15 8 16 4 17
REMARK H PARENT
REMARK Flexibility Score: 60.00
ROOT
ATOM      1  C   UNL     1      -7.007  -3.170   6.560  1.00  0.00    -0.070 C 
ATOM      2  C   UNL     1      -7.722  -2.084   6.147  1.00  0.00    -0.027 C 
ATOM      3  C   UNL     1      -6.362  -4.006   5.479  1.00  0.00     0.039 C 
ENDROOT
BRANCH   2   4
ATOM      4  C   UNL     1      -8.452  -0.998   6.930  1.00  0.00     0.032 C 
BRANCH   4   5
ATOM      5  C   UNL     1      -7.594   0.007   7.707  1.00  0.00     0.034 C 
BRANCH   5   6
ATOM      6  C   UNL     1      -7.379  -0.226   9.209  1.00  0.00    -0.077 C 
ATOM      7  C   UNL     1      -8.555   0.125  10.095  1.00  0.00     0.039 C 
ATOM      8  C   UNL     1      -6.307  -0.781   9.849  1.00  0.00    -0.023 CG0
ATOM      9  G   UNL     1      -4.991  -1.308   9.308  1.00  0.00     0.000 G0
ENDBRANCH   5   6
ENDBRANCH   4   5
ENDBRANCH   2   4
BRANCH   1  10
ATOM     10  C   UNL     1      -6.799  -3.633   7.993  1.00  0.00     0.111 C 
BRANCH  10  11
ATOM     11  C   UNL     1      -5.350  -3.639   8.371  1.00  0.00     0.163 C 
ATOM     12  O   UNL     1      -4.545  -4.339   7.698  1.00  0.00    -0.294 OA
BRANCH  11  13
ATOM     13  C   UNL     1      -4.853  -2.803   9.495  1.00  0.00    -0.002 C 
ATOM     14  C   UNL     1      -4.303  -3.363  10.611  1.00  0.00    -0.069 C 
ATOM     15  C   UNL     1      -4.287  -4.862  10.806  1.00  0.00     0.039 C 
ATOM     16  C   UNL     1      -3.699  -2.515  11.708  1.00  0.00     0.039 C 
BRANCH  13  17
ATOM     17  C   UNL     1      -4.979  -1.306   9.314  1.00  0.00     0.066 CG0
ATOM     18  G   UNL     1      -6.300  -0.778   9.842  1.00  0.00     0.000 G0
ENDBRANCH  13  17
ENDBRANCH  11  13
ENDBRANCH  10  11
ENDBRANCH   1  10
TORSDOF 0
ENDMDL
MODEL 8
REMARK VINA RESULT:    -2.801      1.926      5.293
REMARK INTER + INTRA:          -3.567
REMARK INTER:                  -4.940
REMARK INTRA:                   1.373
REMARK UNBOUND:                 0.381
REMARK SMILES CC1=CCC(=C(C)C)C(=O)CC(C)=CCC1
REMARK SMILES IDX 12 1 14 2 13 3 15 4 16 5 2 6 1 7 3 8 11 10 9 11 10 12 5 13
REMARK SMILES IDX 6 14 7 15 8 16 4 17
REMARK H PARENT
REMARK Flexibility Score: 60.00
ROOT
ATOM      1  C   UNL     1      -5.459  -3.602   7.098  1.00  0.00    -0.070 C 
ATOM      2  C   UNL     1      -4.553  -4.376   7.763  1.00  0.00    -0.027 C 
ATOM      3  C   UNL     1      -6.338  -4.305   6.089  1.00  0.00     0.039 C 
ENDROOT
BRANCH   2   4
ATOM      4  C   UNL     1      -3.557  -4.040   8.867  1.00  0.00     0.032 C 
BRANCH   4   5
ATOM      5  C   UNL     1      -4.125  -3.531  10.197  1.00  0.00     0.034 C 
BRANCH   5   6
ATOM      6  C   UNL     1      -5.617  -3.752  10.484  1.00  0.00    -0.077 C 
ATOM      7  C   UNL     1      -5.975  -5.110  11.046  1.00  0.00     0.039 C 
ATOM      8  C   UNL     1      -6.653  -2.867  10.382  1.00  0.00    -0.023 CG0
ATOM      9  G   UNL     1      -6.681  -1.419   9.929  1.00  0.00     0.000 G0
ENDBRANCH   5   6
ENDBRANCH   4   5
ENDBRANCH   2   4
BRANCH   1  10
ATOM     10  C   UNL     1      -5.670  -2.105   7.256  1.00  0.00     0.111 C 
BRANCH  10  11
ATOM     11  C   UNL     1      -7.114  -1.764   7.458  1.00  0.00     0.163 C 
ATOM     12  O   UNL     1      -7.936  -2.010   6.533  1.00  0.00    -0.294 OA
BRANCH  11  13
ATOM     13  C   UNL     1      -7.587  -1.185   8.742  1.00  0.00    -0.002 C 
ATOM     14  C   UNL     1      -8.768  -0.505   8.826  1.00  0.00    -0.069 C 
ATOM     15  C   UNL     1      -9.586  -0.206   7.591  1.00  0.00     0.039 C 
ATOM     16  C   UNL     1      -9.304  -0.008  10.151  1.00  0.00     0.039 C 
BRANCH  13  17
ATOM     17  C   UNL     1      -6.692  -1.411   9.942  1.00  0.00     0.066 CG0
ATOM     18  G   UNL     1      -6.670  -2.867  10.369  1.00  0.00     0.000 G0
ENDBRANCH  13  17
ENDBRANCH  11  13
ENDBRANCH  10  11
ENDBRANCH   1  10
TORSDOF 0
ENDMDL
MODEL 9
REMARK VINA RESULT:    -2.512     20.753     22.009
REMARK INTER + INTRA:          -3.159
REMARK INTER:                  -3.343
REMARK INTRA:                   0.184
REMARK UNBOUND:                 0.381
REMARK SMILES CC1=CCC(=C(C)C)C(=O)CC(C)=CCC1
REMARK SMILES IDX 12 1 14 2 13 3 15 4 16 5 2 6 1 7 3 8 11 10 9 11 10 12 5 13
REMARK SMILES IDX 6 14 7 15 8 16 4 17
REMARK H PARENT
REMARK Flexibility Score: 60.00
ROOT
ATOM      1  C   UNL     1     -17.988 -19.038  12.691  1.00  0.00    -0.070 C 
ATOM      2  C   UNL     1     -17.620 -17.940  13.412  1.00  0.00    -0.027 C 
ATOM      3  C   UNL     1     -17.019 -19.506  11.630  1.00  0.00     0.039 C 
ENDROOT
BRANCH   2   4
ATOM      4  C   UNL     1     -18.296 -17.225  14.576  1.00  0.00     0.032 C 
BRANCH   4   5
ATOM      5  C   UNL     1     -19.135 -18.078  15.535  1.00  0.00     0.034 C 
BRANCH   5   6
ATOM      6  C   UNL     1     -20.541 -17.586  15.908  1.00  0.00    -0.077 C 
ATOM      7  C   UNL     1     -20.612 -16.684  17.121  1.00  0.00     0.039 C 
ATOM      8  C   UNL     1     -21.723 -17.783  15.252  1.00  0.00    -0.023 CG0
ATOM      9  G   UNL     1     -22.040 -18.559  13.988  1.00  0.00     0.000 G0
ENDBRANCH   5   6
ENDBRANCH   4   5
ENDBRANCH   2   4
BRANCH   1  10
ATOM     10  C   UNL     1     -19.275 -19.834  12.834  1.00  0.00     0.111 C 
BRANCH  10  11
ATOM     11  C   UNL     1     -20.419 -19.176  12.126  1.00  0.00     0.163 C 
ATOM     12  O   UNL     1     -20.718 -19.558  10.961  1.00  0.00    -0.294 OA
BRANCH  11  13
ATOM     13  C   UNL     1     -21.221 -18.119  12.795  1.00  0.00    -0.002 C 
ATOM     14  C   UNL     1     -21.214 -16.829  12.348  1.00  0.00    -0.069 C 
ATOM     15  C   UNL     1     -20.294 -16.395  11.230  1.00  0.00     0.039 C 
ATOM     16  C   UNL     1     -22.110 -15.775  12.959  1.00  0.00     0.039 C 
BRANCH  13  17
ATOM     17  C   UNL     1     -22.052 -18.565  13.979  1.00  0.00     0.066 CG0
ATOM     18  G   UNL     1     -21.736 -17.765  15.229  1.00  0.00     0.000 G0
ENDBRANCH  13  17
ENDBRANCH  11  13
ENDBRANCH  10  11
ENDBRANCH   1  10
TORSDOF 0
ENDMDL
