MODEL 1
REMARK VINA RESULT:    10.342      0.000      0.000
REMARK INTER + INTRA:          13.578
REMARK INTER:                  13.365
REMARK INTRA:                   0.213
REMARK UNBOUND:                 0.213
REMARK SMILES CCO[C@H]1O[C@@H](CO)[C@H](O)[C@@H](O)[C@@H]1O
REMARK SMILES IDX 4 1 13 2 11 3 9 4 6 5 5 6 3 7 2 8 1 9 14 10 12 12 7 14 8 15
REMARK SMILES IDX 10 17
REMARK H PARENT 14 11 12 13 8 16 10 18
REMARK Flexibility Score: inf
ROOT
ATOM      1  C   UNL     1      93.759 117.974 112.686  1.00  0.00     0.281 C 
ATOM      2  C   UNL     1      94.475 119.200 112.048  1.00  0.00     0.202 C 
ATOM      3  C   UNL     1      94.419 119.152 110.500  1.00  0.00     0.179 C 
ATOM      4  C   UNL     1      94.702 117.732 109.959  1.00  0.00     0.177 C 
ATOM      5  C   UNL     1      93.989 116.626 110.800  1.00  0.00     0.178 C 
ATOM      6  O   UNL     1      93.069 117.188 111.721  1.00  0.00    -0.341 OA
ENDROOT
BRANCH   1   7
ATOM      7  O   UNL     1      92.893 118.391 113.733  1.00  0.00    -0.350 OA
BRANCH   7   8
ATOM      8  C   UNL     1      93.279 117.863 114.990  1.00  0.00     0.160 C 
ATOM      9  C   UNL     1      94.797 117.853 115.078  1.00  0.00     0.035 C 
ENDBRANCH   7   8
ENDBRANCH   1   7
BRANCH   2  10
ATOM     10  O   UNL     1      95.809 119.238 112.489  1.00  0.00    -0.385 OA
ATOM     11  H   UNL     1      96.355 119.575 111.730  1.00  0.00     0.211 HD
ENDBRANCH   2  10
BRANCH   3  12
ATOM     12  O   UNL     1      93.144 119.550 110.058  1.00  0.00    -0.387 OA
ATOM     13  H   UNL     1      93.253 120.425 109.598  1.00  0.00     0.211 HD
ENDBRANCH   3  12
BRANCH   5  14
ATOM     14  C   UNL     1      93.241 115.636 109.899  1.00  0.00     0.191 C 
BRANCH  14  15
ATOM     15  O   UNL     1      92.875 114.493 110.628  1.00  0.00    -0.394 OA
ATOM     16  H   UNL     1      93.620 113.841 110.534  1.00  0.00     0.210 HD
ENDBRANCH  14  15
ENDBRANCH   5  14
BRANCH   4  17
ATOM     17  O   UNL     1      96.085 117.486 109.875  1.00  0.00    -0.387 OA
ATOM     18  H   UNL     1      96.227 116.745 109.232  1.00  0.00     0.211 HD
ENDBRANCH   4  17
TORSDOF 7
ENDMDL
MODEL 2
REMARK VINA RESULT:    11.263      1.570      2.636
REMARK INTER + INTRA:          14.768
REMARK INTER:                  14.989
REMARK INTRA:                  -0.221
REMARK UNBOUND:                 0.213
REMARK SMILES CCO[C@H]1O[C@@H](CO)[C@H](O)[C@@H](O)[C@@H]1O
REMARK SMILES IDX 4 1 13 2 11 3 9 4 6 5 5 6 3 7 2 8 1 9 14 10 12 12 7 14 8 15
REMARK SMILES IDX 10 17
REMARK H PARENT 14 11 12 13 8 16 10 18
REMARK Flexibility Score: inf
ROOT
ATOM      1  C   UNL     1      94.786 118.090 113.137  1.00  0.00     0.281 C 
ATOM      2  C   UNL     1      93.263 118.214 112.846  1.00  0.00     0.202 C 
ATOM      3  C   UNL     1      92.905 117.680 111.435  1.00  0.00     0.179 C 
ATOM      4  C   UNL     1      93.928 118.140 110.371  1.00  0.00     0.177 C 
ATOM      5  C   UNL     1      95.399 118.051 110.889  1.00  0.00     0.178 C 
ATOM      6  O   UNL     1      95.473 117.361 112.125  1.00  0.00    -0.341 OA
ENDROOT
BRANCH   1   7
ATOM      7  O   UNL     1      95.006 117.528 114.423  1.00  0.00    -0.350 OA
BRANCH   7   8
ATOM      8  C   UNL     1      96.348 117.674 114.851  1.00  0.00     0.160 C 
ATOM      9  C   UNL     1      96.588 119.122 115.248  1.00  0.00     0.035 C 
ENDBRANCH   7   8
ENDBRANCH   1   7
BRANCH   2  10
ATOM     10  O   UNL     1      92.875 119.560 112.973  1.00  0.00    -0.385 OA
ATOM     11  H   UNL     1      91.891 119.591 112.840  1.00  0.00     0.211 HD
ENDBRANCH   2  10
BRANCH   3  12
ATOM     12  O   UNL     1      92.881 116.274 111.452  1.00  0.00    -0.387 OA
ATOM     13  H   UNL     1      93.586 115.975 112.085  1.00  0.00     0.211 HD
ENDBRANCH   3  12
BRANCH   5  14
ATOM     14  C   UNL     1      96.306 117.343 109.875  1.00  0.00     0.191 C 
BRANCH  14  15
ATOM     15  O   UNL     1      96.060 115.960 109.882  1.00  0.00    -0.394 OA
ATOM     16  H   UNL     1      96.945 115.512 109.949  1.00  0.00     0.210 HD
ENDBRANCH  14  15
ENDBRANCH   5  14
BRANCH   4  17
ATOM     17  O   UNL     1      93.635 119.436 109.910  1.00  0.00    -0.387 OA
ATOM     18  H   UNL     1      94.399 120.024 110.140  1.00  0.00     0.211 HD
ENDBRANCH   4  17
TORSDOF 7
ENDMDL
MODEL 3
REMARK VINA RESULT:    11.444      1.590      4.594
REMARK INTER + INTRA:          15.001
REMARK INTER:                  13.389
REMARK INTRA:                   1.613
REMARK UNBOUND:                 0.213
REMARK SMILES CCO[C@H]1O[C@@H](CO)[C@H](O)[C@@H](O)[C@@H]1O
REMARK SMILES IDX 4 1 13 2 11 3 9 4 6 5 5 6 3 7 2 8 1 9 14 10 12 12 7 14 8 15
REMARK SMILES IDX 10 17
REMARK H PARENT 14 11 12 13 8 16 10 18
REMARK Flexibility Score: inf
ROOT
ATOM      1  C   UNL     1      94.908 117.342 111.810  1.00  0.00     0.281 C 
ATOM      2  C   UNL     1      93.356 117.373 111.908  1.00  0.00     0.202 C 
ATOM      3  C   UNL     1      92.875 118.274 113.075  1.00  0.00     0.179 C 
ATOM      4  C   UNL     1      93.720 118.058 114.352  1.00  0.00     0.177 C 
ATOM      5  C   UNL     1      95.244 117.936 114.037  1.00  0.00     0.178 C 
ATOM      6  O   UNL     1      95.525 118.275 112.691  1.00  0.00    -0.341 OA
ENDROOT
BRANCH   1   7
ATOM      7  O   UNL     1      95.328 117.538 110.466  1.00  0.00    -0.350 OA
BRANCH   7   8
ATOM      8  C   UNL     1      94.971 118.817 109.973  1.00  0.00     0.160 C 
ATOM      9  C   UNL     1      93.456 118.904 109.875  1.00  0.00     0.035 C 
ENDBRANCH   7   8
ENDBRANCH   1   7
BRANCH   2  10
ATOM     10  O   UNL     1      92.876 116.062 112.071  1.00  0.00    -0.385 OA
ATOM     11  H   UNL     1      92.533 115.766 111.187  1.00  0.00     0.211 HD
ENDBRANCH   2  10
BRANCH   3  12
ATOM     12  O   UNL     1      92.970 119.627 112.701  1.00  0.00    -0.387 OA
ATOM     13  H   UNL     1      92.951 120.164 113.537  1.00  0.00     0.211 HD
ENDBRANCH   3  12
BRANCH   5  14
ATOM     14  C   UNL     1      96.077 118.838 114.956  1.00  0.00     0.191 C 
BRANCH  14  15
ATOM     15  O   UNL     1      97.382 118.335 115.083  1.00  0.00    -0.394 OA
ATOM     16  H   UNL     1      97.444 117.922 115.985  1.00  0.00     0.210 HD
ENDBRANCH  14  15
ENDBRANCH   5  14
BRANCH   4  17
ATOM     17  O   UNL     1      93.265 116.943 115.079  1.00  0.00    -0.387 OA
ATOM     18  H   UNL     1      93.774 116.149 114.774  1.00  0.00     0.211 HD
ENDBRANCH   4  17
TORSDOF 7
ENDMDL
MODEL 4
REMARK VINA RESULT:    12.921      1.973      3.692
REMARK INTER + INTRA:          16.911
REMARK INTER:                  17.044
REMARK INTRA:                  -0.133
REMARK UNBOUND:                 0.213
REMARK SMILES CCO[C@H]1O[C@@H](CO)[C@H](O)[C@@H](O)[C@@H]1O
REMARK SMILES IDX 4 1 13 2 11 3 9 4 6 5 5 6 3 7 2 8 1 9 14 10 12 12 7 14 8 15
REMARK SMILES IDX 10 17
REMARK H PARENT 14 11 12 13 8 16 10 18
REMARK Flexibility Score: inf
ROOT
ATOM      1  C   UNL     1      95.040 119.955 111.393  1.00  0.00     0.281 C 
ATOM      2  C   UNL     1      95.168 119.008 110.166  1.00  0.00     0.202 C 
ATOM      3  C   UNL     1      94.156 117.835 110.242  1.00  0.00     0.179 C 
ATOM      4  C   UNL     1      94.076 117.238 111.666  1.00  0.00     0.177 C 
ATOM      5  C   UNL     1      94.074 118.343 112.769  1.00  0.00     0.178 C 
ATOM      6  O   UNL     1      93.918 119.635 112.210  1.00  0.00    -0.341 OA
ENDROOT
BRANCH   1   7
ATOM      7  O   UNL     1      95.009 121.313 110.975  1.00  0.00    -0.350 OA
BRANCH   7   8
ATOM      8  C   UNL     1      94.823 122.205 112.060  1.00  0.00     0.160 C 
ATOM      9  C   UNL     1      95.885 123.291 111.997  1.00  0.00     0.035 C 
ENDBRANCH   7   8
ENDBRANCH   1   7
BRANCH   2  10
ATOM     10  O   UNL     1      96.483 118.516 110.095  1.00  0.00    -0.385 OA
ATOM     11  H   UNL     1      96.955 118.833 110.909  1.00  0.00     0.211 HD
ENDBRANCH   2  10
BRANCH   3  12
ATOM     12  O   UNL     1      92.876 118.287 109.875  1.00  0.00    -0.387 OA
ATOM     13  H   UNL     1      92.473 118.712 110.678  1.00  0.00     0.211 HD
ENDBRANCH   3  12
BRANCH   5  14
ATOM     14  C   UNL     1      92.953 118.110 113.789  1.00  0.00     0.191 C 
BRANCH  14  15
ATOM     15  O   UNL     1      93.470 118.122 115.095  1.00  0.00    -0.394 OA
ATOM     16  H   UNL     1      94.452 118.254 115.013  1.00  0.00     0.210 HD
ENDBRANCH  14  15
ENDBRANCH   5  14
BRANCH   4  17
ATOM     17  O   UNL     1      95.108 116.308 111.886  1.00  0.00    -0.387 OA
ATOM     18  H   UNL     1      95.175 116.150 112.863  1.00  0.00     0.211 HD
ENDBRANCH   4  17
TORSDOF 7
ENDMDL
