MODEL 1
REMARK VINA RESULT:    -3.628      0.000      0.000
REMARK INTER + INTRA:          -8.554
REMARK INTER:                  -6.385
REMARK INTRA:                  -2.169
REMARK UNBOUND:                -2.169
REMARK SMILES CCCCCCC=CCCCCCCCC(=O)[O-]
REMARK SMILES IDX 10 1 11 2 12 3 13 4 14 5 15 6 16 7 17 8 18 9 9 10 8 11 7 12
REMARK SMILES IDX 6 13 5 14 4 15 3 16 2 17 1 18
REMARK H PARENT
REMARK Flexibility Score: inf
ROOT
ATOM      1  C   UNL     1       3.364 -16.121  14.933  1.00  0.00     0.004 C 
ENDROOT
BRANCH   1   2
ATOM      2  C   UNL     1       2.509 -14.942  14.437  1.00  0.00     0.000 C 
BRANCH   2   3
ATOM      3  C   UNL     1       3.052 -13.580  14.904  1.00  0.00     0.000 C 
BRANCH   3   4
ATOM      4  C   UNL     1       4.501 -13.336  14.457  1.00  0.00     0.000 C 
BRANCH   4   5
ATOM      5  C   UNL     1       5.140 -12.126  15.163  1.00  0.00     0.006 C 
BRANCH   5   6
ATOM      6  C   UNL     1       6.429 -11.665  14.469  1.00  0.00     0.053 C 
BRANCH   6   7
ATOM      7  C   UNL     1       6.143 -10.863  13.236  1.00  0.00     0.041 C 
ATOM      8  O   UNL     1       5.111 -10.145  13.173  1.00  0.00    -0.550 OA
ATOM      9  O   UNL     1       7.000 -10.933  12.145  1.00  0.00    -0.550 OA
ENDBRANCH   6   7
ENDBRANCH   5   6
ENDBRANCH   4   5
ENDBRANCH   3   4
ENDBRANCH   2   3
ENDBRANCH   1   2
BRANCH   1  10
ATOM     10  C   UNL     1       3.604 -16.139  16.455  1.00  0.00     0.027 C 
BRANCH  10  11
ATOM     11  C   UNL     1       4.710 -17.074  16.884  1.00  0.00    -0.031 C 
ATOM     12  C   UNL     1       6.017 -16.758  16.957  1.00  0.00    -0.031 C 
BRANCH  12  13
ATOM     13  C   UNL     1       6.605 -15.397  16.667  1.00  0.00     0.027 C 
BRANCH  13  14
ATOM     14  C   UNL     1       7.593 -15.443  15.490  1.00  0.00     0.004 C 
BRANCH  14  15
ATOM     15  C   UNL     1       6.986 -15.945  14.166  1.00  0.00     0.000 C 
BRANCH  15  16
ATOM     16  C   UNL     1       7.649 -17.232  13.629  1.00  0.00    -0.000 C 
BRANCH  16  17
ATOM     17  C   UNL     1       6.656 -18.123  12.868  1.00  0.00    -0.003 C 
ATOM     18  C   UNL     1       5.680 -18.801  13.825  1.00  0.00     0.004 C 
ENDBRANCH  16  17
ENDBRANCH  15  16
ENDBRANCH  14  15
ENDBRANCH  13  14
ENDBRANCH  12  13
ENDBRANCH  10  11
ENDBRANCH   1  10
TORSDOF 13
ENDMDL
MODEL 2
REMARK VINA RESULT:    -3.598      1.232      3.682
REMARK INTER + INTRA:          -8.501
REMARK INTER:                  -6.027
REMARK INTRA:                  -2.475
REMARK UNBOUND:                -2.169
REMARK SMILES CCCCCCC=CCCCCCCCC(=O)[O-]
REMARK SMILES IDX 10 1 11 2 12 3 13 4 14 5 15 6 16 7 17 8 18 9 9 10 8 11 7 12
REMARK SMILES IDX 6 13 5 14 4 15 3 16 2 17 1 18
REMARK H PARENT
REMARK Flexibility Score: inf
ROOT
ATOM      1  C   UNL     1       6.207 -17.730  13.580  1.00  0.00     0.004 C 
ENDROOT
BRANCH   1   2
ATOM      2  C   UNL     1       7.051 -16.865  14.532  1.00  0.00     0.000 C 
BRANCH   2   3
ATOM      3  C   UNL     1       6.737 -15.365  14.404  1.00  0.00     0.000 C 
BRANCH   3   4
ATOM      4  C   UNL     1       6.799 -14.630  15.752  1.00  0.00     0.000 C 
BRANCH   4   5
ATOM      5  C   UNL     1       6.408 -13.146  15.632  1.00  0.00     0.006 C 
BRANCH   5   6
ATOM      6  C   UNL     1       5.832 -12.809  14.250  1.00  0.00     0.053 C 
BRANCH   6   7
ATOM      7  C   UNL     1       5.138 -11.481  14.244  1.00  0.00     0.041 C 
ATOM      8  O   UNL     1       4.616 -11.034  15.298  1.00  0.00    -0.550 OA
ATOM      9  O   UNL     1       5.043 -10.751  13.066  1.00  0.00    -0.550 OA
ENDBRANCH   6   7
ENDBRANCH   5   6
ENDBRANCH   4   5
ENDBRANCH   3   4
ENDBRANCH   2   3
ENDBRANCH   1   2
BRANCH   1  10
ATOM     10  C   UNL     1       5.481 -18.905  14.261  1.00  0.00     0.027 C 
BRANCH  10  11
ATOM     11  C   UNL     1       6.057 -19.277  15.607  1.00  0.00    -0.031 C 
ATOM     12  C   UNL     1       5.495 -19.007  16.801  1.00  0.00    -0.031 C 
BRANCH  12  13
ATOM     13  C   UNL     1       4.164 -18.325  17.005  1.00  0.00     0.027 C 
BRANCH  13  14
ATOM     14  C   UNL     1       4.333 -16.906  17.572  1.00  0.00     0.004 C 
BRANCH  14  15
ATOM     15  C   UNL     1       3.689 -15.796  16.719  1.00  0.00     0.000 C 
BRANCH  15  16
ATOM     16  C   UNL     1       3.228 -16.274  15.325  1.00  0.00    -0.000 C 
BRANCH  16  17
ATOM     17  C   UNL     1       2.903 -15.102  14.387  1.00  0.00    -0.003 C 
ATOM     18  C   UNL     1       2.381 -13.900  15.168  1.00  0.00     0.004 C 
ENDBRANCH  16  17
ENDBRANCH  15  16
ENDBRANCH  14  15
ENDBRANCH  13  14
ENDBRANCH  12  13
ENDBRANCH  10  11
ENDBRANCH   1  10
TORSDOF 13
ENDMDL
MODEL 3
REMARK VINA RESULT:    -3.542      1.581      4.145
REMARK INTER + INTRA:          -8.402
REMARK INTER:                  -6.103
REMARK INTRA:                  -2.300
REMARK UNBOUND:                -2.169
REMARK SMILES CCCCCCC=CCCCCCCCC(=O)[O-]
REMARK SMILES IDX 10 1 11 2 12 3 13 4 14 5 15 6 16 7 17 8 18 9 9 10 8 11 7 12
REMARK SMILES IDX 6 13 5 14 4 15 3 16 2 17 1 18
REMARK H PARENT
REMARK Flexibility Score: inf
ROOT
ATOM      1  C   UNL     1       6.588 -17.232  14.042  1.00  0.00     0.004 C 
ENDROOT
BRANCH   1   2
ATOM      2  C   UNL     1       6.861 -16.201  15.151  1.00  0.00     0.000 C 
BRANCH   2   3
ATOM      3  C   UNL     1       6.677 -14.752  14.669  1.00  0.00     0.000 C 
BRANCH   3   4
ATOM      4  C   UNL     1       6.694 -13.738  15.823  1.00  0.00     0.000 C 
BRANCH   4   5
ATOM      5  C   UNL     1       6.408 -12.301  15.350  1.00  0.00     0.006 C 
BRANCH   5   6
ATOM      6  C   UNL     1       5.435 -12.266  14.163  1.00  0.00     0.053 C 
BRANCH   6   7
ATOM      7  C   UNL     1       5.681 -11.085  13.275  1.00  0.00     0.041 C 
ATOM      8  O   UNL     1       4.933 -10.075  13.343  1.00  0.00    -0.550 OA
ATOM      9  O   UNL     1       6.717 -11.113  12.350  1.00  0.00    -0.550 OA
ENDBRANCH   6   7
ENDBRANCH   5   6
ENDBRANCH   4   5
ENDBRANCH   3   4
ENDBRANCH   2   3
ENDBRANCH   1   2
BRANCH   1  10
ATOM     10  C   UNL     1       5.124 -17.703  13.956  1.00  0.00     0.027 C 
BRANCH  10  11
ATOM     11  C   UNL     1       4.338 -17.478  15.226  1.00  0.00    -0.031 C 
ATOM     12  C   UNL     1       3.446 -16.490  15.429  1.00  0.00    -0.031 C 
BRANCH  12  13
ATOM     13  C   UNL     1       3.037 -15.457  14.405  1.00  0.00     0.027 C 
BRANCH  13  14
ATOM     14  C   UNL     1       2.415 -14.216  15.066  1.00  0.00     0.004 C 
BRANCH  14  15
ATOM     15  C   UNL     1       2.521 -14.190  16.603  1.00  0.00     0.000 C 
BRANCH  15  16
ATOM     16  C   UNL     1       3.222 -12.930  17.155  1.00  0.00    -0.000 C 
BRANCH  16  17
ATOM     17  C   UNL     1       4.050 -13.230  18.413  1.00  0.00    -0.003 C 
ATOM     18  C   UNL     1       4.376 -14.717  18.516  1.00  0.00     0.004 C 
ENDBRANCH  16  17
ENDBRANCH  15  16
ENDBRANCH  14  15
ENDBRANCH  13  14
ENDBRANCH  12  13
ENDBRANCH  10  11
ENDBRANCH   1  10
TORSDOF 13
ENDMDL
MODEL 4
REMARK VINA RESULT:    -3.513      3.350      5.938
REMARK INTER + INTRA:          -8.352
REMARK INTER:                  -5.820
REMARK INTRA:                  -2.532
REMARK UNBOUND:                -2.169
REMARK SMILES CCCCCCC=CCCCCCCCC(=O)[O-]
REMARK SMILES IDX 10 1 11 2 12 3 13 4 14 5 15 6 16 7 17 8 18 9 9 10 8 11 7 12
REMARK SMILES IDX 6 13 5 14 4 15 3 16 2 17 1 18
REMARK H PARENT
REMARK Flexibility Score: inf
ROOT
ATOM      1  C   UNL     1       4.261 -16.680  16.459  1.00  0.00     0.004 C 
ENDROOT
BRANCH   1   2
ATOM      2  C   UNL     1       5.791 -16.820  16.369  1.00  0.00     0.000 C 
BRANCH   2   3
ATOM      3  C   UNL     1       6.475 -15.534  15.876  1.00  0.00     0.000 C 
BRANCH   3   4
ATOM      4  C   UNL     1       7.025 -15.665  14.448  1.00  0.00     0.000 C 
BRANCH   4   5
ATOM      5  C   UNL     1       7.616 -17.059  14.170  1.00  0.00     0.006 C 
BRANCH   5   6
ATOM      6  C   UNL     1       6.968 -17.729  12.950  1.00  0.00     0.053 C 
BRANCH   6   7
ATOM      7  C   UNL     1       6.582 -19.149  13.232  1.00  0.00     0.041 C 
ATOM      8  O   UNL     1       7.281 -20.096  12.788  1.00  0.00    -0.550 OA
ATOM      9  O   UNL     1       5.432 -19.426  13.961  1.00  0.00    -0.550 OA
ENDBRANCH   6   7
ENDBRANCH   5   6
ENDBRANCH   4   5
ENDBRANCH   3   4
ENDBRANCH   2   3
ENDBRANCH   1   2
BRANCH   1  10
ATOM     10  C   UNL     1       3.557 -16.495  15.102  1.00  0.00     0.027 C 
BRANCH  10  11
ATOM     11  C   UNL     1       2.477 -15.440  15.117  1.00  0.00    -0.031 C 
ATOM     12  C   UNL     1       2.648 -14.140  14.808  1.00  0.00    -0.031 C 
BRANCH  12  13
ATOM     13  C   UNL     1       3.942 -13.515  14.344  1.00  0.00     0.027 C 
BRANCH  13  14
ATOM     14  C   UNL     1       4.352 -12.330  15.233  1.00  0.00     0.004 C 
BRANCH  14  15
ATOM     15  C   UNL     1       3.754 -12.359  16.653  1.00  0.00     0.000 C 
BRANCH  15  16
ATOM     16  C   UNL     1       4.699 -12.967  17.712  1.00  0.00    -0.000 C 
BRANCH  16  17
ATOM     17  C   UNL     1       3.949 -13.840  18.728  1.00  0.00    -0.003 C 
ATOM     18  C   UNL     1       2.438 -13.725  18.544  1.00  0.00     0.004 C 
ENDBRANCH  16  17
ENDBRANCH  15  16
ENDBRANCH  14  15
ENDBRANCH  13  14
ENDBRANCH  12  13
ENDBRANCH  10  11
ENDBRANCH   1  10
TORSDOF 13
ENDMDL
MODEL 5
REMARK VINA RESULT:    -3.487      3.113      5.451
REMARK INTER + INTRA:          -8.307
REMARK INTER:                  -5.895
REMARK INTRA:                  -2.412
REMARK UNBOUND:                -2.169
REMARK SMILES CCCCCCC=CCCCCCCCC(=O)[O-]
REMARK SMILES IDX 10 1 11 2 12 3 13 4 14 5 15 6 16 7 17 8 18 9 9 10 8 11 7 12
REMARK SMILES IDX 6 13 5 14 4 15 3 16 2 17 1 18
REMARK H PARENT
REMARK Flexibility Score: inf
ROOT
ATOM      1  C   UNL     1       2.473 -13.975  17.148  1.00  0.00     0.004 C 
ENDROOT
BRANCH   1   2
ATOM      2  C   UNL     1       2.415 -13.818  15.618  1.00  0.00     0.000 C 
BRANCH   2   3
ATOM      3  C   UNL     1       2.217 -15.160  14.893  1.00  0.00     0.000 C 
BRANCH   3   4
ATOM      4  C   UNL     1       3.533 -15.745  14.359  1.00  0.00     0.000 C 
BRANCH   4   5
ATOM      5  C   UNL     1       4.048 -16.916  15.214  1.00  0.00     0.006 C 
BRANCH   5   6
ATOM      6  C   UNL     1       5.532 -17.210  14.959  1.00  0.00     0.053 C 
BRANCH   6   7
ATOM      7  C   UNL     1       5.721 -18.242  13.889  1.00  0.00     0.041 C 
ATOM      8  O   UNL     1       5.148 -19.359  13.979  1.00  0.00    -0.550 OA
ATOM      9  O   UNL     1       6.555 -17.981  12.809  1.00  0.00    -0.550 OA
ENDBRANCH   6   7
ENDBRANCH   5   6
ENDBRANCH   4   5
ENDBRANCH   3   4
ENDBRANCH   2   3
ENDBRANCH   1   2
BRANCH   1  10
ATOM     10  C   UNL     1       3.752 -13.414  17.798  1.00  0.00     0.027 C 
BRANCH  10  11
ATOM     11  C   UNL     1       4.958 -14.310  17.637  1.00  0.00    -0.031 C 
ATOM     12  C   UNL     1       6.029 -14.050  16.864  1.00  0.00    -0.031 C 
BRANCH  12  13
ATOM     13  C   UNL     1       6.236 -12.793  16.053  1.00  0.00     0.027 C 
BRANCH  13  14
ATOM     14  C   UNL     1       6.026 -13.043  14.551  1.00  0.00     0.004 C 
BRANCH  14  15
ATOM     15  C   UNL     1       4.981 -12.123  13.890  1.00  0.00     0.000 C 
BRANCH  15  16
ATOM     16  C   UNL     1       5.495 -10.691  13.624  1.00  0.00    -0.000 C 
BRANCH  16  17
ATOM     17  C   UNL     1       4.753  -9.642  14.465  1.00  0.00    -0.003 C 
ATOM     18  C   UNL     1       3.529 -10.247  15.146  1.00  0.00     0.004 C 
ENDBRANCH  16  17
ENDBRANCH  15  16
ENDBRANCH  14  15
ENDBRANCH  13  14
ENDBRANCH  12  13
ENDBRANCH  10  11
ENDBRANCH   1  10
TORSDOF 13
ENDMDL
MODEL 6
REMARK VINA RESULT:    -3.484      4.910      7.331
REMARK INTER + INTRA:          -8.301
REMARK INTER:                  -6.483
REMARK INTRA:                  -1.818
REMARK UNBOUND:                -2.169
REMARK SMILES CCCCCCC=CCCCCCCCC(=O)[O-]
REMARK SMILES IDX 10 1 11 2 12 3 13 4 14 5 15 6 16 7 17 8 18 9 9 10 8 11 7 12
REMARK SMILES IDX 6 13 5 14 4 15 3 16 2 17 1 18
REMARK H PARENT
REMARK Flexibility Score: inf
ROOT
ATOM      1  C   UNL     1       5.380 -19.060  15.743  1.00  0.00     0.004 C 
ENDROOT
BRANCH   1   2
ATOM      2  C   UNL     1       6.064 -18.710  17.076  1.00  0.00     0.000 C 
BRANCH   2   3
ATOM      3  C   UNL     1       5.064 -18.257  18.153  1.00  0.00     0.000 C 
BRANCH   3   4
ATOM      4  C   UNL     1       3.717 -18.989  18.056  1.00  0.00     0.000 C 
BRANCH   4   5
ATOM      5  C   UNL     1       3.276 -19.591  19.403  1.00  0.00     0.006 C 
BRANCH   5   6
ATOM      6  C   UNL     1       2.453 -20.874  19.221  1.00  0.00     0.053 C 
BRANCH   6   7
ATOM      7  C   UNL     1       0.980 -20.600  19.244  1.00  0.00     0.041 C 
ATOM      8  O   UNL     1       0.493 -19.829  20.111  1.00  0.00    -0.550 OA
ATOM      9  O   UNL     1       0.142 -21.221  18.326  1.00  0.00    -0.550 OA
ENDBRANCH   6   7
ENDBRANCH   5   6
ENDBRANCH   4   5
ENDBRANCH   3   4
ENDBRANCH   2   3
ENDBRANCH   1   2
BRANCH   1  10
ATOM     10  C   UNL     1       6.350 -19.467  14.617  1.00  0.00     0.027 C 
BRANCH  10  11
ATOM     11  C   UNL     1       6.221 -18.622  13.371  1.00  0.00    -0.031 C 
ATOM     12  C   UNL     1       6.869 -17.464  13.141  1.00  0.00    -0.031 C 
BRANCH  12  13
ATOM     13  C   UNL     1       7.876 -16.826  14.068  1.00  0.00     0.027 C 
BRANCH  13  14
ATOM     14  C   UNL     1       7.196 -15.938  15.123  1.00  0.00     0.004 C 
BRANCH  14  15
ATOM     15  C   UNL     1       5.943 -15.194  14.620  1.00  0.00     0.000 C 
BRANCH  15  16
ATOM     16  C   UNL     1       4.716 -15.349  15.544  1.00  0.00    -0.000 C 
BRANCH  16  17
ATOM     17  C   UNL     1       3.563 -16.097  14.858  1.00  0.00    -0.003 C 
ATOM     18  C   UNL     1       2.326 -15.211  14.738  1.00  0.00     0.004 C 
ENDBRANCH  16  17
ENDBRANCH  15  16
ENDBRANCH  14  15
ENDBRANCH  13  14
ENDBRANCH  12  13
ENDBRANCH  10  11
ENDBRANCH   1  10
TORSDOF 13
ENDMDL
MODEL 7
REMARK VINA RESULT:    -3.452      5.512      7.999
REMARK INTER + INTRA:          -8.243
REMARK INTER:                  -7.002
REMARK INTRA:                  -1.242
REMARK UNBOUND:                -2.169
REMARK SMILES CCCCCCC=CCCCCCCCC(=O)[O-]
REMARK SMILES IDX 10 1 11 2 12 3 13 4 14 5 15 6 16 7 17 8 18 9 9 10 8 11 7 12
REMARK SMILES IDX 6 13 5 14 4 15 3 16 2 17 1 18
REMARK H PARENT
REMARK Flexibility Score: inf
ROOT
ATOM      1  C   UNL     1       4.441 -18.098  16.531  1.00  0.00     0.004 C 
ENDROOT
BRANCH   1   2
ATOM      2  C   UNL     1       5.024 -18.361  17.930  1.00  0.00     0.000 C 
BRANCH   2   3
ATOM      3  C   UNL     1       3.937 -18.496  19.009  1.00  0.00     0.000 C 
BRANCH   3   4
ATOM      4  C   UNL     1       3.183 -19.833  18.926  1.00  0.00     0.000 C 
BRANCH   4   5
ATOM      5  C   UNL     1       1.921 -19.853  19.806  1.00  0.00     0.006 C 
BRANCH   5   6
ATOM      6  C   UNL     1       1.444 -21.282  20.101  1.00  0.00     0.053 C 
BRANCH   6   7
ATOM      7  C   UNL     1       0.201 -21.624  19.338  1.00  0.00     0.041 C 
ATOM      8  O   UNL     1       0.153 -21.448  18.093  1.00  0.00    -0.550 OA
ATOM      9  O   UNL     1      -0.916 -22.108  20.008  1.00  0.00    -0.550 OA
ENDBRANCH   6   7
ENDBRANCH   5   6
ENDBRANCH   4   5
ENDBRANCH   3   4
ENDBRANCH   2   3
ENDBRANCH   1   2
BRANCH   1  10
ATOM     10  C   UNL     1       3.880 -16.678  16.331  1.00  0.00     0.027 C 
BRANCH  10  11
ATOM     11  C   UNL     1       3.485 -16.377  14.904  1.00  0.00    -0.031 C 
ATOM     12  C   UNL     1       2.795 -15.296  14.495  1.00  0.00    -0.031 C 
BRANCH  12  13
ATOM     13  C   UNL     1       2.332 -14.166  15.384  1.00  0.00     0.027 C 
BRANCH  13  14
ATOM     14  C   UNL     1       3.403 -13.071  15.517  1.00  0.00     0.004 C 
BRANCH  14  15
ATOM     15  C   UNL     1       4.336 -12.939  14.298  1.00  0.00     0.000 C 
BRANCH  15  16
ATOM     16  C   UNL     1       5.804 -12.639  14.671  1.00  0.00    -0.000 C 
BRANCH  16  17
ATOM     17  C   UNL     1       6.438 -13.770  15.495  1.00  0.00    -0.003 C 
ATOM     18  C   UNL     1       6.734 -14.987  14.623  1.00  0.00     0.004 C 
ENDBRANCH  16  17
ENDBRANCH  15  16
ENDBRANCH  14  15
ENDBRANCH  13  14
ENDBRANCH  12  13
ENDBRANCH  10  11
ENDBRANCH   1  10
TORSDOF 13
ENDMDL
MODEL 8
REMARK VINA RESULT:    -3.436      1.607      4.286
REMARK INTER + INTRA:          -8.216
REMARK INTER:                  -5.699
REMARK INTRA:                  -2.517
REMARK UNBOUND:                -2.169
REMARK SMILES CCCCCCC=CCCCCCCCC(=O)[O-]
REMARK SMILES IDX 10 1 11 2 12 3 13 4 14 5 15 6 16 7 17 8 18 9 9 10 8 11 7 12
REMARK SMILES IDX 6 13 5 14 4 15 3 16 2 17 1 18
REMARK H PARENT
REMARK Flexibility Score: inf
ROOT
ATOM      1  C   UNL     1       6.361 -14.857  16.872  1.00  0.00     0.004 C 
ENDROOT
BRANCH   1   2
ATOM      2  C   UNL     1       7.060 -14.230  15.653  1.00  0.00     0.000 C 
BRANCH   2   3
ATOM      3  C   UNL     1       6.553 -12.811  15.345  1.00  0.00     0.000 C 
BRANCH   3   4
ATOM      4  C   UNL     1       5.577 -12.776  14.158  1.00  0.00     0.000 C 
BRANCH   4   5
ATOM      5  C   UNL     1       5.308 -11.345  13.659  1.00  0.00     0.006 C 
BRANCH   5   6
ATOM      6  C   UNL     1       6.515 -10.421  13.873  1.00  0.00     0.053 C 
BRANCH   6   7
ATOM      7  C   UNL     1       7.021  -9.854  12.582  1.00  0.00     0.041 C 
ATOM      8  O   UNL     1       6.916  -8.622  12.347  1.00  0.00    -0.550 OA
ATOM      9  O   UNL     1       7.580 -10.693  11.626  1.00  0.00    -0.550 OA
ENDBRANCH   6   7
ENDBRANCH   5   6
ENDBRANCH   4   5
ENDBRANCH   3   4
ENDBRANCH   2   3
ENDBRANCH   1   2
BRANCH   1  10
ATOM     10  C   UNL     1       5.752 -16.248  16.612  1.00  0.00     0.027 C 
BRANCH  10  11
ATOM     11  C   UNL     1       5.537 -16.553  15.149  1.00  0.00    -0.031 C 
ATOM     12  C   UNL     1       4.351 -16.535  14.511  1.00  0.00    -0.031 C 
BRANCH  12  13
ATOM     13  C   UNL     1       3.028 -16.161  15.137  1.00  0.00     0.027 C 
BRANCH  13  14
ATOM     14  C   UNL     1       2.392 -14.947  14.440  1.00  0.00     0.004 C 
BRANCH  14  15
ATOM     15  C   UNL     1       2.367 -13.663  15.290  1.00  0.00     0.000 C 
BRANCH  15  16
ATOM     16  C   UNL     1       2.829 -13.874  16.748  1.00  0.00    -0.000 C 
BRANCH  16  17
ATOM     17  C   UNL     1       3.382 -12.586  17.374  1.00  0.00    -0.003 C 
ATOM     18  C   UNL     1       3.016 -11.364  16.536  1.00  0.00     0.004 C 
ENDBRANCH  16  17
ENDBRANCH  15  16
ENDBRANCH  14  15
ENDBRANCH  13  14
ENDBRANCH  12  13
ENDBRANCH  10  11
ENDBRANCH   1  10
TORSDOF 13
ENDMDL
MODEL 9
REMARK VINA RESULT:    -3.419      3.321      6.077
REMARK INTER + INTRA:          -8.186
REMARK INTER:                  -6.044
REMARK INTRA:                  -2.142
REMARK UNBOUND:                -2.169
REMARK SMILES CCCCCCC=CCCCCCCCC(=O)[O-]
REMARK SMILES IDX 10 1 11 2 12 3 13 4 14 5 15 6 16 7 17 8 18 9 9 10 8 11 7 12
REMARK SMILES IDX 6 13 5 14 4 15 3 16 2 17 1 18
REMARK H PARENT
REMARK Flexibility Score: inf
ROOT
ATOM      1  C   UNL     1       6.804 -15.843  16.875  1.00  0.00     0.004 C 
ENDROOT
BRANCH   1   2
ATOM      2  C   UNL     1       7.310 -14.992  15.698  1.00  0.00     0.000 C 
BRANCH   2   3
ATOM      3  C   UNL     1       6.988 -15.622  14.332  1.00  0.00     0.000 C 
BRANCH   3   4
ATOM      4  C   UNL     1       7.795 -16.902  14.065  1.00  0.00     0.000 C 
BRANCH   4   5
ATOM      5  C   UNL     1       7.228 -17.724  12.894  1.00  0.00     0.006 C 
BRANCH   5   6
ATOM      6  C   UNL     1       7.511 -19.224  13.048  1.00  0.00     0.053 C 
BRANCH   6   7
ATOM      7  C   UNL     1       6.415 -19.925  13.791  1.00  0.00     0.041 C 
ATOM      8  O   UNL     1       5.289 -19.378  13.923  1.00  0.00    -0.550 OA
ATOM      9  O   UNL     1       6.647 -21.170  14.363  1.00  0.00    -0.550 OA
ENDBRANCH   6   7
ENDBRANCH   5   6
ENDBRANCH   4   5
ENDBRANCH   3   4
ENDBRANCH   2   3
ENDBRANCH   1   2
BRANCH   1  10
ATOM     10  C   UNL     1       5.315 -15.641  17.214  1.00  0.00     0.027 C 
BRANCH  10  11
ATOM     11  C   UNL     1       4.469 -16.872  16.991  1.00  0.00    -0.031 C 
ATOM     12  C   UNL     1       3.691 -17.103  15.916  1.00  0.00    -0.031 C 
BRANCH  12  13
ATOM     13  C   UNL     1       3.563 -16.191  14.718  1.00  0.00     0.027 C 
BRANCH  13  14
ATOM     14  C   UNL     1       2.388 -15.211  14.873  1.00  0.00     0.004 C 
BRANCH  14  15
ATOM     15  C   UNL     1       2.804 -13.750  15.132  1.00  0.00     0.000 C 
BRANCH  15  16
ATOM     16  C   UNL     1       4.141 -13.359  14.467  1.00  0.00    -0.000 C 
BRANCH  16  17
ATOM     17  C   UNL     1       4.702 -12.041  15.022  1.00  0.00    -0.003 C 
ATOM     18  C   UNL     1       4.847 -12.100  16.540  1.00  0.00     0.004 C 
ENDBRANCH  16  17
ENDBRANCH  15  16
ENDBRANCH  14  15
ENDBRANCH  13  14
ENDBRANCH  12  13
ENDBRANCH  10  11
ENDBRANCH   1  10
TORSDOF 13
ENDMDL
