MODEL 1
REMARK VINA RESULT:    -5.959      0.000      0.000
REMARK INTER + INTRA:          -6.775
REMARK INTER:                  -6.482
REMARK INTRA:                  -0.294
REMARK UNBOUND:                -0.294
REMARK SMILES CC(C)c1cc2c(cc1O)[C@]1(C)CCCC(C)(C)[C@H]1CC2=O
REMARK SMILES IDX 4 1 9 2 8 3 7 4 6 5 5 6 21 7 22 8 20 9 19 10 11 11 13 12
REMARK SMILES IDX 14 13 15 14 16 15 17 16 18 17 12 18 2 19 1 20 3 21 10 22
REMARK H PARENT 10 23
REMARK Flexibility Score: inf
ROOT
ATOM      1  C   UNL     1      -8.006 -15.584  -0.963  1.00  0.00    -0.003 A 
ATOM      2  C   UNL     1      -7.332 -14.356  -0.864  1.00  0.00     0.119 A 
ATOM      3  C   UNL     1      -7.089 -13.616  -2.019  1.00  0.00     0.051 A 
ATOM      4  C   UNL     1      -7.613 -14.041  -3.253  1.00  0.00    -0.027 A 
ATOM      5  C   UNL     1      -7.885 -15.432  -3.389  1.00  0.00     0.022 A 
ATOM      6  C   UNL     1      -8.139 -16.184  -2.229  1.00  0.00     0.020 A 
ATOM      7  C   UNL     1      -8.155 -16.002  -4.753  1.00  0.00     0.163 C 
ATOM      8  O   UNL     1      -8.020 -17.240  -4.963  1.00  0.00    -0.294 OA
ATOM      9  C   UNL     1      -8.601 -15.096  -5.889  1.00  0.00     0.086 C 
ATOM     10  C   UNL     1      -9.083 -13.771  -5.266  1.00  0.00     0.013 C 
ATOM     11  C   UNL     1      -7.938 -13.074  -4.414  1.00  0.00    -0.003 C 
ATOM     12  C   UNL     1      -8.452 -11.663  -3.919  1.00  0.00     0.012 C 
ATOM     13  C   UNL     1      -9.971 -11.636  -3.720  1.00  0.00     0.001 C 
ATOM     14  C   UNL     1     -10.726 -11.836  -5.056  1.00  0.00     0.007 C 
ATOM     15  C   UNL     1     -10.012 -12.805  -6.082  1.00  0.00    -0.031 C 
ATOM     16  C   UNL     1      -9.260 -11.990  -7.167  1.00  0.00     0.011 C 
ATOM     17  C   UNL     1     -11.113 -13.607  -6.817  1.00  0.00     0.011 C 
ATOM     18  C   UNL     1      -6.613 -12.870  -5.211  1.00  0.00     0.017 C 
ENDROOT
BRANCH   1  19
ATOM     19  C   UNL     1      -8.773 -16.114   0.234  1.00  0.00     0.017 C 
ATOM     20  C   UNL     1      -8.236 -17.473   0.715  1.00  0.00     0.012 C 
ATOM     21  C   UNL     1     -10.293 -16.130  -0.033  1.00  0.00     0.012 C 
ENDBRANCH   1  19
BRANCH   2  22
ATOM     22  O   UNL     1      -6.985 -13.841   0.389  1.00  0.00    -0.508 OA
ATOM     23  H   UNL     1      -7.501 -13.086   0.825  1.00  0.00     0.293 HD
ENDBRANCH   2  22
TORSDOF 2
ENDMDL
MODEL 2
REMARK VINA RESULT:    -5.014      1.535      6.277
REMARK INTER + INTRA:          -5.747
REMARK INTER:                  -5.479
REMARK INTRA:                  -0.268
REMARK UNBOUND:                -0.294
REMARK SMILES CC(C)c1cc2c(cc1O)[C@]1(C)CCCC(C)(C)[C@H]1CC2=O
REMARK SMILES IDX 4 1 9 2 8 3 7 4 6 5 5 6 21 7 22 8 20 9 19 10 11 11 13 12
REMARK SMILES IDX 14 13 15 14 16 15 17 16 18 17 12 18 2 19 1 20 3 21 10 22
REMARK H PARENT 10 23
REMARK Flexibility Score: inf
ROOT
ATOM      1  C   UNL     1      -8.161 -13.297  -3.887  1.00  0.00    -0.003 A 
ATOM      2  C   UNL     1      -8.160 -14.587  -4.445  1.00  0.00     0.119 A 
ATOM      3  C   UNL     1      -7.804 -15.673  -3.650  1.00  0.00     0.051 A 
ATOM      4  C   UNL     1      -7.559 -15.493  -2.276  1.00  0.00    -0.027 A 
ATOM      5  C   UNL     1      -7.150 -14.194  -1.863  1.00  0.00     0.022 A 
ATOM      6  C   UNL     1      -7.512 -13.091  -2.656  1.00  0.00     0.020 A 
ATOM      7  C   UNL     1      -6.585 -14.001  -0.485  1.00  0.00     0.163 C 
ATOM      8  O   UNL     1      -5.876 -12.989  -0.223  1.00  0.00    -0.294 OA
ATOM      9  C   UNL     1      -6.867 -15.017   0.610  1.00  0.00     0.086 C 
ATOM     10  C   UNL     1      -8.061 -15.877   0.150  1.00  0.00     0.013 C 
ATOM     11  C   UNL     1      -7.758 -16.610  -1.227  1.00  0.00    -0.003 C 
ATOM     12  C   UNL     1      -8.962 -17.576  -1.571  1.00  0.00     0.012 C 
ATOM     13  C   UNL     1     -10.293 -17.067  -1.008  1.00  0.00     0.001 C 
ATOM     14  C   UNL     1     -10.289 -17.048   0.540  1.00  0.00     0.007 C 
ATOM     15  C   UNL     1      -8.892 -16.702   1.195  1.00  0.00    -0.031 C 
ATOM     16  C   UNL     1      -8.180 -17.994   1.673  1.00  0.00     0.011 C 
ATOM     17  C   UNL     1      -9.163 -15.854   2.460  1.00  0.00     0.011 C 
ATOM     18  C   UNL     1      -6.441 -17.445  -1.204  1.00  0.00     0.017 C 
ENDROOT
BRANCH   1  19
ATOM     19  C   UNL     1      -9.048 -12.224  -4.489  1.00  0.00     0.017 C 
ATOM     20  C   UNL     1      -8.288 -11.325  -5.478  1.00  0.00     0.012 C 
ATOM     21  C   UNL     1      -9.784 -11.423  -3.394  1.00  0.00     0.012 C 
ENDBRANCH   1  19
BRANCH   2  22
ATOM     22  O   UNL     1      -8.594 -14.786  -5.758  1.00  0.00    -0.508 OA
ATOM     23  H   UNL     1      -9.383 -14.285  -6.149  1.00  0.00     0.293 HD
ENDBRANCH   2  22
TORSDOF 2
ENDMDL
MODEL 3
REMARK VINA RESULT:    -4.812      1.028      1.095
REMARK INTER + INTRA:          -5.527
REMARK INTER:                  -5.279
REMARK INTRA:                  -0.248
REMARK UNBOUND:                -0.294
REMARK SMILES CC(C)c1cc2c(cc1O)[C@]1(C)CCCC(C)(C)[C@H]1CC2=O
REMARK SMILES IDX 4 1 9 2 8 3 7 4 6 5 5 6 21 7 22 8 20 9 19 10 11 11 13 12
REMARK SMILES IDX 14 13 15 14 16 15 17 16 18 17 12 18 2 19 1 20 3 21 10 22
REMARK H PARENT 10 23
REMARK Flexibility Score: inf
ROOT
ATOM      1  C   UNL     1      -7.604 -15.361  -1.626  1.00  0.00    -0.003 A 
ATOM      2  C   UNL     1      -6.931 -14.148  -1.845  1.00  0.00     0.119 A 
ATOM      3  C   UNL     1      -6.819 -13.655  -3.143  1.00  0.00     0.051 A 
ATOM      4  C   UNL     1      -7.470 -14.308  -4.205  1.00  0.00    -0.027 A 
ATOM      5  C   UNL     1      -7.747 -15.693  -4.033  1.00  0.00     0.022 A 
ATOM      6  C   UNL     1      -7.869 -16.197  -2.726  1.00  0.00     0.020 A 
ATOM      7  C   UNL     1      -8.158 -16.517  -5.220  1.00  0.00     0.163 C 
ATOM      8  O   UNL     1      -8.039 -17.775  -5.194  1.00  0.00    -0.294 OA
ATOM      9  C   UNL     1      -8.730 -15.848  -6.459  1.00  0.00     0.086 C 
ATOM     10  C   UNL     1      -9.151 -14.418  -6.063  1.00  0.00     0.013 C 
ATOM     11  C   UNL     1      -7.924 -13.584  -5.494  1.00  0.00    -0.003 C 
ATOM     12  C   UNL     1      -8.391 -12.095  -5.235  1.00  0.00     0.012 C 
ATOM     13  C   UNL     1      -9.880 -12.007  -4.885  1.00  0.00     0.001 C 
ATOM     14  C   UNL     1     -10.774 -12.455  -6.066  1.00  0.00     0.007 C 
ATOM     15  C   UNL     1     -10.168 -13.619  -6.950  1.00  0.00    -0.031 C 
ATOM     16  C   UNL     1      -9.543 -13.046  -8.249  1.00  0.00     0.011 C 
ATOM     17  C   UNL     1     -11.337 -14.533  -7.389  1.00  0.00     0.011 C 
ATOM     18  C   UNL     1      -6.695 -13.561  -6.452  1.00  0.00     0.017 C 
ENDROOT
BRANCH   1  19
ATOM     19  C   UNL     1      -8.234 -15.633  -0.273  1.00  0.00     0.017 C 
ATOM     20  C   UNL     1      -7.286 -16.393   0.670  1.00  0.00     0.012 C 
ATOM     21  C   UNL     1      -9.610 -16.316  -0.419  1.00  0.00     0.012 C 
ENDBRANCH   1  19
BRANCH   2  22
ATOM     22  O   UNL     1      -6.455 -13.401  -0.764  1.00  0.00    -0.508 OA
ATOM     23  H   UNL     1      -5.718 -12.713  -0.865  1.00  0.00     0.293 HD
ENDBRANCH   2  22
TORSDOF 2
ENDMDL
MODEL 4
REMARK VINA RESULT:    -4.673      2.306      6.142
REMARK INTER + INTRA:          -5.376
REMARK INTER:                  -5.070
REMARK INTRA:                  -0.306
REMARK UNBOUND:                -0.294
REMARK SMILES CC(C)c1cc2c(cc1O)[C@]1(C)CCCC(C)(C)[C@H]1CC2=O
REMARK SMILES IDX 4 1 9 2 8 3 7 4 6 5 5 6 21 7 22 8 20 9 19 10 11 11 13 12
REMARK SMILES IDX 14 13 15 14 16 15 17 16 18 17 12 18 2 19 1 20 3 21 10 22
REMARK H PARENT 10 23
REMARK Flexibility Score: inf
ROOT
ATOM      1  C   UNL     1     -10.844 -14.666  -7.789  1.00  0.00    -0.003 A 
ATOM      2  C   UNL     1      -9.588 -15.020  -8.310  1.00  0.00     0.119 A 
ATOM      3  C   UNL     1      -8.438 -14.697  -7.594  1.00  0.00     0.051 A 
ATOM      4  C   UNL     1      -8.540 -14.127  -6.312  1.00  0.00    -0.027 A 
ATOM      5  C   UNL     1      -9.736 -13.411  -6.023  1.00  0.00     0.022 A 
ATOM      6  C   UNL     1     -10.903 -13.736  -6.736  1.00  0.00     0.020 A 
ATOM      7  C   UNL     1      -9.794 -12.531  -4.807  1.00  0.00     0.163 C 
ATOM      8  O   UNL     1     -10.657 -11.613  -4.726  1.00  0.00    -0.294 OA
ATOM      9  C   UNL     1      -8.820 -12.742  -3.659  1.00  0.00     0.086 C 
ATOM     10  C   UNL     1      -8.198 -14.143  -3.829  1.00  0.00     0.013 C 
ATOM     11  C   UNL     1      -7.453 -14.287  -5.225  1.00  0.00    -0.003 C 
ATOM     12  C   UNL     1      -6.727 -15.691  -5.277  1.00  0.00     0.012 C 
ATOM     13  C   UNL     1      -7.452 -16.751  -4.443  1.00  0.00     0.001 C 
ATOM     14  C   UNL     1      -7.435 -16.402  -2.935  1.00  0.00     0.007 C 
ATOM     15  C   UNL     1      -7.511 -14.856  -2.611  1.00  0.00    -0.031 C 
ATOM     16  C   UNL     1      -6.102 -14.299  -2.279  1.00  0.00     0.011 C 
ATOM     17  C   UNL     1      -8.366 -14.685  -1.332  1.00  0.00     0.011 C 
ATOM     18  C   UNL     1      -6.397 -13.169  -5.479  1.00  0.00     0.017 C 
ENDROOT
BRANCH   1  19
ATOM     19  C   UNL     1     -12.072 -15.458  -8.199  1.00  0.00     0.017 C 
ATOM     20  C   UNL     1     -13.367 -14.642  -8.052  1.00  0.00     0.012 C 
ATOM     21  C   UNL     1     -12.134 -16.817  -7.471  1.00  0.00     0.012 C 
ENDBRANCH   1  19
BRANCH   2  22
ATOM     22  O   UNL     1      -9.499 -15.761  -9.491  1.00  0.00    -0.508 OA
ATOM     23  H   UNL     1      -8.851 -16.534  -9.597  1.00  0.00     0.293 HD
ENDBRANCH   2  22
TORSDOF 2
ENDMDL
MODEL 5
REMARK VINA RESULT:    -4.579      1.815      6.155
REMARK INTER + INTRA:          -5.274
REMARK INTER:                  -5.024
REMARK INTRA:                  -0.250
REMARK UNBOUND:                -0.294
REMARK SMILES CC(C)c1cc2c(cc1O)[C@]1(C)CCCC(C)(C)[C@H]1CC2=O
REMARK SMILES IDX 4 1 9 2 8 3 7 4 6 5 5 6 21 7 22 8 20 9 19 10 11 11 13 12
REMARK SMILES IDX 14 13 15 14 16 15 17 16 18 17 12 18 2 19 1 20 3 21 10 22
REMARK H PARENT 10 23
REMARK Flexibility Score: inf
ROOT
ATOM      1  C   UNL     1      -8.864 -14.459  -6.680  1.00  0.00    -0.003 A 
ATOM      2  C   UNL     1      -7.812 -15.382  -6.798  1.00  0.00     0.119 A 
ATOM      3  C   UNL     1      -7.123 -15.781  -5.655  1.00  0.00     0.051 A 
ATOM      4  C   UNL     1      -7.552 -15.350  -4.386  1.00  0.00    -0.027 A 
ATOM      5  C   UNL     1      -8.290 -14.134  -4.337  1.00  0.00     0.022 A 
ATOM      6  C   UNL     1      -8.994 -13.728  -5.485  1.00  0.00     0.020 A 
ATOM      7  C   UNL     1      -8.517 -13.460  -3.014  1.00  0.00     0.163 C 
ATOM      8  O   UNL     1      -8.813 -12.233  -2.967  1.00  0.00    -0.294 OA
ATOM      9  C   UNL     1      -8.400 -14.250  -1.720  1.00  0.00     0.086 C 
ATOM     10  C   UNL     1      -8.459 -15.747  -2.083  1.00  0.00     0.013 C 
ATOM     11  C   UNL     1      -7.297 -16.152  -3.089  1.00  0.00    -0.003 C 
ATOM     12  C   UNL     1      -7.332 -17.717  -3.312  1.00  0.00     0.012 C 
ATOM     13  C   UNL     1      -8.744 -18.292  -3.168  1.00  0.00     0.001 C 
ATOM     14  C   UNL     1      -9.284 -18.130  -1.726  1.00  0.00     0.007 C 
ATOM     15  C   UNL     1      -8.815 -16.813  -0.987  1.00  0.00    -0.031 C 
ATOM     16  C   UNL     1      -7.645 -17.121  -0.016  1.00  0.00     0.011 C 
ATOM     17  C   UNL     1      -9.994 -16.318  -0.115  1.00  0.00     0.011 C 
ATOM     18  C   UNL     1      -5.877 -15.751  -2.585  1.00  0.00     0.017 C 
ENDROOT
BRANCH   1  19
ATOM     19  C   UNL     1      -9.961 -14.439  -7.727  1.00  0.00     0.017 C 
ATOM     20  C   UNL     1      -9.678 -13.426  -8.850  1.00  0.00     0.012 C 
ATOM     21  C   UNL     1     -11.351 -14.247  -7.083  1.00  0.00     0.012 C 
ENDBRANCH   1  19
BRANCH   2  22
ATOM     22  O   UNL     1      -7.516 -15.959  -8.036  1.00  0.00    -0.508 OA
ATOM     23  H   UNL     1      -8.203 -16.481  -8.568  1.00  0.00     0.293 HD
ENDBRANCH   2  22
TORSDOF 2
ENDMDL
MODEL 6
REMARK VINA RESULT:    -4.524      2.965      5.342
REMARK INTER + INTRA:          -5.214
REMARK INTER:                  -5.128
REMARK INTRA:                  -0.086
REMARK UNBOUND:                -0.294
REMARK SMILES CC(C)c1cc2c(cc1O)[C@]1(C)CCCC(C)(C)[C@H]1CC2=O
REMARK SMILES IDX 4 1 9 2 8 3 7 4 6 5 5 6 21 7 22 8 20 9 19 10 11 11 13 12
REMARK SMILES IDX 14 13 15 14 16 15 17 16 18 17 12 18 2 19 1 20 3 21 10 22
REMARK H PARENT 10 23
REMARK Flexibility Score: inf
ROOT
ATOM      1  C   UNL     1      -8.847 -12.871  -5.283  1.00  0.00    -0.003 A 
ATOM      2  C   UNL     1      -9.280 -12.336  -6.508  1.00  0.00     0.119 A 
ATOM      3  C   UNL     1      -9.604 -13.200  -7.552  1.00  0.00     0.051 A 
ATOM      4  C   UNL     1      -9.606 -14.591  -7.343  1.00  0.00    -0.027 A 
ATOM      5  C   UNL     1      -8.778 -15.083  -6.294  1.00  0.00     0.022 A 
ATOM      6  C   UNL     1      -8.453 -14.220  -5.233  1.00  0.00     0.020 A 
ATOM      7  C   UNL     1      -8.494 -16.556  -6.206  1.00  0.00     0.163 C 
ATOM      8  O   UNL     1      -7.495 -16.974  -5.557  1.00  0.00    -0.294 OA
ATOM      9  C   UNL     1      -9.412 -17.557  -6.889  1.00  0.00     0.086 C 
ATOM     10  C   UNL     1     -10.730 -16.829  -7.219  1.00  0.00     0.013 C 
ATOM     11  C   UNL     1     -10.484 -15.569  -8.156  1.00  0.00    -0.003 C 
ATOM     12  C   UNL     1     -11.881 -14.952  -8.566  1.00  0.00     0.012 C 
ATOM     13  C   UNL     1     -12.952 -15.177  -7.493  1.00  0.00     0.001 C 
ATOM     14  C   UNL     1     -13.272 -16.681  -7.311  1.00  0.00     0.007 C 
ATOM     15  C   UNL     1     -12.037 -17.649  -7.507  1.00  0.00    -0.031 C 
ATOM     16  C   UNL     1     -12.068 -18.292  -8.919  1.00  0.00     0.011 C 
ATOM     17  C   UNL     1     -12.182 -18.808  -6.492  1.00  0.00     0.011 C 
ATOM     18  C   UNL     1      -9.690 -15.911  -9.454  1.00  0.00     0.017 C 
ENDROOT
BRANCH   1  19
ATOM     19  C   UNL     1      -9.037 -12.068  -4.009  1.00  0.00     0.017 C 
ATOM     20  C   UNL     1      -8.469 -12.788  -2.776  1.00  0.00     0.012 C 
ATOM     21  C   UNL     1     -10.509 -11.639  -3.828  1.00  0.00     0.012 C 
ENDBRANCH   1  19
BRANCH   2  22
ATOM     22  O   UNL     1      -9.466 -10.959  -6.650  1.00  0.00    -0.508 OA
ATOM     23  H   UNL     1     -10.225 -10.465  -6.194  1.00  0.00     0.293 HD
ENDBRANCH   2  22
TORSDOF 2
ENDMDL
MODEL 7
REMARK VINA RESULT:    -3.916     20.105     22.082
REMARK INTER + INTRA:          -4.553
REMARK INTER:                  -4.449
REMARK INTRA:                  -0.103
REMARK UNBOUND:                -0.294
REMARK SMILES CC(C)c1cc2c(cc1O)[C@]1(C)CCCC(C)(C)[C@H]1CC2=O
REMARK SMILES IDX 4 1 9 2 8 3 7 4 6 5 5 6 21 7 22 8 20 9 19 10 11 11 13 12
REMARK SMILES IDX 14 13 15 14 16 15 17 16 18 17 12 18 2 19 1 20 3 21 10 22
REMARK H PARENT 10 23
REMARK Flexibility Score: inf
ROOT
ATOM      1  C   UNL     1     -24.544  -5.583   7.570  1.00  0.00    -0.003 A 
ATOM      2  C   UNL     1     -25.072  -5.585   6.268  1.00  0.00     0.119 A 
ATOM      3  C   UNL     1     -25.360  -4.371   5.648  1.00  0.00     0.051 A 
ATOM      4  C   UNL     1     -25.018  -3.159   6.274  1.00  0.00    -0.027 A 
ATOM      5  C   UNL     1     -24.908  -3.180   7.693  1.00  0.00     0.022 A 
ATOM      6  C   UNL     1     -24.610  -4.399   8.327  1.00  0.00     0.020 A 
ATOM      7  C   UNL     1     -24.847  -1.883   8.448  1.00  0.00     0.163 C 
ATOM      8  O   UNL     1     -25.131  -1.848   9.679  1.00  0.00    -0.294 OA
ATOM      9  C   UNL     1     -24.434  -0.602   7.742  1.00  0.00     0.086 C 
ATOM     10  C   UNL     1     -23.752  -1.000   6.418  1.00  0.00     0.013 C 
ATOM     11  C   UNL     1     -24.721  -1.857   5.496  1.00  0.00    -0.003 C 
ATOM     12  C   UNL     1     -24.013  -2.115   4.105  1.00  0.00     0.012 C 
ATOM     13  C   UNL     1     -22.487  -2.166   4.232  1.00  0.00     0.001 C 
ATOM     14  C   UNL     1     -21.904  -0.802   4.676  1.00  0.00     0.007 C 
ATOM     15  C   UNL     1     -22.821   0.018   5.670  1.00  0.00    -0.031 C 
ATOM     16  C   UNL     1     -23.596   1.125   4.907  1.00  0.00     0.011 C 
ATOM     17  C   UNL     1     -21.894   0.742   6.676  1.00  0.00     0.011 C 
ATOM     18  C   UNL     1     -26.095  -1.167   5.235  1.00  0.00     0.017 C 
ENDROOT
BRANCH   1  19
ATOM     19  C   UNL     1     -23.713  -6.762   8.040  1.00  0.00     0.017 C 
ATOM     20  C   UNL     1     -24.582  -7.962   8.451  1.00  0.00     0.012 C 
ATOM     21  C   UNL     1     -22.711  -6.343   9.137  1.00  0.00     0.012 C 
ENDBRANCH   1  19
BRANCH   2  22
ATOM     22  O   UNL     1     -25.228  -6.787   5.572  1.00  0.00    -0.508 OA
ATOM     23  H   UNL     1     -25.407  -6.815   4.575  1.00  0.00     0.293 HD
ENDBRANCH   2  22
TORSDOF 2
ENDMDL
MODEL 8
REMARK VINA RESULT:    -3.875      1.490      2.038
REMARK INTER + INTRA:          -4.508
REMARK INTER:                  -4.223
REMARK INTRA:                  -0.286
REMARK UNBOUND:                -0.294
REMARK SMILES CC(C)c1cc2c(cc1O)[C@]1(C)CCCC(C)(C)[C@H]1CC2=O
REMARK SMILES IDX 4 1 9 2 8 3 7 4 6 5 5 6 21 7 22 8 20 9 19 10 11 11 13 12
REMARK SMILES IDX 14 13 15 14 16 15 17 16 18 17 12 18 2 19 1 20 3 21 10 22
REMARK H PARENT 10 23
REMARK Flexibility Score: inf
ROOT
ATOM      1  C   UNL     1      -8.183 -16.954  -0.785  1.00  0.00    -0.003 A 
ATOM      2  C   UNL     1      -7.015 -16.178  -0.869  1.00  0.00     0.119 A 
ATOM      3  C   UNL     1      -6.507 -15.844  -2.122  1.00  0.00     0.051 A 
ATOM      4  C   UNL     1      -7.220 -16.183  -3.286  1.00  0.00    -0.027 A 
ATOM      5  C   UNL     1      -8.108 -17.291  -3.195  1.00  0.00     0.022 A 
ATOM      6  C   UNL     1      -8.632 -17.630  -1.934  1.00  0.00     0.020 A 
ATOM      7  C   UNL     1      -8.667 -17.896  -4.451  1.00  0.00     0.163 C 
ATOM      8  O   UNL     1      -9.128 -19.072  -4.441  1.00  0.00    -0.294 OA
ATOM      9  C   UNL     1      -8.693 -17.096  -5.743  1.00  0.00     0.086 C 
ATOM     10  C   UNL     1      -8.483 -15.613  -5.376  1.00  0.00     0.013 C 
ATOM     11  C   UNL     1      -7.110 -15.389  -4.608  1.00  0.00    -0.003 C 
ATOM     12  C   UNL     1      -6.894 -13.839  -4.383  1.00  0.00     0.012 C 
ATOM     13  C   UNL     1      -8.219 -13.081  -4.256  1.00  0.00     0.001 C 
ATOM     14  C   UNL     1      -9.037 -13.135  -5.569  1.00  0.00     0.007 C 
ATOM     15  C   UNL     1      -8.894 -14.483  -6.384  1.00  0.00    -0.031 C 
ATOM     16  C   UNL     1      -7.898 -14.306  -7.559  1.00  0.00     0.011 C 
ATOM     17  C   UNL     1     -10.271 -14.798  -7.016  1.00  0.00     0.011 C 
ATOM     18  C   UNL     1      -5.875 -15.959  -5.372  1.00  0.00     0.017 C 
ENDROOT
BRANCH   1  19
ATOM     19  C   UNL     1      -9.057 -16.857   0.451  1.00  0.00     0.017 C 
ATOM     20  C   UNL     1      -8.881 -18.065   1.386  1.00  0.00     0.012 C 
ATOM     21  C   UNL     1     -10.532 -16.597   0.079  1.00  0.00     0.012 C 
ENDBRANCH   1  19
BRANCH   2  22
ATOM     22  O   UNL     1      -6.418 -15.676   0.291  1.00  0.00    -0.508 OA
ATOM     23  H   UNL     1      -6.888 -15.015   0.898  1.00  0.00     0.293 HD
ENDBRANCH   2  22
TORSDOF 2
ENDMDL
MODEL 9
REMARK VINA RESULT:    -3.798     13.582     16.093
REMARK INTER + INTRA:          -4.425
REMARK INTER:                  -4.285
REMARK INTRA:                  -0.140
REMARK UNBOUND:                -0.294
REMARK SMILES CC(C)c1cc2c(cc1O)[C@]1(C)CCCC(C)(C)[C@H]1CC2=O
REMARK SMILES IDX 4 1 9 2 8 3 7 4 6 5 5 6 21 7 22 8 20 9 19 10 11 11 13 12
REMARK SMILES IDX 14 13 15 14 16 15 17 16 18 17 12 18 2 19 1 20 3 21 10 22
REMARK H PARENT 10 23
REMARK Flexibility Score: inf
ROOT
ATOM      1  C   UNL     1     -10.155   0.338   0.274  1.00  0.00    -0.003 A 
ATOM      2  C   UNL     1      -8.827   0.510  -0.150  1.00  0.00     0.119 A 
ATOM      3  C   UNL     1      -7.805   0.522   0.796  1.00  0.00     0.051 A 
ATOM      4  C   UNL     1      -8.090   0.250   2.147  1.00  0.00    -0.027 A 
ATOM      5  C   UNL     1      -9.418   0.512   2.587  1.00  0.00     0.022 A 
ATOM      6  C   UNL     1     -10.456   0.495   1.639  1.00  0.00     0.020 A 
ATOM      7  C   UNL     1      -9.717   0.536   4.059  1.00  0.00     0.163 C 
ATOM      8  O   UNL     1     -10.748   1.125   4.490  1.00  0.00    -0.294 OA
ATOM      9  C   UNL     1      -8.787  -0.154   5.043  1.00  0.00     0.086 C 
ATOM     10  C   UNL     1      -7.891  -1.117   4.239  1.00  0.00     0.013 C 
ATOM     11  C   UNL     1      -7.055  -0.349   3.127  1.00  0.00    -0.003 C 
ATOM     12  C   UNL     1      -6.063  -1.367   2.434  1.00  0.00     0.012 C 
ATOM     13  C   UNL     1      -6.610  -2.798   2.431  1.00  0.00     0.001 C 
ATOM     14  C   UNL     1      -6.746  -3.362   3.866  1.00  0.00     0.007 C 
ATOM     15  C   UNL     1      -7.146  -2.294   4.962  1.00  0.00    -0.031 C 
ATOM     16  C   UNL     1      -5.895  -1.840   5.760  1.00  0.00     0.011 C 
ATOM     17  C   UNL     1      -8.087  -2.989   5.974  1.00  0.00     0.011 C 
ATOM     18  C   UNL     1      -6.229   0.847   3.692  1.00  0.00     0.017 C 
ENDROOT
BRANCH   1  19
ATOM     19  C   UNL     1     -11.177  -0.239  -0.687  1.00  0.00     0.017 C 
ATOM     20  C   UNL     1     -11.737   0.821  -1.649  1.00  0.00     0.012 C 
ATOM     21  C   UNL     1     -12.282  -1.011   0.063  1.00  0.00     0.012 C 
ENDBRANCH   1  19
BRANCH   2  22
ATOM     22  O   UNL     1      -8.526   0.584  -1.513  1.00  0.00    -0.508 OA
ATOM     23  H   UNL     1      -9.068   0.090  -2.213  1.00  0.00     0.293 HD
ENDBRANCH   2  22
TORSDOF 2
ENDMDL
