MODEL 1
REMARK VINA RESULT:    -4.702      0.000      0.000
REMARK INTER + INTRA:          -8.411
REMARK INTER:                  -7.313
REMARK INTRA:                  -1.097
REMARK UNBOUND:                -1.097
REMARK SMILES COc1cc(CNC(=O)CCCCC=CC(C)C)ccc1O
REMARK SMILES IDX 11 1 12 2 13 3 14 4 15 5 16 6 17 7 18 8 10 9 8 10 9 11 7 12
REMARK SMILES IDX 6 14 5 15 4 16 19 17 3 18 20 19 21 20 2 21 1 22 22 23
REMARK H PARENT 7 13 22 24
REMARK Flexibility Score: inf
ROOT
ATOM      1  C   UNL     1      11.571  -4.493 -31.945  1.00  0.00     0.010 C 
ENDROOT
BRANCH   1   2
ATOM      2  C   UNL     1      11.976  -3.646 -30.726  1.00  0.00     0.005 C 
BRANCH   2   3
ATOM      3  C   UNL     1      12.223  -4.502 -29.476  1.00  0.00     0.027 C 
BRANCH   3   4
ATOM      4  C   UNL     1      10.941  -4.865 -28.767  1.00  0.00    -0.031 C 
ATOM      5  C   UNL     1      10.783  -5.508 -27.586  1.00  0.00    -0.028 C 
BRANCH   5   6
ATOM      6  C   UNL     1      11.819  -5.965 -26.567  1.00  0.00     0.005 C 
ATOM      7  C   UNL     1      12.702  -4.869 -25.962  1.00  0.00     0.012 C 
ATOM      8  C   UNL     1      11.188  -6.859 -25.495  1.00  0.00     0.012 C 
ENDBRANCH   5   6
ENDBRANCH   3   4
ENDBRANCH   2   3
ENDBRANCH   1   2
BRANCH   1   9
ATOM      9  C   UNL     1      10.460  -3.838 -32.772  1.00  0.00     0.100 C 
BRANCH   9  10
ATOM     10  C   UNL     1       9.169  -4.579 -32.588  1.00  0.00     0.220 C 
ATOM     11  O   UNL     1       8.695  -5.239 -33.554  1.00  0.00    -0.275 OA
ATOM     12  N   UNL     1       8.456  -4.501 -31.345  1.00  0.00    -0.352 N 
ATOM     13  H   UNL     1       8.861  -3.936 -30.563  1.00  0.00     0.163 HD
BRANCH  12  14
ATOM     14  C   UNL     1       7.178  -5.174 -31.127  1.00  0.00     0.151 C 
BRANCH  14  15
ATOM     15  C   UNL     1       6.603  -4.799 -29.786  1.00  0.00    -0.025 A 
ATOM     16  C   UNL     1       5.324  -5.240 -29.409  1.00  0.00     0.056 A 
ATOM     17  C   UNL     1       7.359  -4.031 -28.890  1.00  0.00     0.009 A 
ATOM     18  C   UNL     1       4.800  -4.916 -28.140  1.00  0.00     0.160 A 
ATOM     19  C   UNL     1       6.844  -3.706 -27.633  1.00  0.00     0.050 A 
ATOM     20  C   UNL     1       5.569  -4.148 -27.255  1.00  0.00     0.157 A 
BRANCH  18  21
ATOM     21  O   UNL     1       3.529  -5.343 -27.723  1.00  0.00    -0.493 OA
ATOM     22  C   UNL     1       2.690  -6.219 -28.470  1.00  0.00     0.278 C 
ENDBRANCH  18  21
BRANCH  20  23
ATOM     23  O   UNL     1       5.058  -3.830 -25.998  1.00  0.00    -0.504 OA
ATOM     24  H   UNL     1       4.100  -4.052 -25.741  1.00  0.00     0.293 HD
ENDBRANCH  20  23
ENDBRANCH  14  15
ENDBRANCH  12  14
ENDBRANCH   9  10
ENDBRANCH   1   9
TORSDOF 10
ENDMDL
MODEL 2
REMARK VINA RESULT:    -4.449      1.277      2.099
REMARK INTER + INTRA:          -8.017
REMARK INTER:                  -6.376
REMARK INTRA:                  -1.641
REMARK UNBOUND:                -1.097
REMARK SMILES COc1cc(CNC(=O)CCCCC=CC(C)C)ccc1O
REMARK SMILES IDX 11 1 12 2 13 3 14 4 15 5 16 6 17 7 18 8 10 9 8 10 9 11 7 12
REMARK SMILES IDX 6 14 5 15 4 16 19 17 3 18 20 19 21 20 2 21 1 22 22 23
REMARK H PARENT 7 13 22 24
REMARK Flexibility Score: inf
ROOT
ATOM      1  C   UNL     1      10.750  -3.409 -33.584  1.00  0.00     0.010 C 
ENDROOT
BRANCH   1   2
ATOM      2  C   UNL     1      11.897  -4.423 -33.429  1.00  0.00     0.005 C 
BRANCH   2   3
ATOM      3  C   UNL     1      12.763  -4.142 -32.195  1.00  0.00     0.027 C 
BRANCH   3   4
ATOM      4  C   UNL     1      11.999  -3.423 -31.109  1.00  0.00    -0.031 C 
ATOM      5  C   UNL     1      11.429  -3.939 -29.995  1.00  0.00    -0.028 C 
BRANCH   5   6
ATOM      6  C   UNL     1      11.465  -5.355 -29.436  1.00  0.00     0.005 C 
ATOM      7  C   UNL     1      11.071  -5.512 -27.964  1.00  0.00     0.012 C 
ATOM      8  C   UNL     1      10.711  -6.331 -30.345  1.00  0.00     0.012 C 
ENDBRANCH   5   6
ENDBRANCH   3   4
ENDBRANCH   2   3
ENDBRANCH   1   2
BRANCH   1   9
ATOM      9  C   UNL     1       9.705  -3.857 -34.611  1.00  0.00     0.100 C 
BRANCH   9  10
ATOM     10  C   UNL     1       8.711  -4.782 -33.973  1.00  0.00     0.220 C 
ATOM     11  O   UNL     1       8.143  -5.659 -34.682  1.00  0.00    -0.275 OA
ATOM     12  N   UNL     1       8.375  -4.643 -32.585  1.00  0.00    -0.352 N 
ATOM     13  H   UNL     1       8.848  -3.900 -32.020  1.00  0.00     0.163 HD
BRANCH  12  14
ATOM     14  C   UNL     1       7.388  -5.494 -31.925  1.00  0.00     0.151 C 
BRANCH  14  15
ATOM     15  C   UNL     1       7.001  -4.920 -30.588  1.00  0.00    -0.025 A 
ATOM     16  C   UNL     1       5.791  -5.286 -29.975  1.00  0.00     0.056 A 
ATOM     17  C   UNL     1       7.865  -4.035 -29.929  1.00  0.00     0.009 A 
ATOM     18  C   UNL     1       5.445  -4.773 -28.708  1.00  0.00     0.160 A 
ATOM     19  C   UNL     1       7.527  -3.523 -28.675  1.00  0.00     0.050 A 
ATOM     20  C   UNL     1       6.321  -3.891 -28.062  1.00  0.00     0.157 A 
BRANCH  18  21
ATOM     21  O   UNL     1       4.249  -5.121 -28.061  1.00  0.00    -0.493 OA
ATOM     22  C   UNL     1       3.100  -5.646 -28.720  1.00  0.00     0.278 C 
ENDBRANCH  18  21
BRANCH  20  23
ATOM     23  O   UNL     1       5.986  -3.384 -26.807  1.00  0.00    -0.504 OA
ATOM     24  H   UNL     1       6.154  -3.916 -25.958  1.00  0.00     0.293 HD
ENDBRANCH  20  23
ENDBRANCH  14  15
ENDBRANCH  12  14
ENDBRANCH   9  10
ENDBRANCH   1   9
TORSDOF 10
ENDMDL
MODEL 3
REMARK VINA RESULT:    -4.394      2.393      4.807
REMARK INTER + INTRA:          -7.931
REMARK INTER:                  -6.792
REMARK INTRA:                  -1.139
REMARK UNBOUND:                -1.097
REMARK SMILES COc1cc(CNC(=O)CCCCC=CC(C)C)ccc1O
REMARK SMILES IDX 11 1 12 2 13 3 14 4 15 5 16 6 17 7 18 8 10 9 8 10 9 11 7 12
REMARK SMILES IDX 6 14 5 15 4 16 19 17 3 18 20 19 21 20 2 21 1 22 22 23
REMARK H PARENT 7 13 22 24
REMARK Flexibility Score: inf
ROOT
ATOM      1  C   UNL     1       9.320  -5.249 -29.621  1.00  0.00     0.010 C 
ENDROOT
BRANCH   1   2
ATOM      2  C   UNL     1      10.505  -4.810 -28.743  1.00  0.00     0.005 C 
BRANCH   2   3
ATOM      3  C   UNL     1      11.851  -4.952 -29.464  1.00  0.00     0.027 C 
BRANCH   3   4
ATOM      4  C   UNL     1      12.207  -3.722 -30.263  1.00  0.00    -0.031 C 
ATOM      5  C   UNL     1      12.018  -3.490 -31.584  1.00  0.00    -0.028 C 
BRANCH   5   6
ATOM      6  C   UNL     1      11.308  -4.327 -32.639  1.00  0.00     0.005 C 
ATOM      7  C   UNL     1      10.140  -3.651 -33.366  1.00  0.00     0.012 C 
ATOM      8  C   UNL     1      12.307  -4.961 -33.611  1.00  0.00     0.012 C 
ENDBRANCH   5   6
ENDBRANCH   3   4
ENDBRANCH   2   3
ENDBRANCH   1   2
BRANCH   1   9
ATOM      9  C   UNL     1       8.424  -4.075 -30.028  1.00  0.00     0.100 C 
BRANCH   9  10
ATOM     10  C   UNL     1       7.188  -4.044 -29.179  1.00  0.00     0.220 C 
ATOM     11  O   UNL     1       6.803  -2.944 -28.692  1.00  0.00    -0.275 OA
ATOM     12  N   UNL     1       6.478  -5.255 -28.884  1.00  0.00    -0.352 N 
ATOM     13  H   UNL     1       6.823  -6.156 -29.288  1.00  0.00     0.163 HD
BRANCH  12  14
ATOM     14  C   UNL     1       5.291  -5.284 -28.034  1.00  0.00     0.151 C 
BRANCH  14  15
ATOM     15  C   UNL     1       4.043  -5.404 -28.869  1.00  0.00    -0.025 A 
ATOM     16  C   UNL     1       4.116  -5.382 -30.271  1.00  0.00     0.056 A 
ATOM     17  C   UNL     1       2.798  -5.571 -28.247  1.00  0.00     0.009 A 
ATOM     18  C   UNL     1       2.951  -5.528 -31.052  1.00  0.00     0.160 A 
ATOM     19  C   UNL     1       1.641  -5.714 -29.016  1.00  0.00     0.050 A 
ATOM     20  C   UNL     1       1.714  -5.695 -30.415  1.00  0.00     0.157 A 
BRANCH  18  21
ATOM     21  O   UNL     1       2.984  -5.518 -32.456  1.00  0.00    -0.493 OA
ATOM     22  C   UNL     1       4.147  -5.248 -33.232  1.00  0.00     0.278 C 
ENDBRANCH  18  21
BRANCH  20  23
ATOM     23  O   UNL     1       0.559  -5.845 -31.182  1.00  0.00    -0.504 OA
ATOM     24  H   UNL     1       0.578  -6.310 -32.085  1.00  0.00     0.293 HD
ENDBRANCH  20  23
ENDBRANCH  14  15
ENDBRANCH  12  14
ENDBRANCH   9  10
ENDBRANCH   1   9
TORSDOF 10
ENDMDL
MODEL 4
REMARK VINA RESULT:    -4.376      2.585      6.309
REMARK INTER + INTRA:          -7.904
REMARK INTER:                  -6.195
REMARK INTRA:                  -1.709
REMARK UNBOUND:                -1.097
REMARK SMILES COc1cc(CNC(=O)CCCCC=CC(C)C)ccc1O
REMARK SMILES IDX 11 1 12 2 13 3 14 4 15 5 16 6 17 7 18 8 10 9 8 10 9 11 7 12
REMARK SMILES IDX 6 14 5 15 4 16 19 17 3 18 20 19 21 20 2 21 1 22 22 23
REMARK H PARENT 7 13 22 24
REMARK Flexibility Score: inf
ROOT
ATOM      1  C   UNL     1       5.431  -7.074 -32.767  1.00  0.00     0.010 C 
ENDROOT
BRANCH   1   2
ATOM      2  C   UNL     1       4.287  -7.042 -31.738  1.00  0.00     0.005 C 
BRANCH   2   3
ATOM      3  C   UNL     1       3.838  -5.613 -31.407  1.00  0.00     0.027 C 
BRANCH   3   4
ATOM      4  C   UNL     1       3.873  -5.330 -29.924  1.00  0.00    -0.031 C 
ATOM      5  C   UNL     1       4.933  -4.986 -29.155  1.00  0.00    -0.028 C 
BRANCH   5   6
ATOM      6  C   UNL     1       6.372  -4.677 -29.545  1.00  0.00     0.005 C 
ATOM      7  C   UNL     1       7.075  -3.587 -28.729  1.00  0.00     0.012 C 
ATOM      8  C   UNL     1       7.208  -5.956 -29.643  1.00  0.00     0.012 C 
ENDBRANCH   5   6
ENDBRANCH   3   4
ENDBRANCH   2   3
ENDBRANCH   1   2
BRANCH   1   9
ATOM      9  C   UNL     1       5.874  -5.671 -33.195  1.00  0.00     0.100 C 
BRANCH   9  10
ATOM     10  C   UNL     1       7.298  -5.696 -33.666  1.00  0.00     0.220 C 
ATOM     11  O   UNL     1       7.777  -6.773 -34.120  1.00  0.00    -0.275 OA
ATOM     12  N   UNL     1       8.120  -4.525 -33.561  1.00  0.00    -0.352 N 
ATOM     13  H   UNL     1       7.705  -3.648 -33.169  1.00  0.00     0.163 HD
BRANCH  12  14
ATOM     14  C   UNL     1       9.521  -4.508 -33.972  1.00  0.00     0.151 C 
BRANCH  14  15
ATOM     15  C   UNL     1      10.411  -4.153 -32.809  1.00  0.00    -0.025 A 
ATOM     16  C   UNL     1      10.011  -4.430 -31.492  1.00  0.00     0.056 A 
ATOM     17  C   UNL     1      11.665  -3.570 -33.039  1.00  0.00     0.009 A 
ATOM     18  C   UNL     1      10.859  -4.128 -30.407  1.00  0.00     0.160 A 
ATOM     19  C   UNL     1      12.508  -3.267 -31.968  1.00  0.00     0.050 A 
ATOM     20  C   UNL     1      12.109  -3.546 -30.653  1.00  0.00     0.157 A 
BRANCH  18  21
ATOM     21  O   UNL     1      10.497  -4.395 -29.076  1.00  0.00    -0.493 OA
ATOM     22  C   UNL     1      10.742  -5.629 -28.408  1.00  0.00     0.278 C 
ENDBRANCH  18  21
BRANCH  20  23
ATOM     23  O   UNL     1      12.954  -3.250 -29.584  1.00  0.00    -0.504 OA
ATOM     24  H   UNL     1      13.867  -3.685 -29.493  1.00  0.00     0.293 HD
ENDBRANCH  20  23
ENDBRANCH  14  15
ENDBRANCH  12  14
ENDBRANCH   9  10
ENDBRANCH   1   9
TORSDOF 10
ENDMDL
MODEL 5
REMARK VINA RESULT:    -4.355      2.250      4.418
REMARK INTER + INTRA:          -7.871
REMARK INTER:                  -6.662
REMARK INTRA:                  -1.209
REMARK UNBOUND:                -1.097
REMARK SMILES COc1cc(CNC(=O)CCCCC=CC(C)C)ccc1O
REMARK SMILES IDX 11 1 12 2 13 3 14 4 15 5 16 6 17 7 18 8 10 9 8 10 9 11 7 12
REMARK SMILES IDX 6 14 5 15 4 16 19 17 3 18 20 19 21 20 2 21 1 22 22 23
REMARK H PARENT 7 13 22 24
REMARK Flexibility Score: inf
ROOT
ATOM      1  C   UNL     1      10.559  -5.173 -27.958  1.00  0.00     0.010 C 
ENDROOT
BRANCH   1   2
ATOM      2  C   UNL     1      12.082  -5.388 -27.988  1.00  0.00     0.005 C 
BRANCH   2   3
ATOM      3  C   UNL     1      12.649  -5.359 -29.413  1.00  0.00     0.027 C 
BRANCH   3   4
ATOM      4  C   UNL     1      12.640  -3.970 -30.005  1.00  0.00    -0.031 C 
ATOM      5  C   UNL     1      11.841  -3.472 -30.978  1.00  0.00    -0.028 C 
BRANCH   5   6
ATOM      6  C   UNL     1      10.652  -4.100 -31.693  1.00  0.00     0.005 C 
ATOM      7  C   UNL     1       9.281  -3.890 -31.041  1.00  0.00     0.012 C 
ATOM      8  C   UNL     1      10.646  -3.743 -33.182  1.00  0.00     0.012 C 
ENDBRANCH   5   6
ENDBRANCH   3   4
ENDBRANCH   2   3
ENDBRANCH   1   2
BRANCH   1   9
ATOM      9  C   UNL     1       9.783  -6.486 -27.806  1.00  0.00     0.100 C 
BRANCH   9  10
ATOM     10  C   UNL     1       8.385  -6.213 -27.335  1.00  0.00     0.220 C 
ATOM     11  O   UNL     1       7.784  -7.087 -26.650  1.00  0.00    -0.275 OA
ATOM     12  N   UNL     1       7.721  -4.993 -27.697  1.00  0.00    -0.352 N 
ATOM     13  H   UNL     1       8.234  -4.289 -28.276  1.00  0.00     0.163 HD
BRANCH  12  14
ATOM     14  C   UNL     1       6.349  -4.695 -27.294  1.00  0.00     0.151 C 
BRANCH  14  15
ATOM     15  C   UNL     1       5.386  -5.034 -28.402  1.00  0.00    -0.025 A 
ATOM     16  C   UNL     1       4.038  -5.308 -28.118  1.00  0.00     0.056 A 
ATOM     17  C   UNL     1       5.825  -5.049 -29.732  1.00  0.00     0.009 A 
ATOM     18  C   UNL     1       3.130  -5.593 -29.158  1.00  0.00     0.160 A 
ATOM     19  C   UNL     1       4.931  -5.332 -30.766  1.00  0.00     0.050 A 
ATOM     20  C   UNL     1       3.585  -5.602 -30.483  1.00  0.00     0.157 A 
BRANCH  18  21
ATOM     21  O   UNL     1       1.774  -5.865 -28.916  1.00  0.00    -0.493 OA
ATOM     22  C   UNL     1       1.301  -6.829 -27.981  1.00  0.00     0.278 C 
ENDBRANCH  18  21
BRANCH  20  23
ATOM     23  O   UNL     1       2.690  -5.878 -31.517  1.00  0.00    -0.504 OA
ATOM     24  H   UNL     1       1.803  -5.390 -31.595  1.00  0.00     0.293 HD
ENDBRANCH  20  23
ENDBRANCH  14  15
ENDBRANCH  12  14
ENDBRANCH   9  10
ENDBRANCH   1   9
TORSDOF 10
ENDMDL
MODEL 6
REMARK VINA RESULT:    -4.350      2.370      6.292
REMARK INTER + INTRA:          -7.864
REMARK INTER:                  -6.288
REMARK INTRA:                  -1.576
REMARK UNBOUND:                -1.097
REMARK SMILES COc1cc(CNC(=O)CCCCC=CC(C)C)ccc1O
REMARK SMILES IDX 11 1 12 2 13 3 14 4 15 5 16 6 17 7 18 8 10 9 8 10 9 11 7 12
REMARK SMILES IDX 6 14 5 15 4 16 19 17 3 18 20 19 21 20 2 21 1 22 22 23
REMARK H PARENT 7 13 22 24
REMARK Flexibility Score: inf
ROOT
ATOM      1  C   UNL     1       3.780  -5.809 -32.007  1.00  0.00     0.010 C 
ENDROOT
BRANCH   1   2
ATOM      2  C   UNL     1       2.933  -5.611 -30.738  1.00  0.00     0.005 C 
BRANCH   2   3
ATOM      3  C   UNL     1       3.487  -6.390 -29.538  1.00  0.00     0.027 C 
BRANCH   3   4
ATOM      4  C   UNL     1       3.743  -5.501 -28.345  1.00  0.00    -0.031 C 
ATOM      5  C   UNL     1       4.889  -4.875 -27.989  1.00  0.00    -0.028 C 
BRANCH   5   6
ATOM      6  C   UNL     1       6.225  -4.780 -28.714  1.00  0.00     0.005 C 
ATOM      7  C   UNL     1       6.854  -3.385 -28.795  1.00  0.00     0.012 C 
ATOM      8  C   UNL     1       7.213  -5.832 -28.201  1.00  0.00     0.012 C 
ENDBRANCH   5   6
ENDBRANCH   3   4
ENDBRANCH   2   3
ENDBRANCH   1   2
BRANCH   1   9
ATOM      9  C   UNL     1       5.171  -6.376 -31.702  1.00  0.00     0.100 C 
BRANCH   9  10
ATOM     10  C   UNL     1       6.212  -5.670 -32.520  1.00  0.00     0.220 C 
ATOM     11  O   UNL     1       5.863  -5.065 -33.571  1.00  0.00    -0.275 OA
ATOM     12  N   UNL     1       7.594  -5.721 -32.137  1.00  0.00    -0.352 N 
ATOM     13  H   UNL     1       7.861  -6.239 -31.269  1.00  0.00     0.163 HD
BRANCH  12  14
ATOM     14  C   UNL     1       8.649  -5.081 -32.918  1.00  0.00     0.151 C 
BRANCH  14  15
ATOM     15  C   UNL     1       9.753  -4.592 -32.016  1.00  0.00    -0.025 A 
ATOM     16  C   UNL     1       9.727  -4.868 -30.639  1.00  0.00     0.056 A 
ATOM     17  C   UNL     1      10.834  -3.880 -32.555  1.00  0.00     0.009 A 
ATOM     18  C   UNL     1      10.777  -4.438 -29.802  1.00  0.00     0.160 A 
ATOM     19  C   UNL     1      11.875  -3.451 -31.730  1.00  0.00     0.050 A 
ATOM     20  C   UNL     1      11.851  -3.729 -30.357  1.00  0.00     0.157 A 
BRANCH  18  21
ATOM     21  O   UNL     1      10.791  -4.701 -28.423  1.00  0.00    -0.493 OA
ATOM     22  C   UNL     1      10.923  -5.999 -27.852  1.00  0.00     0.278 C 
ENDBRANCH  18  21
BRANCH  20  23
ATOM     23  O   UNL     1      12.895  -3.306 -29.535  1.00  0.00    -0.504 OA
ATOM     24  H   UNL     1      12.947  -2.351 -29.191  1.00  0.00     0.293 HD
ENDBRANCH  20  23
ENDBRANCH  14  15
ENDBRANCH  12  14
ENDBRANCH   9  10
ENDBRANCH   1   9
TORSDOF 10
ENDMDL
MODEL 7
REMARK VINA RESULT:    -4.333      2.576      6.256
REMARK INTER + INTRA:          -7.837
REMARK INTER:                  -6.611
REMARK INTRA:                  -1.226
REMARK UNBOUND:                -1.097
REMARK SMILES COc1cc(CNC(=O)CCCCC=CC(C)C)ccc1O
REMARK SMILES IDX 11 1 12 2 13 3 14 4 15 5 16 6 17 7 18 8 10 9 8 10 9 11 7 12
REMARK SMILES IDX 6 14 5 15 4 16 19 17 3 18 20 19 21 20 2 21 1 22 22 23
REMARK H PARENT 7 13 22 24
REMARK Flexibility Score: inf
ROOT
ATOM      1  C   UNL     1      10.550  -6.845 -26.328  1.00  0.00     0.010 C 
ENDROOT
BRANCH   1   2
ATOM      2  C   UNL     1       9.508  -6.541 -27.419  1.00  0.00     0.005 C 
BRANCH   2   3
ATOM      3  C   UNL     1       8.081  -6.465 -26.860  1.00  0.00     0.027 C 
BRANCH   3   4
ATOM      4  C   UNL     1       7.034  -6.649 -27.932  1.00  0.00    -0.031 C 
ATOM      5  C   UNL     1       6.122  -5.757 -28.383  1.00  0.00    -0.028 C 
BRANCH   5   6
ATOM      6  C   UNL     1       5.932  -4.285 -28.042  1.00  0.00     0.005 C 
ATOM      7  C   UNL     1       5.587  -3.968 -26.583  1.00  0.00     0.012 C 
ATOM      8  C   UNL     1       7.100  -3.439 -28.558  1.00  0.00     0.012 C 
ENDBRANCH   5   6
ENDBRANCH   3   4
ENDBRANCH   2   3
ENDBRANCH   1   2
BRANCH   1   9
ATOM      9  C   UNL     1      11.649  -5.780 -26.253  1.00  0.00     0.100 C 
BRANCH   9  10
ATOM     10  C   UNL     1      12.380  -5.693 -27.561  1.00  0.00     0.220 C 
ATOM     11  O   UNL     1      13.085  -6.670 -27.938  1.00  0.00    -0.275 OA
ATOM     12  N   UNL     1      12.316  -4.497 -28.351  1.00  0.00    -0.352 N 
ATOM     13  H   UNL     1      11.736  -3.696 -28.012  1.00  0.00     0.163 HD
BRANCH  12  14
ATOM     14  C   UNL     1      13.037  -4.349 -29.613  1.00  0.00     0.151 C 
BRANCH  14  15
ATOM     15  C   UNL     1      12.075  -4.115 -30.748  1.00  0.00    -0.025 A 
ATOM     16  C   UNL     1      10.713  -4.431 -30.609  1.00  0.00     0.056 A 
ATOM     17  C   UNL     1      12.531  -3.550 -31.947  1.00  0.00     0.009 A 
ATOM     18  C   UNL     1       9.809  -4.181 -31.661  1.00  0.00     0.160 A 
ATOM     19  C   UNL     1      11.639  -3.302 -32.992  1.00  0.00     0.050 A 
ATOM     20  C   UNL     1      10.280  -3.614 -32.852  1.00  0.00     0.157 A 
BRANCH  18  21
ATOM     21  O   UNL     1       8.439  -4.476 -31.558  1.00  0.00    -0.493 OA
ATOM     22  C   UNL     1       7.896  -5.792 -31.586  1.00  0.00     0.278 C 
ENDBRANCH  18  21
BRANCH  20  23
ATOM     23  O   UNL     1       9.389  -3.360 -33.894  1.00  0.00    -0.504 OA
ATOM     24  H   UNL     1       8.818  -4.098 -34.296  1.00  0.00     0.293 HD
ENDBRANCH  20  23
ENDBRANCH  14  15
ENDBRANCH  12  14
ENDBRANCH   9  10
ENDBRANCH   1   9
TORSDOF 10
ENDMDL
MODEL 8
REMARK VINA RESULT:    -4.325      1.626      3.783
REMARK INTER + INTRA:          -7.824
REMARK INTER:                  -6.567
REMARK INTRA:                  -1.257
REMARK UNBOUND:                -1.097
REMARK SMILES COc1cc(CNC(=O)CCCCC=CC(C)C)ccc1O
REMARK SMILES IDX 11 1 12 2 13 3 14 4 15 5 16 6 17 7 18 8 10 9 8 10 9 11 7 12
REMARK SMILES IDX 6 14 5 15 4 16 19 17 3 18 20 19 21 20 2 21 1 22 22 23
REMARK H PARENT 7 13 22 24
REMARK Flexibility Score: inf
ROOT
ATOM      1  C   UNL     1      11.526  -5.122 -28.643  1.00  0.00     0.010 C 
ENDROOT
BRANCH   1   2
ATOM      2  C   UNL     1      12.870  -4.580 -29.161  1.00  0.00     0.005 C 
BRANCH   2   3
ATOM      3  C   UNL     1      13.043  -4.796 -30.670  1.00  0.00     0.027 C 
BRANCH   3   4
ATOM      4  C   UNL     1      12.737  -3.550 -31.466  1.00  0.00    -0.031 C 
ATOM      5  C   UNL     1      12.003  -3.430 -32.598  1.00  0.00    -0.028 C 
BRANCH   5   6
ATOM      6  C   UNL     1      11.182  -4.466 -33.353  1.00  0.00     0.005 C 
ATOM      7  C   UNL     1       9.732  -4.083 -33.666  1.00  0.00     0.012 C 
ATOM      8  C   UNL     1      11.928  -4.973 -34.590  1.00  0.00     0.012 C 
ENDBRANCH   5   6
ENDBRANCH   3   4
ENDBRANCH   2   3
ENDBRANCH   1   2
BRANCH   1   9
ATOM      9  C   UNL     1      10.977  -6.260 -29.510  1.00  0.00     0.100 C 
BRANCH   9  10
ATOM     10  C   UNL     1       9.540  -6.006 -29.854  1.00  0.00     0.220 C 
ATOM     11  O   UNL     1       8.744  -6.983 -29.933  1.00  0.00    -0.275 OA
ATOM     12  N   UNL     1       9.083  -4.675 -30.135  1.00  0.00    -0.352 N 
ATOM     13  H   UNL     1       9.764  -3.883 -30.076  1.00  0.00     0.163 HD
BRANCH  12  14
ATOM     14  C   UNL     1       7.703  -4.379 -30.509  1.00  0.00     0.151 C 
BRANCH  14  15
ATOM     15  C   UNL     1       6.847  -4.203 -29.282  1.00  0.00    -0.025 A 
ATOM     16  C   UNL     1       5.731  -5.027 -29.063  1.00  0.00     0.056 A 
ATOM     17  C   UNL     1       7.180  -3.229 -28.330  1.00  0.00     0.009 A 
ATOM     18  C   UNL     1       4.951  -4.883 -27.898  1.00  0.00     0.160 A 
ATOM     19  C   UNL     1       6.409  -3.081 -27.175  1.00  0.00     0.050 A 
ATOM     20  C   UNL     1       5.297  -3.906 -26.956  1.00  0.00     0.157 A 
BRANCH  18  21
ATOM     21  O   UNL     1       3.832  -5.692 -27.641  1.00  0.00    -0.493 OA
ATOM     22  C   UNL     1       2.617  -5.645 -28.383  1.00  0.00     0.278 C 
ENDBRANCH  18  21
BRANCH  20  23
ATOM     23  O   UNL     1       4.531  -3.762 -25.800  1.00  0.00    -0.504 OA
ATOM     24  H   UNL     1       4.084  -4.559 -25.356  1.00  0.00     0.293 HD
ENDBRANCH  20  23
ENDBRANCH  14  15
ENDBRANCH  12  14
ENDBRANCH   9  10
ENDBRANCH   1   9
TORSDOF 10
ENDMDL
MODEL 9
REMARK VINA RESULT:    -4.220      2.083      4.849
REMARK INTER + INTRA:          -7.661
REMARK INTER:                  -6.416
REMARK INTRA:                  -1.245
REMARK UNBOUND:                -1.097
REMARK SMILES COc1cc(CNC(=O)CCCCC=CC(C)C)ccc1O
REMARK SMILES IDX 11 1 12 2 13 3 14 4 15 5 16 6 17 7 18 8 10 9 8 10 9 11 7 12
REMARK SMILES IDX 6 14 5 15 4 16 19 17 3 18 20 19 21 20 2 21 1 22 22 23
REMARK H PARENT 7 13 22 24
REMARK Flexibility Score: inf
ROOT
ATOM      1  C   UNL     1       9.783  -6.196 -28.383  1.00  0.00     0.010 C 
ENDROOT
BRANCH   1   2
ATOM      2  C   UNL     1      10.955  -5.276 -27.997  1.00  0.00     0.005 C 
BRANCH   2   3
ATOM      3  C   UNL     1      12.153  -5.426 -28.945  1.00  0.00     0.027 C 
BRANCH   3   4
ATOM      4  C   UNL     1      12.493  -4.134 -29.648  1.00  0.00    -0.031 C 
ATOM      5  C   UNL     1      11.942  -3.613 -30.769  1.00  0.00    -0.028 C 
BRANCH   5   6
ATOM      6  C   UNL     1      10.760  -4.095 -31.601  1.00  0.00     0.005 C 
ATOM      7  C   UNL     1       9.368  -3.742 -31.066  1.00  0.00     0.012 C 
ATOM      8  C   UNL     1      10.927  -3.718 -33.075  1.00  0.00     0.012 C 
ENDBRANCH   5   6
ENDBRANCH   3   4
ENDBRANCH   2   3
ENDBRANCH   1   2
BRANCH   1   9
ATOM      9  C   UNL     1       9.168  -6.904 -27.172  1.00  0.00     0.100 C 
BRANCH   9  10
ATOM     10  C   UNL     1       7.803  -6.353 -26.885  1.00  0.00     0.220 C 
ATOM     11  O   UNL     1       7.009  -7.018 -26.162  1.00  0.00    -0.275 OA
ATOM     12  N   UNL     1       7.386  -5.107 -27.461  1.00  0.00    -0.352 N 
ATOM     13  H   UNL     1       8.055  -4.579 -28.067  1.00  0.00     0.163 HD
BRANCH  12  14
ATOM     14  C   UNL     1       6.056  -4.545 -27.242  1.00  0.00     0.151 C 
BRANCH  14  15
ATOM     15  C   UNL     1       5.111  -4.975 -28.334  1.00  0.00    -0.025 A 
ATOM     16  C   UNL     1       5.570  -5.143 -29.651  1.00  0.00     0.056 A 
ATOM     17  C   UNL     1       3.768  -5.242 -28.033  1.00  0.00     0.009 A 
ATOM     18  C   UNL     1       4.692  -5.578 -30.665  1.00  0.00     0.160 A 
ATOM     19  C   UNL     1       2.895  -5.671 -29.034  1.00  0.00     0.050 A 
ATOM     20  C   UNL     1       3.353  -5.841 -30.348  1.00  0.00     0.157 A 
BRANCH  18  21
ATOM     21  O   UNL     1       5.114  -5.764 -31.991  1.00  0.00    -0.493 OA
ATOM     22  C   UNL     1       6.454  -5.588 -32.442  1.00  0.00     0.278 C 
ENDBRANCH  18  21
BRANCH  20  23
ATOM     23  O   UNL     1       2.482  -6.276 -31.346  1.00  0.00    -0.504 OA
ATOM     24  H   UNL     1       1.777  -6.985 -31.163  1.00  0.00     0.293 HD
ENDBRANCH  20  23
ENDBRANCH  14  15
ENDBRANCH  12  14
ENDBRANCH   9  10
ENDBRANCH   1   9
TORSDOF 10
ENDMDL
