MODEL 1
REMARK VINA RESULT:    -4.566      0.000      0.000
REMARK INTER + INTRA:          -5.869
REMARK INTER:                  -5.634
REMARK INTRA:                  -0.235
REMARK UNBOUND:                -0.235
REMARK SMILES CCCCC=CC(C)=O
REMARK SMILES IDX 4 1 3 2 2 3 1 4 5 5 6 6 7 7 9 8 8 9
REMARK H PARENT
REMARK Flexibility Score: inf
ROOT
ATOM      1  C   UNL     1      -5.817  -4.762  13.330  1.00  0.00     0.027 C 
ENDROOT
BRANCH   1   2
ATOM      2  C   UNL     1      -4.706  -5.006  14.358  1.00  0.00     0.004 C 
BRANCH   2   3
ATOM      3  C   UNL     1      -4.635  -3.859  15.371  1.00  0.00    -0.003 C 
ATOM      4  C   UNL     1      -4.824  -4.370  16.797  1.00  0.00     0.004 C 
ENDBRANCH   2   3
ENDBRANCH   1   2
BRANCH   1   5
ATOM      5  C   UNL     1      -7.014  -5.627  13.605  1.00  0.00    -0.023 C 
ATOM      6  C   UNL     1      -6.878  -6.902  13.992  1.00  0.00     0.042 C 
BRANCH   6   7
ATOM      7  C   UNL     1      -8.025  -7.794  14.262  1.00  0.00     0.152 C 
ATOM      8  O   UNL     1      -9.111  -7.282  14.644  1.00  0.00    -0.295 OA
ATOM      9  C   UNL     1      -7.942  -9.282  14.097  1.00  0.00     0.093 C 
ENDBRANCH   6   7
ENDBRANCH   1   5
TORSDOF 4
ENDMDL
MODEL 2
REMARK VINA RESULT:    -4.409      2.414      4.688
REMARK INTER + INTRA:          -5.675
REMARK INTER:                  -5.499
REMARK INTRA:                  -0.176
REMARK UNBOUND:                -0.235
REMARK SMILES CCCCC=CC(C)=O
REMARK SMILES IDX 4 1 3 2 2 3 1 4 5 5 6 6 7 7 9 8 8 9
REMARK H PARENT
REMARK Flexibility Score: inf
ROOT
ATOM      1  C   UNL     1      -7.016  -5.804  13.379  1.00  0.00     0.027 C 
ENDROOT
BRANCH   1   2
ATOM      2  C   UNL     1      -6.296  -7.150  13.224  1.00  0.00     0.004 C 
BRANCH   2   3
ATOM      3  C   UNL     1      -7.097  -8.278  13.882  1.00  0.00    -0.003 C 
ATOM      4  C   UNL     1      -8.413  -7.758  14.456  1.00  0.00     0.004 C 
ENDBRANCH   2   3
ENDBRANCH   1   2
BRANCH   1   5
ATOM      5  C   UNL     1      -6.343  -4.942  14.409  1.00  0.00    -0.023 C 
ATOM      6  C   UNL     1      -5.029  -5.038  14.648  1.00  0.00     0.042 C 
BRANCH   6   7
ATOM      7  C   UNL     1      -4.326  -4.221  15.658  1.00  0.00     0.152 C 
ATOM      8  O   UNL     1      -3.506  -3.349  15.265  1.00  0.00    -0.295 OA
ATOM      9  C   UNL     1      -4.555  -4.390  17.130  1.00  0.00     0.093 C 
ENDBRANCH   6   7
ENDBRANCH   1   5
TORSDOF 4
ENDMDL
MODEL 3
REMARK VINA RESULT:    -4.340      1.099      1.973
REMARK INTER + INTRA:          -5.590
REMARK INTER:                  -5.352
REMARK INTRA:                  -0.237
REMARK UNBOUND:                -0.235
REMARK SMILES CCCCC=CC(C)=O
REMARK SMILES IDX 4 1 3 2 2 3 1 4 5 5 6 6 7 7 9 8 8 9
REMARK H PARENT
REMARK Flexibility Score: inf
ROOT
ATOM      1  C   UNL     1      -6.109  -4.625  13.723  1.00  0.00     0.027 C 
ENDROOT
BRANCH   1   2
ATOM      2  C   UNL     1      -4.785  -5.194  14.248  1.00  0.00     0.004 C 
BRANCH   2   3
ATOM      3  C   UNL     1      -3.780  -5.386  13.108  1.00  0.00    -0.003 C 
ATOM      4  C   UNL     1      -4.433  -5.138  11.750  1.00  0.00     0.004 C 
ENDBRANCH   2   3
ENDBRANCH   1   2
BRANCH   1   5
ATOM      5  C   UNL     1      -7.249  -5.566  13.987  1.00  0.00    -0.023 C 
ATOM      6  C   UNL     1      -7.063  -6.891  14.033  1.00  0.00     0.042 C 
BRANCH   6   7
ATOM      7  C   UNL     1      -8.155  -7.856  14.278  1.00  0.00     0.152 C 
ATOM      8  O   UNL     1      -9.272  -7.418  14.663  1.00  0.00    -0.295 OA
ATOM      9  C   UNL     1      -7.982  -9.332  14.083  1.00  0.00     0.093 C 
ENDBRANCH   6   7
ENDBRANCH   1   5
TORSDOF 4
ENDMDL
MODEL 4
REMARK VINA RESULT:    -4.310      2.231      4.736
REMARK INTER + INTRA:          -5.552
REMARK INTER:                  -5.335
REMARK INTRA:                  -0.218
REMARK UNBOUND:                -0.235
REMARK SMILES CCCCC=CC(C)=O
REMARK SMILES IDX 4 1 3 2 2 3 1 4 5 5 6 6 7 7 9 8 8 9
REMARK H PARENT
REMARK Flexibility Score: inf
ROOT
ATOM      1  C   UNL     1      -5.119  -5.702  13.174  1.00  0.00     0.027 C 
ENDROOT
BRANCH   1   2
ATOM      2  C   UNL     1      -6.580  -6.136  13.342  1.00  0.00     0.004 C 
BRANCH   2   3
ATOM      3  C   UNL     1      -6.684  -7.656  13.507  1.00  0.00    -0.003 C 
ATOM      4  C   UNL     1      -7.946  -8.042  14.275  1.00  0.00     0.004 C 
ENDBRANCH   2   3
ENDBRANCH   1   2
BRANCH   1   5
ATOM      5  C   UNL     1      -4.608  -5.018  14.410  1.00  0.00    -0.023 C 
ATOM      6  C   UNL     1      -5.426  -4.703  15.421  1.00  0.00     0.042 C 
BRANCH   6   7
ATOM      7  C   UNL     1      -4.972  -4.019  16.650  1.00  0.00     0.152 C 
ATOM      8  O   UNL     1      -4.431  -4.706  17.558  1.00  0.00    -0.295 OA
ATOM      9  C   UNL     1      -5.130  -2.543  16.854  1.00  0.00     0.093 C 
ENDBRANCH   6   7
ENDBRANCH   1   5
TORSDOF 4
ENDMDL
MODEL 5
REMARK VINA RESULT:    -4.144      9.034     10.183
REMARK INTER + INTRA:          -5.348
REMARK INTER:                  -5.134
REMARK INTRA:                  -0.214
REMARK UNBOUND:                -0.235
REMARK SMILES CCCCC=CC(C)=O
REMARK SMILES IDX 4 1 3 2 2 3 1 4 5 5 6 6 7 7 9 8 8 9
REMARK H PARENT
REMARK Flexibility Score: inf
ROOT
ATOM      1  C   UNL     1       2.174  -6.964   9.923  1.00  0.00     0.027 C 
ENDROOT
BRANCH   1   2
ATOM      2  C   UNL     1       1.720  -6.163  11.149  1.00  0.00     0.004 C 
BRANCH   2   3
ATOM      3  C   UNL     1       0.633  -6.915  11.924  1.00  0.00    -0.003 C 
ATOM      4  C   UNL     1      -0.753  -6.355  11.612  1.00  0.00     0.004 C 
ENDBRANCH   2   3
ENDBRANCH   1   2
BRANCH   1   5
ATOM      5  C   UNL     1       2.085  -6.140   8.670  1.00  0.00    -0.023 C 
ATOM      6  C   UNL     1       1.149  -6.379   7.743  1.00  0.00     0.042 C 
BRANCH   6   7
ATOM      7  C   UNL     1       1.031  -5.603   6.491  1.00  0.00     0.152 C 
ATOM      8  O   UNL     1       1.711  -4.550   6.366  1.00  0.00    -0.295 OA
ATOM      9  C   UNL     1       0.135  -6.025   5.366  1.00  0.00     0.093 C 
ENDBRANCH   6   7
ENDBRANCH   1   5
TORSDOF 4
ENDMDL
MODEL 6
REMARK VINA RESULT:    -4.099      2.738      4.917
REMARK INTER + INTRA:          -5.292
REMARK INTER:                  -5.027
REMARK INTRA:                  -0.265
REMARK UNBOUND:                -0.235
REMARK SMILES CCCCC=CC(C)=O
REMARK SMILES IDX 4 1 3 2 2 3 1 4 5 5 6 6 7 7 9 8 8 9
REMARK H PARENT
REMARK Flexibility Score: inf
ROOT
ATOM      1  C   UNL     1      -6.995  -5.747  13.766  1.00  0.00     0.027 C 
ENDROOT
BRANCH   1   2
ATOM      2  C   UNL     1      -6.723  -7.237  13.521  1.00  0.00     0.004 C 
BRANCH   2   3
ATOM      3  C   UNL     1      -5.633  -7.428  12.462  1.00  0.00    -0.003 C 
ATOM      4  C   UNL     1      -5.750  -6.384  11.354  1.00  0.00     0.004 C 
ENDBRANCH   2   3
ENDBRANCH   1   2
BRANCH   1   5
ATOM      5  C   UNL     1      -6.076  -5.192  14.817  1.00  0.00    -0.023 C 
ATOM      6  C   UNL     1      -5.175  -4.246  14.526  1.00  0.00     0.042 C 
BRANCH   6   7
ATOM      7  C   UNL     1      -4.243  -3.679  15.523  1.00  0.00     0.152 C 
ATOM      8  O   UNL     1      -3.235  -3.044  15.114  1.00  0.00    -0.295 OA
ATOM      9  C   UNL     1      -4.455  -3.831  16.999  1.00  0.00     0.093 C 
ENDBRANCH   6   7
ENDBRANCH   1   5
TORSDOF 4
ENDMDL
MODEL 7
REMARK VINA RESULT:    -4.066     10.488     11.944
REMARK INTER + INTRA:          -5.252
REMARK INTER:                  -5.064
REMARK INTRA:                  -0.188
REMARK UNBOUND:                -0.235
REMARK SMILES CCCCC=CC(C)=O
REMARK SMILES IDX 4 1 3 2 2 3 1 4 5 5 6 6 7 7 9 8 8 9
REMARK H PARENT
REMARK Flexibility Score: inf
ROOT
ATOM      1  C   UNL     1       1.097  -6.010   6.513  1.00  0.00     0.027 C 
ENDROOT
BRANCH   1   2
ATOM      2  C   UNL     1       0.852  -6.133   8.022  1.00  0.00     0.004 C 
BRANCH   2   3
ATOM      3  C   UNL     1       1.840  -7.115   8.660  1.00  0.00    -0.003 C 
ATOM      4  C   UNL     1       2.106  -6.758  10.120  1.00  0.00     0.004 C 
ENDBRANCH   2   3
ENDBRANCH   1   2
BRANCH   1   5
ATOM      5  C   UNL     1       1.217  -4.572   6.096  1.00  0.00    -0.023 C 
ATOM      6  C   UNL     1       1.998  -3.715   6.764  1.00  0.00     0.042 C 
BRANCH   6   7
ATOM      7  C   UNL     1       2.138  -2.290   6.399  1.00  0.00     0.152 C 
ATOM      8  O   UNL     1       1.174  -1.716   5.825  1.00  0.00    -0.295 OA
ATOM      9  C   UNL     1       3.382  -1.505   6.687  1.00  0.00     0.093 C 
ENDBRANCH   6   7
ENDBRANCH   1   5
TORSDOF 4
ENDMDL
MODEL 8
REMARK VINA RESULT:    -4.040      1.585      2.284
REMARK INTER + INTRA:          -5.220
REMARK INTER:                  -4.989
REMARK INTRA:                  -0.231
REMARK UNBOUND:                -0.235
REMARK SMILES CCCCC=CC(C)=O
REMARK SMILES IDX 4 1 3 2 2 3 1 4 5 5 6 6 7 7 9 8 8 9
REMARK H PARENT
REMARK Flexibility Score: inf
ROOT
ATOM      1  C   UNL     1      -4.489  -4.015  14.991  1.00  0.00     0.027 C 
ENDROOT
BRANCH   1   2
ATOM      2  C   UNL     1      -4.479  -4.230  16.509  1.00  0.00     0.004 C 
BRANCH   2   3
ATOM      3  C   UNL     1      -5.127  -3.046  17.235  1.00  0.00    -0.003 C 
ATOM      4  C   UNL     1      -5.340  -1.868  16.287  1.00  0.00     0.004 C 
ENDBRANCH   2   3
ENDBRANCH   1   2
BRANCH   1   5
ATOM      5  C   UNL     1      -4.926  -5.257  14.268  1.00  0.00    -0.023 C 
ATOM      6  C   UNL     1      -6.176  -5.723  14.376  1.00  0.00     0.042 C 
BRANCH   6   7
ATOM      7  C   UNL     1      -6.648  -6.946  13.694  1.00  0.00     0.152 C 
ATOM      8  O   UNL     1      -6.093  -7.289  12.616  1.00  0.00    -0.295 OA
ATOM      9  C   UNL     1      -7.760  -7.792  14.238  1.00  0.00     0.093 C 
ENDBRANCH   6   7
ENDBRANCH   1   5
TORSDOF 4
ENDMDL
MODEL 9
REMARK VINA RESULT:    -3.999      9.857     11.006
REMARK INTER + INTRA:          -5.169
REMARK INTER:                  -4.983
REMARK INTRA:                  -0.186
REMARK UNBOUND:                -0.235
REMARK SMILES CCCCC=CC(C)=O
REMARK SMILES IDX 4 1 3 2 2 3 1 4 5 5 6 6 7 7 9 8 8 9
REMARK H PARENT
REMARK Flexibility Score: inf
ROOT
ATOM      1  C   UNL     1       0.482  -5.634   6.387  1.00  0.00     0.027 C 
ENDROOT
BRANCH   1   2
ATOM      2  C   UNL     1       0.951  -4.323   5.743  1.00  0.00     0.004 C 
BRANCH   2   3
ATOM      3  C   UNL     1       2.299  -3.880   6.321  1.00  0.00    -0.003 C 
ATOM      4  C   UNL     1       2.353  -2.363   6.493  1.00  0.00     0.004 C 
ENDBRANCH   2   3
ENDBRANCH   1   2
BRANCH   1   5
ATOM      5  C   UNL     1       1.443  -6.094   7.446  1.00  0.00    -0.023 C 
ATOM      6  C   UNL     1       1.042  -6.309   8.705  1.00  0.00     0.042 C 
BRANCH   6   7
ATOM      7  C   UNL     1       1.953  -6.750   9.782  1.00  0.00     0.152 C 
ATOM      8  O   UNL     1       3.041  -7.300   9.465  1.00  0.00    -0.295 OA
ATOM      9  C   UNL     1       1.629  -6.565  11.235  1.00  0.00     0.093 C 
ENDBRANCH   6   7
ENDBRANCH   1   5
TORSDOF 4
ENDMDL
