MODEL 1
REMARK VINA RESULT:    -6.849      0.000      0.000
REMARK INTER + INTRA:         -12.485
REMARK INTER:                  -9.252
REMARK INTRA:                  -3.233
REMARK UNBOUND:                -3.233
REMARK SMILES CC[C@H](CC[C@H](C)[C@@H]1CC[C@H]2[C@@H]3CC(=O)C4=CC(=O)CC[C@@]4(C)[C@H]3CC[C@@]21C)C(C)C
REMARK SMILES IDX 4 1 3 2 2 3 1 4 29 5 30 6 31 7 5 8 6 9 7 10 8 11 9 12 27 13
REMARK SMILES IDX 10 14 11 15 26 16 28 17 12 18 25 19 24 20 13 21 22 22 14 23
REMARK SMILES IDX 16 24 21 25 23 26 15 27 17 28 20 29 18 30 19 31
REMARK H PARENT
REMARK Flexibility Score: inf
ROOT
ATOM      1  C   UNL     1      10.620  -4.316  59.938  1.00  0.00     0.004 C 
ENDROOT
BRANCH   1   2
ATOM      2  C   UNL     1      10.907  -5.164  61.217  1.00  0.00    -0.009 C 
BRANCH   2   3
ATOM      3  C   UNL     1      10.483  -4.422  62.516  1.00  0.00     0.000 C 
ATOM      4  C   UNL     1      11.621  -4.283  63.526  1.00  0.00     0.004 C 
ENDBRANCH   2   3
BRANCH   2   5
ATOM      5  C   UNL     1      10.253  -6.580  61.099  1.00  0.00    -0.014 C 
ATOM      6  C   UNL     1      10.905  -7.629  62.015  1.00  0.00     0.007 C 
ATOM      7  C   UNL     1      10.211  -7.090  59.649  1.00  0.00     0.007 C 
ENDBRANCH   2   5
ENDBRANCH   1   2
BRANCH   1   8
ATOM      8  C   UNL     1      11.905  -3.821  59.243  1.00  0.00     0.004 C 
BRANCH   8   9
ATOM      9  C   UNL     1      13.172  -4.082  60.121  1.00  0.00    -0.011 C 
ATOM     10  C   UNL     1      13.814  -2.705  60.431  1.00  0.00     0.008 C 
BRANCH   9  11
ATOM     11  C   UNL     1      14.170  -5.072  59.410  1.00  0.00    -0.002 C 
ATOM     12  C   UNL     1      13.544  -5.708  58.127  1.00  0.00     0.005 C 
ATOM     13  C   UNL     1      14.705  -6.318  60.215  1.00  0.00    -0.026 C 
ATOM     14  C   UNL     1      13.646  -7.227  58.245  1.00  0.00     0.005 C 
ATOM     15  C   UNL     1      13.781  -7.446  59.736  1.00  0.00    -0.001 C 
ATOM     16  C   UNL     1      14.614  -6.306  61.762  1.00  0.00     0.007 C 
ATOM     17  C   UNL     1      16.195  -6.527  59.784  1.00  0.00     0.012 C 
ATOM     18  C   UNL     1      14.200  -8.860  60.219  1.00  0.00     0.004 C 
ATOM     19  C   UNL     1      15.045  -7.658  62.369  1.00  0.00     0.005 C 
ATOM     20  C   UNL     1      14.273  -8.881  61.779  1.00  0.00     0.003 C 
ATOM     21  C   UNL     1      13.155  -9.896  59.749  1.00  0.00     0.085 C 
ATOM     22  C   UNL     1      14.746 -10.286  62.359  1.00  0.00    -0.000 C 
ATOM     23  C   UNL     1      13.403 -11.247  60.341  1.00  0.00     0.159 C 
ATOM     24  C   UNL     1      14.434 -11.431  61.382  1.00  0.00     0.005 C 
ATOM     25  C   UNL     1      16.276 -10.309  62.672  1.00  0.00     0.020 C 
ATOM     26  C   UNL     1      13.955 -10.558  63.665  1.00  0.00     0.017 C 
ATOM     27  O   UNL     1      12.720 -12.227  59.938  1.00  0.00    -0.295 OA
ATOM     28  C   UNL     1      15.091 -12.603  61.446  1.00  0.00     0.055 C 
ATOM     29  C   UNL     1      16.784 -11.675  63.164  1.00  0.00     0.081 C 
ATOM     30  C   UNL     1      16.239 -12.801  62.341  1.00  0.00     0.156 C 
ATOM     31  O   UNL     1      16.772 -13.940  62.423  1.00  0.00    -0.295 OA
ENDBRANCH   9  11
ENDBRANCH   8   9
ENDBRANCH   1   8
TORSDOF 6
ENDMDL
MODEL 2
REMARK VINA RESULT:    -6.749      3.642      8.572
REMARK INTER + INTRA:         -12.348
REMARK INTER:                 -10.828
REMARK INTRA:                  -1.521
REMARK UNBOUND:                -3.233
REMARK SMILES CC[C@H](CC[C@H](C)[C@@H]1CC[C@H]2[C@@H]3CC(=O)C4=CC(=O)CC[C@@]4(C)[C@H]3CC[C@@]21C)C(C)C
REMARK SMILES IDX 4 1 3 2 2 3 1 4 29 5 30 6 31 7 5 8 6 9 7 10 8 11 9 12 27 13
REMARK SMILES IDX 10 14 11 15 26 16 28 17 12 18 25 19 24 20 13 21 22 22 14 23
REMARK SMILES IDX 16 24 21 25 23 26 15 27 17 28 20 29 18 30 19 31
REMARK H PARENT
REMARK Flexibility Score: inf
ROOT
ATOM      1  C   UNL     1      18.737 -10.868  68.660  1.00  0.00     0.004 C 
ENDROOT
BRANCH   1   2
ATOM      2  C   UNL     1      20.210 -11.358  68.492  1.00  0.00    -0.009 C 
BRANCH   2   3
ATOM      3  C   UNL     1      20.495 -12.641  69.322  1.00  0.00     0.000 C 
ATOM      4  C   UNL     1      19.248 -13.208  69.997  1.00  0.00     0.004 C 
ENDBRANCH   2   3
BRANCH   2   5
ATOM      5  C   UNL     1      20.564 -11.535  66.979  1.00  0.00    -0.014 C 
ATOM      6  C   UNL     1      20.377 -12.975  66.475  1.00  0.00     0.007 C 
ATOM      7  C   UNL     1      21.978 -11.031  66.642  1.00  0.00     0.007 C 
ENDBRANCH   2   5
ENDBRANCH   1   2
BRANCH   1   8
ATOM      8  C   UNL     1      18.259  -9.984  67.490  1.00  0.00     0.004 C 
BRANCH   8   9
ATOM      9  C   UNL     1      17.080 -10.649  66.709  1.00  0.00    -0.011 C 
ATOM     10  C   UNL     1      16.578 -11.847  67.556  1.00  0.00     0.008 C 
BRANCH   9  11
ATOM     11  C   UNL     1      17.519 -11.073  65.257  1.00  0.00    -0.002 C 
ATOM     12  C   UNL     1      18.454 -10.008  64.597  1.00  0.00     0.005 C 
ATOM     13  C   UNL     1      16.405 -11.311  64.166  1.00  0.00    -0.026 C 
ATOM     14  C   UNL     1      17.852  -9.610  63.251  1.00  0.00     0.005 C 
ATOM     15  C   UNL     1      16.393  -9.979  63.405  1.00  0.00    -0.001 C 
ATOM     16  C   UNL     1      14.947 -11.564  64.627  1.00  0.00     0.007 C 
ATOM     17  C   UNL     1      16.886 -12.512  63.286  1.00  0.00     0.012 C 
ATOM     18  C   UNL     1      15.515  -9.984  62.126  1.00  0.00     0.004 C 
ATOM     19  C   UNL     1      13.974 -11.628  63.431  1.00  0.00     0.005 C 
ATOM     20  C   UNL     1      14.050 -10.378  62.497  1.00  0.00     0.003 C 
ATOM     21  C   UNL     1      15.514  -8.574  61.496  1.00  0.00     0.085 C 
ATOM     22  C   UNL     1      13.089 -10.457  61.230  1.00  0.00    -0.000 C 
ATOM     23  C   UNL     1      14.538  -8.468  60.367  1.00  0.00     0.159 C 
ATOM     24  C   UNL     1      13.600  -9.572  60.082  1.00  0.00     0.005 C 
ATOM     25  C   UNL     1      12.937 -11.917  60.696  1.00  0.00     0.020 C 
ATOM     26  C   UNL     1      11.696  -9.921  61.649  1.00  0.00     0.017 C 
ATOM     27  O   UNL     1      14.526  -7.422  59.663  1.00  0.00    -0.295 OA
ATOM     28  C   UNL     1      13.218  -9.788  58.810  1.00  0.00     0.055 C 
ATOM     29  C   UNL     1      12.074 -12.022  59.427  1.00  0.00     0.081 C 
ATOM     30  C   UNL     1      12.424 -10.964  58.428  1.00  0.00     0.156 C 
ATOM     31  O   UNL     1      12.024 -11.082  57.239  1.00  0.00    -0.295 OA
ENDBRANCH   9  11
ENDBRANCH   8   9
ENDBRANCH   1   8
TORSDOF 6
ENDMDL
MODEL 3
REMARK VINA RESULT:    -6.682      3.118      5.474
REMARK INTER + INTRA:         -12.258
REMARK INTER:                 -10.751
REMARK INTRA:                  -1.507
REMARK UNBOUND:                -3.233
REMARK SMILES CC[C@H](CC[C@H](C)[C@@H]1CC[C@H]2[C@@H]3CC(=O)C4=CC(=O)CC[C@@]4(C)[C@H]3CC[C@@]21C)C(C)C
REMARK SMILES IDX 4 1 3 2 2 3 1 4 29 5 30 6 31 7 5 8 6 9 7 10 8 11 9 12 27 13
REMARK SMILES IDX 10 14 11 15 26 16 28 17 12 18 25 19 24 20 13 21 22 22 14 23
REMARK SMILES IDX 16 24 21 25 23 26 15 27 17 28 20 29 18 30 19 31
REMARK H PARENT
REMARK Flexibility Score: inf
ROOT
ATOM      1  C   UNL     1      13.253  -7.234  62.598  1.00  0.00     0.004 C 
ENDROOT
BRANCH   1   2
ATOM      2  C   UNL     1      12.694  -5.857  62.119  1.00  0.00    -0.009 C 
BRANCH   2   3
ATOM      3  C   UNL     1      11.976  -5.967  60.744  1.00  0.00     0.000 C 
ATOM      4  C   UNL     1      12.701  -5.218  59.628  1.00  0.00     0.004 C 
ENDBRANCH   2   3
BRANCH   2   5
ATOM      5  C   UNL     1      11.783  -5.218  63.218  1.00  0.00    -0.014 C 
ATOM      6  C   UNL     1      11.196  -6.248  64.197  1.00  0.00     0.007 C 
ATOM      7  C   UNL     1      10.661  -4.350  62.621  1.00  0.00     0.007 C 
ENDBRANCH   2   5
ENDBRANCH   1   2
BRANCH   1   8
ATOM      8  C   UNL     1      12.868  -8.398  61.663  1.00  0.00     0.004 C 
BRANCH   8   9
ATOM      9  C   UNL     1      14.117  -8.984  60.928  1.00  0.00    -0.011 C 
ATOM     10  C   UNL     1      13.887  -8.803  59.405  1.00  0.00     0.008 C 
BRANCH   9  11
ATOM     11  C   UNL     1      14.369 -10.486  61.331  1.00  0.00    -0.002 C 
ATOM     12  C   UNL     1      13.092 -11.147  61.941  1.00  0.00     0.005 C 
ATOM     13  C   UNL     1      15.493 -10.809  62.389  1.00  0.00    -0.026 C 
ATOM     14  C   UNL     1      13.459 -11.734  63.302  1.00  0.00     0.005 C 
ATOM     15  C   UNL     1      14.693 -10.951  63.691  1.00  0.00    -0.001 C 
ATOM     16  C   UNL     1      16.590  -9.750  62.664  1.00  0.00     0.007 C 
ATOM     17  C   UNL     1      16.165 -12.148  61.938  1.00  0.00     0.012 C 
ATOM     18  C   UNL     1      15.523 -11.470  64.895  1.00  0.00     0.004 C 
ATOM     19  C   UNL     1      17.513 -10.174  63.827  1.00  0.00     0.005 C 
ATOM     20  C   UNL     1      16.741 -10.524  65.139  1.00  0.00     0.003 C 
ATOM     21  C   UNL     1      14.638 -11.490  66.161  1.00  0.00     0.085 C 
ATOM     22  C   UNL     1      17.678 -11.012  66.329  1.00  0.00    -0.000 C 
ATOM     23  C   UNL     1      15.431 -11.803  67.390  1.00  0.00     0.159 C 
ATOM     24  C   UNL     1      16.904 -11.884  67.331  1.00  0.00     0.005 C 
ATOM     25  C   UNL     1      18.907 -11.828  65.815  1.00  0.00     0.020 C 
ATOM     26  C   UNL     1      18.182  -9.760  67.091  1.00  0.00     0.017 C 
ATOM     27  O   UNL     1      14.824 -11.995  68.478  1.00  0.00    -0.295 OA
ATOM     28  C   UNL     1      17.541 -12.735  68.156  1.00  0.00     0.055 C 
ATOM     29  C   UNL     1      19.795 -12.381  66.942  1.00  0.00     0.081 C 
ATOM     30  C   UNL     1      18.983 -12.993  68.041  1.00  0.00     0.156 C 
ATOM     31  O   UNL     1      19.549 -13.737  68.886  1.00  0.00    -0.295 OA
ENDBRANCH   9  11
ENDBRANCH   8   9
ENDBRANCH   1   8
TORSDOF 6
ENDMDL
MODEL 4
REMARK VINA RESULT:    -6.581      4.287      9.723
REMARK INTER + INTRA:         -12.121
REMARK INTER:                  -9.826
REMARK INTRA:                  -2.296
REMARK UNBOUND:                -3.233
REMARK SMILES CC[C@H](CC[C@H](C)[C@@H]1CC[C@H]2[C@@H]3CC(=O)C4=CC(=O)CC[C@@]4(C)[C@H]3CC[C@@]21C)C(C)C
REMARK SMILES IDX 4 1 3 2 2 3 1 4 29 5 30 6 31 7 5 8 6 9 7 10 8 11 9 12 27 13
REMARK SMILES IDX 10 14 11 15 26 16 28 17 12 18 25 19 24 20 13 21 22 22 14 23
REMARK SMILES IDX 16 24 21 25 23 26 15 27 17 28 20 29 18 30 19 31
REMARK H PARENT
REMARK Flexibility Score: inf
ROOT
ATOM      1  C   UNL     1      21.409 -11.060  66.661  1.00  0.00     0.004 C 
ENDROOT
BRANCH   1   2
ATOM      2  C   UNL     1      21.505 -11.308  65.122  1.00  0.00    -0.009 C 
BRANCH   2   3
ATOM      3  C   UNL     1      20.449 -10.483  64.333  1.00  0.00     0.000 C 
ATOM      4  C   UNL     1      21.045  -9.267  63.625  1.00  0.00     0.004 C 
ENDBRANCH   2   3
BRANCH   2   5
ATOM      5  C   UNL     1      22.962 -11.056  64.612  1.00  0.00    -0.014 C 
ATOM      6  C   UNL     1      23.512 -12.205  63.752  1.00  0.00     0.007 C 
ATOM      7  C   UNL     1      23.938 -10.730  65.756  1.00  0.00     0.007 C 
ENDBRANCH   2   5
ENDBRANCH   1   2
BRANCH   1   8
ATOM      8  C   UNL     1      21.082 -12.340  67.457  1.00  0.00     0.004 C 
BRANCH   8   9
ATOM      9  C   UNL     1      20.050 -12.061  68.598  1.00  0.00    -0.011 C 
ATOM     10  C   UNL     1      20.667 -12.585  69.921  1.00  0.00     0.008 C 
BRANCH   9  11
ATOM     11  C   UNL     1      18.651 -12.712  68.279  1.00  0.00    -0.002 C 
ATOM     12  C   UNL     1      18.802 -14.119  67.617  1.00  0.00     0.005 C 
ATOM     13  C   UNL     1      17.664 -11.953  67.313  1.00  0.00    -0.026 C 
ATOM     14  C   UNL     1      18.012 -14.121  66.309  1.00  0.00     0.005 C 
ATOM     15  C   UNL     1      17.912 -12.650  65.968  1.00  0.00    -0.001 C 
ATOM     16  C   UNL     1      17.875 -10.438  67.064  1.00  0.00     0.007 C 
ATOM     17  C   UNL     1      16.219 -12.191  67.866  1.00  0.00     0.012 C 
ATOM     18  C   UNL     1      16.922 -12.239  64.846  1.00  0.00     0.004 C 
ATOM     19  C   UNL     1      16.914  -9.898  65.984  1.00  0.00     0.005 C 
ATOM     20  C   UNL     1      16.975 -10.692  64.641  1.00  0.00     0.003 C 
ATOM     21  C   UNL     1      17.321 -12.937  63.527  1.00  0.00     0.085 C 
ATOM     22  C   UNL     1      15.950 -10.177  63.538  1.00  0.00    -0.000 C 
ATOM     23  C   UNL     1      16.519 -12.436  62.367  1.00  0.00     0.159 C 
ATOM     24  C   UNL     1      15.611 -11.284  62.526  1.00  0.00     0.005 C 
ATOM     25  C   UNL     1      14.617  -9.660  64.167  1.00  0.00     0.020 C 
ATOM     26  C   UNL     1      16.625  -9.021  62.756  1.00  0.00     0.017 C 
ATOM     27  O   UNL     1      16.631 -13.012  61.251  1.00  0.00    -0.295 OA
ATOM     28  C   UNL     1      14.490 -11.232  61.783  1.00  0.00     0.055 C 
ATOM     29  C   UNL     1      13.572  -9.224  63.126  1.00  0.00     0.081 C 
ATOM     30  C   UNL     1      13.459 -10.208  62.005  1.00  0.00     0.156 C 
ATOM     31  O   UNL     1      12.465 -10.154  61.232  1.00  0.00    -0.295 OA
ENDBRANCH   9  11
ENDBRANCH   8   9
ENDBRANCH   1   8
TORSDOF 6
ENDMDL
MODEL 5
REMARK VINA RESULT:    -6.511      3.594      6.427
REMARK INTER + INTRA:         -12.027
REMARK INTER:                 -10.332
REMARK INTRA:                  -1.695
REMARK UNBOUND:                -3.233
REMARK SMILES CC[C@H](CC[C@H](C)[C@@H]1CC[C@H]2[C@@H]3CC(=O)C4=CC(=O)CC[C@@]4(C)[C@H]3CC[C@@]21C)C(C)C
REMARK SMILES IDX 4 1 3 2 2 3 1 4 29 5 30 6 31 7 5 8 6 9 7 10 8 11 9 12 27 13
REMARK SMILES IDX 10 14 11 15 26 16 28 17 12 18 25 19 24 20 13 21 22 22 14 23
REMARK SMILES IDX 16 24 21 25 23 26 15 27 17 28 20 29 18 30 19 31
REMARK H PARENT
REMARK Flexibility Score: inf
ROOT
ATOM      1  C   UNL     1      12.443 -11.058  58.584  1.00  0.00     0.004 C 
ENDROOT
BRANCH   1   2
ATOM      2  C   UNL     1      12.125  -9.637  58.023  1.00  0.00    -0.009 C 
BRANCH   2   3
ATOM      3  C   UNL     1      11.768  -8.631  59.153  1.00  0.00     0.000 C 
ATOM      4  C   UNL     1      10.863  -9.232  60.228  1.00  0.00     0.004 C 
ENDBRANCH   2   3
BRANCH   2   5
ATOM      5  C   UNL     1      13.293  -9.126  57.117  1.00  0.00    -0.014 C 
ATOM      6  C   UNL     1      14.033  -7.914  57.705  1.00  0.00     0.007 C 
ATOM      7  C   UNL     1      12.836  -8.826  55.679  1.00  0.00     0.007 C 
ENDBRANCH   2   5
ENDBRANCH   1   2
BRANCH   1   8
ATOM      8  C   UNL     1      13.885 -11.187  59.116  1.00  0.00     0.004 C 
BRANCH   8   9
ATOM      9  C   UNL     1      13.919 -11.823  60.544  1.00  0.00    -0.011 C 
ATOM     10  C   UNL     1      12.689 -12.760  60.664  1.00  0.00     0.008 C 
BRANCH   9  11
ATOM     11  C   UNL     1      13.954 -10.718  61.665  1.00  0.00    -0.002 C 
ATOM     12  C   UNL     1      14.622  -9.398  61.161  1.00  0.00     0.005 C 
ATOM     13  C   UNL     1      14.715 -11.026  63.011  1.00  0.00    -0.026 C 
ATOM     14  C   UNL     1      15.750  -9.034  62.124  1.00  0.00     0.005 C 
ATOM     15  C   UNL     1      16.077 -10.355  62.785  1.00  0.00    -0.001 C 
ATOM     16  C   UNL     1      15.012 -12.501  63.383  1.00  0.00     0.007 C 
ATOM     17  C   UNL     1      13.889 -10.357  64.160  1.00  0.00     0.012 C 
ATOM     18  C   UNL     1      16.987 -10.324  64.040  1.00  0.00     0.004 C 
ATOM     19  C   UNL     1      15.887 -12.604  64.650  1.00  0.00     0.005 C 
ATOM     20  C   UNL     1      17.211 -11.779  64.562  1.00  0.00     0.003 C 
ATOM     21  C   UNL     1      18.354  -9.705  63.671  1.00  0.00     0.085 C 
ATOM     22  C   UNL     1      18.097 -11.835  65.884  1.00  0.00    -0.000 C 
ATOM     23  C   UNL     1      19.338  -9.819  64.791  1.00  0.00     0.159 C 
ATOM     24  C   UNL     1      19.014 -10.607  65.997  1.00  0.00     0.005 C 
ATOM     25  C   UNL     1      17.223 -11.918  67.176  1.00  0.00     0.020 C 
ATOM     26  C   UNL     1      19.004 -13.090  65.801  1.00  0.00     0.017 C 
ATOM     27  O   UNL     1      20.451  -9.233  64.691  1.00  0.00    -0.295 OA
ATOM     28  C   UNL     1      19.525 -10.222  67.181  1.00  0.00     0.055 C 
ATOM     29  C   UNL     1      18.044 -11.898  68.477  1.00  0.00     0.081 C 
ATOM     30  C   UNL     1      19.115 -10.853  68.444  1.00  0.00     0.156 C 
ATOM     31  O   UNL     1      19.679 -10.512  69.518  1.00  0.00    -0.295 OA
ENDBRANCH   9  11
ENDBRANCH   8   9
ENDBRANCH   1   8
TORSDOF 6
ENDMDL
MODEL 6
REMARK VINA RESULT:    -6.487      3.885      7.091
REMARK INTER + INTRA:         -11.995
REMARK INTER:                  -9.272
REMARK INTRA:                  -2.723
REMARK UNBOUND:                -3.233
REMARK SMILES CC[C@H](CC[C@H](C)[C@@H]1CC[C@H]2[C@@H]3CC(=O)C4=CC(=O)CC[C@@]4(C)[C@H]3CC[C@@]21C)C(C)C
REMARK SMILES IDX 4 1 3 2 2 3 1 4 29 5 30 6 31 7 5 8 6 9 7 10 8 11 9 12 27 13
REMARK SMILES IDX 10 14 11 15 26 16 28 17 12 18 25 19 24 20 13 21 22 22 14 23
REMARK SMILES IDX 16 24 21 25 23 26 15 27 17 28 20 29 18 30 19 31
REMARK H PARENT
REMARK Flexibility Score: inf
ROOT
ATOM      1  C   UNL     1      12.723  -9.646  56.212  1.00  0.00     0.004 C 
ENDROOT
BRANCH   1   2
ATOM      2  C   UNL     1      13.159  -8.158  56.036  1.00  0.00    -0.009 C 
BRANCH   2   3
ATOM      3  C   UNL     1      14.315  -7.772  57.001  1.00  0.00     0.000 C 
ATOM      4  C   UNL     1      14.224  -8.473  58.356  1.00  0.00     0.004 C 
ENDBRANCH   2   3
BRANCH   2   5
ATOM      5  C   UNL     1      13.505  -7.856  54.541  1.00  0.00    -0.014 C 
ATOM      6  C   UNL     1      15.015  -7.858  54.254  1.00  0.00     0.007 C 
ATOM      7  C   UNL     1      12.868  -6.548  54.041  1.00  0.00     0.007 C 
ENDBRANCH   2   5
ENDBRANCH   1   2
BRANCH   1   8
ATOM      8  C   UNL     1      11.390  -9.971  55.505  1.00  0.00     0.004 C 
BRANCH   8   9
ATOM      9  C   UNL     1      10.337 -10.557  56.502  1.00  0.00    -0.011 C 
ATOM     10  C   UNL     1       9.544 -11.654  55.746  1.00  0.00     0.008 C 
BRANCH   9  11
ATOM     11  C   UNL     1       9.408  -9.427  57.086  1.00  0.00    -0.002 C 
ATOM     12  C   UNL     1       9.313  -8.197  56.127  1.00  0.00     0.005 C 
ATOM     13  C   UNL     1       9.779  -8.783  58.477  1.00  0.00    -0.026 C 
ATOM     14  C   UNL     1       9.693  -6.944  56.914  1.00  0.00     0.005 C 
ATOM     15  C   UNL     1      10.507  -7.496  58.064  1.00  0.00    -0.001 C 
ATOM     16  C   UNL     1      10.742  -9.545  59.422  1.00  0.00     0.007 C 
ATOM     17  C   UNL     1       8.430  -8.508  59.221  1.00  0.00     0.012 C 
ATOM     18  C   UNL     1      10.825  -6.539  59.242  1.00  0.00     0.004 C 
ATOM     19  C   UNL     1      11.107  -8.703  60.663  1.00  0.00     0.005 C 
ATOM     20  C   UNL     1      11.677  -7.291  60.314  1.00  0.00     0.003 C 
ATOM     21  C   UNL     1      11.628  -5.327  58.720  1.00  0.00     0.085 C 
ATOM     22  C   UNL     1      12.008  -6.394  61.587  1.00  0.00    -0.000 C 
ATOM     23  C   UNL     1      12.125  -4.464  59.836  1.00  0.00     0.159 C 
ATOM     24  C   UNL     1      11.977  -4.897  61.240  1.00  0.00     0.005 C 
ATOM     25  C   UNL     1      11.010  -6.648  62.761  1.00  0.00     0.020 C 
ATOM     26  C   UNL     1      13.445  -6.736  62.056  1.00  0.00     0.017 C 
ATOM     27  O   UNL     1      12.673  -3.363  59.562  1.00  0.00    -0.295 OA
ATOM     28  C   UNL     1      11.807  -3.962  62.193  1.00  0.00     0.055 C 
ATOM     29  C   UNL     1      11.252  -5.743  63.982  1.00  0.00     0.081 C 
ATOM     30  C   UNL     1      11.487  -4.320  63.582  1.00  0.00     0.156 C 
ATOM     31  O   UNL     1      11.414  -3.414  64.454  1.00  0.00    -0.295 OA
ENDBRANCH   9  11
ENDBRANCH   8   9
ENDBRANCH   1   8
TORSDOF 6
ENDMDL
MODEL 7
REMARK VINA RESULT:    -6.478      2.846      7.328
REMARK INTER + INTRA:         -11.983
REMARK INTER:                  -9.057
REMARK INTRA:                  -2.925
REMARK UNBOUND:                -3.233
REMARK SMILES CC[C@H](CC[C@H](C)[C@@H]1CC[C@H]2[C@@H]3CC(=O)C4=CC(=O)CC[C@@]4(C)[C@H]3CC[C@@]21C)C(C)C
REMARK SMILES IDX 4 1 3 2 2 3 1 4 29 5 30 6 31 7 5 8 6 9 7 10 8 11 9 12 27 13
REMARK SMILES IDX 10 14 11 15 26 16 28 17 12 18 25 19 24 20 13 21 22 22 14 23
REMARK SMILES IDX 16 24 21 25 23 26 15 27 17 28 20 29 18 30 19 31
REMARK H PARENT
REMARK Flexibility Score: inf
ROOT
ATOM      1  C   UNL     1      15.051 -11.523  61.955  1.00  0.00     0.004 C 
ENDROOT
BRANCH   1   2
ATOM      2  C   UNL     1      14.514 -10.181  62.545  1.00  0.00    -0.009 C 
BRANCH   2   3
ATOM      3  C   UNL     1      13.965 -10.359  63.989  1.00  0.00     0.000 C 
ATOM      4  C   UNL     1      13.642 -11.812  64.333  1.00  0.00     0.004 C 
ENDBRANCH   2   3
BRANCH   2   5
ATOM      5  C   UNL     1      15.603  -9.062  62.454  1.00  0.00    -0.014 C 
ATOM      6  C   UNL     1      16.922  -9.440  63.146  1.00  0.00     0.007 C 
ATOM      7  C   UNL     1      15.097  -7.705  62.974  1.00  0.00     0.007 C 
ENDBRANCH   2   5
ENDBRANCH   1   2
BRANCH   1   8
ATOM      8  C   UNL     1      14.383 -11.902  60.617  1.00  0.00     0.004 C 
BRANCH   8   9
ATOM      9  C   UNL     1      12.836 -11.673  60.660  1.00  0.00    -0.011 C 
ATOM     10  C   UNL     1      12.157 -13.059  60.517  1.00  0.00     0.008 C 
BRANCH   9  11
ATOM     11  C   UNL     1      12.375 -10.653  59.552  1.00  0.00    -0.002 C 
ATOM     12  C   UNL     1      13.551 -10.253  58.603  1.00  0.00     0.005 C 
ATOM     13  C   UNL     1      11.776  -9.265  60.000  1.00  0.00    -0.026 C 
ATOM     14  C   UNL     1      13.659  -8.729  58.588  1.00  0.00     0.005 C 
ATOM     15  C   UNL     1      12.983  -8.325  59.879  1.00  0.00    -0.001 C 
ATOM     16  C   UNL     1      11.245  -9.111  61.448  1.00  0.00     0.007 C 
ATOM     17  C   UNL     1      10.632  -8.920  58.989  1.00  0.00     0.012 C 
ATOM     18  C   UNL     1      12.643  -6.824  60.073  1.00  0.00     0.004 C 
ATOM     19  C   UNL     1      10.835  -7.654  61.753  1.00  0.00     0.005 C 
ATOM     20  C   UNL     1      11.965  -6.615  61.464  1.00  0.00     0.003 C 
ATOM     21  C   UNL     1      13.942  -5.990  60.015  1.00  0.00     0.085 C 
ATOM     22  C   UNL     1      11.536  -5.104  61.725  1.00  0.00    -0.000 C 
ATOM     23  C   UNL     1      13.703  -4.559  60.380  1.00  0.00     0.159 C 
ATOM     24  C   UNL     1      12.390  -4.128  60.899  1.00  0.00     0.005 C 
ATOM     25  C   UNL     1      10.032  -4.852  61.384  1.00  0.00     0.020 C 
ATOM     26  C   UNL     1      11.780  -4.786  63.222  1.00  0.00     0.017 C 
ATOM     27  O   UNL     1      14.639  -3.726  60.239  1.00  0.00    -0.295 OA
ATOM     28  C   UNL     1      11.961  -2.882  60.627  1.00  0.00     0.055 C 
ATOM     29  C   UNL     1       9.601  -3.385  61.553  1.00  0.00     0.081 C 
ATOM     30  C   UNL     1      10.601  -2.439  60.964  1.00  0.00     0.156 C 
ATOM     31  O   UNL     1      10.271  -1.240  60.760  1.00  0.00    -0.295 OA
ENDBRANCH   9  11
ENDBRANCH   8   9
ENDBRANCH   1   8
TORSDOF 6
ENDMDL
MODEL 8
REMARK VINA RESULT:    -6.413      2.097      3.594
REMARK INTER + INTRA:         -11.895
REMARK INTER:                  -8.699
REMARK INTRA:                  -3.196
REMARK UNBOUND:                -3.233
REMARK SMILES CC[C@H](CC[C@H](C)[C@@H]1CC[C@H]2[C@@H]3CC(=O)C4=CC(=O)CC[C@@]4(C)[C@H]3CC[C@@]21C)C(C)C
REMARK SMILES IDX 4 1 3 2 2 3 1 4 29 5 30 6 31 7 5 8 6 9 7 10 8 11 9 12 27 13
REMARK SMILES IDX 10 14 11 15 26 16 28 17 12 18 25 19 24 20 13 21 22 22 14 23
REMARK SMILES IDX 16 24 21 25 23 26 15 27 17 28 20 29 18 30 19 31
REMARK H PARENT
REMARK Flexibility Score: inf
ROOT
ATOM      1  C   UNL     1      11.163  -5.539  57.279  1.00  0.00     0.004 C 
ENDROOT
BRANCH   1   2
ATOM      2  C   UNL     1      10.172  -6.278  58.233  1.00  0.00    -0.009 C 
BRANCH   2   3
ATOM      3  C   UNL     1       9.729  -7.654  57.659  1.00  0.00     0.000 C 
ATOM      4  C   UNL     1       8.225  -7.741  57.403  1.00  0.00     0.004 C 
ENDBRANCH   2   3
BRANCH   2   5
ATOM      5  C   UNL     1      10.775  -6.399  59.671  1.00  0.00    -0.014 C 
ATOM      6  C   UNL     1       9.832  -7.087  60.670  1.00  0.00     0.007 C 
ATOM      7  C   UNL     1      11.246  -5.044  60.227  1.00  0.00     0.007 C 
ENDBRANCH   2   5
ENDBRANCH   1   2
BRANCH   1   8
ATOM      8  C   UNL     1      11.429  -6.313  55.971  1.00  0.00     0.004 C 
BRANCH   8   9
ATOM      9  C   UNL     1      12.940  -6.265  55.571  1.00  0.00    -0.011 C 
ATOM     10  C   UNL     1      13.008  -5.976  54.049  1.00  0.00     0.008 C 
BRANCH   9  11
ATOM     11  C   UNL     1      13.684  -7.594  55.972  1.00  0.00    -0.002 C 
ATOM     12  C   UNL     1      12.765  -8.848  55.805  1.00  0.00     0.005 C 
ATOM     13  C   UNL     1      14.241  -7.738  57.440  1.00  0.00    -0.026 C 
ATOM     14  C   UNL     1      12.742  -9.606  57.131  1.00  0.00     0.005 C 
ATOM     15  C   UNL     1      13.139  -8.548  58.137  1.00  0.00    -0.001 C 
ATOM     16  C   UNL     1      14.449  -6.461  58.292  1.00  0.00     0.007 C 
ATOM     17  C   UNL     1      15.594  -8.517  57.334  1.00  0.00     0.012 C 
ATOM     18  C   UNL     1      13.505  -9.020  59.569  1.00  0.00     0.004 C 
ATOM     19  C   UNL     1      14.857  -6.801  59.741  1.00  0.00     0.005 C 
ATOM     20  C   UNL     1      13.872  -7.784  60.450  1.00  0.00     0.003 C 
ATOM     21  C   UNL     1      12.294  -9.746  60.197  1.00  0.00     0.085 C 
ATOM     22  C   UNL     1      14.311  -8.185  61.928  1.00  0.00    -0.000 C 
ATOM     23  C   UNL     1      12.521 -10.059  61.642  1.00  0.00     0.159 C 
ATOM     24  C   UNL     1      13.709  -9.536  62.345  1.00  0.00     0.005 C 
ATOM     25  C   UNL     1      15.863  -8.269  62.079  1.00  0.00     0.020 C 
ATOM     26  C   UNL     1      13.762  -7.109  62.901  1.00  0.00     0.017 C 
ATOM     27  O   UNL     1      11.682 -10.777  62.252  1.00  0.00    -0.295 OA
ATOM     28  C   UNL     1      14.251 -10.266  63.337  1.00  0.00     0.055 C 
ATOM     29  C   UNL     1      16.322  -8.727  63.474  1.00  0.00     0.081 C 
ATOM     30  C   UNL     1      15.525  -9.893  63.967  1.00  0.00     0.156 C 
ATOM     31  O   UNL     1      15.952 -10.564  64.945  1.00  0.00    -0.295 OA
ENDBRANCH   9  11
ENDBRANCH   8   9
ENDBRANCH   1   8
TORSDOF 6
ENDMDL
MODEL 9
REMARK VINA RESULT:    -6.406      5.453      7.834
REMARK INTER + INTRA:         -11.885
REMARK INTER:                  -8.832
REMARK INTRA:                  -3.054
REMARK UNBOUND:                -3.233
REMARK SMILES CC[C@H](CC[C@H](C)[C@@H]1CC[C@H]2[C@@H]3CC(=O)C4=CC(=O)CC[C@@]4(C)[C@H]3CC[C@@]21C)C(C)C
REMARK SMILES IDX 4 1 3 2 2 3 1 4 29 5 30 6 31 7 5 8 6 9 7 10 8 11 9 12 27 13
REMARK SMILES IDX 10 14 11 15 26 16 28 17 12 18 25 19 24 20 13 21 22 22 14 23
REMARK SMILES IDX 16 24 21 25 23 26 15 27 17 28 20 29 18 30 19 31
REMARK H PARENT
REMARK Flexibility Score: inf
ROOT
ATOM      1  C   UNL     1      13.837   2.309  58.957  1.00  0.00     0.004 C 
ENDROOT
BRANCH   1   2
ATOM      2  C   UNL     1      13.019   1.500  57.902  1.00  0.00    -0.009 C 
BRANCH   2   3
ATOM      3  C   UNL     1      11.657   2.177  57.578  1.00  0.00     0.000 C 
ATOM      4  C   UNL     1      10.454   1.294  57.906  1.00  0.00     0.004 C 
ENDBRANCH   2   3
BRANCH   2   5
ATOM      5  C   UNL     1      13.875   1.239  56.620  1.00  0.00    -0.014 C 
ATOM      6  C   UNL     1      13.497  -0.059  55.890  1.00  0.00     0.007 C 
ATOM      7  C   UNL     1      15.387   1.270  56.906  1.00  0.00     0.007 C 
ENDBRANCH   2   5
ENDBRANCH   1   2
BRANCH   1   8
ATOM      8  C   UNL     1      14.121   1.506  60.243  1.00  0.00     0.004 C 
BRANCH   8   9
ATOM      9  C   UNL     1      13.326   0.160  60.270  1.00  0.00    -0.011 C 
ATOM     10  C   UNL     1      12.277   0.264  61.407  1.00  0.00     0.008 C 
BRANCH   9  11
ATOM     11  C   UNL     1      14.290  -1.073  60.442  1.00  0.00    -0.002 C 
ATOM     12  C   UNL     1      15.786  -0.678  60.226  1.00  0.00     0.005 C 
ATOM     13  C   UNL     1      14.099  -2.323  59.499  1.00  0.00    -0.026 C 
ATOM     14  C   UNL     1      16.377  -1.598  59.160  1.00  0.00     0.005 C 
ATOM     15  C   UNL     1      15.155  -2.083  58.411  1.00  0.00    -0.001 C 
ATOM     16  C   UNL     1      12.748  -2.506  58.762  1.00  0.00     0.007 C 
ATOM     17  C   UNL     1      14.394  -3.592  60.366  1.00  0.00     0.012 C 
ATOM     18  C   UNL     1      15.339  -3.271  57.430  1.00  0.00     0.004 C 
ATOM     19  C   UNL     1      12.793  -3.692  57.776  1.00  0.00     0.005 C 
ATOM     20  C   UNL     1      13.972  -3.610  56.755  1.00  0.00     0.003 C 
ATOM     21  C   UNL     1      16.359  -2.883  56.337  1.00  0.00     0.085 C 
ATOM     22  C   UNL     1      14.060  -4.854  55.766  1.00  0.00    -0.000 C 
ATOM     23  C   UNL     1      16.438  -3.915  55.257  1.00  0.00     0.159 C 
ATOM     24  C   UNL     1      15.487  -5.044  55.228  1.00  0.00     0.005 C 
ATOM     25  C   UNL     1      13.612  -6.184  56.452  1.00  0.00     0.020 C 
ATOM     26  C   UNL     1      13.136  -4.571  54.553  1.00  0.00     0.017 C 
ATOM     27  O   UNL     1      17.329  -3.808  54.371  1.00  0.00    -0.295 OA
ATOM     28  C   UNL     1      15.897  -6.227  54.735  1.00  0.00     0.055 C 
ATOM     29  C   UNL     1      13.755  -7.422  55.549  1.00  0.00     0.081 C 
ATOM     30  C   UNL     1      15.065  -7.435  54.827  1.00  0.00     0.156 C 
ATOM     31  O   UNL     1      15.459  -8.501  54.282  1.00  0.00    -0.295 OA
ENDBRANCH   9  11
ENDBRANCH   8   9
ENDBRANCH   1   8
TORSDOF 6
ENDMDL
