MODEL 1
REMARK VINA RESULT:    -4.386      0.000      0.000
REMARK INTER + INTRA:          -5.724
REMARK INTER:                  -5.412
REMARK INTRA:                  -0.312
REMARK UNBOUND:                -0.312
REMARK SMILES COC(=O)c1ccccc1C(=O)OC
REMARK SMILES IDX 5 1 6 2 7 3 8 4 9 5 10 6 3 7 4 8 2 9 1 10 11 11 12 12 13 13
REMARK SMILES IDX 14 14
REMARK H PARENT
REMARK Flexibility Score: inf
ROOT
ATOM      1  C   UNL     1      26.260  37.790  19.469  1.00  0.00     0.074 A 
ATOM      2  C   UNL     1      26.774  38.733  18.559  1.00  0.00     0.016 A 
ATOM      3  C   UNL     1      27.213  39.982  18.998  1.00  0.00     0.001 A 
ATOM      4  C   UNL     1      27.145  40.311  20.350  1.00  0.00     0.001 A 
ATOM      5  C   UNL     1      26.618  39.400  21.266  1.00  0.00     0.016 A 
ATOM      6  C   UNL     1      26.151  38.142  20.842  1.00  0.00     0.074 A 
ENDROOT
BRANCH   1   7
ATOM      7  C   UNL     1      25.920  36.440  18.964  1.00  0.00     0.338 C 
ATOM      8  O   UNL     1      26.710  35.477  19.167  1.00  0.00    -0.246 OA
BRANCH   7   9
ATOM      9  O   UNL     1      24.704  36.224  18.307  1.00  0.00    -0.465 OA
ATOM     10  C   UNL     1      23.519  35.839  18.992  1.00  0.00     0.282 C 
ENDBRANCH   7   9
ENDBRANCH   1   7
BRANCH   6  11
ATOM     11  C   UNL     1      25.498  37.264  21.838  1.00  0.00     0.338 C 
ATOM     12  O   UNL     1      26.202  36.525  22.581  1.00  0.00    -0.246 OA
BRANCH  11  13
ATOM     13  O   UNL     1      24.107  37.291  21.992  1.00  0.00    -0.465 OA
ATOM     14  C   UNL     1      23.327  38.450  21.725  1.00  0.00     0.282 C 
ENDBRANCH  11  13
ENDBRANCH   6  11
TORSDOF 4
ENDMDL
MODEL 2
REMARK VINA RESULT:    -4.374      0.057      3.012
REMARK INTER + INTRA:          -5.709
REMARK INTER:                  -5.392
REMARK INTRA:                  -0.317
REMARK UNBOUND:                -0.312
REMARK SMILES COC(=O)c1ccccc1C(=O)OC
REMARK SMILES IDX 5 1 6 2 7 3 8 4 9 5 10 6 3 7 4 8 2 9 1 10 11 11 12 12 13 13
REMARK SMILES IDX 14 14
REMARK H PARENT
REMARK Flexibility Score: inf
ROOT
ATOM      1  C   UNL     1      26.127  38.167  20.829  1.00  0.00     0.074 A 
ATOM      2  C   UNL     1      26.559  39.438  21.254  1.00  0.00     0.016 A 
ATOM      3  C   UNL     1      27.072  40.359  20.339  1.00  0.00     0.001 A 
ATOM      4  C   UNL     1      27.162  40.028  18.989  1.00  0.00     0.001 A 
ATOM      5  C   UNL     1      26.760  38.765  18.550  1.00  0.00     0.016 A 
ATOM      6  C   UNL     1      26.259  37.813  19.458  1.00  0.00     0.074 A 
ENDROOT
BRANCH   1   7
ATOM      7  C   UNL     1      25.485  37.276  21.822  1.00  0.00     0.338 C 
ATOM      8  O   UNL     1      26.199  36.550  22.567  1.00  0.00    -0.246 OA
BRANCH   7   9
ATOM      9  O   UNL     1      24.094  37.278  21.968  1.00  0.00    -0.465 OA
ATOM     10  C   UNL     1      23.296  38.424  21.698  1.00  0.00     0.282 C 
ENDBRANCH   7   9
ENDBRANCH   1   7
BRANCH   6  11
ATOM     11  C   UNL     1      25.958  36.455  18.955  1.00  0.00     0.338 C 
ATOM     12  O   UNL     1      26.766  35.511  19.175  1.00  0.00    -0.246 OA
BRANCH  11  13
ATOM     13  O   UNL     1      24.756  36.206  18.283  1.00  0.00    -0.465 OA
ATOM     14  C   UNL     1      23.579  35.766  18.950  1.00  0.00     0.282 C 
ENDBRANCH  11  13
ENDBRANCH   6  11
TORSDOF 4
ENDMDL
MODEL 3
REMARK VINA RESULT:    -4.268      0.721      3.407
REMARK INTER + INTRA:          -5.578
REMARK INTER:                  -5.301
REMARK INTRA:                  -0.277
REMARK UNBOUND:                -0.312
REMARK SMILES COC(=O)c1ccccc1C(=O)OC
REMARK SMILES IDX 5 1 6 2 7 3 8 4 9 5 10 6 3 7 4 8 2 9 1 10 11 11 12 12 13 13
REMARK SMILES IDX 14 14
REMARK H PARENT
REMARK Flexibility Score: inf
ROOT
ATOM      1  C   UNL     1      26.014  38.036  20.612  1.00  0.00     0.074 A 
ATOM      2  C   UNL     1      26.535  39.299  20.953  1.00  0.00     0.016 A 
ATOM      3  C   UNL     1      27.137  40.107  19.987  1.00  0.00     0.001 A 
ATOM      4  C   UNL     1      27.229  39.669  18.668  1.00  0.00     0.001 A 
ATOM      5  C   UNL     1      26.739  38.411  18.313  1.00  0.00     0.016 A 
ATOM      6  C   UNL     1      26.147  37.571  19.274  1.00  0.00     0.074 A 
ENDROOT
BRANCH   1   7
ATOM      7  C   UNL     1      25.284  37.275  21.651  1.00  0.00     0.338 C 
ATOM      8  O   UNL     1      25.928  36.616  22.513  1.00  0.00    -0.246 OA
BRANCH   7   9
ATOM      9  O   UNL     1      23.888  37.327  21.705  1.00  0.00    -0.465 OA
ATOM     10  C   UNL     1      23.173  38.538  21.921  1.00  0.00     0.282 C 
ENDBRANCH   7   9
ENDBRANCH   1   7
BRANCH   6  11
ATOM     11  C   UNL     1      25.751  36.205  18.865  1.00  0.00     0.338 C 
ATOM     12  O   UNL     1      24.623  36.012  18.333  1.00  0.00    -0.246 OA
BRANCH  11  13
ATOM     13  O   UNL     1      26.646  35.140  19.020  1.00  0.00    -0.465 OA
ATOM     14  C   UNL     1      27.988  35.321  19.452  1.00  0.00     0.282 C 
ENDBRANCH  11  13
ENDBRANCH   6  11
TORSDOF 4
ENDMDL
MODEL 4
REMARK VINA RESULT:    -4.177      1.946      2.861
REMARK INTER + INTRA:          -5.466
REMARK INTER:                  -5.089
REMARK INTRA:                  -0.377
REMARK UNBOUND:                -0.312
REMARK SMILES COC(=O)c1ccccc1C(=O)OC
REMARK SMILES IDX 5 1 6 2 7 3 8 4 9 5 10 6 3 7 4 8 2 9 1 10 11 11 12 12 13 13
REMARK SMILES IDX 14 14
REMARK H PARENT
REMARK Flexibility Score: inf
ROOT
ATOM      1  C   UNL     1      26.762  36.172  19.744  1.00  0.00     0.074 A 
ATOM      2  C   UNL     1      27.652  35.158  19.342  1.00  0.00     0.016 A 
ATOM      3  C   UNL     1      28.455  34.502  20.276  1.00  0.00     0.001 A 
ATOM      4  C   UNL     1      28.384  34.846  21.624  1.00  0.00     0.001 A 
ATOM      5  C   UNL     1      27.524  35.864  22.041  1.00  0.00     0.016 A 
ATOM      6  C   UNL     1      26.721  36.553  21.114  1.00  0.00     0.074 A 
ENDROOT
BRANCH   1   7
ATOM      7  C   UNL     1      25.853  36.751  18.729  1.00  0.00     0.338 C 
ATOM      8  O   UNL     1      26.113  37.877  18.223  1.00  0.00    -0.246 OA
BRANCH   7   9
ATOM      9  O   UNL     1      24.736  36.027  18.297  1.00  0.00    -0.465 OA
ATOM     10  C   UNL     1      23.558  35.892  19.081  1.00  0.00     0.282 C 
ENDBRANCH   7   9
ENDBRANCH   1   7
BRANCH   6  11
ATOM     11  C   UNL     1      25.917  37.698  21.596  1.00  0.00     0.338 C 
ATOM     12  O   UNL     1      26.423  38.854  21.620  1.00  0.00    -0.246 OA
BRANCH  11  13
ATOM     13  O   UNL     1      24.583  37.508  21.975  1.00  0.00    -0.465 OA
ATOM     14  C   UNL     1      23.560  38.452  21.683  1.00  0.00     0.282 C 
ENDBRANCH  11  13
ENDBRANCH   6  11
TORSDOF 4
ENDMDL
MODEL 5
REMARK VINA RESULT:    -4.175      1.969      4.146
REMARK INTER + INTRA:          -5.463
REMARK INTER:                  -5.069
REMARK INTRA:                  -0.395
REMARK UNBOUND:                -0.312
REMARK SMILES COC(=O)c1ccccc1C(=O)OC
REMARK SMILES IDX 5 1 6 2 7 3 8 4 9 5 10 6 3 7 4 8 2 9 1 10 11 11 12 12 13 13
REMARK SMILES IDX 14 14
REMARK H PARENT
REMARK Flexibility Score: inf
ROOT
ATOM      1  C   UNL     1      26.765  36.564  21.036  1.00  0.00     0.074 A 
ATOM      2  C   UNL     1      27.555  35.849  21.957  1.00  0.00     0.016 A 
ATOM      3  C   UNL     1      28.364  34.794  21.534  1.00  0.00     0.001 A 
ATOM      4  C   UNL     1      28.398  34.435  20.189  1.00  0.00     0.001 A 
ATOM      5  C   UNL     1      27.605  35.115  19.263  1.00  0.00     0.016 A 
ATOM      6  C   UNL     1      26.767  36.169  19.670  1.00  0.00     0.074 A 
ENDROOT
BRANCH   1   7
ATOM      7  C   UNL     1      26.018  37.746  21.523  1.00  0.00     0.338 C 
ATOM      8  O   UNL     1      26.556  38.887  21.486  1.00  0.00    -0.246 OA
BRANCH   7   9
ATOM      9  O   UNL     1      24.701  37.606  21.973  1.00  0.00    -0.465 OA
ATOM     10  C   UNL     1      23.669  38.520  21.626  1.00  0.00     0.282 C 
ENDBRANCH   7   9
ENDBRANCH   1   7
BRANCH   6  11
ATOM     11  C   UNL     1      25.865  36.776  18.667  1.00  0.00     0.338 C 
ATOM     12  O   UNL     1      26.155  37.894  18.156  1.00  0.00    -0.246 OA
BRANCH  11  13
ATOM     13  O   UNL     1      24.720  36.089  18.246  1.00  0.00    -0.465 OA
ATOM     14  C   UNL     1      23.600  35.869  19.095  1.00  0.00     0.282 C 
ENDBRANCH  11  13
ENDBRANCH   6  11
TORSDOF 4
ENDMDL
MODEL 6
REMARK VINA RESULT:    -4.060      1.241      2.245
REMARK INTER + INTRA:          -5.321
REMARK INTER:                  -4.976
REMARK INTRA:                  -0.346
REMARK UNBOUND:                -0.312
REMARK SMILES COC(=O)c1ccccc1C(=O)OC
REMARK SMILES IDX 5 1 6 2 7 3 8 4 9 5 10 6 3 7 4 8 2 9 1 10 11 11 12 12 13 13
REMARK SMILES IDX 14 14
REMARK H PARENT
REMARK Flexibility Score: inf
ROOT
ATOM      1  C   UNL     1      26.479  37.545  19.593  1.00  0.00     0.074 A 
ATOM      2  C   UNL     1      26.824  38.529  18.647  1.00  0.00     0.016 A 
ATOM      3  C   UNL     1      26.935  39.869  19.020  1.00  0.00     0.001 A 
ATOM      4  C   UNL     1      26.704  40.248  20.341  1.00  0.00     0.001 A 
ATOM      5  C   UNL     1      26.338  39.292  21.289  1.00  0.00     0.016 A 
ATOM      6  C   UNL     1      26.200  37.938  20.931  1.00  0.00     0.074 A 
ENDROOT
BRANCH   1   7
ATOM      7  C   UNL     1      26.490  36.127  19.166  1.00  0.00     0.338 C 
ATOM      8  O   UNL     1      25.413  35.566  18.826  1.00  0.00    -0.246 OA
BRANCH   7   9
ATOM      9  O   UNL     1      27.700  35.428  19.092  1.00  0.00    -0.465 OA
ATOM     10  C   UNL     1      28.208  34.658  20.174  1.00  0.00     0.282 C 
ENDBRANCH   7   9
ENDBRANCH   1   7
BRANCH   6  11
ATOM     11  C   UNL     1      25.699  36.990  21.950  1.00  0.00     0.338 C 
ATOM     12  O   UNL     1      24.458  36.793  22.067  1.00  0.00    -0.246 OA
BRANCH  11  13
ATOM     13  O   UNL     1      26.600  36.274  22.746  1.00  0.00    -0.465 OA
ATOM     14  C   UNL     1      26.203  35.575  23.919  1.00  0.00     0.282 C 
ENDBRANCH  11  13
ENDBRANCH   6  11
TORSDOF 4
ENDMDL
MODEL 7
REMARK VINA RESULT:    -3.908      2.388      4.557
REMARK INTER + INTRA:          -5.134
REMARK INTER:                  -4.835
REMARK INTRA:                  -0.299
REMARK UNBOUND:                -0.312
REMARK SMILES COC(=O)c1ccccc1C(=O)OC
REMARK SMILES IDX 5 1 6 2 7 3 8 4 9 5 10 6 3 7 4 8 2 9 1 10 11 11 12 12 13 13
REMARK SMILES IDX 14 14
REMARK H PARENT
REMARK Flexibility Score: inf
ROOT
ATOM      1  C   UNL     1      26.666  36.220  22.181  1.00  0.00     0.074 A 
ATOM      2  C   UNL     1      26.691  35.729  23.500  1.00  0.00     0.016 A 
ATOM      3  C   UNL     1      27.576  34.714  23.866  1.00  0.00     0.001 A 
ATOM      4  C   UNL     1      28.449  34.173  22.924  1.00  0.00     0.001 A 
ATOM      5  C   UNL     1      28.425  34.630  21.605  1.00  0.00     0.016 A 
ATOM      6  C   UNL     1      27.527  35.639  21.209  1.00  0.00     0.074 A 
ENDROOT
BRANCH   1   7
ATOM      7  C   UNL     1      25.791  37.376  21.879  1.00  0.00     0.338 C 
ATOM      8  O   UNL     1      26.301  38.511  21.669  1.00  0.00    -0.246 OA
BRANCH   7   9
ATOM      9  O   UNL     1      24.407  37.198  21.778  1.00  0.00    -0.465 OA
ATOM     10  C   UNL     1      23.497  38.287  21.687  1.00  0.00     0.282 C 
ENDBRANCH   7   9
ENDBRANCH   1   7
BRANCH   6  11
ATOM     11  C   UNL     1      27.466  36.001  19.776  1.00  0.00     0.338 C 
ATOM     12  O   UNL     1      28.260  36.866  19.313  1.00  0.00    -0.246 OA
BRANCH  11  13
ATOM     13  O   UNL     1      26.567  35.349  18.925  1.00  0.00    -0.465 OA
ATOM     14  C   UNL     1      25.260  35.845  18.662  1.00  0.00     0.282 C 
ENDBRANCH  11  13
ENDBRANCH   6  11
TORSDOF 4
ENDMDL
MODEL 8
REMARK VINA RESULT:    -3.879      2.538      4.803
REMARK INTER + INTRA:          -5.099
REMARK INTER:                  -4.768
REMARK INTRA:                  -0.331
REMARK UNBOUND:                -0.312
REMARK SMILES COC(=O)c1ccccc1C(=O)OC
REMARK SMILES IDX 5 1 6 2 7 3 8 4 9 5 10 6 3 7 4 8 2 9 1 10 11 11 12 12 13 13
REMARK SMILES IDX 14 14
REMARK H PARENT
REMARK Flexibility Score: inf
ROOT
ATOM      1  C   UNL     1      25.707  39.266  20.869  1.00  0.00     0.074 A 
ATOM      2  C   UNL     1      24.504  39.248  21.601  1.00  0.00     0.016 A 
ATOM      3  C   UNL     1      23.682  38.120  21.593  1.00  0.00     0.001 A 
ATOM      4  C   UNL     1      24.046  36.995  20.856  1.00  0.00     0.001 A 
ATOM      5  C   UNL     1      25.223  37.001  20.106  1.00  0.00     0.016 A 
ATOM      6  C   UNL     1      26.056  38.134  20.083  1.00  0.00     0.074 A 
ENDROOT
BRANCH   1   7
ATOM      7  C   UNL     1      26.595  40.444  21.008  1.00  0.00     0.338 C 
ATOM      8  O   UNL     1      27.519  40.433  21.866  1.00  0.00    -0.246 OA
BRANCH   7   9
ATOM      9  O   UNL     1      26.439  41.542  20.156  1.00  0.00    -0.465 OA
ATOM     10  C   UNL     1      26.519  42.886  20.614  1.00  0.00     0.282 C 
ENDBRANCH   7   9
ENDBRANCH   1   7
BRANCH   6  11
ATOM     11  C   UNL     1      27.229  38.125  19.180  1.00  0.00     0.338 C 
ATOM     12  O   UNL     1      27.135  38.624  18.024  1.00  0.00    -0.246 OA
BRANCH  11  13
ATOM     13  O   UNL     1      28.452  37.611  19.624  1.00  0.00    -0.465 OA
ATOM     14  C   UNL     1      28.819  36.247  19.459  1.00  0.00     0.282 C 
ENDBRANCH  11  13
ENDBRANCH   6  11
TORSDOF 4
ENDMDL
MODEL 9
REMARK VINA RESULT:    -3.871      1.869      3.026
REMARK INTER + INTRA:          -5.089
REMARK INTER:                  -4.736
REMARK INTRA:                  -0.353
REMARK UNBOUND:                -0.312
REMARK SMILES COC(=O)c1ccccc1C(=O)OC
REMARK SMILES IDX 5 1 6 2 7 3 8 4 9 5 10 6 3 7 4 8 2 9 1 10 11 11 12 12 13 13
REMARK SMILES IDX 14 14
REMARK H PARENT
REMARK Flexibility Score: inf
ROOT
ATOM      1  C   UNL     1      27.716  36.992  20.235  1.00  0.00     0.074 A 
ATOM      2  C   UNL     1      28.913  37.711  20.053  1.00  0.00     0.016 A 
ATOM      3  C   UNL     1      28.972  38.784  19.163  1.00  0.00     0.001 A 
ATOM      4  C   UNL     1      27.841  39.157  18.440  1.00  0.00     0.001 A 
ATOM      5  C   UNL     1      26.650  38.443  18.588  1.00  0.00     0.016 A 
ATOM      6  C   UNL     1      26.573  37.345  19.465  1.00  0.00     0.074 A 
ENDROOT
BRANCH   1   7
ATOM      7  C   UNL     1      27.680  35.940  21.276  1.00  0.00     0.338 C 
ATOM      8  O   UNL     1      27.027  36.132  22.339  1.00  0.00    -0.246 OA
BRANCH   7   9
ATOM      9  O   UNL     1      28.327  34.719  21.060  1.00  0.00    -0.465 OA
ATOM     10  C   UNL     1      28.268  34.028  19.819  1.00  0.00     0.282 C 
ENDBRANCH   7   9
ENDBRANCH   1   7
BRANCH   6  11
ATOM     11  C   UNL     1      25.321  36.557  19.494  1.00  0.00     0.338 C 
ATOM     12  O   UNL     1      25.142  35.632  18.654  1.00  0.00    -0.246 OA
BRANCH  11  13
ATOM     13  O   UNL     1      24.361  36.801  20.483  1.00  0.00    -0.465 OA
ATOM     14  C   UNL     1      24.330  38.002  21.244  1.00  0.00     0.282 C 
ENDBRANCH  11  13
ENDBRANCH   6  11
TORSDOF 4
ENDMDL
