MODEL 1
REMARK VINA RESULT:    -5.485      0.000      0.000
REMARK INTER + INTRA:         -12.004
REMARK INTER:                 -10.615
REMARK INTRA:                  -1.389
REMARK UNBOUND:                -1.389
REMARK SMILES CCCCCCCCCCCCCCCCCC(=O)[O-]
REMARK SMILES IDX 10 1 11 2 12 3 13 4 14 5 15 6 16 7 17 8 18 9 19 10 20 11
REMARK SMILES IDX 9 12 8 13 7 14 6 15 5 16 4 17 3 18 2 19 1 20
REMARK H PARENT
REMARK Flexibility Score: inf
ROOT
ATOM      1  C   UNL     1       7.284  -0.413  35.715  1.00  0.00     0.000 C 
ENDROOT
BRANCH   1   2
ATOM      2  C   UNL     1       8.419   0.607  35.507  1.00  0.00     0.000 C 
BRANCH   2   3
ATOM      3  C   UNL     1       8.727   0.863  34.021  1.00  0.00     0.000 C 
BRANCH   3   4
ATOM      4  C   UNL     1      10.202   1.224  33.779  1.00  0.00     0.000 C 
BRANCH   4   5
ATOM      5  C   UNL     1      11.151   0.039  34.017  1.00  0.00     0.000 C 
BRANCH   5   6
ATOM      6  C   UNL     1      12.477   0.513  34.627  1.00  0.00     0.000 C 
BRANCH   6   7
ATOM      7  C   UNL     1      12.234   1.474  35.796  1.00  0.00     0.006 C 
BRANCH   7   8
ATOM      8  C   UNL     1      13.252   2.619  35.785  1.00  0.00     0.053 C 
BRANCH   8   9
ATOM      9  C   UNL     1      12.582   3.915  35.454  1.00  0.00     0.041 C 
ATOM     10  O   UNL     1      12.367   4.766  36.357  1.00  0.00    -0.550 OA
ATOM     11  O   UNL     1      12.166   4.171  34.154  1.00  0.00    -0.550 OA
ENDBRANCH   8   9
ENDBRANCH   7   8
ENDBRANCH   6   7
ENDBRANCH   5   6
ENDBRANCH   4   5
ENDBRANCH   3   4
ENDBRANCH   2   3
ENDBRANCH   1   2
BRANCH   1  12
ATOM     12  C   UNL     1       5.983   0.160  36.316  1.00  0.00     0.000 C 
BRANCH  12  13
ATOM     13  C   UNL     1       4.863  -0.870  36.551  1.00  0.00    -0.000 C 
BRANCH  13  14
ATOM     14  C   UNL     1       5.336  -2.336  36.601  1.00  0.00    -0.000 C 
BRANCH  14  15
ATOM     15  C   UNL     1       4.182  -3.361  36.548  1.00  0.00    -0.000 C 
BRANCH  15  16
ATOM     16  C   UNL     1       4.119  -4.236  37.812  1.00  0.00    -0.000 C 
BRANCH  16  17
ATOM     17  C   UNL     1       3.428  -3.530  38.990  1.00  0.00    -0.000 C 
BRANCH  17  18
ATOM     18  C   UNL     1       1.960  -3.178  38.694  1.00  0.00    -0.000 C 
BRANCH  18  19
ATOM     19  C   UNL     1       1.712  -1.662  38.680  1.00  0.00    -0.003 C 
ATOM     20  C   UNL     1       2.707  -0.888  39.546  1.00  0.00     0.004 C 
ENDBRANCH  18  19
ENDBRANCH  17  18
ENDBRANCH  16  17
ENDBRANCH  15  16
ENDBRANCH  14  15
ENDBRANCH  13  14
ENDBRANCH  12  13
ENDBRANCH   1  12
TORSDOF 16
ENDMDL
MODEL 2
REMARK VINA RESULT:    -5.449      1.266      3.313
REMARK INTER + INTRA:         -11.934
REMARK INTER:                 -10.503
REMARK INTRA:                  -1.431
REMARK UNBOUND:                -1.389
REMARK SMILES CCCCCCCCCCCCCCCCCC(=O)[O-]
REMARK SMILES IDX 10 1 11 2 12 3 13 4 14 5 15 6 16 7 17 8 18 9 19 10 20 11
REMARK SMILES IDX 9 12 8 13 7 14 6 15 5 16 4 17 3 18 2 19 1 20
REMARK H PARENT
REMARK Flexibility Score: inf
ROOT
ATOM      1  C   UNL     1       4.289  -0.537  37.260  1.00  0.00     0.000 C 
ENDROOT
BRANCH   1   2
ATOM      2  C   UNL     1       5.166   0.394  36.403  1.00  0.00     0.000 C 
BRANCH   2   3
ATOM      3  C   UNL     1       6.503  -0.250  35.999  1.00  0.00     0.000 C 
BRANCH   3   4
ATOM      4  C   UNL     1       7.641   0.778  35.878  1.00  0.00     0.000 C 
BRANCH   4   5
ATOM      5  C   UNL     1       8.997   0.128  35.562  1.00  0.00     0.000 C 
BRANCH   5   6
ATOM      6  C   UNL     1       9.381   0.348  34.093  1.00  0.00     0.000 C 
BRANCH   6   7
ATOM      7  C   UNL     1      10.870   0.072  33.864  1.00  0.00     0.006 C 
BRANCH   7   8
ATOM      8  C   UNL     1      11.731   0.824  34.884  1.00  0.00     0.053 C 
BRANCH   8   9
ATOM      9  C   UNL     1      12.256   2.095  34.294  1.00  0.00     0.041 C 
ATOM     10  O   UNL     1      11.532   3.125  34.261  1.00  0.00    -0.550 OA
ATOM     11  O   UNL     1      13.534   2.134  33.751  1.00  0.00    -0.550 OA
ENDBRANCH   8   9
ENDBRANCH   7   8
ENDBRANCH   6   7
ENDBRANCH   5   6
ENDBRANCH   4   5
ENDBRANCH   3   4
ENDBRANCH   2   3
ENDBRANCH   1   2
BRANCH   1  12
ATOM     12  C   UNL     1       3.027   0.116  37.865  1.00  0.00     0.000 C 
BRANCH  12  13
ATOM     13  C   UNL     1       2.069  -0.854  38.580  1.00  0.00    -0.000 C 
BRANCH  13  14
ATOM     14  C   UNL     1       2.529  -1.299  39.981  1.00  0.00    -0.000 C 
BRANCH  14  15
ATOM     15  C   UNL     1       3.062  -2.748  40.026  1.00  0.00    -0.000 C 
BRANCH  15  16
ATOM     16  C   UNL     1       2.671  -3.554  38.775  1.00  0.00    -0.000 C 
BRANCH  16  17
ATOM     17  C   UNL     1       3.889  -3.987  37.942  1.00  0.00    -0.000 C 
BRANCH  17  18
ATOM     18  C   UNL     1       3.520  -4.343  36.491  1.00  0.00    -0.000 C 
BRANCH  18  19
ATOM     19  C   UNL     1       4.519  -3.771  35.474  1.00  0.00    -0.003 C 
ATOM     20  C   UNL     1       5.971  -3.869  35.946  1.00  0.00     0.004 C 
ENDBRANCH  18  19
ENDBRANCH  17  18
ENDBRANCH  16  17
ENDBRANCH  15  16
ENDBRANCH  14  15
ENDBRANCH  13  14
ENDBRANCH  12  13
ENDBRANCH   1  12
TORSDOF 16
ENDMDL
MODEL 3
REMARK VINA RESULT:    -5.375      1.966      4.964
REMARK INTER + INTRA:         -11.792
REMARK INTER:                 -10.025
REMARK INTRA:                  -1.767
REMARK UNBOUND:                -1.389
REMARK SMILES CCCCCCCCCCCCCCCCCC(=O)[O-]
REMARK SMILES IDX 10 1 11 2 12 3 13 4 14 5 15 6 16 7 17 8 18 9 19 10 20 11
REMARK SMILES IDX 9 12 8 13 7 14 6 15 5 16 4 17 3 18 2 19 1 20
REMARK H PARENT
REMARK Flexibility Score: inf
ROOT
ATOM      1  C   UNL     1       1.853  -0.949  38.419  1.00  0.00     0.000 C 
ENDROOT
BRANCH   1   2
ATOM      2  C   UNL     1       2.593   0.063  37.526  1.00  0.00     0.000 C 
BRANCH   2   3
ATOM      3  C   UNL     1       4.123  -0.058  37.626  1.00  0.00     0.000 C 
BRANCH   3   4
ATOM      4  C   UNL     1       4.836   0.384  36.337  1.00  0.00     0.000 C 
BRANCH   4   5
ATOM      5  C   UNL     1       6.361   0.473  36.503  1.00  0.00     0.000 C 
BRANCH   5   6
ATOM      6  C   UNL     1       7.063  -0.642  35.717  1.00  0.00     0.000 C 
BRANCH   6   7
ATOM      7  C   UNL     1       8.135  -0.069  34.784  1.00  0.00     0.006 C 
BRANCH   7   8
ATOM      8  C   UNL     1       9.329   0.466  35.582  1.00  0.00     0.053 C 
BRANCH   8   9
ATOM      9  C   UNL     1       9.713   1.830  35.104  1.00  0.00     0.041 C 
ATOM     10  O   UNL     1       9.163   2.321  34.082  1.00  0.00    -0.550 OA
ATOM     11  O   UNL     1      10.700   2.548  35.766  1.00  0.00    -0.550 OA
ENDBRANCH   8   9
ENDBRANCH   7   8
ENDBRANCH   6   7
ENDBRANCH   5   6
ENDBRANCH   4   5
ENDBRANCH   3   4
ENDBRANCH   2   3
ENDBRANCH   1   2
BRANCH   1  12
ATOM     12  C   UNL     1       2.504  -1.217  39.794  1.00  0.00     0.000 C 
BRANCH  12  13
ATOM     13  C   UNL     1       3.035  -2.647  39.997  1.00  0.00    -0.000 C 
BRANCH  13  14
ATOM     14  C   UNL     1       2.548  -3.670  38.953  1.00  0.00    -0.000 C 
BRANCH  14  15
ATOM     15  C   UNL     1       3.691  -4.470  38.290  1.00  0.00    -0.000 C 
BRANCH  15  16
ATOM     16  C   UNL     1       4.659  -3.567  37.507  1.00  0.00    -0.000 C 
BRANCH  16  17
ATOM     17  C   UNL     1       4.496  -3.700  35.983  1.00  0.00    -0.000 C 
BRANCH  17  18
ATOM     18  C   UNL     1       5.841  -3.854  35.253  1.00  0.00    -0.000 C 
BRANCH  18  19
ATOM     19  C   UNL     1       6.352  -5.303  35.261  1.00  0.00    -0.003 C 
ATOM     20  C   UNL     1       5.221  -6.332  35.249  1.00  0.00     0.004 C 
ENDBRANCH  18  19
ENDBRANCH  17  18
ENDBRANCH  16  17
ENDBRANCH  15  16
ENDBRANCH  14  15
ENDBRANCH  13  14
ENDBRANCH  12  13
ENDBRANCH   1  12
TORSDOF 16
ENDMDL
MODEL 4
REMARK VINA RESULT:    -5.352      1.584      2.600
REMARK INTER + INTRA:         -11.747
REMARK INTER:                 -10.252
REMARK INTRA:                  -1.496
REMARK UNBOUND:                -1.389
REMARK SMILES CCCCCCCCCCCCCCCCCC(=O)[O-]
REMARK SMILES IDX 10 1 11 2 12 3 13 4 14 5 15 6 16 7 17 8 18 9 19 10 20 11
REMARK SMILES IDX 9 12 8 13 7 14 6 15 5 16 4 17 3 18 2 19 1 20
REMARK H PARENT
REMARK Flexibility Score: inf
ROOT
ATOM      1  C   UNL     1       6.746  -2.319  35.941  1.00  0.00     0.000 C 
ENDROOT
BRANCH   1   2
ATOM      2  C   UNL     1       7.449  -0.990  35.613  1.00  0.00     0.000 C 
BRANCH   2   3
ATOM      3  C   UNL     1       7.927  -0.910  34.153  1.00  0.00     0.000 C 
BRANCH   3   4
ATOM      4  C   UNL     1       9.080   0.089  33.962  1.00  0.00     0.000 C 
BRANCH   4   5
ATOM      5  C   UNL     1       8.775   1.470  34.564  1.00  0.00     0.000 C 
BRANCH   5   6
ATOM      6  C   UNL     1      10.047   2.114  35.131  1.00  0.00     0.000 C 
BRANCH   6   7
ATOM      7  C   UNL     1      10.868   1.099  35.934  1.00  0.00     0.006 C 
BRANCH   7   8
ATOM      8  C   UNL     1      12.356   1.464  35.921  1.00  0.00     0.053 C 
BRANCH   8   9
ATOM      9  C   UNL     1      13.016   0.941  34.684  1.00  0.00     0.041 C 
ATOM     10  O   UNL     1      13.118  -0.301  34.498  1.00  0.00    -0.550 OA
ATOM     11  O   UNL     1      13.548   1.822  33.752  1.00  0.00    -0.550 OA
ENDBRANCH   8   9
ENDBRANCH   7   8
ENDBRANCH   6   7
ENDBRANCH   5   6
ENDBRANCH   4   5
ENDBRANCH   3   4
ENDBRANCH   2   3
ENDBRANCH   1   2
BRANCH   1  12
ATOM     12  C   UNL     1       5.332  -2.187  36.545  1.00  0.00     0.000 C 
BRANCH  12  13
ATOM     13  C   UNL     1       4.444  -3.438  36.407  1.00  0.00    -0.000 C 
BRANCH  13  14
ATOM     14  C   UNL     1       4.288  -4.262  37.700  1.00  0.00    -0.000 C 
BRANCH  14  15
ATOM     15  C   UNL     1       3.195  -3.724  38.649  1.00  0.00    -0.000 C 
BRANCH  15  16
ATOM     16  C   UNL     1       2.010  -3.106  37.886  1.00  0.00    -0.000 C 
BRANCH  16  17
ATOM     17  C   UNL     1       1.613  -1.721  38.425  1.00  0.00    -0.000 C 
BRANCH  17  18
ATOM     18  C   UNL     1       2.603  -1.186  39.474  1.00  0.00    -0.000 C 
BRANCH  18  19
ATOM     19  C   UNL     1       3.350   0.067  38.990  1.00  0.00    -0.003 C 
ATOM     20  C   UNL     1       3.033   0.425  37.538  1.00  0.00     0.004 C 
ENDBRANCH  18  19
ENDBRANCH  17  18
ENDBRANCH  16  17
ENDBRANCH  15  16
ENDBRANCH  14  15
ENDBRANCH  13  14
ENDBRANCH  12  13
ENDBRANCH   1  12
TORSDOF 16
ENDMDL
MODEL 5
REMARK VINA RESULT:    -5.348      3.778      8.693
REMARK INTER + INTRA:         -11.739
REMARK INTER:                 -10.256
REMARK INTRA:                  -1.483
REMARK UNBOUND:                -1.389
REMARK SMILES CCCCCCCCCCCCCCCCCC(=O)[O-]
REMARK SMILES IDX 10 1 11 2 12 3 13 4 14 5 15 6 16 7 17 8 18 9 19 10 20 11
REMARK SMILES IDX 9 12 8 13 7 14 6 15 5 16 4 17 3 18 2 19 1 20
REMARK H PARENT
REMARK Flexibility Score: inf
ROOT
ATOM      1  C   UNL     1       2.889   0.364  37.744  1.00  0.00     0.000 C 
ENDROOT
BRANCH   1   2
ATOM      2  C   UNL     1       1.952  -0.755  38.233  1.00  0.00     0.000 C 
BRANCH   2   3
ATOM      3  C   UNL     1       2.687  -1.842  39.035  1.00  0.00     0.000 C 
BRANCH   3   4
ATOM      4  C   UNL     1       2.116  -3.248  38.786  1.00  0.00     0.000 C 
BRANCH   4   5
ATOM      5  C   UNL     1       3.191  -4.260  38.358  1.00  0.00     0.000 C 
BRANCH   5   6
ATOM      6  C   UNL     1       4.468  -3.542  37.903  1.00  0.00     0.000 C 
BRANCH   6   7
ATOM      7  C   UNL     1       4.568  -3.510  36.374  1.00  0.00     0.006 C 
BRANCH   7   8
ATOM      8  C   UNL     1       6.028  -3.598  35.918  1.00  0.00     0.053 C 
BRANCH   8   9
ATOM      9  C   UNL     1       6.251  -4.830  35.100  1.00  0.00     0.041 C 
ATOM     10  O   UNL     1       6.402  -4.743  33.853  1.00  0.00    -0.550 OA
ATOM     11  O   UNL     1       6.258  -6.079  35.709  1.00  0.00    -0.550 OA
ENDBRANCH   8   9
ENDBRANCH   7   8
ENDBRANCH   6   7
ENDBRANCH   5   6
ENDBRANCH   4   5
ENDBRANCH   3   4
ENDBRANCH   2   3
ENDBRANCH   1   2
BRANCH   1  12
ATOM     12  C   UNL     1       4.379  -0.026  37.627  1.00  0.00     0.000 C 
BRANCH  12  13
ATOM     13  C   UNL     1       5.034   0.298  36.271  1.00  0.00    -0.000 C 
BRANCH  13  14
ATOM     14  C   UNL     1       6.546   0.588  36.339  1.00  0.00    -0.000 C 
BRANCH  14  15
ATOM     15  C   UNL     1       7.399  -0.376  35.486  1.00  0.00    -0.000 C 
BRANCH  15  16
ATOM     16  C   UNL     1       8.795   0.195  35.180  1.00  0.00    -0.000 C 
BRANCH  16  17
ATOM     17  C   UNL     1       9.426   0.904  36.389  1.00  0.00    -0.000 C 
BRANCH  17  18
ATOM     18  C   UNL     1      10.532   1.896  35.986  1.00  0.00    -0.000 C 
BRANCH  18  19
ATOM     19  C   UNL     1      11.683   1.216  35.231  1.00  0.00    -0.003 C 
ATOM     20  C   UNL     1      13.041   1.428  35.901  1.00  0.00     0.004 C 
ENDBRANCH  18  19
ENDBRANCH  17  18
ENDBRANCH  16  17
ENDBRANCH  15  16
ENDBRANCH  14  15
ENDBRANCH  13  14
ENDBRANCH  12  13
ENDBRANCH   1  12
TORSDOF 16
ENDMDL
MODEL 6
REMARK VINA RESULT:    -5.315      4.265      9.422
REMARK INTER + INTRA:         -11.676
REMARK INTER:                 -10.218
REMARK INTRA:                  -1.458
REMARK UNBOUND:                -1.389
REMARK SMILES CCCCCCCCCCCCCCCCCC(=O)[O-]
REMARK SMILES IDX 10 1 11 2 12 3 13 4 14 5 15 6 16 7 17 8 18 9 19 10 20 11
REMARK SMILES IDX 9 12 8 13 7 14 6 15 5 16 4 17 3 18 2 19 1 20
REMARK H PARENT
REMARK Flexibility Score: inf
ROOT
ATOM      1  C   UNL     1       5.613  -1.365  36.299  1.00  0.00     0.000 C 
ENDROOT
BRANCH   1   2
ATOM      2  C   UNL     1       6.388  -2.678  36.088  1.00  0.00     0.000 C 
BRANCH   2   3
ATOM      3  C   UNL     1       5.467  -3.876  35.804  1.00  0.00     0.000 C 
BRANCH   3   4
ATOM      4  C   UNL     1       4.094  -3.741  36.484  1.00  0.00     0.000 C 
BRANCH   4   5
ATOM      5  C   UNL     1       4.038  -4.438  37.853  1.00  0.00     0.000 C 
BRANCH   5   6
ATOM      6  C   UNL     1       3.490  -3.490  38.928  1.00  0.00     0.000 C 
BRANCH   6   7
ATOM      7  C   UNL     1       2.692  -2.343  38.298  1.00  0.00     0.006 C 
BRANCH   7   8
ATOM      8  C   UNL     1       2.769  -1.081  39.164  1.00  0.00     0.053 C 
BRANCH   8   9
ATOM      9  C   UNL     1       2.176  -1.332  40.514  1.00  0.00     0.041 C 
ATOM     10  O   UNL     1       2.829  -1.052  41.554  1.00  0.00    -0.550 OA
ATOM     11  O   UNL     1       0.917  -1.906  40.626  1.00  0.00    -0.550 OA
ENDBRANCH   8   9
ENDBRANCH   7   8
ENDBRANCH   6   7
ENDBRANCH   5   6
ENDBRANCH   4   5
ENDBRANCH   3   4
ENDBRANCH   2   3
ENDBRANCH   1   2
BRANCH   1  12
ATOM     12  C   UNL     1       6.401  -0.074  35.985  1.00  0.00     0.000 C 
BRANCH  12  13
ATOM     13  C   UNL     1       7.868  -0.290  35.572  1.00  0.00    -0.000 C 
BRANCH  13  14
ATOM     14  C   UNL     1       8.244   0.298  34.198  1.00  0.00    -0.000 C 
BRANCH  14  15
ATOM     15  C   UNL     1       9.088   1.588  34.287  1.00  0.00    -0.000 C 
BRANCH  15  16
ATOM     16  C   UNL     1       9.574   1.872  35.719  1.00  0.00    -0.000 C 
BRANCH  16  17
ATOM     17  C   UNL     1      11.076   1.596  35.903  1.00  0.00    -0.000 C 
BRANCH  17  18
ATOM     18  C   UNL     1      11.954   2.436  34.960  1.00  0.00    -0.000 C 
BRANCH  18  19
ATOM     19  C   UNL     1      13.020   1.593  34.244  1.00  0.00    -0.003 C 
ATOM     20  C   UNL     1      12.878   0.096  34.520  1.00  0.00     0.004 C 
ENDBRANCH  18  19
ENDBRANCH  17  18
ENDBRANCH  16  17
ENDBRANCH  15  16
ENDBRANCH  14  15
ENDBRANCH  13  14
ENDBRANCH  12  13
ENDBRANCH   1  12
TORSDOF 16
ENDMDL
MODEL 7
REMARK VINA RESULT:    -5.309      3.986      9.732
REMARK INTER + INTRA:         -11.664
REMARK INTER:                 -10.539
REMARK INTRA:                  -1.125
REMARK UNBOUND:                -1.389
REMARK SMILES CCCCCCCCCCCCCCCCCC(=O)[O-]
REMARK SMILES IDX 10 1 11 2 12 3 13 4 14 5 15 6 16 7 17 8 18 9 19 10 20 11
REMARK SMILES IDX 9 12 8 13 7 14 6 15 5 16 4 17 3 18 2 19 1 20
REMARK H PARENT
REMARK Flexibility Score: inf
ROOT
ATOM      1  C   UNL     1       7.664  -0.496  35.258  1.00  0.00     0.000 C 
ENDROOT
BRANCH   1   2
ATOM      2  C   UNL     1       6.651   0.293  36.107  1.00  0.00     0.000 C 
BRANCH   2   3
ATOM      3  C   UNL     1       5.366  -0.502  36.397  1.00  0.00     0.000 C 
BRANCH   3   4
ATOM      4  C   UNL     1       5.594  -2.023  36.369  1.00  0.00     0.000 C 
BRANCH   4   5
ATOM      5  C   UNL     1       4.324  -2.820  36.705  1.00  0.00     0.000 C 
BRANCH   5   6
ATOM      6  C   UNL     1       4.401  -3.401  38.123  1.00  0.00     0.000 C 
BRANCH   6   7
ATOM      7  C   UNL     1       3.007  -3.519  38.747  1.00  0.00     0.006 C 
BRANCH   7   8
ATOM      8  C   UNL     1       2.986  -2.923  40.159  1.00  0.00     0.053 C 
BRANCH   8   9
ATOM      9  C   UNL     1       2.515  -1.504  40.124  1.00  0.00     0.041 C 
ATOM     10  O   UNL     1       2.675  -0.758  41.126  1.00  0.00    -0.550 OA
ATOM     11  O   UNL     1       1.869  -1.012  38.997  1.00  0.00    -0.550 OA
ENDBRANCH   8   9
ENDBRANCH   7   8
ENDBRANCH   6   7
ENDBRANCH   5   6
ENDBRANCH   4   5
ENDBRANCH   3   4
ENDBRANCH   2   3
ENDBRANCH   1   2
BRANCH   1  12
ATOM     12  C   UNL     1       8.187   0.237  34.004  1.00  0.00     0.000 C 
BRANCH  12  13
ATOM     13  C   UNL     1       9.066   1.469  34.286  1.00  0.00    -0.000 C 
BRANCH  13  14
ATOM     14  C   UNL     1      10.470   1.417  33.653  1.00  0.00    -0.000 C 
BRANCH  14  15
ATOM     15  C   UNL     1      11.395   0.354  34.286  1.00  0.00    -0.000 C 
BRANCH  15  16
ATOM     16  C   UNL     1      12.821   0.885  34.520  1.00  0.00    -0.000 C 
BRANCH  16  17
ATOM     17  C   UNL     1      12.892   1.918  35.657  1.00  0.00    -0.000 C 
BRANCH  17  18
ATOM     18  C   UNL     1      13.352   3.304  35.173  1.00  0.00    -0.000 C 
BRANCH  18  19
ATOM     19  C   UNL     1      13.582   3.349  33.655  1.00  0.00    -0.003 C 
ATOM     20  C   UNL     1      12.699   4.378  32.950  1.00  0.00     0.004 C 
ENDBRANCH  18  19
ENDBRANCH  17  18
ENDBRANCH  16  17
ENDBRANCH  15  16
ENDBRANCH  14  15
ENDBRANCH  13  14
ENDBRANCH  12  13
ENDBRANCH   1  12
TORSDOF 16
ENDMDL
MODEL 8
REMARK VINA RESULT:    -5.298      1.739      3.529
REMARK INTER + INTRA:         -11.643
REMARK INTER:                 -10.090
REMARK INTRA:                  -1.553
REMARK UNBOUND:                -1.389
REMARK SMILES CCCCCCCCCCCCCCCCCC(=O)[O-]
REMARK SMILES IDX 10 1 11 2 12 3 13 4 14 5 15 6 16 7 17 8 18 9 19 10 20 11
REMARK SMILES IDX 9 12 8 13 7 14 6 15 5 16 4 17 3 18 2 19 1 20
REMARK H PARENT
REMARK Flexibility Score: inf
ROOT
ATOM      1  C   UNL     1       5.270  -3.088  37.013  1.00  0.00     0.000 C 
ENDROOT
BRANCH   1   2
ATOM      2  C   UNL     1       6.264  -2.890  35.854  1.00  0.00     0.000 C 
BRANCH   2   3
ATOM      3  C   UNL     1       6.983  -1.531  35.909  1.00  0.00     0.000 C 
BRANCH   3   4
ATOM      4  C   UNL     1       7.585  -1.126  34.553  1.00  0.00     0.000 C 
BRANCH   4   5
ATOM      5  C   UNL     1       8.525   0.085  34.658  1.00  0.00     0.000 C 
BRANCH   5   6
ATOM      6  C   UNL     1       8.309   0.833  35.980  1.00  0.00     0.000 C 
BRANCH   6   7
ATOM      7  C   UNL     1       9.647   1.201  36.631  1.00  0.00     0.006 C 
BRANCH   7   8
ATOM      8  C   UNL     1      10.532   1.987  35.659  1.00  0.00     0.053 C 
BRANCH   8   9
ATOM      9  C   UNL     1      11.839   1.288  35.455  1.00  0.00     0.041 C 
ATOM     10  O   UNL     1      12.694   1.262  36.379  1.00  0.00    -0.550 OA
ATOM     11  O   UNL     1      12.128   0.693  34.234  1.00  0.00    -0.550 OA
ENDBRANCH   8   9
ENDBRANCH   7   8
ENDBRANCH   6   7
ENDBRANCH   5   6
ENDBRANCH   4   5
ENDBRANCH   3   4
ENDBRANCH   2   3
ENDBRANCH   1   2
BRANCH   1  12
ATOM     12  C   UNL     1       4.412  -4.370  36.936  1.00  0.00     0.000 C 
BRANCH  12  13
ATOM     13  C   UNL     1       3.770  -4.806  38.265  1.00  0.00    -0.000 C 
BRANCH  13  14
ATOM     14  C   UNL     1       2.569  -3.950  38.712  1.00  0.00    -0.000 C 
BRANCH  14  15
ATOM     15  C   UNL     1       2.771  -3.269  40.084  1.00  0.00    -0.000 C 
BRANCH  15  16
ATOM     16  C   UNL     1       2.599  -1.742  40.010  1.00  0.00    -0.000 C 
BRANCH  16  17
ATOM     17  C   UNL     1       1.499  -1.314  39.024  1.00  0.00    -0.000 C 
BRANCH  17  18
ATOM     18  C   UNL     1       2.039  -0.452  37.870  1.00  0.00    -0.000 C 
BRANCH  18  19
ATOM     19  C   UNL     1       3.483   0.015  38.111  1.00  0.00    -0.003 C 
ATOM     20  C   UNL     1       4.190   0.448  36.826  1.00  0.00     0.004 C 
ENDBRANCH  18  19
ENDBRANCH  17  18
ENDBRANCH  16  17
ENDBRANCH  15  16
ENDBRANCH  14  15
ENDBRANCH  13  14
ENDBRANCH  12  13
ENDBRANCH   1  12
TORSDOF 16
ENDMDL
MODEL 9
REMARK VINA RESULT:    -5.297      1.188      2.480
REMARK INTER + INTRA:         -11.640
REMARK INTER:                 -10.514
REMARK INTRA:                  -1.126
REMARK UNBOUND:                -1.389
REMARK SMILES CCCCCCCCCCCCCCCCCC(=O)[O-]
REMARK SMILES IDX 10 1 11 2 12 3 13 4 14 5 15 6 16 7 17 8 18 9 19 10 20 11
REMARK SMILES IDX 9 12 8 13 7 14 6 15 5 16 4 17 3 18 2 19 1 20
REMARK H PARENT
REMARK Flexibility Score: inf
ROOT
ATOM      1  C   UNL     1       6.082   0.406  36.341  1.00  0.00     0.000 C 
ENDROOT
BRANCH   1   2
ATOM      2  C   UNL     1       7.160  -0.412  35.608  1.00  0.00     0.000 C 
BRANCH   2   3
ATOM      3  C   UNL     1       8.191   0.471  34.884  1.00  0.00     0.000 C 
BRANCH   3   4
ATOM      4  C   UNL     1       9.121  -0.339  33.965  1.00  0.00     0.000 C 
BRANCH   4   5
ATOM      5  C   UNL     1      10.575   0.156  34.007  1.00  0.00     0.000 C 
BRANCH   5   6
ATOM      6  C   UNL     1      10.632   1.674  34.216  1.00  0.00     0.000 C 
BRANCH   6   7
ATOM      7  C   UNL     1      11.962   2.251  33.719  1.00  0.00     0.006 C 
BRANCH   7   8
ATOM      8  C   UNL     1      12.117   3.715  34.142  1.00  0.00     0.053 C 
BRANCH   8   9
ATOM      9  C   UNL     1      12.694   3.808  35.519  1.00  0.00     0.041 C 
ATOM     10  O   UNL     1      13.444   2.894  35.954  1.00  0.00    -0.550 OA
ATOM     11  O   UNL     1      12.379   4.886  36.335  1.00  0.00    -0.550 OA
ENDBRANCH   8   9
ENDBRANCH   7   8
ENDBRANCH   6   7
ENDBRANCH   5   6
ENDBRANCH   4   5
ENDBRANCH   3   4
ENDBRANCH   2   3
ENDBRANCH   1   2
BRANCH   1  12
ATOM     12  C   UNL     1       4.812  -0.379  36.736  1.00  0.00     0.000 C 
BRANCH  12  13
ATOM     13  C   UNL     1       3.714   0.457  37.419  1.00  0.00    -0.000 C 
BRANCH  13  14
ATOM     14  C   UNL     1       2.536  -0.363  37.980  1.00  0.00    -0.000 C 
BRANCH  14  15
ATOM     15  C   UNL     1       2.735  -0.812  39.444  1.00  0.00    -0.000 C 
BRANCH  15  16
ATOM     16  C   UNL     1       2.149  -2.209  39.713  1.00  0.00    -0.000 C 
BRANCH  16  17
ATOM     17  C   UNL     1       3.229  -3.301  39.795  1.00  0.00    -0.000 C 
BRANCH  17  18
ATOM     18  C   UNL     1       3.282  -4.180  38.534  1.00  0.00    -0.000 C 
BRANCH  18  19
ATOM     19  C   UNL     1       4.443  -3.801  37.602  1.00  0.00    -0.003 C 
ATOM     20  C   UNL     1       4.082  -3.928  36.121  1.00  0.00     0.004 C 
ENDBRANCH  18  19
ENDBRANCH  17  18
ENDBRANCH  16  17
ENDBRANCH  15  16
ENDBRANCH  14  15
ENDBRANCH  13  14
ENDBRANCH  12  13
ENDBRANCH   1  12
TORSDOF 16
ENDMDL
