MODEL 1
REMARK VINA RESULT:    -3.553      0.000      0.000
REMARK INTER + INTRA:          -3.933
REMARK INTER:                  -3.968
REMARK INTRA:                   0.035
REMARK UNBOUND:                 0.035
REMARK SMILES CCCC(=O)[O-]
REMARK SMILES IDX 3 1 4 2 5 3 6 4 2 5 1 6
REMARK H PARENT
REMARK Flexibility Score: inf
ROOT
ATOM      1  C   UNL     1     -10.856   2.161  -9.377  1.00  0.00     0.052 C 
ENDROOT
BRANCH   1   2
ATOM      2  C   UNL     1     -11.265   0.741  -9.611  1.00  0.00     0.041 C 
ATOM      3  O   UNL     1     -10.395  -0.167  -9.667  1.00  0.00    -0.550 OA
ATOM      4  O   UNL     1     -12.610   0.414  -9.719  1.00  0.00    -0.550 OA
ENDBRANCH   1   2
BRANCH   1   5
ATOM      5  C   UNL     1     -11.941   3.120  -9.875  1.00  0.00     0.003 C 
ATOM      6  C   UNL     1     -12.837   3.582  -8.730  1.00  0.00     0.004 C 
ENDBRANCH   1   5
TORSDOF 2
ENDMDL
MODEL 2
REMARK VINA RESULT:    -3.417      1.901      3.125
REMARK INTER + INTRA:          -3.781
REMARK INTER:                  -3.877
REMARK INTRA:                   0.096
REMARK UNBOUND:                 0.035
REMARK SMILES CCCC(=O)[O-]
REMARK SMILES IDX 3 1 4 2 5 3 6 4 2 5 1 6
REMARK H PARENT
REMARK Flexibility Score: inf
ROOT
ATOM      1  C   UNL     1     -11.449   2.881  -8.931  1.00  0.00     0.052 C 
ENDROOT
BRANCH   1   2
ATOM      2  C   UNL     1     -12.906   3.079  -9.210  1.00  0.00     0.041 C 
ATOM      3  O   UNL     1     -13.450   4.190  -8.979  1.00  0.00    -0.550 OA
ATOM      4  O   UNL     1     -13.651   2.050  -9.769  1.00  0.00    -0.550 OA
ENDBRANCH   1   2
BRANCH   1   5
ATOM      5  C   UNL     1     -10.801   2.041 -10.034  1.00  0.00     0.003 C 
ATOM      6  C   UNL     1     -10.793   0.561  -9.668  1.00  0.00     0.004 C 
ENDBRANCH   1   5
TORSDOF 2
ENDMDL
MODEL 3
REMARK VINA RESULT:    -3.241      2.576      2.972
REMARK INTER + INTRA:          -3.585
REMARK INTER:                  -3.571
REMARK INTRA:                  -0.014
REMARK UNBOUND:                 0.035
REMARK SMILES CCCC(=O)[O-]
REMARK SMILES IDX 3 1 4 2 5 3 6 4 2 5 1 6
REMARK H PARENT
REMARK Flexibility Score: inf
ROOT
ATOM      1  C   UNL     1     -13.494   2.145  -9.471  1.00  0.00     0.052 C 
ENDROOT
BRANCH   1   2
ATOM      2  C   UNL     1     -12.008   2.313  -9.515  1.00  0.00     0.041 C 
ATOM      3  O   UNL     1     -11.497   3.457  -9.396  1.00  0.00    -0.550 OA
ATOM      4  O   UNL     1     -11.187   1.201  -9.641  1.00  0.00    -0.550 OA
ENDBRANCH   1   2
BRANCH   1   5
ATOM      5  C   UNL     1     -13.875   0.680  -9.698  1.00  0.00     0.003 C 
ATOM      6  C   UNL     1     -15.213   0.350  -9.043  1.00  0.00     0.004 C 
ENDBRANCH   1   5
TORSDOF 2
ENDMDL
MODEL 4
REMARK VINA RESULT:    -3.054      3.984      5.195
REMARK INTER + INTRA:          -3.376
REMARK INTER:                  -3.369
REMARK INTRA:                  -0.008
REMARK UNBOUND:                 0.035
REMARK SMILES CCCC(=O)[O-]
REMARK SMILES IDX 3 1 4 2 5 3 6 4 2 5 1 6
REMARK H PARENT
REMARK Flexibility Score: inf
ROOT
ATOM      1  C   UNL     1      -9.463  -2.390  -8.865  1.00  0.00     0.052 C 
ENDROOT
BRANCH   1   2
ATOM      2  C   UNL     1      -9.190  -3.839  -9.115  1.00  0.00     0.041 C 
ATOM      3  O   UNL     1     -10.143  -4.643  -9.289  1.00  0.00    -0.550 OA
ATOM      4  O   UNL     1      -7.881  -4.294  -9.206  1.00  0.00    -0.550 OA
ENDBRANCH   1   2
BRANCH   1   5
ATOM      5  C   UNL     1     -10.138  -1.753 -10.082  1.00  0.00     0.003 C 
ATOM      6  C   UNL     1     -10.618  -0.340  -9.770  1.00  0.00     0.004 C 
ENDBRANCH   1   5
TORSDOF 2
ENDMDL
MODEL 5
REMARK VINA RESULT:    -3.006     16.290     16.761
REMARK INTER + INTRA:          -3.322
REMARK INTER:                  -3.288
REMARK INTRA:                  -0.035
REMARK UNBOUND:                 0.035
REMARK SMILES CCCC(=O)[O-]
REMARK SMILES IDX 3 1 4 2 5 3 6 4 2 5 1 6
REMARK H PARENT
REMARK Flexibility Score: inf
ROOT
ATOM      1  C   UNL     1     -11.307   3.012   7.410  1.00  0.00     0.052 C 
ENDROOT
BRANCH   1   2
ATOM      2  C   UNL     1     -12.310   2.981   6.301  1.00  0.00     0.041 C 
ATOM      3  O   UNL     1     -12.062   2.349   5.240  1.00  0.00    -0.550 OA
ATOM      4  O   UNL     1     -13.538   3.609   6.457  1.00  0.00    -0.550 OA
ENDBRANCH   1   2
BRANCH   1   5
ATOM      5  C   UNL     1     -10.931   4.455   7.753  1.00  0.00     0.003 C 
ATOM      6  C   UNL     1     -11.242   4.775   9.212  1.00  0.00     0.004 C 
ENDBRANCH   1   5
TORSDOF 2
ENDMDL
MODEL 6
REMARK VINA RESULT:    -2.966     15.658     16.145
REMARK INTER + INTRA:          -3.278
REMARK INTER:                  -3.261
REMARK INTRA:                  -0.017
REMARK UNBOUND:                 0.035
REMARK SMILES CCCC(=O)[O-]
REMARK SMILES IDX 3 1 4 2 5 3 6 4 2 5 1 6
REMARK H PARENT
REMARK Flexibility Score: inf
ROOT
ATOM      1  C   UNL     1     -10.498   4.727   6.795  1.00  0.00     0.052 C 
ENDROOT
BRANCH   1   2
ATOM      2  C   UNL     1     -10.567   4.962   5.319  1.00  0.00     0.041 C 
ATOM      3  O   UNL     1      -9.822   5.820   4.779  1.00  0.00    -0.550 OA
ATOM      4  O   UNL     1     -11.420   4.199   4.534  1.00  0.00    -0.550 OA
ENDBRANCH   1   2
BRANCH   1   5
ATOM      5  C   UNL     1     -11.225   3.432   7.167  1.00  0.00     0.003 C 
ATOM      6  C   UNL     1     -11.849   3.529   8.555  1.00  0.00     0.004 C 
ENDBRANCH   1   5
TORSDOF 2
ENDMDL
MODEL 7
REMARK VINA RESULT:    -2.963     15.125     15.648
REMARK INTER + INTRA:          -3.275
REMARK INTER:                  -3.261
REMARK INTRA:                  -0.013
REMARK UNBOUND:                 0.035
REMARK SMILES CCCC(=O)[O-]
REMARK SMILES IDX 3 1 4 2 5 3 6 4 2 5 1 6
REMARK H PARENT
REMARK Flexibility Score: inf
ROOT
ATOM      1  C   UNL     1     -12.020   2.752   5.873  1.00  0.00     0.052 C 
ENDROOT
BRANCH   1   2
ATOM      2  C   UNL     1     -11.920   3.757   4.770  1.00  0.00     0.041 C 
ATOM      3  O   UNL     1     -12.747   3.739   3.820  1.00  0.00    -0.550 OA
ATOM      4  O   UNL     1     -10.943   4.742   4.814  1.00  0.00    -0.550 OA
ENDBRANCH   1   2
BRANCH   1   5
ATOM      5  C   UNL     1     -11.260   3.235   7.110  1.00  0.00     0.003 C 
ATOM      6  C   UNL     1     -12.016   2.894   8.390  1.00  0.00     0.004 C 
ENDBRANCH   1   5
TORSDOF 2
ENDMDL
MODEL 8
REMARK VINA RESULT:    -2.938     20.473     20.941
REMARK INTER + INTRA:          -3.247
REMARK INTER:                  -3.209
REMARK INTRA:                  -0.039
REMARK UNBOUND:                 0.035
REMARK SMILES CCCC(=O)[O-]
REMARK SMILES IDX 3 1 4 2 5 3 6 4 2 5 1 6
REMARK H PARENT
REMARK Flexibility Score: inf
ROOT
ATOM      1  C   UNL     1      -1.580  12.717   5.311  1.00  0.00     0.052 C 
ENDROOT
BRANCH   1   2
ATOM      2  C   UNL     1      -0.116  12.698   5.006  1.00  0.00     0.041 C 
ATOM      3  O   UNL     1       0.298  13.034   3.865  1.00  0.00    -0.550 OA
ATOM      4  O   UNL     1       0.796  12.355   5.995  1.00  0.00    -0.550 OA
ENDBRANCH   1   2
BRANCH   1   5
ATOM      5  C   UNL     1      -2.363  11.971   4.228  1.00  0.00     0.003 C 
ATOM      6  C   UNL     1      -3.280  12.916   3.460  1.00  0.00     0.004 C 
ENDBRANCH   1   5
TORSDOF 2
ENDMDL
MODEL 9
REMARK VINA RESULT:    -2.876      7.614      8.347
REMARK INTER + INTRA:          -3.178
REMARK INTER:                  -3.166
REMARK INTRA:                  -0.012
REMARK UNBOUND:                 0.035
REMARK SMILES CCCC(=O)[O-]
REMARK SMILES IDX 3 1 4 2 5 3 6 4 2 5 1 6
REMARK H PARENT
REMARK Flexibility Score: inf
ROOT
ATOM      1  C   UNL     1      -9.731  -5.211  -7.511  1.00  0.00     0.052 C 
ENDROOT
BRANCH   1   2
ATOM      2  C   UNL     1      -8.746  -5.691  -8.528  1.00  0.00     0.041 C 
ATOM      3  O   UNL     1      -8.744  -6.897  -8.888  1.00  0.00    -0.550 OA
ATOM      4  O   UNL     1      -7.861  -4.796  -9.115  1.00  0.00    -0.550 OA
ENDBRANCH   1   2
BRANCH   1   5
ATOM      5  C   UNL     1     -10.191  -6.369  -6.621  1.00  0.00     0.003 C 
ATOM      6  C   UNL     1     -10.490  -5.891  -5.204  1.00  0.00     0.004 C 
ENDBRANCH   1   5
TORSDOF 2
ENDMDL
