MODEL 1
REMARK VINA RESULT:    -6.833      0.000      0.000
REMARK INTER + INTRA:          -8.780
REMARK INTER:                  -8.430
REMARK INTRA:                  -0.349
REMARK UNBOUND:                -0.349
REMARK SMILES O=c1c(O)c(-c2cc(O)c(O)c(O)c2)oc2cc(O)cc(O)c12
REMARK SMILES IDX 5 1 3 2 2 3 1 4 23 5 21 6 20 7 18 8 17 9 16 10 15 11 6 12
REMARK SMILES IDX 7 13 8 14 14 15 10 16 12 17 9 18 11 20 13 22 4 24 22 26
REMARK SMILES IDX 19 28
REMARK H PARENT 9 19 11 21 13 23 4 25 22 27 19 29
REMARK Flexibility Score: inf
ROOT
ATOM      1  C   UNL     1      -0.693  24.994  29.020  1.00  0.00     0.180 A 
ATOM      2  C   UNL     1      -0.097  23.822  28.525  1.00  0.00     0.208 A 
ATOM      3  C   UNL     1       1.260  23.847  28.167  1.00  0.00     0.238 A 
ATOM      4  O   UNL     1       1.768  22.816  27.655  1.00  0.00    -0.285 OA
ATOM      5  C   UNL     1       2.019  25.026  28.361  1.00  0.00     0.111 A 
ATOM      6  C   UNL     1       3.413  25.152  28.077  1.00  0.00     0.134 A 
ATOM      7  C   UNL     1       4.035  26.399  28.209  1.00  0.00     0.093 A 
ATOM      8  C   UNL     1       3.332  27.509  28.676  1.00  0.00     0.123 A 
ATOM      9  C   UNL     1       1.983  27.385  29.009  1.00  0.00     0.094 A 
ATOM     10  C   UNL     1       1.325  26.163  28.852  1.00  0.00     0.146 A 
ATOM     11  O   UNL     1       0.036  26.095  29.161  1.00  0.00    -0.452 OA
ENDROOT
BRANCH   1  12
ATOM     12  C   UNL     1      -2.122  25.051  29.405  1.00  0.00     0.029 A 
ATOM     13  C   UNL     1      -2.555  24.637  30.677  1.00  0.00     0.062 A 
ATOM     14  C   UNL     1      -3.915  24.675  31.013  1.00  0.00     0.162 A 
ATOM     15  C   UNL     1      -3.073  25.471  28.463  1.00  0.00     0.062 A 
ATOM     16  C   UNL     1      -4.858  25.119  30.070  1.00  0.00     0.200 A 
ATOM     17  C   UNL     1      -4.435  25.513  28.795  1.00  0.00     0.162 A 
BRANCH  14  18
ATOM     18  O   UNL     1      -4.333  24.268  32.279  1.00  0.00    -0.504 OA
ATOM     19  H   UNL     1      -3.796  24.482  33.111  1.00  0.00     0.293 HD
ENDBRANCH  14  18
BRANCH  16  20
ATOM     20  O   UNL     1      -6.217  25.170  30.384  1.00  0.00    -0.502 OA
ATOM     21  H   UNL     1      -6.856  24.426  30.132  1.00  0.00     0.293 HD
ENDBRANCH  16  20
BRANCH  17  22
ATOM     22  O   UNL     1      -5.374  25.945  27.860  1.00  0.00    -0.504 OA
ATOM     23  H   UNL     1      -6.213  26.439  28.140  1.00  0.00     0.293 HD
ENDBRANCH  17  22
ENDBRANCH   1  12
BRANCH   2  24
ATOM     24  O   UNL     1      -0.845  22.646  28.413  1.00  0.00    -0.502 OA
ATOM     25  H   UNL     1      -1.090  22.078  29.216  1.00  0.00     0.293 HD
ENDBRANCH   2  24
BRANCH   6  26
ATOM     26  O   UNL     1       4.232  24.087  27.689  1.00  0.00    -0.507 OA
ATOM     27  H   UNL     1       5.089  24.177  27.166  1.00  0.00     0.293 HD
ENDBRANCH   6  26
BRANCH   8  28
ATOM     28  O   UNL     1       3.989  28.730  28.811  1.00  0.00    -0.508 OA
ATOM     29  H   UNL     1       4.086  29.369  28.030  1.00  0.00     0.293 HD
ENDBRANCH   8  28
TORSDOF 7
ENDMDL
MODEL 2
REMARK VINA RESULT:    -6.793      0.190      1.747
REMARK INTER + INTRA:          -8.731
REMARK INTER:                  -8.431
REMARK INTRA:                  -0.300
REMARK UNBOUND:                -0.349
REMARK SMILES O=c1c(O)c(-c2cc(O)c(O)c(O)c2)oc2cc(O)cc(O)c12
REMARK SMILES IDX 5 1 3 2 2 3 1 4 23 5 21 6 20 7 18 8 17 9 16 10 15 11 6 12
REMARK SMILES IDX 7 13 8 14 14 15 10 16 12 17 9 18 11 20 13 22 4 24 22 26
REMARK SMILES IDX 19 28
REMARK H PARENT 9 19 11 21 13 23 4 25 22 27 19 29
REMARK Flexibility Score: inf
ROOT
ATOM      1  C   UNL     1      -0.788  24.952  29.007  1.00  0.00     0.180 A 
ATOM      2  C   UNL     1      -0.180  23.779  28.526  1.00  0.00     0.208 A 
ATOM      3  C   UNL     1       1.176  23.816  28.163  1.00  0.00     0.238 A 
ATOM      4  O   UNL     1       1.695  22.784  27.664  1.00  0.00    -0.285 OA
ATOM      5  C   UNL     1       1.922  25.006  28.340  1.00  0.00     0.111 A 
ATOM      6  C   UNL     1       3.313  25.145  28.050  1.00  0.00     0.134 A 
ATOM      7  C   UNL     1       3.921  26.401  28.163  1.00  0.00     0.093 A 
ATOM      8  C   UNL     1       3.206  27.509  28.617  1.00  0.00     0.123 A 
ATOM      9  C   UNL     1       1.860  27.374  28.956  1.00  0.00     0.094 A 
ATOM     10  C   UNL     1       1.216  26.142  28.818  1.00  0.00     0.146 A 
ATOM     11  O   UNL     1      -0.071  26.062  29.131  1.00  0.00    -0.452 OA
ENDROOT
BRANCH   1  12
ATOM     12  C   UNL     1      -2.216  24.996  29.395  1.00  0.00     0.029 A 
ATOM     13  C   UNL     1      -3.175  25.632  28.588  1.00  0.00     0.062 A 
ATOM     14  C   UNL     1      -4.518  25.685  28.984  1.00  0.00     0.162 A 
ATOM     15  C   UNL     1      -2.615  24.442  30.621  1.00  0.00     0.062 A 
ATOM     16  C   UNL     1      -4.912  25.107  30.203  1.00  0.00     0.200 A 
ATOM     17  C   UNL     1      -3.958  24.490  31.021  1.00  0.00     0.162 A 
BRANCH  14  18
ATOM     18  O   UNL     1      -5.462  26.314  28.174  1.00  0.00    -0.504 OA
ATOM     19  H   UNL     1      -5.579  27.320  28.175  1.00  0.00     0.293 HD
ENDBRANCH  14  18
BRANCH  16  20
ATOM     20  O   UNL     1      -6.244  25.143  30.617  1.00  0.00    -0.502 OA
ATOM     21  H   UNL     1      -6.504  25.199  31.594  1.00  0.00     0.293 HD
ENDBRANCH  16  20
BRANCH  17  22
ATOM     22  O   UNL     1      -4.351  23.925  32.233  1.00  0.00    -0.504 OA
ATOM     23  H   UNL     1      -3.685  23.742  32.975  1.00  0.00     0.293 HD
ENDBRANCH  17  22
ENDBRANCH   1  12
BRANCH   2  24
ATOM     24  O   UNL     1      -0.914  22.593  28.432  1.00  0.00    -0.502 OA
ATOM     25  H   UNL     1      -0.484  21.680  28.517  1.00  0.00     0.293 HD
ENDBRANCH   2  24
BRANCH   6  26
ATOM     26  O   UNL     1       4.144  24.085  27.673  1.00  0.00    -0.507 OA
ATOM     27  H   UNL     1       4.781  23.602  28.288  1.00  0.00     0.293 HD
ENDBRANCH   6  26
BRANCH   8  28
ATOM     28  O   UNL     1       3.848  28.740  28.734  1.00  0.00    -0.508 OA
ATOM     29  H   UNL     1       3.343  29.578  28.999  1.00  0.00     0.293 HD
ENDBRANCH   8  28
TORSDOF 7
ENDMDL
MODEL 3
REMARK VINA RESULT:    -6.237      2.545      6.348
REMARK INTER + INTRA:          -8.044
REMARK INTER:                  -7.718
REMARK INTRA:                  -0.326
REMARK UNBOUND:                -0.349
REMARK SMILES O=c1c(O)c(-c2cc(O)c(O)c(O)c2)oc2cc(O)cc(O)c12
REMARK SMILES IDX 5 1 3 2 2 3 1 4 23 5 21 6 20 7 18 8 17 9 16 10 15 11 6 12
REMARK SMILES IDX 7 13 8 14 14 15 10 16 12 17 9 18 11 20 13 22 4 24 22 26
REMARK SMILES IDX 19 28
REMARK H PARENT 9 19 11 21 13 23 4 25 22 27 19 29
REMARK Flexibility Score: inf
ROOT
ATOM      1  C   UNL     1      -0.627  25.352  28.085  1.00  0.00     0.180 A 
ATOM      2  C   UNL     1      -1.124  24.117  27.634  1.00  0.00     0.208 A 
ATOM      3  C   UNL     1      -1.867  23.318  28.519  1.00  0.00     0.238 A 
ATOM      4  O   UNL     1      -2.246  22.182  28.133  1.00  0.00    -0.285 OA
ATOM      5  C   UNL     1      -2.151  23.788  29.824  1.00  0.00     0.111 A 
ATOM      6  C   UNL     1      -2.932  23.084  30.790  1.00  0.00     0.134 A 
ATOM      7  C   UNL     1      -3.058  23.599  32.086  1.00  0.00     0.093 A 
ATOM      8  C   UNL     1      -2.486  24.822  32.434  1.00  0.00     0.123 A 
ATOM      9  C   UNL     1      -1.766  25.546  31.483  1.00  0.00     0.094 A 
ATOM     10  C   UNL     1      -1.591  25.041  30.192  1.00  0.00     0.146 A 
ATOM     11  O   UNL     1      -0.882  25.752  29.325  1.00  0.00    -0.452 OA
ENDROOT
BRANCH   1  12
ATOM     12  C   UNL     1       0.177  26.242  27.216  1.00  0.00     0.029 A 
ATOM     13  C   UNL     1       1.575  26.321  27.342  1.00  0.00     0.062 A 
ATOM     14  C   UNL     1       2.315  27.189  26.527  1.00  0.00     0.162 A 
ATOM     15  C   UNL     1      -0.473  27.066  26.285  1.00  0.00     0.062 A 
ATOM     16  C   UNL     1       1.657  27.994  25.582  1.00  0.00     0.200 A 
ATOM     17  C   UNL     1       0.263  27.933  25.466  1.00  0.00     0.162 A 
BRANCH  14  18
ATOM     18  O   UNL     1       3.701  27.256  26.656  1.00  0.00    -0.504 OA
ATOM     19  H   UNL     1       4.171  28.119  26.903  1.00  0.00     0.293 HD
ENDBRANCH  14  18
BRANCH  16  20
ATOM     20  O   UNL     1       2.373  28.861  24.756  1.00  0.00    -0.502 OA
ATOM     21  H   UNL     1       2.125  29.007  23.785  1.00  0.00     0.293 HD
ENDBRANCH  16  20
BRANCH  17  22
ATOM     22  O   UNL     1      -0.387  28.740  24.533  1.00  0.00    -0.504 OA
ATOM     23  H   UNL     1      -0.070  28.802  23.572  1.00  0.00     0.293 HD
ENDBRANCH  17  22
ENDBRANCH   1  12
BRANCH   2  24
ATOM     24  O   UNL     1      -0.898  23.705  26.318  1.00  0.00    -0.502 OA
ATOM     25  H   UNL     1      -0.484  24.314  25.621  1.00  0.00     0.293 HD
ENDBRANCH   2  24
BRANCH   6  26
ATOM     26  O   UNL     1      -3.621  21.897  30.524  1.00  0.00    -0.507 OA
ATOM     27  H   UNL     1      -3.323  20.977  30.812  1.00  0.00     0.293 HD
ENDBRANCH   6  26
BRANCH   8  28
ATOM     28  O   UNL     1      -2.646  25.312  33.728  1.00  0.00    -0.508 OA
ATOM     29  H   UNL     1      -3.146  26.174  33.910  1.00  0.00     0.293 HD
ENDBRANCH   8  28
TORSDOF 7
ENDMDL
MODEL 4
REMARK VINA RESULT:    -6.225      2.560      6.523
REMARK INTER + INTRA:          -8.031
REMARK INTER:                  -7.752
REMARK INTRA:                  -0.278
REMARK UNBOUND:                -0.349
REMARK SMILES O=c1c(O)c(-c2cc(O)c(O)c(O)c2)oc2cc(O)cc(O)c12
REMARK SMILES IDX 5 1 3 2 2 3 1 4 23 5 21 6 20 7 18 8 17 9 16 10 15 11 6 12
REMARK SMILES IDX 7 13 8 14 14 15 10 16 12 17 9 18 11 20 13 22 4 24 22 26
REMARK SMILES IDX 19 28
REMARK H PARENT 9 19 11 21 13 23 4 25 22 27 19 29
REMARK Flexibility Score: inf
ROOT
ATOM      1  C   UNL     1      -0.612  25.353  28.084  1.00  0.00     0.180 A 
ATOM      2  C   UNL     1      -1.167  24.166  27.576  1.00  0.00     0.208 A 
ATOM      3  C   UNL     1      -1.898  23.334  28.439  1.00  0.00     0.238 A 
ATOM      4  O   UNL     1      -2.329  22.237  27.997  1.00  0.00    -0.285 OA
ATOM      5  C   UNL     1      -2.113  23.724  29.782  1.00  0.00     0.111 A 
ATOM      6  C   UNL     1      -2.876  22.981  30.733  1.00  0.00     0.134 A 
ATOM      7  C   UNL     1      -2.931  23.413  32.064  1.00  0.00     0.093 A 
ATOM      8  C   UNL     1      -2.307  24.593  32.465  1.00  0.00     0.123 A 
ATOM      9  C   UNL     1      -1.604  25.356  31.533  1.00  0.00     0.094 A 
ATOM     10  C   UNL     1      -1.498  24.933  30.206  1.00  0.00     0.146 A 
ATOM     11  O   UNL     1      -0.803  25.678  29.357  1.00  0.00    -0.452 OA
ENDROOT
BRANCH   1  12
ATOM     12  C   UNL     1       0.183  26.275  27.240  1.00  0.00     0.029 A 
ATOM     13  C   UNL     1      -0.425  27.080  26.261  1.00  0.00     0.062 A 
ATOM     14  C   UNL     1       0.348  27.928  25.456  1.00  0.00     0.162 A 
ATOM     15  C   UNL     1       1.579  26.306  27.380  1.00  0.00     0.062 A 
ATOM     16  C   UNL     1       1.743  27.969  25.619  1.00  0.00     0.200 A 
ATOM     17  C   UNL     1       2.356  27.154  26.579  1.00  0.00     0.162 A 
BRANCH  14  18
ATOM     18  O   UNL     1      -0.265  28.726  24.492  1.00  0.00    -0.504 OA
ATOM     19  H   UNL     1      -0.175  29.735  24.501  1.00  0.00     0.293 HD
ENDBRANCH  14  18
BRANCH  16  20
ATOM     20  O   UNL     1       2.533  28.808  24.832  1.00  0.00    -0.502 OA
ATOM     21  H   UNL     1       3.519  28.635  24.682  1.00  0.00     0.293 HD
ENDBRANCH  16  20
BRANCH  17  22
ATOM     22  O   UNL     1       3.741  27.191  26.732  1.00  0.00    -0.504 OA
ATOM     23  H   UNL     1       4.357  26.659  26.128  1.00  0.00     0.293 HD
ENDBRANCH  17  22
ENDBRANCH   1  12
BRANCH   2  24
ATOM     24  O   UNL     1      -1.009  23.836  26.227  1.00  0.00    -0.502 OA
ATOM     25  H   UNL     1      -1.526  24.301  25.489  1.00  0.00     0.293 HD
ENDBRANCH   2  24
BRANCH   6  26
ATOM     26  O   UNL     1      -3.614  21.835  30.421  1.00  0.00    -0.507 OA
ATOM     27  H   UNL     1      -4.502  21.831  29.943  1.00  0.00     0.293 HD
ENDBRANCH   6  26
BRANCH   8  28
ATOM     28  O   UNL     1      -2.397  25.001  33.794  1.00  0.00    -0.508 OA
ATOM     29  H   UNL     1      -1.570  25.208  34.342  1.00  0.00     0.293 HD
ENDBRANCH   8  28
TORSDOF 7
ENDMDL
MODEL 5
REMARK VINA RESULT:    -6.129      2.423      3.386
REMARK INTER + INTRA:          -7.911
REMARK INTER:                  -7.556
REMARK INTRA:                  -0.356
REMARK UNBOUND:                -0.349
REMARK SMILES O=c1c(O)c(-c2cc(O)c(O)c(O)c2)oc2cc(O)cc(O)c12
REMARK SMILES IDX 5 1 3 2 2 3 1 4 23 5 21 6 20 7 18 8 17 9 16 10 15 11 6 12
REMARK SMILES IDX 7 13 8 14 14 15 10 16 12 17 9 18 11 20 13 22 4 24 22 26
REMARK SMILES IDX 19 28
REMARK H PARENT 9 19 11 21 13 23 4 25 22 27 19 29
REMARK Flexibility Score: inf
ROOT
ATOM      1  C   UNL     1      -1.441  25.667  28.442  1.00  0.00     0.180 A 
ATOM      2  C   UNL     1      -2.117  26.285  27.375  1.00  0.00     0.208 A 
ATOM      3  C   UNL     1      -1.371  26.976  26.407  1.00  0.00     0.238 A 
ATOM      4  O   UNL     1      -1.987  27.589  25.496  1.00  0.00    -0.285 OA
ATOM      5  C   UNL     1       0.042  26.995  26.485  1.00  0.00     0.111 A 
ATOM      6  C   UNL     1       0.901  27.626  25.534  1.00  0.00     0.134 A 
ATOM      7  C   UNL     1       2.280  27.671  25.772  1.00  0.00     0.093 A 
ATOM      8  C   UNL     1       2.839  27.054  26.890  1.00  0.00     0.123 A 
ATOM      9  C   UNL     1       2.016  26.386  27.797  1.00  0.00     0.094 A 
ATOM     10  C   UNL     1       0.632  26.356  27.608  1.00  0.00     0.146 A 
ATOM     11  O   UNL     1      -0.116  25.729  28.506  1.00  0.00    -0.452 OA
ENDROOT
BRANCH   1  12
ATOM     12  C   UNL     1      -2.158  24.932  29.508  1.00  0.00     0.029 A 
ATOM     13  C   UNL     1      -2.501  25.554  30.722  1.00  0.00     0.062 A 
ATOM     14  C   UNL     1      -3.158  24.834  31.730  1.00  0.00     0.162 A 
ATOM     15  C   UNL     1      -2.452  23.572  29.331  1.00  0.00     0.062 A 
ATOM     16  C   UNL     1      -3.469  23.478  31.533  1.00  0.00     0.200 A 
ATOM     17  C   UNL     1      -3.111  22.849  30.334  1.00  0.00     0.162 A 
BRANCH  14  18
ATOM     18  O   UNL     1      -3.499  25.461  32.927  1.00  0.00    -0.504 OA
ATOM     19  H   UNL     1      -2.858  25.496  33.711  1.00  0.00     0.293 HD
ENDBRANCH  14  18
BRANCH  16  20
ATOM     20  O   UNL     1      -4.127  22.742  32.520  1.00  0.00    -0.502 OA
ATOM     21  H   UNL     1      -4.950  23.093  32.994  1.00  0.00     0.293 HD
ENDBRANCH  16  20
BRANCH  17  22
ATOM     22  O   UNL     1      -3.414  21.501  30.146  1.00  0.00    -0.504 OA
ATOM     23  H   UNL     1      -4.147  21.042  30.675  1.00  0.00     0.293 HD
ENDBRANCH  17  22
ENDBRANCH   1  12
BRANCH   2  24
ATOM     24  O   UNL     1      -3.508  26.189  27.274  1.00  0.00    -0.502 OA
ATOM     25  H   UNL     1      -4.107  27.006  27.229  1.00  0.00     0.293 HD
ENDBRANCH   2  24
BRANCH   6  26
ATOM     26  O   UNL     1       0.458  28.198  24.338  1.00  0.00    -0.507 OA
ATOM     27  H   UNL     1       0.770  27.930  23.417  1.00  0.00     0.293 HD
ENDBRANCH   6  26
BRANCH   8  28
ATOM     28  O   UNL     1       4.217  27.104  27.085  1.00  0.00    -0.508 OA
ATOM     29  H   UNL     1       4.790  27.813  26.643  1.00  0.00     0.293 HD
ENDBRANCH   8  28
TORSDOF 7
ENDMDL
MODEL 6
REMARK VINA RESULT:    -5.943      1.574      7.431
REMARK INTER + INTRA:          -7.682
REMARK INTER:                  -7.401
REMARK INTRA:                  -0.281
REMARK UNBOUND:                -0.349
REMARK SMILES O=c1c(O)c(-c2cc(O)c(O)c(O)c2)oc2cc(O)cc(O)c12
REMARK SMILES IDX 5 1 3 2 2 3 1 4 23 5 21 6 20 7 18 8 17 9 16 10 15 11 6 12
REMARK SMILES IDX 7 13 8 14 14 15 10 16 12 17 9 18 11 20 13 22 4 24 22 26
REMARK SMILES IDX 19 28
REMARK H PARENT 9 19 11 21 13 23 4 25 22 27 19 29
REMARK Flexibility Score: inf
ROOT
ATOM      1  C   UNL     1      -2.065  24.749  29.497  1.00  0.00     0.180 A 
ATOM      2  C   UNL     1      -3.002  25.497  28.762  1.00  0.00     0.208 A 
ATOM      3  C   UNL     1      -4.310  25.623  29.256  1.00  0.00     0.238 A 
ATOM      4  O   UNL     1      -5.162  26.230  28.557  1.00  0.00    -0.285 OA
ATOM      5  C   UNL     1      -4.651  25.050  30.505  1.00  0.00     0.111 A 
ATOM      6  C   UNL     1      -5.933  25.155  31.124  1.00  0.00     0.134 A 
ATOM      7  C   UNL     1      -6.186  24.457  32.311  1.00  0.00     0.093 A 
ATOM      8  C   UNL     1      -5.187  23.711  32.935  1.00  0.00     0.123 A 
ATOM      9  C   UNL     1      -3.914  23.646  32.368  1.00  0.00     0.094 A 
ATOM     10  C   UNL     1      -3.641  24.301  31.165  1.00  0.00     0.146 A 
ATOM     11  O   UNL     1      -2.423  24.196  30.649  1.00  0.00    -0.452 OA
ENDROOT
BRANCH   1  12
ATOM     12  C   UNL     1      -0.672  24.558  29.034  1.00  0.00     0.029 A 
ATOM     13  C   UNL     1       0.264  25.606  29.076  1.00  0.00     0.062 A 
ATOM     14  C   UNL     1       1.572  25.412  28.611  1.00  0.00     0.162 A 
ATOM     15  C   UNL     1      -0.290  23.323  28.489  1.00  0.00     0.062 A 
ATOM     16  C   UNL     1       1.951  24.164  28.087  1.00  0.00     0.200 A 
ATOM     17  C   UNL     1       1.017  23.123  28.024  1.00  0.00     0.162 A 
BRANCH  14  18
ATOM     18  O   UNL     1       2.494  26.456  28.662  1.00  0.00    -0.504 OA
ATOM     19  H   UNL     1       2.203  27.417  28.796  1.00  0.00     0.293 HD
ENDBRANCH  14  18
BRANCH  16  20
ATOM     20  O   UNL     1       3.249  23.946  27.622  1.00  0.00    -0.502 OA
ATOM     21  H   UNL     1       3.448  23.769  26.645  1.00  0.00     0.293 HD
ENDBRANCH  16  20
BRANCH  17  22
ATOM     22  O   UNL     1       1.395  21.889  27.496  1.00  0.00    -0.504 OA
ATOM     23  H   UNL     1       1.808  21.167  28.075  1.00  0.00     0.293 HD
ENDBRANCH  17  22
ENDBRANCH   1  12
BRANCH   2  24
ATOM     24  O   UNL     1      -2.624  26.119  27.568  1.00  0.00    -0.502 OA
ATOM     25  H   UNL     1      -1.777  26.671  27.487  1.00  0.00     0.293 HD
ENDBRANCH   2  24
BRANCH   6  26
ATOM     26  O   UNL     1      -6.978  25.944  30.633  1.00  0.00    -0.507 OA
ATOM     27  H   UNL     1      -7.333  25.913  29.690  1.00  0.00     0.293 HD
ENDBRANCH   6  26
BRANCH   8  28
ATOM     28  O   UNL     1      -5.470  23.044  34.125  1.00  0.00    -0.508 OA
ATOM     29  H   UNL     1      -6.162  23.393  34.777  1.00  0.00     0.293 HD
ENDBRANCH   8  28
TORSDOF 7
ENDMDL
MODEL 7
REMARK VINA RESULT:    -5.909      1.350      7.041
REMARK INTER + INTRA:          -7.640
REMARK INTER:                  -7.333
REMARK INTRA:                  -0.307
REMARK UNBOUND:                -0.349
REMARK SMILES O=c1c(O)c(-c2cc(O)c(O)c(O)c2)oc2cc(O)cc(O)c12
REMARK SMILES IDX 5 1 3 2 2 3 1 4 23 5 21 6 20 7 18 8 17 9 16 10 15 11 6 12
REMARK SMILES IDX 7 13 8 14 14 15 10 16 12 17 9 18 11 20 13 22 4 24 22 26
REMARK SMILES IDX 19 28
REMARK H PARENT 9 19 11 21 13 23 4 25 22 27 19 29
REMARK Flexibility Score: inf
ROOT
ATOM      1  C   UNL     1      -0.723  25.626  28.887  1.00  0.00     0.180 A 
ATOM      2  C   UNL     1      -1.800  25.700  27.986  1.00  0.00     0.208 A 
ATOM      3  C   UNL     1      -3.095  25.415  28.448  1.00  0.00     0.238 A 
ATOM      4  O   UNL     1      -4.042  25.410  27.621  1.00  0.00    -0.285 OA
ATOM      5  C   UNL     1      -3.306  25.115  29.815  1.00  0.00     0.111 A 
ATOM      6  C   UNL     1      -4.581  24.854  30.403  1.00  0.00     0.134 A 
ATOM      7  C   UNL     1      -4.656  24.464  31.745  1.00  0.00     0.093 A 
ATOM      8  C   UNL     1      -3.512  24.387  32.539  1.00  0.00     0.123 A 
ATOM      9  C   UNL     1      -2.266  24.693  31.990  1.00  0.00     0.094 A 
ATOM     10  C   UNL     1      -2.154  25.049  30.644  1.00  0.00     0.146 A 
ATOM     11  O   UNL     1      -0.948  25.311  30.157  1.00  0.00    -0.452 OA
ENDROOT
BRANCH   1  12
ATOM     12  C   UNL     1       0.672  25.899  28.472  1.00  0.00     0.029 A 
ATOM     13  C   UNL     1       1.599  24.857  28.293  1.00  0.00     0.062 A 
ATOM     14  C   UNL     1       2.922  25.137  27.924  1.00  0.00     0.162 A 
ATOM     15  C   UNL     1       1.095  27.226  28.308  1.00  0.00     0.062 A 
ATOM     16  C   UNL     1       3.331  26.469  27.740  1.00  0.00     0.200 A 
ATOM     17  C   UNL     1       2.417  27.511  27.936  1.00  0.00     0.162 A 
BRANCH  14  18
ATOM     18  O   UNL     1       3.832  24.096  27.744  1.00  0.00    -0.504 OA
ATOM     19  H   UNL     1       4.139  23.519  28.518  1.00  0.00     0.293 HD
ENDBRANCH  14  18
BRANCH  16  20
ATOM     20  O   UNL     1       4.641  26.772  27.368  1.00  0.00    -0.502 OA
ATOM     21  H   UNL     1       5.333  26.052  27.200  1.00  0.00     0.293 HD
ENDBRANCH  16  20
BRANCH  17  22
ATOM     22  O   UNL     1       2.828  28.831  27.761  1.00  0.00    -0.504 OA
ATOM     23  H   UNL     1       2.685  29.532  28.478  1.00  0.00     0.293 HD
ENDBRANCH  17  22
ENDBRANCH   1  12
BRANCH   2  24
ATOM     24  O   UNL     1      -1.580  26.073  26.657  1.00  0.00    -0.502 OA
ATOM     25  H   UNL     1      -2.338  26.315  26.028  1.00  0.00     0.293 HD
ENDBRANCH   2  24
BRANCH   6  26
ATOM     26  O   UNL     1      -5.797  24.987  29.726  1.00  0.00    -0.507 OA
ATOM     27  H   UNL     1      -6.047  25.763  29.132  1.00  0.00     0.293 HD
ENDBRANCH   6  26
BRANCH   8  28
ATOM     28  O   UNL     1      -3.627  24.012  33.876  1.00  0.00    -0.508 OA
ATOM     29  H   UNL     1      -2.892  24.207  34.546  1.00  0.00     0.293 HD
ENDBRANCH   8  28
TORSDOF 7
ENDMDL
MODEL 8
REMARK VINA RESULT:    -5.773      3.410      4.492
REMARK INTER + INTRA:          -7.473
REMARK INTER:                  -7.119
REMARK INTRA:                  -0.353
REMARK UNBOUND:                -0.349
REMARK SMILES O=c1c(O)c(-c2cc(O)c(O)c(O)c2)oc2cc(O)cc(O)c12
REMARK SMILES IDX 5 1 3 2 2 3 1 4 23 5 21 6 20 7 18 8 17 9 16 10 15 11 6 12
REMARK SMILES IDX 7 13 8 14 14 15 10 16 12 17 9 18 11 20 13 22 4 24 22 26
REMARK SMILES IDX 19 28
REMARK H PARENT 9 19 11 21 13 23 4 25 22 27 19 29
REMARK Flexibility Score: inf
ROOT
ATOM      1  C   UNL     1      -0.984  26.358  27.622  1.00  0.00     0.180 A 
ATOM      2  C   UNL     1       0.415  26.497  27.646  1.00  0.00     0.208 A 
ATOM      3  C   UNL     1       1.027  27.373  26.736  1.00  0.00     0.238 A 
ATOM      4  O   UNL     1       2.283  27.437  26.712  1.00  0.00    -0.285 OA
ATOM      5  C   UNL     1       0.231  28.140  25.851  1.00  0.00     0.111 A 
ATOM      6  C   UNL     1       0.741  29.093  24.917  1.00  0.00     0.134 A 
ATOM      7  C   UNL     1      -0.133  29.716  24.019  1.00  0.00     0.093 A 
ATOM      8  C   UNL     1      -1.505  29.472  24.062  1.00  0.00     0.123 A 
ATOM      9  C   UNL     1      -2.022  28.585  25.006  1.00  0.00     0.094 A 
ATOM     10  C   UNL     1      -1.171  27.919  25.891  1.00  0.00     0.146 A 
ATOM     11  O   UNL     1      -1.702  27.067  26.760  1.00  0.00    -0.452 OA
ENDROOT
BRANCH   1  12
ATOM     12  C   UNL     1      -1.700  25.444  28.541  1.00  0.00     0.029 A 
ATOM     13  C   UNL     1      -1.818  24.071  28.263  1.00  0.00     0.062 A 
ATOM     14  C   UNL     1      -2.522  23.226  29.132  1.00  0.00     0.162 A 
ATOM     15  C   UNL     1      -2.324  25.965  29.685  1.00  0.00     0.062 A 
ATOM     16  C   UNL     1      -3.124  23.754  30.287  1.00  0.00     0.200 A 
ATOM     17  C   UNL     1      -3.027  25.124  30.559  1.00  0.00     0.162 A 
BRANCH  14  18
ATOM     18  O   UNL     1      -2.628  21.865  28.850  1.00  0.00    -0.504 OA
ATOM     19  H   UNL     1      -3.458  21.474  28.419  1.00  0.00     0.293 HD
ENDBRANCH  14  18
BRANCH  16  20
ATOM     20  O   UNL     1      -3.825  22.931  31.170  1.00  0.00    -0.502 OA
ATOM     21  H   UNL     1      -3.366  22.438  31.926  1.00  0.00     0.293 HD
ENDBRANCH  16  20
BRANCH  17  22
ATOM     22  O   UNL     1      -3.632  25.645  31.701  1.00  0.00    -0.504 OA
ATOM     23  H   UNL     1      -4.570  26.029  31.677  1.00  0.00     0.293 HD
ENDBRANCH  17  22
ENDBRANCH   1  12
BRANCH   2  24
ATOM     24  O   UNL     1       1.177  25.788  28.579  1.00  0.00    -0.502 OA
ATOM     25  H   UNL     1       0.756  25.231  29.314  1.00  0.00     0.293 HD
ENDBRANCH   2  24
BRANCH   6  26
ATOM     26  O   UNL     1       2.083  29.479  24.847  1.00  0.00    -0.507 OA
ATOM     27  H   UNL     1       2.510  30.196  25.414  1.00  0.00     0.293 HD
ENDBRANCH   6  26
BRANCH   8  28
ATOM     28  O   UNL     1      -2.347  30.123  23.163  1.00  0.00    -0.508 OA
ATOM     29  H   UNL     1      -2.639  31.082  23.311  1.00  0.00     0.293 HD
ENDBRANCH   8  28
TORSDOF 7
ENDMDL
MODEL 9
REMARK VINA RESULT:    -5.732      1.898      3.419
REMARK INTER + INTRA:          -7.422
REMARK INTER:                  -7.810
REMARK INTRA:                   0.388
REMARK UNBOUND:                -0.349
REMARK SMILES O=c1c(O)c(-c2cc(O)c(O)c(O)c2)oc2cc(O)cc(O)c12
REMARK SMILES IDX 5 1 3 2 2 3 1 4 23 5 21 6 20 7 18 8 17 9 16 10 15 11 6 12
REMARK SMILES IDX 7 13 8 14 14 15 10 16 12 17 9 18 11 20 13 22 4 24 22 26
REMARK SMILES IDX 19 28
REMARK H PARENT 9 19 11 21 13 23 4 25 22 27 19 29
REMARK Flexibility Score: inf
ROOT
ATOM      1  C   UNL     1      -1.986  25.300  28.897  1.00  0.00     0.180 A 
ATOM      2  C   UNL     1      -2.242  26.127  27.790  1.00  0.00     0.208 A 
ATOM      3  C   UNL     1      -1.207  26.382  26.876  1.00  0.00     0.238 A 
ATOM      4  O   UNL     1      -1.421  27.182  25.929  1.00  0.00    -0.285 OA
ATOM      5  C   UNL     1       0.054  25.762  27.049  1.00  0.00     0.111 A 
ATOM      6  C   UNL     1       1.162  25.911  26.159  1.00  0.00     0.134 A 
ATOM      7  C   UNL     1       2.395  25.334  26.489  1.00  0.00     0.093 A 
ATOM      8  C   UNL     1       2.544  24.561  27.639  1.00  0.00     0.123 A 
ATOM      9  C   UNL     1       1.454  24.362  28.487  1.00  0.00     0.094 A 
ATOM     10  C   UNL     1       0.221  24.955  28.206  1.00  0.00     0.146 A 
ATOM     11  O   UNL     1      -0.783  24.758  29.050  1.00  0.00    -0.452 OA
ENDROOT
BRANCH   1  12
ATOM     12  C   UNL     1      -3.021  24.997  29.911  1.00  0.00     0.029 A 
ATOM     13  C   UNL     1      -4.384  25.237  29.660  1.00  0.00     0.062 A 
ATOM     14  C   UNL     1      -5.347  24.967  30.642  1.00  0.00     0.162 A 
ATOM     15  C   UNL     1      -2.634  24.513  31.169  1.00  0.00     0.062 A 
ATOM     16  C   UNL     1      -4.950  24.461  31.892  1.00  0.00     0.200 A 
ATOM     17  C   UNL     1      -3.593  24.239  32.154  1.00  0.00     0.162 A 
BRANCH  14  18
ATOM     18  O   UNL     1      -6.696  25.204  30.381  1.00  0.00    -0.504 OA
ATOM     19  H   UNL     1      -7.342  24.446  30.192  1.00  0.00     0.293 HD
ENDBRANCH  14  18
BRANCH  16  20
ATOM     20  O   UNL     1      -5.892  24.180  32.883  1.00  0.00    -0.502 OA
ATOM     21  H   UNL     1      -6.216  24.885  33.533  1.00  0.00     0.293 HD
ENDBRANCH  16  20
BRANCH  17  22
ATOM     22  O   UNL     1      -3.203  23.745  33.397  1.00  0.00    -0.504 OA
ATOM     23  H   UNL     1      -3.789  23.850  34.218  1.00  0.00     0.293 HD
ENDBRANCH  17  22
ENDBRANCH   1  12
BRANCH   2  24
ATOM     24  O   UNL     1      -3.516  26.668  27.596  1.00  0.00    -0.502 OA
ATOM     25  H   UNL     1      -3.813  27.055  26.707  1.00  0.00     0.293 HD
ENDBRANCH   2  24
BRANCH   6  26
ATOM     26  O   UNL     1       1.100  26.589  24.938  1.00  0.00    -0.507 OA
ATOM     27  H   UNL     1       0.784  26.188  24.069  1.00  0.00     0.293 HD
ENDBRANCH   6  26
BRANCH   8  28
ATOM     28  O   UNL     1       3.781  23.988  27.926  1.00  0.00    -0.508 OA
ATOM     29  H   UNL     1       4.458  23.796  27.196  1.00  0.00     0.293 HD
ENDBRANCH   8  28
TORSDOF 7
ENDMDL
