MODEL 1
REMARK VINA RESULT:    80.662      0.000      0.000
REMARK INTER + INTRA:          87.828
REMARK INTER:                  87.735
REMARK INTRA:                   0.093
REMARK UNBOUND:                 0.093
REMARK SMILES C[C@@H]1[C@H]2C3=CC[C@H]4[C@@]5(C)CC[C@@H](O)C(C)(C)[C@@H]5CC[C@@]4(C)[C@@]3(C)CC[C@@]2(C(=O)[O-])CC[C@@H]1C
REMARK SMILES IDX 26 1 30 2 25 3 3 4 31 5 24 6 4 7 2 8 32 9 22 10 5 11 1 12
REMARK SMILES IDX 33 13 23 14 20 15 6 16 7 17 19 18 21 19 8 20 18 21 17 22
REMARK SMILES IDX 10 23 9 24 14 25 11 26 12 27 15 28 16 29 27 30 28 31 29 32
REMARK SMILES IDX 13 33
REMARK H PARENT 13 34
REMARK Flexibility Score: inf
ROOT
ATOM      1  C   UNL     1      75.713  39.157  25.799  1.00  0.00     0.017 C 
ATOM      2  C   UNL     1      75.033  37.810  26.184  1.00  0.00     0.014 C 
ATOM      3  C   UNL     1      74.651  40.042  25.036  1.00  0.00     0.014 C 
ATOM      4  C   UNL     1      77.021  38.863  24.951  1.00  0.00     0.030 C 
ATOM      5  C   UNL     1      75.970  36.853  26.934  1.00  0.00     0.004 C 
ATOM      6  C   UNL     1      74.532  39.852  23.501  1.00  0.00     0.013 C 
ATOM      7  C   UNL     1      76.651  38.642  23.473  1.00  0.00    -0.063 C 
ATOM      8  C   UNL     1      77.960  37.764  25.592  1.00  0.00    -0.003 C 
ATOM      9  C   UNL     1      77.184  36.492  26.078  1.00  0.00    -0.011 C 
ATOM     10  C   UNL     1      75.898  39.772  22.763  1.00  0.00    -0.006 C 
ATOM     11  C   UNL     1      76.606  37.406  22.946  1.00  0.00    -0.027 C 
ATOM     12  C   UNL     1      78.858  38.372  26.706  1.00  0.00     0.008 C 
ATOM     13  C   UNL     1      78.085  35.485  26.814  1.00  0.00     0.008 C 
ATOM     14  C   UNL     1      76.662  41.124  23.001  1.00  0.00     0.017 C 
ATOM     15  C   UNL     1      75.767  39.488  21.159  1.00  0.00    -0.020 C 
ATOM     16  C   UNL     1      75.523  37.024  21.991  1.00  0.00     0.032 C 
ATOM     17  C   UNL     1      75.477  37.956  20.770  1.00  0.00     0.006 C 
ATOM     18  C   UNL     1      74.736  40.468  20.495  1.00  0.00     0.008 C 
ATOM     19  C   UNL     1      77.143  39.829  20.484  1.00  0.00     0.012 C 
ATOM     20  C   UNL     1      74.235  37.698  19.785  1.00  0.00    -0.025 C 
ATOM     21  C   UNL     1      73.264  40.033  20.444  1.00  0.00     0.005 C 
ATOM     22  C   UNL     1      73.000  38.510  20.304  1.00  0.00     0.003 C 
ATOM     23  C   UNL     1      73.857  36.172  19.755  1.00  0.00     0.010 C 
ATOM     24  C   UNL     1      74.656  38.107  18.334  1.00  0.00     0.012 C 
ATOM     25  C   UNL     1      71.602  38.177  19.622  1.00  0.00    -0.006 C 
ATOM     26  C   UNL     1      72.532  35.853  19.043  1.00  0.00     0.033 C 
ATOM     27  C   UNL     1      71.359  36.636  19.657  1.00  0.00     0.120 C 
ATOM     28  C   UNL     1      70.460  38.862  20.428  1.00  0.00     0.014 C 
ATOM     29  C   UNL     1      71.460  38.678  18.152  1.00  0.00     0.014 C 
ENDROOT
BRANCH   1  30
ATOM     30  C   UNL     1      76.081  39.953  27.052  1.00  0.00     0.048 C 
ATOM     31  O   UNL     1      75.773  39.518  28.192  1.00  0.00    -0.550 OA
ATOM     32  O   UNL     1      76.819  41.124  26.976  1.00  0.00    -0.550 OA
ENDBRANCH   1  30
BRANCH  27  33
ATOM     33  O   UNL     1      71.163  36.206  20.984  1.00  0.00    -0.393 OA
ATOM     34  H   UNL     1      71.345  36.979  21.584  1.00  0.00     0.210 HD
ENDBRANCH  27  33
TORSDOF 2
ENDMDL
