MODEL 1
REMARK VINA RESULT:    -7.566      0.000      0.000
REMARK INTER + INTRA:          -8.390
REMARK INTER:                  -8.893
REMARK INTRA:                   0.504
REMARK UNBOUND:                 0.504
REMARK SMILES O=c1c(O)c(-c2ccc(O)cc2)oc2cc(O)cc(O)c12
REMARK SMILES IDX 5 1 3 2 2 3 1 4 21 5 19 6 18 7 16 8 15 9 14 10 13 11 6 12
REMARK SMILES IDX 7 13 8 14 9 15 12 16 11 17 10 18 4 20 20 22 17 24
REMARK H PARENT 10 19 4 21 20 23 17 25
REMARK Flexibility Score: inf
ROOT
ATOM      1  C   UNL     1      14.932  23.900  41.791  1.00  0.00     0.180 A 
ATOM      2  C   UNL     1      15.099  24.851  40.771  1.00  0.00     0.208 A 
ATOM      3  C   UNL     1      16.148  24.688  39.851  1.00  0.00     0.238 A 
ATOM      4  O   UNL     1      16.258  25.514  38.907  1.00  0.00    -0.285 OA
ATOM      5  C   UNL     1      17.025  23.584  39.972  1.00  0.00     0.111 A 
ATOM      6  C   UNL     1      18.145  23.341  39.121  1.00  0.00     0.134 A 
ATOM      7  C   UNL     1      18.867  22.148  39.253  1.00  0.00     0.093 A 
ATOM      8  C   UNL     1      18.551  21.222  40.245  1.00  0.00     0.123 A 
ATOM      9  C   UNL     1      17.495  21.477  41.121  1.00  0.00     0.094 A 
ATOM     10  C   UNL     1      16.734  22.641  40.992  1.00  0.00     0.146 A 
ATOM     11  O   UNL     1      15.731  22.840  41.839  1.00  0.00    -0.452 OA
ENDROOT
BRANCH   1  12
ATOM     12  C   UNL     1      13.866  24.017  42.812  1.00  0.00     0.021 A 
ATOM     13  C   UNL     1      13.799  23.078  43.854  1.00  0.00     0.016 A 
ATOM     14  C   UNL     1      12.814  23.183  44.841  1.00  0.00     0.047 A 
ATOM     15  C   UNL     1      11.893  24.238  44.806  1.00  0.00     0.115 A 
ATOM     16  C   UNL     1      12.950  25.085  42.795  1.00  0.00     0.016 A 
ATOM     17  C   UNL     1      11.967  25.189  43.784  1.00  0.00     0.047 A 
BRANCH  15  18
ATOM     18  O   UNL     1      10.908  24.353  45.784  1.00  0.00    -0.508 OA
ATOM     19  H   UNL     1       9.985  24.714  45.567  1.00  0.00     0.293 HD
ENDBRANCH  15  18
ENDBRANCH   1  12
BRANCH   2  20
ATOM     20  O   UNL     1      14.208  25.922  40.655  1.00  0.00    -0.502 OA
ATOM     21  H   UNL     1      13.385  26.012  41.238  1.00  0.00     0.293 HD
ENDBRANCH   2  20
BRANCH   6  22
ATOM     22  O   UNL     1      18.603  24.244  38.157  1.00  0.00    -0.507 OA
ATOM     23  H   UNL     1      19.508  24.198  37.713  1.00  0.00     0.293 HD
ENDBRANCH   6  22
BRANCH   8  24
ATOM     24  O   UNL     1      19.301  20.052  40.358  1.00  0.00    -0.508 OA
ATOM     25  H   UNL     1      19.708  19.767  41.241  1.00  0.00     0.293 HD
ENDBRANCH   8  24
TORSDOF 5
ENDMDL
MODEL 2
REMARK VINA RESULT:    -7.526      1.193      1.852
REMARK INTER + INTRA:          -8.342
REMARK INTER:                  -8.767
REMARK INTRA:                   0.425
REMARK UNBOUND:                 0.504
REMARK SMILES O=c1c(O)c(-c2ccc(O)cc2)oc2cc(O)cc(O)c12
REMARK SMILES IDX 5 1 3 2 2 3 1 4 21 5 19 6 18 7 16 8 15 9 14 10 13 11 6 12
REMARK SMILES IDX 7 13 8 14 9 15 12 16 11 17 10 18 4 20 20 22 17 24
REMARK H PARENT 10 19 4 21 20 23 17 25
REMARK Flexibility Score: inf
ROOT
ATOM      1  C   UNL     1      16.291  23.345  40.986  1.00  0.00     0.180 A 
ATOM      2  C   UNL     1      16.789  24.180  39.971  1.00  0.00     0.208 A 
ATOM      3  C   UNL     1      17.947  23.792  39.277  1.00  0.00     0.238 A 
ATOM      4  O   UNL     1      18.356  24.518  38.333  1.00  0.00    -0.285 OA
ATOM      5  C   UNL     1      18.601  22.584  39.618  1.00  0.00     0.111 A 
ATOM      6  C   UNL     1      19.803  22.115  39.008  1.00  0.00     0.134 A 
ATOM      7  C   UNL     1      20.290  20.842  39.334  1.00  0.00     0.093 A 
ATOM      8  C   UNL     1      19.657  20.052  40.291  1.00  0.00     0.123 A 
ATOM      9  C   UNL     1      18.514  20.527  40.937  1.00  0.00     0.094 A 
ATOM     10  C   UNL     1      17.984  21.776  40.608  1.00  0.00     0.146 A 
ATOM     11  O   UNL     1      16.889  22.186  41.237  1.00  0.00    -0.452 OA
ENDROOT
BRANCH   1  12
ATOM     12  C   UNL     1      15.090  23.697  41.777  1.00  0.00     0.021 A 
ATOM     13  C   UNL     1      14.894  23.106  43.037  1.00  0.00     0.016 A 
ATOM     14  C   UNL     1      13.778  23.441  43.811  1.00  0.00     0.047 A 
ATOM     15  C   UNL     1      12.853  24.383  43.340  1.00  0.00     0.115 A 
ATOM     16  C   UNL     1      14.167  24.657  41.322  1.00  0.00     0.016 A 
ATOM     17  C   UNL     1      13.053  24.990  42.098  1.00  0.00     0.047 A 
BRANCH  15  18
ATOM     18  O   UNL     1      11.738  24.725  44.103  1.00  0.00    -0.508 OA
ATOM     19  H   UNL     1      10.940  24.104  44.182  1.00  0.00     0.293 HD
ENDBRANCH  15  18
ENDBRANCH   1  12
BRANCH   2  20
ATOM     20  O   UNL     1      16.115  25.357  39.635  1.00  0.00    -0.502 OA
ATOM     21  H   UNL     1      16.316  26.245  40.079  1.00  0.00     0.293 HD
ENDBRANCH   2  20
BRANCH   6  22
ATOM     22  O   UNL     1      20.566  22.862  38.107  1.00  0.00    -0.507 OA
ATOM     23  H   UNL     1      21.055  23.714  38.337  1.00  0.00     0.293 HD
ENDBRANCH   6  22
BRANCH   8  24
ATOM     24  O   UNL     1      20.179  18.798  40.602  1.00  0.00    -0.508 OA
ATOM     25  H   UNL     1      19.955  18.332  41.474  1.00  0.00     0.293 HD
ENDBRANCH   8  24
TORSDOF 5
ENDMDL
MODEL 3
REMARK VINA RESULT:    -7.280      1.788      6.848
REMARK INTER + INTRA:          -8.053
REMARK INTER:                  -8.533
REMARK INTRA:                   0.480
REMARK UNBOUND:                 0.504
REMARK SMILES O=c1c(O)c(-c2ccc(O)cc2)oc2cc(O)cc(O)c12
REMARK SMILES IDX 5 1 3 2 2 3 1 4 21 5 19 6 18 7 16 8 15 9 14 10 13 11 6 12
REMARK SMILES IDX 7 13 8 14 9 15 12 16 11 17 10 18 4 20 20 22 17 24
REMARK H PARENT 10 19 4 21 20 23 17 25
REMARK Flexibility Score: inf
ROOT
ATOM      1  C   UNL     1      18.178  22.755  40.031  1.00  0.00     0.180 A 
ATOM      2  C   UNL     1      17.998  23.895  39.230  1.00  0.00     0.208 A 
ATOM      3  C   UNL     1      16.864  24.699  39.434  1.00  0.00     0.238 A 
ATOM      4  O   UNL     1      16.737  25.748  38.749  1.00  0.00    -0.285 OA
ATOM      5  C   UNL     1      15.918  24.345  40.425  1.00  0.00     0.111 A 
ATOM      6  C   UNL     1      14.715  25.065  40.690  1.00  0.00     0.134 A 
ATOM      7  C   UNL     1      13.917  24.698  41.782  1.00  0.00     0.093 A 
ATOM      8  C   UNL     1      14.245  23.601  42.576  1.00  0.00     0.123 A 
ATOM      9  C   UNL     1      15.388  22.854  42.289  1.00  0.00     0.094 A 
ATOM     10  C   UNL     1      16.223  23.217  41.230  1.00  0.00     0.146 A 
ATOM     11  O   UNL     1      17.307  22.486  40.998  1.00  0.00    -0.452 OA
ENDROOT
BRANCH   1  12
ATOM     12  C   UNL     1      19.333  21.846  39.860  1.00  0.00     0.021 A 
ATOM     13  C   UNL     1      20.488  22.309  39.208  1.00  0.00     0.016 A 
ATOM     14  C   UNL     1      21.599  21.473  39.055  1.00  0.00     0.047 A 
ATOM     15  C   UNL     1      21.574  20.170  39.568  1.00  0.00     0.115 A 
ATOM     16  C   UNL     1      19.325  20.542  40.390  1.00  0.00     0.016 A 
ATOM     17  C   UNL     1      20.437  19.709  40.237  1.00  0.00     0.047 A 
BRANCH  15  18
ATOM     18  O   UNL     1      22.676  19.328  39.423  1.00  0.00    -0.508 OA
ATOM     19  H   UNL     1      23.579  19.684  39.132  1.00  0.00     0.293 HD
ENDBRANCH  15  18
ENDBRANCH   1  12
BRANCH   2  20
ATOM     20  O   UNL     1      18.954  24.239  38.272  1.00  0.00    -0.502 OA
ATOM     21  H   UNL     1      19.887  24.547  38.519  1.00  0.00     0.293 HD
ENDBRANCH   2  20
BRANCH   6  22
ATOM     22  O   UNL     1      14.246  26.120  39.902  1.00  0.00    -0.507 OA
ATOM     23  H   UNL     1      14.783  26.939  39.662  1.00  0.00     0.293 HD
ENDBRANCH   6  22
BRANCH   8  24
ATOM     24  O   UNL     1      13.420  23.255  43.645  1.00  0.00    -0.508 OA
ATOM     25  H   UNL     1      13.745  22.651  44.392  1.00  0.00     0.293 HD
ENDBRANCH   8  24
TORSDOF 5
ENDMDL
MODEL 4
REMARK VINA RESULT:    -7.179      1.793      6.786
REMARK INTER + INTRA:          -7.935
REMARK INTER:                  -8.360
REMARK INTRA:                   0.425
REMARK UNBOUND:                 0.504
REMARK SMILES O=c1c(O)c(-c2ccc(O)cc2)oc2cc(O)cc(O)c12
REMARK SMILES IDX 5 1 3 2 2 3 1 4 21 5 19 6 18 7 16 8 15 9 14 10 13 11 6 12
REMARK SMILES IDX 7 13 8 14 9 15 12 16 11 17 10 18 4 20 20 22 17 24
REMARK H PARENT 10 19 4 21 20 23 17 25
REMARK Flexibility Score: inf
ROOT
ATOM      1  C   UNL     1      18.201  22.788  40.071  1.00  0.00     0.180 A 
ATOM      2  C   UNL     1      18.022  23.917  39.254  1.00  0.00     0.208 A 
ATOM      3  C   UNL     1      16.881  24.716  39.436  1.00  0.00     0.238 A 
ATOM      4  O   UNL     1      16.755  25.756  38.737  1.00  0.00    -0.285 OA
ATOM      5  C   UNL     1      15.927  24.368  40.422  1.00  0.00     0.111 A 
ATOM      6  C   UNL     1      14.716  25.082  40.665  1.00  0.00     0.134 A 
ATOM      7  C   UNL     1      13.909  24.723  41.753  1.00  0.00     0.093 A 
ATOM      8  C   UNL     1      14.236  23.638  42.564  1.00  0.00     0.123 A 
ATOM      9  C   UNL     1      15.387  22.895  42.298  1.00  0.00     0.094 A 
ATOM     10  C   UNL     1      16.230  23.251  41.243  1.00  0.00     0.146 A 
ATOM     11  O   UNL     1      17.321  22.524  41.031  1.00  0.00    -0.452 OA
ENDROOT
BRANCH   1  12
ATOM     12  C   UNL     1      19.364  21.884  39.923  1.00  0.00     0.021 A 
ATOM     13  C   UNL     1      19.280  20.564  40.397  1.00  0.00     0.016 A 
ATOM     14  C   UNL     1      20.359  19.687  40.248  1.00  0.00     0.047 A 
ATOM     15  C   UNL     1      21.529  20.116  39.608  1.00  0.00     0.115 A 
ATOM     16  C   UNL     1      20.536  22.299  39.264  1.00  0.00     0.016 A 
ATOM     17  C   UNL     1      21.612  21.420  39.114  1.00  0.00     0.047 A 
BRANCH  15  18
ATOM     18  O   UNL     1      22.611  19.250  39.453  1.00  0.00    -0.508 OA
ATOM     19  H   UNL     1      22.982  18.721  40.233  1.00  0.00     0.293 HD
ENDBRANCH  15  18
ENDBRANCH   1  12
BRANCH   2  20
ATOM     20  O   UNL     1      18.987  24.256  38.302  1.00  0.00    -0.502 OA
ATOM     21  H   UNL     1      19.025  25.170  37.867  1.00  0.00     0.293 HD
ENDBRANCH   2  20
BRANCH   6  22
ATOM     22  O   UNL     1      14.249  26.125  39.860  1.00  0.00    -0.507 OA
ATOM     23  H   UNL     1      14.135  27.079  40.166  1.00  0.00     0.293 HD
ENDBRANCH   6  22
BRANCH   8  24
ATOM     24  O   UNL     1      13.401  23.299  43.627  1.00  0.00    -0.508 OA
ATOM     25  H   UNL     1      13.767  22.887  44.478  1.00  0.00     0.293 HD
ENDBRANCH   8  24
TORSDOF 5
ENDMDL
MODEL 5
REMARK VINA RESULT:    -6.805      1.419      6.507
REMARK INTER + INTRA:          -7.495
REMARK INTER:                  -7.242
REMARK INTRA:                  -0.253
REMARK UNBOUND:                 0.504
REMARK SMILES O=c1c(O)c(-c2ccc(O)cc2)oc2cc(O)cc(O)c12
REMARK SMILES IDX 5 1 3 2 2 3 1 4 21 5 19 6 18 7 16 8 15 9 14 10 13 11 6 12
REMARK SMILES IDX 7 13 8 14 9 15 12 16 11 17 10 18 4 20 20 22 17 24
REMARK H PARENT 10 19 4 21 20 23 17 25
REMARK Flexibility Score: inf
ROOT
ATOM      1  C   UNL     1      15.743  23.297  41.341  1.00  0.00     0.180 A 
ATOM      2  C   UNL     1      15.109  24.468  40.894  1.00  0.00     0.208 A 
ATOM      3  C   UNL     1      14.069  25.017  41.663  1.00  0.00     0.238 A 
ATOM      4  O   UNL     1      13.542  26.096  41.284  1.00  0.00    -0.285 OA
ATOM      5  C   UNL     1      13.668  24.379  42.861  1.00  0.00     0.111 A 
ATOM      6  C   UNL     1      12.601  24.825  43.698  1.00  0.00     0.134 A 
ATOM      7  C   UNL     1      12.377  24.191  44.927  1.00  0.00     0.093 A 
ATOM      8  C   UNL     1      13.137  23.090  45.319  1.00  0.00     0.123 A 
ATOM      9  C   UNL     1      14.143  22.609  44.481  1.00  0.00     0.094 A 
ATOM     10  C   UNL     1      14.415  23.242  43.265  1.00  0.00     0.146 A 
ATOM     11  O   UNL     1      15.388  22.759  42.503  1.00  0.00    -0.452 OA
ENDROOT
BRANCH   1  12
ATOM     12  C   UNL     1      16.829  22.646  40.573  1.00  0.00     0.021 A 
ATOM     13  C   UNL     1      18.136  23.155  40.656  1.00  0.00     0.016 A 
ATOM     14  C   UNL     1      19.181  22.542  39.956  1.00  0.00     0.047 A 
ATOM     15  C   UNL     1      18.932  21.403  39.178  1.00  0.00     0.115 A 
ATOM     16  C   UNL     1      16.593  21.490  39.806  1.00  0.00     0.016 A 
ATOM     17  C   UNL     1      17.639  20.879  39.109  1.00  0.00     0.047 A 
BRANCH  15  18
ATOM     18  O   UNL     1      19.965  20.783  38.478  1.00  0.00    -0.508 OA
ATOM     19  H   UNL     1      19.778  20.151  37.707  1.00  0.00     0.293 HD
ENDBRANCH  15  18
ENDBRANCH   1  12
BRANCH   2  20
ATOM     20  O   UNL     1      15.535  25.094  39.720  1.00  0.00    -0.502 OA
ATOM     21  H   UNL     1      14.927  25.688  39.167  1.00  0.00     0.293 HD
ENDBRANCH   2  20
BRANCH   6  22
ATOM     22  O   UNL     1      11.722  25.858  43.360  1.00  0.00    -0.507 OA
ATOM     23  H   UNL     1      11.371  26.547  44.007  1.00  0.00     0.293 HD
ENDBRANCH   6  22
BRANCH   8  24
ATOM     24  O   UNL     1      12.875  22.474  46.541  1.00  0.00    -0.508 OA
ATOM     25  H   UNL     1      12.240  22.884  47.216  1.00  0.00     0.293 HD
ENDBRANCH   8  24
TORSDOF 5
ENDMDL
MODEL 6
REMARK VINA RESULT:    -6.578      2.080      3.451
REMARK INTER + INTRA:          -7.228
REMARK INTER:                  -6.953
REMARK INTRA:                  -0.275
REMARK UNBOUND:                 0.504
REMARK SMILES O=c1c(O)c(-c2ccc(O)cc2)oc2cc(O)cc(O)c12
REMARK SMILES IDX 5 1 3 2 2 3 1 4 21 5 19 6 18 7 16 8 15 9 14 10 13 11 6 12
REMARK SMILES IDX 7 13 8 14 9 15 12 16 11 17 10 18 4 20 20 22 17 24
REMARK H PARENT 10 19 4 21 20 23 17 25
REMARK Flexibility Score: inf
ROOT
ATOM      1  C   UNL     1      16.861  22.798  40.711  1.00  0.00     0.180 A 
ATOM      2  C   UNL     1      16.864  21.618  39.950  1.00  0.00     0.208 A 
ATOM      3  C   UNL     1      18.026  21.265  39.244  1.00  0.00     0.238 A 
ATOM      4  O   UNL     1      18.040  20.178  38.608  1.00  0.00    -0.285 OA
ATOM      5  C   UNL     1      19.164  22.105  39.296  1.00  0.00     0.111 A 
ATOM      6  C   UNL     1      20.380  21.866  38.589  1.00  0.00     0.134 A 
ATOM      7  C   UNL     1      21.486  22.695  38.817  1.00  0.00     0.093 A 
ATOM      8  C   UNL     1      21.400  23.790  39.675  1.00  0.00     0.123 A 
ATOM      9  C   UNL     1      20.197  24.067  40.326  1.00  0.00     0.094 A 
ATOM     10  C   UNL     1      19.088  23.238  40.147  1.00  0.00     0.146 A 
ATOM     11  O   UNL     1      17.966  23.531  40.793  1.00  0.00    -0.452 OA
ENDROOT
BRANCH   1  12
ATOM     12  C   UNL     1      15.667  23.249  41.462  1.00  0.00     0.021 A 
ATOM     13  C   UNL     1      15.430  22.745  42.752  1.00  0.00     0.016 A 
ATOM     14  C   UNL     1      14.320  23.174  43.488  1.00  0.00     0.047 A 
ATOM     15  C   UNL     1      13.444  24.125  42.948  1.00  0.00     0.115 A 
ATOM     16  C   UNL     1      14.793  24.219  40.936  1.00  0.00     0.016 A 
ATOM     17  C   UNL     1      13.686  24.647  41.675  1.00  0.00     0.047 A 
BRANCH  15  18
ATOM     18  O   UNL     1      12.336  24.561  43.672  1.00  0.00    -0.508 OA
ATOM     19  H   UNL     1      11.391  24.344  43.376  1.00  0.00     0.293 HD
ENDBRANCH  15  18
ENDBRANCH   1  12
BRANCH   2  20
ATOM     20  O   UNL     1      15.738  20.791  39.930  1.00  0.00    -0.502 OA
ATOM     21  H   UNL     1      14.803  21.139  40.105  1.00  0.00     0.293 HD
ENDBRANCH   2  20
BRANCH   6  22
ATOM     22  O   UNL     1      20.545  20.854  37.638  1.00  0.00    -0.507 OA
ATOM     23  H   UNL     1      20.049  20.804  36.761  1.00  0.00     0.293 HD
ENDBRANCH   6  22
BRANCH   8  24
ATOM     24  O   UNL     1      22.515  24.603  39.866  1.00  0.00    -0.508 OA
ATOM     25  H   UNL     1      22.795  24.911  40.790  1.00  0.00     0.293 HD
ENDBRANCH   8  24
TORSDOF 5
ENDMDL
MODEL 7
REMARK VINA RESULT:    -5.928      2.680      5.138
REMARK INTER + INTRA:          -6.465
REMARK INTER:                  -7.038
REMARK INTRA:                   0.574
REMARK UNBOUND:                 0.504
REMARK SMILES O=c1c(O)c(-c2ccc(O)cc2)oc2cc(O)cc(O)c12
REMARK SMILES IDX 5 1 3 2 2 3 1 4 21 5 19 6 18 7 16 8 15 9 14 10 13 11 6 12
REMARK SMILES IDX 7 13 8 14 9 15 12 16 11 17 10 18 4 20 20 22 17 24
REMARK H PARENT 10 19 4 21 20 23 17 25
REMARK Flexibility Score: inf
ROOT
ATOM      1  C   UNL     1      18.128  22.342  40.093  1.00  0.00     0.180 A 
ATOM      2  C   UNL     1      18.156  21.214  40.929  1.00  0.00     0.208 A 
ATOM      3  C   UNL     1      19.229  20.313  40.823  1.00  0.00     0.238 A 
ATOM      4  O   UNL     1      19.276  19.333  41.613  1.00  0.00    -0.285 OA
ATOM      5  C   UNL     1      20.251  20.545  39.872  1.00  0.00     0.111 A 
ATOM      6  C   UNL     1      21.363  19.678  39.651  1.00  0.00     0.134 A 
ATOM      7  C   UNL     1      22.383  20.073  38.775  1.00  0.00     0.093 A 
ATOM      8  C   UNL     1      22.298  21.269  38.065  1.00  0.00     0.123 A 
ATOM      9  C   UNL     1      21.186  22.096  38.229  1.00  0.00     0.094 A 
ATOM     10  C   UNL     1      20.171  21.747  39.122  1.00  0.00     0.146 A 
ATOM     11  O   UNL     1      19.135  22.567  39.257  1.00  0.00    -0.452 OA
ENDROOT
BRANCH   1  12
ATOM     12  C   UNL     1      17.019  23.322  40.129  1.00  0.00     0.021 A 
ATOM     13  C   UNL     1      15.914  23.088  40.965  1.00  0.00     0.016 A 
ATOM     14  C   UNL     1      14.866  24.012  41.030  1.00  0.00     0.047 A 
ATOM     15  C   UNL     1      14.918  25.189  40.273  1.00  0.00     0.115 A 
ATOM     16  C   UNL     1      17.072  24.517  39.387  1.00  0.00     0.016 A 
ATOM     17  C   UNL     1      16.024  25.440  39.456  1.00  0.00     0.047 A 
BRANCH  15  18
ATOM     18  O   UNL     1      13.881  26.117  40.331  1.00  0.00    -0.508 OA
ATOM     19  H   UNL     1      13.418  26.447  39.491  1.00  0.00     0.293 HD
ENDBRANCH  15  18
ENDBRANCH   1  12
BRANCH   2  20
ATOM     20  O   UNL     1      17.148  21.015  41.877  1.00  0.00    -0.502 OA
ATOM     21  H   UNL     1      16.931  21.698  42.593  1.00  0.00     0.293 HD
ENDBRANCH   2  20
BRANCH   6  22
ATOM     22  O   UNL     1      21.501  18.418  40.240  1.00  0.00    -0.507 OA
ATOM     23  H   UNL     1      20.870  17.645  40.095  1.00  0.00     0.293 HD
ENDBRANCH   6  22
BRANCH   8  24
ATOM     24  O   UNL     1      23.323  21.623  37.190  1.00  0.00    -0.508 OA
ATOM     25  H   UNL     1      24.144  21.040  37.071  1.00  0.00     0.293 HD
ENDBRANCH   8  24
TORSDOF 5
ENDMDL
MODEL 8
REMARK VINA RESULT:    -5.568     18.910     20.763
REMARK INTER + INTRA:          -6.041
REMARK INTER:                  -6.472
REMARK INTRA:                   0.430
REMARK UNBOUND:                 0.504
REMARK SMILES O=c1c(O)c(-c2ccc(O)cc2)oc2cc(O)cc(O)c12
REMARK SMILES IDX 5 1 3 2 2 3 1 4 21 5 19 6 18 7 16 8 15 9 14 10 13 11 6 12
REMARK SMILES IDX 7 13 8 14 9 15 12 16 11 17 10 18 4 20 20 22 17 24
REMARK H PARENT 10 19 4 21 20 23 17 25
REMARK Flexibility Score: inf
ROOT
ATOM      1  C   UNL     1      30.808  11.042  39.808  1.00  0.00     0.180 A 
ATOM      2  C   UNL     1      30.753  12.376  40.244  1.00  0.00     0.208 A 
ATOM      3  C   UNL     1      30.730  12.642  41.623  1.00  0.00     0.238 A 
ATOM      4  O   UNL     1      30.735  13.841  42.008  1.00  0.00    -0.285 OA
ATOM      5  C   UNL     1      30.746  11.570  42.547  1.00  0.00     0.111 A 
ATOM      6  C   UNL     1      30.685  11.722  43.965  1.00  0.00     0.134 A 
ATOM      7  C   UNL     1      30.840  10.598  44.787  1.00  0.00     0.093 A 
ATOM      8  C   UNL     1      30.988   9.323  44.243  1.00  0.00     0.123 A 
ATOM      9  C   UNL     1      30.989   9.157  42.858  1.00  0.00     0.094 A 
ATOM     10  C   UNL     1      30.873  10.262  42.012  1.00  0.00     0.146 A 
ATOM     11  O   UNL     1      30.889  10.061  40.700  1.00  0.00    -0.452 OA
ENDROOT
BRANCH   1  12
ATOM     12  C   UNL     1      30.811  10.682  38.372  1.00  0.00     0.021 A 
ATOM     13  C   UNL     1      31.123   9.367  37.988  1.00  0.00     0.016 A 
ATOM     14  C   UNL     1      31.109   9.000  36.639  1.00  0.00     0.047 A 
ATOM     15  C   UNL     1      30.768   9.940  35.658  1.00  0.00     0.115 A 
ATOM     16  C   UNL     1      30.449  11.614  37.382  1.00  0.00     0.016 A 
ATOM     17  C   UNL     1      30.435  11.244  36.033  1.00  0.00     0.047 A 
BRANCH  15  18
ATOM     18  O   UNL     1      30.750   9.586  34.311  1.00  0.00    -0.508 OA
ATOM     19  H   UNL     1      30.350  10.196  33.607  1.00  0.00     0.293 HD
ENDBRANCH  15  18
ENDBRANCH   1  12
BRANCH   2  20
ATOM     20  O   UNL     1      30.760  13.421  39.316  1.00  0.00    -0.502 OA
ATOM     21  H   UNL     1      30.450  14.357  39.547  1.00  0.00     0.293 HD
ENDBRANCH   2  20
BRANCH   6  22
ATOM     22  O   UNL     1      30.449  12.938  44.612  1.00  0.00    -0.507 OA
ATOM     23  H   UNL     1      29.535  13.330  44.781  1.00  0.00     0.293 HD
ENDBRANCH   6  22
BRANCH   8  24
ATOM     24  O   UNL     1      31.123   8.225  45.091  1.00  0.00    -0.508 OA
ATOM     25  H   UNL     1      32.034   7.856  45.339  1.00  0.00     0.293 HD
ENDBRANCH   8  24
TORSDOF 5
ENDMDL
MODEL 9
REMARK VINA RESULT:    -5.460     18.934     20.238
REMARK INTER + INTRA:          -5.913
REMARK INTER:                  -6.417
REMARK INTRA:                   0.504
REMARK UNBOUND:                 0.504
REMARK SMILES O=c1c(O)c(-c2ccc(O)cc2)oc2cc(O)cc(O)c12
REMARK SMILES IDX 5 1 3 2 2 3 1 4 21 5 19 6 18 7 16 8 15 9 14 10 13 11 6 12
REMARK SMILES IDX 7 13 8 14 9 15 12 16 11 17 10 18 4 20 20 22 17 24
REMARK H PARENT 10 19 4 21 20 23 17 25
REMARK Flexibility Score: inf
ROOT
ATOM      1  C   UNL     1      30.909  10.991  41.567  1.00  0.00     0.180 A 
ATOM      2  C   UNL     1      30.908  12.385  41.396  1.00  0.00     0.208 A 
ATOM      3  C   UNL     1      30.899  12.912  40.094  1.00  0.00     0.238 A 
ATOM      4  O   UNL     1      30.843  14.162  39.948  1.00  0.00    -0.285 OA
ATOM      5  C   UNL     1      30.908  12.038  38.981  1.00  0.00     0.111 A 
ATOM      6  C   UNL     1      30.942  12.462  37.618  1.00  0.00     0.134 A 
ATOM      7  C   UNL     1      30.816  11.512  36.596  1.00  0.00     0.093 A 
ATOM      8  C   UNL     1      30.724  10.152  36.885  1.00  0.00     0.123 A 
ATOM      9  C   UNL     1      30.751   9.722  38.213  1.00  0.00     0.094 A 
ATOM     10  C   UNL     1      30.839  10.648  39.255  1.00  0.00     0.146 A 
ATOM     11  O   UNL     1      30.851  10.197  40.503  1.00  0.00    -0.452 OA
ENDROOT
BRANCH   1  12
ATOM     12  C   UNL     1      30.942  10.361  42.907  1.00  0.00     0.021 A 
ATOM     13  C   UNL     1      31.069   8.966  43.013  1.00  0.00     0.016 A 
ATOM     14  C   UNL     1      31.125   8.353  44.269  1.00  0.00     0.047 A 
ATOM     15  C   UNL     1      31.070   9.130  45.433  1.00  0.00     0.115 A 
ATOM     16  C   UNL     1      30.908  11.135  44.082  1.00  0.00     0.016 A 
ATOM     17  C   UNL     1      30.965  10.520  45.336  1.00  0.00     0.047 A 
BRANCH  15  18
ATOM     18  O   UNL     1      31.125   8.530  46.690  1.00  0.00    -0.508 OA
ATOM     19  H   UNL     1      31.946   8.022  46.999  1.00  0.00     0.293 HD
ENDBRANCH  15  18
ENDBRANCH   1  12
BRANCH   2  20
ATOM     20  O   UNL     1      30.876  13.231  42.508  1.00  0.00    -0.502 OA
ATOM     21  H   UNL     1      31.652  13.311  43.154  1.00  0.00     0.293 HD
ENDBRANCH   2  20
BRANCH   6  22
ATOM     22  O   UNL     1      31.122  13.789  37.217  1.00  0.00    -0.507 OA
ATOM     23  H   UNL     1      30.535  14.559  37.500  1.00  0.00     0.293 HD
ENDBRANCH   6  22
BRANCH   8  24
ATOM     24  O   UNL     1      30.617   9.233  35.843  1.00  0.00    -0.508 OA
ATOM     25  H   UNL     1      31.287   9.214  35.083  1.00  0.00     0.293 HD
ENDBRANCH   8  24
TORSDOF 5
ENDMDL
