MODEL 1
REMARK VINA RESULT:    -4.683      0.000      0.000
REMARK INTER + INTRA:          -5.375
REMARK INTER:                  -5.367
REMARK INTRA:                  -0.008
REMARK UNBOUND:                -0.008
REMARK SMILES C=C(C)[C@@H]1CC[C@]2(C(=O)[O-])CC[C@]3(C)[C@@H](CC[C@@H]4[C@@]5(C)CC[C@H](O)C(C)(C)[C@H]5CC[C@]43C)[C@@H]12
REMARK SMILES IDX 7 1 6 2 33 3 11 4 5 5 15 6 4 7 12 8 16 9 13 10 17 11 31 12
REMARK SMILES IDX 14 13 18 14 30 15 32 16 19 17 29 18 21 19 20 20 28 21 22 22
REMARK SMILES IDX 25 23 23 24 26 25 27 26 8 27 9 28 10 29 2 30 3 31 1 32 24 33
REMARK H PARENT 24 34
REMARK Flexibility Score: inf
ROOT
ATOM      1  C   UNL     1      41.618  17.789  -4.319  1.00  0.00     0.014 C 
ATOM      2  C   UNL     1      40.154  18.277  -4.261  1.00  0.00     0.014 C 
ATOM      3  C   UNL     1      41.462  16.382  -3.732  1.00  0.00     0.012 C 
ATOM      4  C   UNL     1      42.185  17.664  -5.770  1.00  0.00     0.014 C 
ATOM      5  C   UNL     1      39.554  17.669  -2.975  1.00  0.00     0.009 C 
ATOM      6  C   UNL     1      42.780  15.592  -3.562  1.00  0.00     0.000 C 
ATOM      7  C   UNL     1      40.482  16.505  -2.558  1.00  0.00     0.018 C 
ATOM      8  C   UNL     1      42.907  16.324  -6.124  1.00  0.00     0.008 C 
ATOM      9  C   UNL     1      43.714  16.103  -2.452  1.00  0.00     0.005 C 
ATOM     10  C   UNL     1      43.484  15.366  -4.974  1.00  0.00    -0.024 C 
ATOM     11  C   UNL     1      44.923  15.186  -2.253  1.00  0.00     0.005 C 
ATOM     12  C   UNL     1      45.111  15.460  -4.861  1.00  0.00    -0.024 C 
ATOM     13  C   UNL     1      43.024  13.926  -5.415  1.00  0.00     0.012 C 
ATOM     14  C   UNL     1      45.598  14.677  -3.570  1.00  0.00     0.002 C 
ATOM     15  C   UNL     1      45.793  14.809  -6.117  1.00  0.00     0.008 C 
ATOM     16  C   UNL     1      45.569  16.962  -4.802  1.00  0.00     0.012 C 
ATOM     17  C   UNL     1      47.166  14.409  -3.433  1.00  0.00    -0.026 C 
ATOM     18  C   UNL     1      47.309  14.565  -6.013  1.00  0.00     0.005 C 
ATOM     19  C   UNL     1      47.457  13.486  -2.202  1.00  0.00     0.010 C 
ATOM     20  C   UNL     1      47.963  15.725  -3.144  1.00  0.00     0.012 C 
ATOM     21  C   UNL     1      47.763  13.770  -4.757  1.00  0.00     0.003 C 
ATOM     22  C   UNL     1      47.150  12.013  -2.442  1.00  0.00     0.033 C 
ATOM     23  C   UNL     1      47.734  12.177  -4.925  1.00  0.00    -0.006 C 
ATOM     24  C   UNL     1      48.032  11.468  -3.567  1.00  0.00     0.120 C 
ATOM     25  C   UNL     1      48.838  11.735  -5.931  1.00  0.00     0.014 C 
ATOM     26  C   UNL     1      46.404  11.618  -5.492  1.00  0.00     0.014 C 
ENDROOT
BRANCH   1  27
ATOM     27  C   UNL     1      42.444  18.764  -3.465  1.00  0.00     0.048 C 
ATOM     28  O   UNL     1      43.443  19.369  -3.940  1.00  0.00    -0.550 OA
ATOM     29  O   UNL     1      42.065  19.064  -2.163  1.00  0.00    -0.550 OA
ENDBRANCH   1  27
BRANCH   7  30
ATOM     30  C   UNL     1      39.737  15.204  -2.275  1.00  0.00    -0.077 C 
ATOM     31  C   UNL     1      39.808  14.028  -3.219  1.00  0.00     0.039 C 
ATOM     32  C   UNL     1      39.046  15.065  -1.132  1.00  0.00     0.008 C 
ENDBRANCH   7  30
BRANCH  24  33
ATOM     33  O   UNL     1      49.390  11.615  -3.222  1.00  0.00    -0.393 OA
ATOM     34  H   UNL     1      49.661  12.532  -3.488  1.00  0.00     0.210 HD
ENDBRANCH  24  33
TORSDOF 3
ENDMDL
MODEL 2
REMARK VINA RESULT:    -4.268      1.883      3.986
REMARK INTER + INTRA:          -4.899
REMARK INTER:                  -4.776
REMARK INTRA:                  -0.123
REMARK UNBOUND:                -0.008
REMARK SMILES C=C(C)[C@@H]1CC[C@]2(C(=O)[O-])CC[C@]3(C)[C@@H](CC[C@@H]4[C@@]5(C)CC[C@H](O)C(C)(C)[C@H]5CC[C@]43C)[C@@H]12
REMARK SMILES IDX 7 1 6 2 33 3 11 4 5 5 15 6 4 7 12 8 16 9 13 10 17 11 31 12
REMARK SMILES IDX 14 13 18 14 30 15 32 16 19 17 29 18 21 19 20 20 28 21 22 22
REMARK SMILES IDX 25 23 23 24 26 25 27 26 8 27 9 28 10 29 2 30 3 31 1 32 24 33
REMARK H PARENT 24 34
REMARK Flexibility Score: inf
ROOT
ATOM      1  C   UNL     1      40.499  17.490  -3.691  1.00  0.00     0.014 C 
ATOM      2  C   UNL     1      39.590  18.715  -3.450  1.00  0.00     0.014 C 
ATOM      3  C   UNL     1      41.867  18.175  -3.777  1.00  0.00     0.012 C 
ATOM      4  C   UNL     1      40.522  16.477  -2.501  1.00  0.00     0.014 C 
ATOM      5  C   UNL     1      40.206  19.868  -4.271  1.00  0.00     0.009 C 
ATOM      6  C   UNL     1      43.053  17.236  -4.095  1.00  0.00     0.000 C 
ATOM      7  C   UNL     1      41.662  19.458  -4.591  1.00  0.00     0.018 C 
ATOM      8  C   UNL     1      41.931  16.011  -2.008  1.00  0.00     0.008 C 
ATOM      9  C   UNL     1      43.085  16.681  -5.530  1.00  0.00     0.005 C 
ATOM     10  C   UNL     1      43.221  16.137  -2.952  1.00  0.00    -0.024 C 
ATOM     11  C   UNL     1      44.359  15.881  -5.806  1.00  0.00     0.005 C 
ATOM     12  C   UNL     1      43.674  14.692  -3.563  1.00  0.00    -0.024 C 
ATOM     13  C   UNL     1      44.328  16.728  -2.002  1.00  0.00     0.012 C 
ATOM     14  C   UNL     1      44.799  14.910  -4.661  1.00  0.00     0.002 C 
ATOM     15  C   UNL     1      44.258  13.770  -2.435  1.00  0.00     0.008 C 
ATOM     16  C   UNL     1      42.435  13.949  -4.184  1.00  0.00     0.012 C 
ATOM     17  C   UNL     1      45.573  13.611  -5.172  1.00  0.00    -0.026 C 
ATOM     18  C   UNL     1      44.987  12.501  -2.909  1.00  0.00     0.005 C 
ATOM     19  C   UNL     1      46.756  14.016  -6.115  1.00  0.00     0.010 C 
ATOM     20  C   UNL     1      44.659  12.690  -6.048  1.00  0.00     0.012 C 
ATOM     21  C   UNL     1      46.108  12.738  -3.959  1.00  0.00     0.003 C 
ATOM     22  C   UNL     1      47.981  14.550  -5.383  1.00  0.00     0.033 C 
ATOM     23  C   UNL     1      47.546  13.076  -3.341  1.00  0.00    -0.006 C 
ATOM     24  C   UNL     1      48.556  13.472  -4.464  1.00  0.00     0.120 C 
ATOM     25  C   UNL     1      48.119  11.818  -2.625  1.00  0.00     0.014 C 
ATOM     26  C   UNL     1      47.534  14.197  -2.270  1.00  0.00     0.014 C 
ENDROOT
BRANCH   1  27
ATOM     27  C   UNL     1      40.018  16.830  -4.993  1.00  0.00     0.048 C 
ATOM     28  O   UNL     1      39.775  15.594  -5.052  1.00  0.00    -0.550 OA
ATOM     29  O   UNL     1      39.763  17.595  -6.125  1.00  0.00    -0.550 OA
ENDBRANCH   1  27
BRANCH   7  30
ATOM     30  C   UNL     1      42.687  20.538  -4.256  1.00  0.00    -0.077 C 
ATOM     31  C   UNL     1      42.983  20.934  -2.829  1.00  0.00     0.039 C 
ATOM     32  C   UNL     1      43.393  21.117  -5.240  1.00  0.00     0.008 C 
ENDBRANCH   7  30
BRANCH  24  33
ATOM     33  O   UNL     1      48.918  12.341  -5.222  1.00  0.00    -0.393 OA
ATOM     34  H   UNL     1      49.327  12.673  -6.064  1.00  0.00     0.210 HD
ENDBRANCH  24  33
TORSDOF 3
ENDMDL
MODEL 3
REMARK VINA RESULT:    -3.578      1.829      3.180
REMARK INTER + INTRA:          -4.109
REMARK INTER:                  -5.034
REMARK INTRA:                   0.925
REMARK UNBOUND:                -0.008
REMARK SMILES C=C(C)[C@@H]1CC[C@]2(C(=O)[O-])CC[C@]3(C)[C@@H](CC[C@@H]4[C@@]5(C)CC[C@H](O)C(C)(C)[C@H]5CC[C@]43C)[C@@H]12
REMARK SMILES IDX 7 1 6 2 33 3 11 4 5 5 15 6 4 7 12 8 16 9 13 10 17 11 31 12
REMARK SMILES IDX 14 13 18 14 30 15 32 16 19 17 29 18 21 19 20 20 28 21 22 22
REMARK SMILES IDX 25 23 23 24 26 25 27 26 8 27 9 28 10 29 2 30 3 31 1 32 24 33
REMARK H PARENT 24 34
REMARK Flexibility Score: inf
ROOT
ATOM      1  C   UNL     1      41.429  19.158  -4.550  1.00  0.00     0.014 C 
ATOM      2  C   UNL     1      40.442  20.272  -4.139  1.00  0.00     0.014 C 
ATOM      3  C   UNL     1      42.098  18.873  -3.202  1.00  0.00     0.012 C 
ATOM      4  C   UNL     1      40.733  17.850  -5.049  1.00  0.00     0.014 C 
ATOM      5  C   UNL     1      41.167  21.104  -3.059  1.00  0.00     0.009 C 
ATOM      6  C   UNL     1      43.234  17.824  -3.241  1.00  0.00     0.000 C 
ATOM      7  C   UNL     1      42.330  20.233  -2.532  1.00  0.00     0.018 C 
ATOM      8  C   UNL     1      41.235  16.510  -4.422  1.00  0.00     0.008 C 
ATOM      9  C   UNL     1      44.525  18.281  -3.943  1.00  0.00     0.005 C 
ATOM     10  C   UNL     1      42.677  16.411  -3.725  1.00  0.00    -0.024 C 
ATOM     11  C   UNL     1      45.643  17.245  -3.814  1.00  0.00     0.005 C 
ATOM     12  C   UNL     1      43.756  15.623  -4.664  1.00  0.00    -0.024 C 
ATOM     13  C   UNL     1      42.398  15.623  -2.391  1.00  0.00     0.012 C 
ATOM     14  C   UNL     1      45.205  15.759  -4.032  1.00  0.00     0.002 C 
ATOM     15  C   UNL     1      43.400  14.097  -4.758  1.00  0.00     0.008 C 
ATOM     16  C   UNL     1      43.735  16.203  -6.125  1.00  0.00     0.012 C 
ATOM     17  C   UNL     1      46.350  14.827  -4.640  1.00  0.00    -0.026 C 
ATOM     18  C   UNL     1      44.483  13.187  -5.364  1.00  0.00     0.005 C 
ATOM     19  C   UNL     1      47.665  14.958  -3.799  1.00  0.00     0.010 C 
ATOM     20  C   UNL     1      46.755  15.264  -6.088  1.00  0.00     0.012 C 
ATOM     21  C   UNL     1      45.888  13.310  -4.710  1.00  0.00     0.003 C 
ATOM     22  C   UNL     1      47.639  14.194  -2.480  1.00  0.00     0.033 C 
ATOM     23  C   UNL     1      46.118  12.374  -3.432  1.00  0.00    -0.006 C 
ATOM     24  C   UNL     1      47.482  12.696  -2.743  1.00  0.00     0.120 C 
ATOM     25  C   UNL     1      46.164  10.882  -3.875  1.00  0.00     0.014 C 
ATOM     26  C   UNL     1      44.995  12.460  -2.367  1.00  0.00     0.014 C 
ENDROOT
BRANCH   1  27
ATOM     27  C   UNL     1      42.353  19.758  -5.622  1.00  0.00     0.048 C 
ATOM     28  O   UNL     1      42.210  20.944  -6.024  1.00  0.00    -0.550 OA
ATOM     29  O   UNL     1      43.423  19.029  -6.125  1.00  0.00    -0.550 OA
ENDBRANCH   1  27
BRANCH   7  30
ATOM     30  C   UNL     1      42.379  20.139  -1.010  1.00  0.00    -0.077 C 
ATOM     31  C   UNL     1      43.584  20.600  -0.226  1.00  0.00     0.039 C 
ATOM     32  C   UNL     1      41.309  19.693  -0.333  1.00  0.00     0.008 C 
ENDBRANCH   7  30
BRANCH  24  33
ATOM     33  O   UNL     1      48.553  12.234  -3.532  1.00  0.00    -0.393 OA
ATOM     34  H   UNL     1      48.853  12.998  -4.092  1.00  0.00     0.210 HD
ENDBRANCH  24  33
TORSDOF 3
ENDMDL
MODEL 4
REMARK VINA RESULT:    -3.327      1.762      7.473
REMARK INTER + INTRA:          -3.821
REMARK INTER:                  -4.475
REMARK INTRA:                   0.654
REMARK UNBOUND:                -0.008
REMARK SMILES C=C(C)[C@@H]1CC[C@]2(C(=O)[O-])CC[C@]3(C)[C@@H](CC[C@@H]4[C@@]5(C)CC[C@H](O)C(C)(C)[C@H]5CC[C@]43C)[C@@H]12
REMARK SMILES IDX 7 1 6 2 33 3 11 4 5 5 15 6 4 7 12 8 16 9 13 10 17 11 31 12
REMARK SMILES IDX 14 13 18 14 30 15 32 16 19 17 29 18 21 19 20 20 28 21 22 22
REMARK SMILES IDX 25 23 23 24 26 25 27 26 8 27 9 28 10 29 2 30 3 31 1 32 24 33
REMARK H PARENT 24 34
REMARK Flexibility Score: inf
ROOT
ATOM      1  C   UNL     1      48.073  12.746  -4.333  1.00  0.00     0.014 C 
ATOM      2  C   UNL     1      49.364  12.016  -3.904  1.00  0.00     0.014 C 
ATOM      3  C   UNL     1      47.254  12.636  -3.043  1.00  0.00     0.012 C 
ATOM      4  C   UNL     1      48.283  14.259  -4.664  1.00  0.00     0.014 C 
ATOM      5  C   UNL     1      48.915  10.875  -2.966  1.00  0.00     0.009 C 
ATOM      6  C   UNL     1      45.822  13.214  -3.124  1.00  0.00     0.000 C 
ATOM      7  C   UNL     1      47.482  11.221  -2.500  1.00  0.00     0.018 C 
ATOM      8  C   UNL     1      47.289  15.264  -3.997  1.00  0.00     0.008 C 
ATOM      9  C   UNL     1      44.835  12.407  -3.984  1.00  0.00     0.005 C 
ATOM     10  C   UNL     1      45.864  14.775  -3.446  1.00  0.00    -0.024 C 
ATOM     11  C   UNL     1      43.412  12.961  -3.897  1.00  0.00     0.005 C 
ATOM     12  C   UNL     1      44.641  15.223  -4.432  1.00  0.00    -0.024 C 
ATOM     13  C   UNL     1      45.746  15.468  -2.038  1.00  0.00     0.012 C 
ATOM     14  C   UNL     1      43.298  14.521  -3.963  1.00  0.00     0.002 C 
ATOM     15  C   UNL     1      44.428  16.778  -4.380  1.00  0.00     0.008 C 
ATOM     16  C   UNL     1      44.972  14.842  -5.920  1.00  0.00     0.012 C 
ATOM     17  C   UNL     1      41.940  15.046  -4.616  1.00  0.00    -0.026 C 
ATOM     18  C   UNL     1      43.135  17.305  -5.027  1.00  0.00     0.005 C 
ATOM     19  C   UNL     1      40.706  14.373  -3.925  1.00  0.00     0.010 C 
ATOM     20  C   UNL     1      41.822  14.646  -6.125  1.00  0.00     0.012 C 
ATOM     21  C   UNL     1      41.827  16.627  -4.531  1.00  0.00     0.003 C 
ATOM     22  C   UNL     1      40.362  14.956  -2.560  1.00  0.00     0.033 C 
ATOM     23  C   UNL     1      41.187  17.284  -3.218  1.00  0.00    -0.006 C 
ATOM     24  C   UNL     1      39.986  16.432  -2.698  1.00  0.00     0.120 C 
ATOM     25  C   UNL     1      40.636  18.701  -3.556  1.00  0.00     0.014 C 
ATOM     26  C   UNL     1      42.187  17.491  -2.053  1.00  0.00     0.014 C 
ENDROOT
BRANCH   1  27
ATOM     27  C   UNL     1      47.505  11.973  -5.534  1.00  0.00     0.048 C 
ATOM     28  O   UNL     1      46.441  12.336  -6.106  1.00  0.00    -0.550 OA
ATOM     29  O   UNL     1      48.193  10.893  -6.073  1.00  0.00    -0.550 OA
ENDBRANCH   1  27
BRANCH   7  30
ATOM     30  C   UNL     1      47.296  11.133  -0.988  1.00  0.00    -0.077 C 
ATOM     31  C   UNL     1      45.942  10.886  -0.369  1.00  0.00     0.039 C 
ATOM     32  C   UNL     1      48.364  11.217  -0.178  1.00  0.00     0.008 C 
ENDBRANCH   7  30
BRANCH  24  33
ATOM     33  O   UNL     1      38.878  16.565  -3.557  1.00  0.00    -0.393 OA
ATOM     34  H   UNL     1      38.070  16.630  -2.984  1.00  0.00     0.210 HD
ENDBRANCH  24  33
TORSDOF 3
ENDMDL
MODEL 5
REMARK VINA RESULT:    -2.463      1.614      2.177
REMARK INTER + INTRA:          -2.831
REMARK INTER:                  -2.853
REMARK INTRA:                   0.022
REMARK UNBOUND:                -0.008
REMARK SMILES C=C(C)[C@@H]1CC[C@]2(C(=O)[O-])CC[C@]3(C)[C@@H](CC[C@@H]4[C@@]5(C)CC[C@H](O)C(C)(C)[C@H]5CC[C@]43C)[C@@H]12
REMARK SMILES IDX 7 1 6 2 33 3 11 4 5 5 15 6 4 7 12 8 16 9 13 10 17 11 31 12
REMARK SMILES IDX 14 13 18 14 30 15 32 16 19 17 29 18 21 19 20 20 28 21 22 22
REMARK SMILES IDX 25 23 23 24 26 25 27 26 8 27 9 28 10 29 2 30 3 31 1 32 24 33
REMARK H PARENT 24 34
REMARK Flexibility Score: inf
ROOT
ATOM      1  C   UNL     1      42.152  19.425  -3.602  1.00  0.00     0.014 C 
ATOM      2  C   UNL     1      40.979  20.384  -3.901  1.00  0.00     0.014 C 
ATOM      3  C   UNL     1      41.591  18.118  -4.173  1.00  0.00     0.012 C 
ATOM      4  C   UNL     1      43.469  19.780  -4.366  1.00  0.00     0.014 C 
ATOM      5  C   UNL     1      39.692  19.551  -3.715  1.00  0.00     0.009 C 
ATOM      6  C   UNL     1      42.493  16.877  -3.981  1.00  0.00     0.000 C 
ATOM      7  C   UNL     1      40.113  18.065  -3.770  1.00  0.00     0.018 C 
ATOM      8  C   UNL     1      44.177  18.606  -5.117  1.00  0.00     0.008 C 
ATOM      9  C   UNL     1      42.601  16.362  -2.535  1.00  0.00     0.005 C 
ATOM     10  C   UNL     1      43.889  17.078  -4.723  1.00  0.00    -0.024 C 
ATOM     11  C   UNL     1      43.391  15.054  -2.451  1.00  0.00     0.005 C 
ATOM     12  C   UNL     1      45.124  16.423  -3.878  1.00  0.00    -0.024 C 
ATOM     13  C   UNL     1      43.701  16.359  -6.111  1.00  0.00     0.012 C 
ATOM     14  C   UNL     1      44.690  15.001  -3.322  1.00  0.00     0.002 C 
ATOM     15  C   UNL     1      46.383  16.229  -4.795  1.00  0.00     0.008 C 
ATOM     16  C   UNL     1      45.543  17.372  -2.698  1.00  0.00     0.012 C 
ATOM     17  C   UNL     1      45.842  14.078  -2.715  1.00  0.00    -0.026 C 
ATOM     18  C   UNL     1      47.515  15.361  -4.216  1.00  0.00     0.005 C 
ATOM     19  C   UNL     1      45.280  12.657  -2.372  1.00  0.00     0.010 C 
ATOM     20  C   UNL     1      46.382  14.634  -1.354  1.00  0.00     0.012 C 
ATOM     21  C   UNL     1      47.075  13.960  -3.707  1.00  0.00     0.003 C 
ATOM     22  C   UNL     1      45.091  11.753  -3.585  1.00  0.00     0.033 C 
ATOM     23  C   UNL     1      47.058  12.814  -4.825  1.00  0.00    -0.006 C 
ATOM     24  C   UNL     1      46.437  11.496  -4.263  1.00  0.00     0.120 C 
ATOM     25  C   UNL     1      48.516  12.489  -5.266  1.00  0.00     0.014 C 
ATOM     26  C   UNL     1      46.305  13.200  -6.124  1.00  0.00     0.014 C 
ENDROOT
BRANCH   1  27
ATOM     27  C   UNL     1      42.356  19.436  -2.079  1.00  0.00     0.048 C 
ATOM     28  O   UNL     1      43.358  19.993  -1.554  1.00  0.00    -0.550 OA
ATOM     29  O   UNL     1      41.398  18.895  -1.230  1.00  0.00    -0.550 OA
ENDBRANCH   1  27
BRANCH   7  30
ATOM     30  C   UNL     1      39.271  17.228  -4.729  1.00  0.00    -0.077 C 
ATOM     31  C   UNL     1      38.880  17.741  -6.095  1.00  0.00     0.039 C 
ATOM     32  C   UNL     1      38.912  15.980  -4.388  1.00  0.00     0.008 C 
ENDBRANCH   7  30
BRANCH  24  33
ATOM     33  O   UNL     1      47.321  10.884  -3.354  1.00  0.00    -0.393 OA
ATOM     34  H   UNL     1      46.842  10.806  -2.488  1.00  0.00     0.210 HD
ENDBRANCH  24  33
TORSDOF 3
ENDMDL
