MODEL 1
REMARK VINA RESULT:    -4.408      0.000      0.000
REMARK INTER + INTRA:          -4.898
REMARK INTER:                  -4.666
REMARK INTRA:                  -0.232
REMARK UNBOUND:                -0.232
REMARK SMILES C=C1CC[C@@]2(C(C)C)C[C@@H]12
REMARK SMILES IDX 5 1 4 2 3 3 2 4 1 5 10 6 9 7 6 8 7 9 8 10
REMARK H PARENT
REMARK Flexibility Score: inf
ROOT
ATOM      1  C   UNL     1      16.037  14.358  36.291  1.00  0.00    -0.020 C 
ATOM      2  C   UNL     1      15.167  13.107  36.510  1.00  0.00     0.012 C 
ATOM      3  C   UNL     1      13.804  13.586  37.014  1.00  0.00     0.031 C 
ATOM      4  C   UNL     1      13.884  15.074  36.988  1.00  0.00    -0.074 C 
ATOM      5  C   UNL     1      12.858  15.868  37.309  1.00  0.00     0.008 C 
ATOM      6  C   UNL     1      15.208  15.602  36.565  1.00  0.00     0.021 C 
ATOM      7  C   UNL     1      15.635  15.272  35.137  1.00  0.00     0.016 C 
ENDROOT
BRANCH   1   8
ATOM      8  C   UNL     1      17.520  14.404  36.737  1.00  0.00    -0.011 C 
ATOM      9  C   UNL     1      17.991  13.012  37.165  1.00  0.00     0.008 C 
ATOM     10  C   UNL     1      17.739  15.423  37.864  1.00  0.00     0.008 C 
ENDBRANCH   1   8
TORSDOF 1
ENDMDL
MODEL 2
REMARK VINA RESULT:    -4.313      0.767      3.952
REMARK INTER + INTRA:          -4.798
REMARK INTER:                  -4.523
REMARK INTRA:                  -0.274
REMARK UNBOUND:                -0.232
REMARK SMILES C=C1CC[C@@]2(C(C)C)C[C@@H]12
REMARK SMILES IDX 5 1 4 2 3 3 2 4 1 5 10 6 9 7 6 8 7 9 8 10
REMARK H PARENT
REMARK Flexibility Score: inf
ROOT
ATOM      1  C   UNL     1      15.015  15.651  36.545  1.00  0.00    -0.020 C 
ATOM      2  C   UNL     1      15.753  16.626  37.479  1.00  0.00     0.012 C 
ATOM      3  C   UNL     1      17.124  16.018  37.776  1.00  0.00     0.031 C 
ATOM      4  C   UNL     1      17.183  14.777  36.953  1.00  0.00    -0.074 C 
ATOM      5  C   UNL     1      18.259  13.986  36.898  1.00  0.00     0.008 C 
ATOM      6  C   UNL     1      15.938  14.498  36.190  1.00  0.00     0.021 C 
ATOM      7  C   UNL     1      15.561  15.523  35.125  1.00  0.00     0.016 C 
ENDROOT
BRANCH   1   8
ATOM      8  C   UNL     1      13.521  15.300  36.752  1.00  0.00    -0.011 C 
ATOM      9  C   UNL     1      12.854  16.330  37.669  1.00  0.00     0.008 C 
ATOM     10  C   UNL     1      13.346  13.882  37.313  1.00  0.00     0.008 C 
ENDBRANCH   1   8
TORSDOF 1
ENDMDL
MODEL 3
REMARK VINA RESULT:    -4.112     14.278     15.761
REMARK INTER + INTRA:          -4.585
REMARK INTER:                  -4.304
REMARK INTRA:                  -0.281
REMARK UNBOUND:                -0.232
REMARK SMILES C=C1CC[C@@]2(C(C)C)C[C@@H]12
REMARK SMILES IDX 5 1 4 2 3 3 2 4 1 5 10 6 9 7 6 8 7 9 8 10
REMARK H PARENT
REMARK Flexibility Score: inf
ROOT
ATOM      1  C   UNL     1       8.144  19.812  24.300  1.00  0.00    -0.020 C 
ATOM      2  C   UNL     1       8.991  19.060  23.257  1.00  0.00     0.012 C 
ATOM      3  C   UNL     1       8.023  18.284  22.363  1.00  0.00     0.031 C 
ATOM      4  C   UNL     1       6.664  18.668  22.839  1.00  0.00    -0.074 C 
ATOM      5  C   UNL     1       5.537  18.234  22.266  1.00  0.00     0.008 C 
ATOM      6  C   UNL     1       6.670  19.585  24.010  1.00  0.00     0.021 C 
ATOM      7  C   UNL     1       7.286  20.962  23.779  1.00  0.00     0.016 C 
ENDROOT
BRANCH   1   8
ATOM      8  C   UNL     1       8.553  19.867  25.793  1.00  0.00    -0.011 C 
ATOM      9  C   UNL     1      10.035  19.516  25.952  1.00  0.00     0.008 C 
ATOM     10  C   UNL     1       7.681  18.941  26.652  1.00  0.00     0.008 C 
ENDBRANCH   1   8
TORSDOF 1
ENDMDL
MODEL 4
REMARK VINA RESULT:    -4.083      1.949      3.643
REMARK INTER + INTRA:          -4.554
REMARK INTER:                  -4.412
REMARK INTRA:                  -0.142
REMARK UNBOUND:                -0.232
REMARK SMILES C=C1CC[C@@]2(C(C)C)C[C@@H]12
REMARK SMILES IDX 5 1 4 2 3 3 2 4 1 5 10 6 9 7 6 8 7 9 8 10
REMARK H PARENT
REMARK Flexibility Score: inf
ROOT
ATOM      1  C   UNL     1      13.806  15.346  36.957  1.00  0.00    -0.020 C 
ATOM      2  C   UNL     1      15.000  15.744  36.070  1.00  0.00     0.012 C 
ATOM      3  C   UNL     1      14.498  16.796  35.080  1.00  0.00     0.031 C 
ATOM      4  C   UNL     1      13.080  17.045  35.467  1.00  0.00    -0.074 C 
ATOM      5  C   UNL     1      12.305  17.952  34.864  1.00  0.00     0.008 C 
ATOM      6  C   UNL     1      12.602  16.197  36.591  1.00  0.00     0.021 C 
ATOM      7  C   UNL     1      13.299  16.406  37.931  1.00  0.00     0.016 C 
ENDROOT
BRANCH   1   8
ATOM      8  C   UNL     1      13.522  13.868  37.323  1.00  0.00    -0.011 C 
ATOM      9  C   UNL     1      14.533  12.946  36.636  1.00  0.00     0.008 C 
ATOM     10  C   UNL     1      12.086  13.463  36.962  1.00  0.00     0.008 C 
ENDBRANCH   1   8
TORSDOF 1
ENDMDL
MODEL 5
REMARK VINA RESULT:    -4.035      1.458      2.517
REMARK INTER + INTRA:          -4.503
REMARK INTER:                  -4.222
REMARK INTRA:                  -0.281
REMARK UNBOUND:                -0.232
REMARK SMILES C=C1CC[C@@]2(C(C)C)C[C@@H]12
REMARK SMILES IDX 5 1 4 2 3 3 2 4 1 5 10 6 9 7 6 8 7 9 8 10
REMARK H PARENT
REMARK Flexibility Score: inf
ROOT
ATOM      1  C   UNL     1      13.863  15.617  36.752  1.00  0.00    -0.020 C 
ATOM      2  C   UNL     1      13.398  14.192  37.101  1.00  0.00     0.012 C 
ATOM      3  C   UNL     1      12.416  14.309  38.268  1.00  0.00     0.031 C 
ATOM      4  C   UNL     1      12.268  15.774  38.503  1.00  0.00    -0.074 C 
ATOM      5  C   UNL     1      11.440  16.289  39.417  1.00  0.00     0.008 C 
ATOM      6  C   UNL     1      13.119  16.617  37.622  1.00  0.00     0.021 C 
ATOM      7  C   UNL     1      12.819  16.539  36.128  1.00  0.00     0.016 C 
ENDROOT
BRANCH   1   8
ATOM      8  C   UNL     1      15.348  15.936  36.449  1.00  0.00    -0.011 C 
ATOM      9  C   UNL     1      16.107  14.653  36.098  1.00  0.00     0.008 C 
ATOM     10  C   UNL     1      16.020  16.662  37.623  1.00  0.00     0.008 C 
ENDBRANCH   1   8
TORSDOF 1
ENDMDL
MODEL 6
REMARK VINA RESULT:    -4.019     13.312     14.859
REMARK INTER + INTRA:          -4.487
REMARK INTER:                  -4.318
REMARK INTRA:                  -0.169
REMARK UNBOUND:                -0.232
REMARK SMILES C=C1CC[C@@]2(C(C)C)C[C@@H]12
REMARK SMILES IDX 5 1 4 2 3 3 2 4 1 5 10 6 9 7 6 8 7 9 8 10
REMARK H PARENT
REMARK Flexibility Score: inf
ROOT
ATOM      1  C   UNL     1       8.659  19.783  25.291  1.00  0.00    -0.020 C 
ATOM      2  C   UNL     1       9.774  19.561  24.253  1.00  0.00     0.012 C 
ATOM      3  C   UNL     1       9.126  18.927  23.021  1.00  0.00     0.031 C 
ATOM      4  C   UNL     1       7.669  18.882  23.331  1.00  0.00    -0.074 C 
ATOM      5  C   UNL     1       6.750  18.439  22.468  1.00  0.00     0.008 C 
ATOM      6  C   UNL     1       7.324  19.380  24.689  1.00  0.00     0.021 C 
ATOM      7  C   UNL     1       7.622  20.852  24.958  1.00  0.00     0.016 C 
ENDROOT
BRANCH   1   8
ATOM      8  C   UNL     1       8.868  19.454  26.790  1.00  0.00    -0.011 C 
ATOM      9  C   UNL     1      10.288  18.932  27.029  1.00  0.00     0.008 C 
ATOM     10  C   UNL     1       7.827  18.447  27.298  1.00  0.00     0.008 C 
ENDBRANCH   1   8
TORSDOF 1
ENDMDL
MODEL 7
REMARK VINA RESULT:    -3.933      1.463      2.391
REMARK INTER + INTRA:          -4.395
REMARK INTER:                  -4.188
REMARK INTRA:                  -0.207
REMARK UNBOUND:                -0.232
REMARK SMILES C=C1CC[C@@]2(C(C)C)C[C@@H]12
REMARK SMILES IDX 5 1 4 2 3 3 2 4 1 5 10 6 9 7 6 8 7 9 8 10
REMARK H PARENT
REMARK Flexibility Score: inf
ROOT
ATOM      1  C   UNL     1      14.643  15.386  36.379  1.00  0.00    -0.020 C 
ATOM      2  C   UNL     1      13.334  15.166  37.157  1.00  0.00     0.012 C 
ATOM      3  C   UNL     1      13.222  16.294  38.184  1.00  0.00     0.031 C 
ATOM      4  C   UNL     1      14.397  17.173  37.921  1.00  0.00    -0.074 C 
ATOM      5  C   UNL     1      14.623  18.310  38.586  1.00  0.00     0.008 C 
ATOM      6  C   UNL     1      15.295  16.677  36.846  1.00  0.00     0.021 C 
ATOM      7  C   UNL     1      14.687  16.595  35.449  1.00  0.00     0.016 C 
ENDROOT
BRANCH   1   8
ATOM      8  C   UNL     1      15.597  14.212  36.045  1.00  0.00    -0.011 C 
ATOM      9  C   UNL     1      14.968  12.879  36.462  1.00  0.00     0.008 C 
ATOM     10  C   UNL     1      16.970  14.395  36.705  1.00  0.00     0.008 C 
ENDBRANCH   1   8
TORSDOF 1
ENDMDL
MODEL 8
REMARK VINA RESULT:    -3.918     15.504     17.242
REMARK INTER + INTRA:          -4.379
REMARK INTER:                  -4.088
REMARK INTRA:                  -0.291
REMARK UNBOUND:                -0.232
REMARK SMILES C=C1CC[C@@]2(C(C)C)C[C@@H]12
REMARK SMILES IDX 5 1 4 2 3 3 2 4 1 5 10 6 9 7 6 8 7 9 8 10
REMARK H PARENT
REMARK Flexibility Score: inf
ROOT
ATOM      1  C   UNL     1       6.606  19.401  23.467  1.00  0.00    -0.020 C 
ATOM      2  C   UNL     1       6.894  18.155  22.610  1.00  0.00     0.012 C 
ATOM      3  C   UNL     1       8.367  18.217  22.203  1.00  0.00     0.031 C 
ATOM      4  C   UNL     1       8.909  19.422  22.892  1.00  0.00    -0.074 C 
ATOM      5  C   UNL     1      10.192  19.788  22.827  1.00  0.00     0.008 C 
ATOM      6  C   UNL     1       7.893  20.182  23.668  1.00  0.00     0.021 C 
ATOM      7  C   UNL     1       7.260  19.446  24.845  1.00  0.00     0.016 C 
ENDROOT
BRANCH   1   8
ATOM      8  C   UNL     1       5.314  20.235  23.279  1.00  0.00    -0.011 C 
ATOM      9  C   UNL     1       4.239  19.401  22.576  1.00  0.00     0.008 C 
ATOM     10  C   UNL     1       5.587  21.532  22.505  1.00  0.00     0.008 C 
ENDBRANCH   1   8
TORSDOF 1
ENDMDL
MODEL 9
REMARK VINA RESULT:    -3.904      1.791      3.977
REMARK INTER + INTRA:          -4.364
REMARK INTER:                  -4.333
REMARK INTRA:                  -0.031
REMARK UNBOUND:                -0.232
REMARK SMILES C=C1CC[C@@]2(C(C)C)C[C@@H]12
REMARK SMILES IDX 5 1 4 2 3 3 2 4 1 5 10 6 9 7 6 8 7 9 8 10
REMARK H PARENT
REMARK Flexibility Score: inf
ROOT
ATOM      1  C   UNL     1      14.234  16.467  36.608  1.00  0.00    -0.020 C 
ATOM      2  C   UNL     1      13.100  15.905  37.485  1.00  0.00     0.012 C 
ATOM      3  C   UNL     1      13.230  14.381  37.471  1.00  0.00     0.031 C 
ATOM      4  C   UNL     1      14.463  14.105  36.680  1.00  0.00    -0.074 C 
ATOM      5  C   UNL     1      14.948  12.876  36.486  1.00  0.00     0.008 C 
ATOM      6  C   UNL     1      15.112  15.324  36.128  1.00  0.00     0.021 C 
ATOM      7  C   UNL     1      15.652  16.318  37.152  1.00  0.00     0.016 C 
ENDROOT
BRANCH   1   8
ATOM      8  C   UNL     1      13.988  17.619  35.602  1.00  0.00    -0.011 C 
ATOM      9  C   UNL     1      13.936  18.963  36.335  1.00  0.00     0.008 C 
ATOM     10  C   UNL     1      12.707  17.394  34.787  1.00  0.00     0.008 C 
ENDBRANCH   1   8
TORSDOF 1
ENDMDL
