MODEL 1
REMARK VINA RESULT:    -1.534      0.000      0.000
REMARK INTER + INTRA:          -1.781
REMARK INTER:                  -2.340
REMARK INTRA:                   0.560
REMARK UNBOUND:                 0.560
REMARK SMILES CC1=CCC[C@@H](C)C(=O)C[C@H](C(C)C)C(=O)C1
REMARK SMILES IDX 8 1 9 2 6 3 7 4 5 5 4 6 3 7 2 8 1 9 10 11 11 12 15 13 16 14
REMARK SMILES IDX 17 15 12 17 13 18 14 19
REMARK H PARENT
REMARK Flexibility Score: 70.00
ROOT
ATOM      1  C   UNL     1      25.096  25.890  28.556  1.00  0.00     0.136 C 
ATOM      2  O   UNL     1      24.019  26.427  28.335  1.00  0.00    -0.299 OA
ENDROOT
BRANCH   1   3
ATOM      3  C   UNL     1      25.599  24.814  27.619  1.00  0.00     0.053 C 
ATOM      4  C   UNL     1      24.447  23.947  27.099  1.00  0.00     0.016 C 
BRANCH   3   5
ATOM      5  C   UNL     1      26.663  23.964  28.356  1.00  0.00     0.015 C 
BRANCH   5   6
ATOM      6  C   UNL     1      28.120  24.157  27.892  1.00  0.00     0.028 C 
BRANCH   6   7
ATOM      7  C   UNL     1      28.349  25.055  26.695  1.00  0.00    -0.028 C 
ATOM      8  C   UNL     1      28.666  26.373  26.714  1.00  0.00    -0.070 CG0
ATOM      9  C   UNL     1      28.964  27.039  25.393  1.00  0.00     0.039 C 
ATOM     10  G   UNL     1      28.656  27.236  27.964  1.00  0.00     0.000 G0
ENDBRANCH   6   7
ENDBRANCH   5   6
ENDBRANCH   3   5
ENDBRANCH   1   3
BRANCH   1  11
ATOM     11  C   UNL     1      25.866  26.262  29.802  1.00  0.00     0.087 C 
BRANCH  11  12
ATOM     12  C   UNL     1      26.630  27.612  29.652  1.00  0.00     0.066 C 
BRANCH  12  13
ATOM     13  C   UNL     1      27.248  27.740  28.265  1.00  0.00     0.140 C 
ATOM     14  O   UNL     1      26.605  28.276  27.373  1.00  0.00    -0.299 OA
BRANCH  13  15
ATOM     15  C   UNL     1      28.651  27.255  27.959  1.00  0.00     0.106 CG0
ATOM     16  G   UNL     1      28.662  26.384  26.715  1.00  0.00     0.000 G0
ENDBRANCH  13  15
ENDBRANCH  12  13
BRANCH  12  17
ATOM     17  C   UNL     1      25.753  28.863  29.976  1.00  0.00    -0.006 C 
ATOM     18  C   UNL     1      25.183  28.881  31.406  1.00  0.00     0.008 C 
ATOM     19  C   UNL     1      26.510  30.172  29.698  1.00  0.00     0.008 C 
ENDBRANCH  12  17
ENDBRANCH  11  12
ENDBRANCH   1  11
TORSDOF 1
ENDMDL
MODEL 2
REMARK VINA RESULT:    -1.161      1.817      2.740
REMARK INTER + INTRA:          -1.212
REMARK INTER:                  -1.798
REMARK INTRA:                   0.586
REMARK UNBOUND:                 0.560
REMARK SMILES CC1=CCC[C@@H](C)C(=O)C[C@H](C(C)C)C(=O)C1
REMARK SMILES IDX 8 1 9 2 6 3 7 4 5 5 4 6 3 7 2 8 1 9 10 11 11 12 15 13 16 14
REMARK SMILES IDX 17 15 12 17 13 18 14 19
REMARK H PARENT
REMARK Flexibility Score: 70.00
ROOT
ATOM      1  C   UNL     1      26.895  24.669  30.010  1.00  0.00     0.136 C 
ATOM      2  O   UNL     1      25.938  23.923  29.850  1.00  0.00    -0.299 OA
ENDROOT
BRANCH   1   3
ATOM      3  C   UNL     1      28.277  24.082  30.190  1.00  0.00     0.053 C 
ATOM      4  C   UNL     1      28.945  24.615  31.463  1.00  0.00     0.016 C 
BRANCH   3   5
ATOM      5  C   UNL     1      29.123  24.392  28.931  1.00  0.00     0.015 C 
BRANCH   5   6
ATOM      6  C   UNL     1      28.554  23.882  27.594  1.00  0.00     0.028 C 
BRANCH   6   7
ATOM      7  C   UNL     1      28.362  24.902  26.491  1.00  0.00    -0.028 C 
ATOM      8  C   UNL     1      27.207  25.526  26.151  1.00  0.00    -0.070 CG0
ATOM      9  C   UNL     1      27.278  26.597  25.091  1.00  0.00     0.039 C 
ATOM     10  G   UNL     1      25.842  25.157  26.705  1.00  0.00     0.000 G0
ENDBRANCH   6   7
ENDBRANCH   5   6
ENDBRANCH   3   5
ENDBRANCH   1   3
BRANCH   1  11
ATOM     11  C   UNL     1      26.663  26.160  30.099  1.00  0.00     0.087 C 
BRANCH  11  12
ATOM     12  C   UNL     1      26.483  26.820  28.699  1.00  0.00     0.066 C 
BRANCH  12  13
ATOM     13  C   UNL     1      25.442  26.076  27.872  1.00  0.00     0.140 C 
ATOM     14  O   UNL     1      24.256  26.234  28.124  1.00  0.00    -0.299 OA
BRANCH  13  15
ATOM     15  C   UNL     1      25.825  25.170  26.719  1.00  0.00     0.106 CG0
ATOM     16  G   UNL     1      27.197  25.535  26.177  1.00  0.00     0.000 G0
ENDBRANCH  13  15
ENDBRANCH  12  13
BRANCH  12  17
ATOM     17  C   UNL     1      26.138  28.342  28.768  1.00  0.00    -0.006 C 
ATOM     18  C   UNL     1      25.344  28.752  30.022  1.00  0.00     0.008 C 
ATOM     19  C   UNL     1      27.397  29.214  28.638  1.00  0.00     0.008 C 
ENDBRANCH  12  17
ENDBRANCH  11  12
ENDBRANCH   1  11
TORSDOF 1
ENDMDL
MODEL 3
REMARK VINA RESULT:    -1.143     15.146     17.512
REMARK INTER + INTRA:          -1.185
REMARK INTER:                  -3.170
REMARK INTRA:                   1.985
REMARK UNBOUND:                 0.560
REMARK SMILES CC1=CCC[C@@H](C)C(=O)C[C@H](C(C)C)C(=O)C1
REMARK SMILES IDX 8 1 9 2 6 3 7 4 5 5 4 6 3 7 2 8 1 9 10 11 11 12 15 13 16 14
REMARK SMILES IDX 17 15 12 17 13 18 14 19
REMARK H PARENT
REMARK Flexibility Score: 70.00
ROOT
ATOM      1  C   UNL     1      28.341  41.720  23.204  1.00  0.00     0.136 C 
ATOM      2  O   UNL     1      27.710  40.988  23.954  1.00  0.00    -0.299 OA
ENDROOT
BRANCH   1   3
ATOM      3  C   UNL     1      28.668  43.132  23.638  1.00  0.00     0.053 C 
ATOM      4  C   UNL     1      27.972  43.482  24.958  1.00  0.00     0.016 C 
BRANCH   3   5
ATOM      5  C   UNL     1      28.268  44.111  22.507  1.00  0.00     0.015 C 
BRANCH   5   6
ATOM      6  C   UNL     1      29.106  44.029  21.217  1.00  0.00     0.028 C 
BRANCH   6   7
ATOM      7  C   UNL     1      28.358  44.098  19.903  1.00  0.00    -0.028 C 
ATOM      8  C   UNL     1      27.143  43.564  19.627  1.00  0.00    -0.070 CG0
ATOM      9  C   UNL     1      26.538  43.861  18.277  1.00  0.00     0.039 C 
ATOM     10  G   UNL     1      26.395  42.620  20.554  1.00  0.00     0.000 G0
ENDBRANCH   6   7
ENDBRANCH   5   6
ENDBRANCH   3   5
ENDBRANCH   1   3
BRANCH   1  11
ATOM     11  C   UNL     1      28.715  41.221  21.827  1.00  0.00     0.087 C 
BRANCH  11  12
ATOM     12  C   UNL     1      27.598  40.345  21.185  1.00  0.00     0.066 C 
BRANCH  12  13
ATOM     13  C   UNL     1      26.726  41.171  20.247  1.00  0.00     0.140 C 
ATOM     14  O   UNL     1      26.265  40.644  19.244  1.00  0.00    -0.299 OA
BRANCH  13  15
ATOM     15  C   UNL     1      26.380  42.618  20.532  1.00  0.00     0.106 CG0
ATOM     16  G   UNL     1      27.148  43.550  19.609  1.00  0.00     0.000 G0
ENDBRANCH  13  15
ENDBRANCH  12  13
BRANCH  12  17
ATOM     17  C   UNL     1      28.145  39.080  20.449  1.00  0.00    -0.006 C 
ATOM     18  C   UNL     1      27.066  38.039  20.099  1.00  0.00     0.008 C 
ATOM     19  C   UNL     1      28.937  39.458  19.186  1.00  0.00     0.008 C 
ENDBRANCH  12  17
ENDBRANCH  11  12
ENDBRANCH   1  11
TORSDOF 1
ENDMDL
MODEL 4
REMARK VINA RESULT:    -0.385      1.691      4.141
REMARK INTER + INTRA:          -0.028
REMARK INTER:                  -1.953
REMARK INTRA:                   1.924
REMARK UNBOUND:                 0.560
REMARK SMILES CC1=CCC[C@@H](C)C(=O)C[C@H](C(C)C)C(=O)C1
REMARK SMILES IDX 8 1 9 2 6 3 7 4 5 5 4 6 3 7 2 8 1 9 10 11 11 12 15 13 16 14
REMARK SMILES IDX 17 15 12 17 13 18 14 19
REMARK H PARENT
REMARK Flexibility Score: 70.00
ROOT
ATOM      1  C   UNL     1      24.725  25.526  28.095  1.00  0.00     0.136 C 
ATOM      2  O   UNL     1      24.161  24.577  27.568  1.00  0.00    -0.299 OA
ENDROOT
BRANCH   1   3
ATOM      3  C   UNL     1      23.907  26.688  28.614  1.00  0.00     0.053 C 
ATOM      4  C   UNL     1      22.436  26.561  28.200  1.00  0.00     0.016 C 
BRANCH   3   5
ATOM      5  C   UNL     1      24.529  28.010  28.102  1.00  0.00     0.015 C 
BRANCH   5   6
ATOM      6  C   UNL     1      25.249  28.869  29.159  1.00  0.00     0.028 C 
BRANCH   6   7
ATOM      7  C   UNL     1      26.742  28.669  29.311  1.00  0.00    -0.028 C 
ATOM      8  C   UNL     1      27.640  28.450  28.319  1.00  0.00    -0.070 CG0
ATOM      9  C   UNL     1      29.100  28.396  28.697  1.00  0.00     0.039 C 
ATOM     10  G   UNL     1      27.264  28.171  26.873  1.00  0.00     0.000 G0
ENDBRANCH   6   7
ENDBRANCH   5   6
ENDBRANCH   3   5
ENDBRANCH   1   3
BRANCH   1  11
ATOM     11  C   UNL     1      26.235  25.551  28.148  1.00  0.00     0.087 C 
BRANCH  11  12
ATOM     12  C   UNL     1      26.883  25.529  26.731  1.00  0.00     0.066 C 
BRANCH  12  13
ATOM     13  C   UNL     1      27.741  26.766  26.502  1.00  0.00     0.140 C 
ATOM     14  O   UNL     1      28.838  26.642  25.973  1.00  0.00    -0.299 OA
BRANCH  13  15
ATOM     15  C   UNL     1      27.269  28.157  26.875  1.00  0.00     0.106 CG0
ATOM     16  G   UNL     1      27.643  28.488  28.310  1.00  0.00     0.000 G0
ENDBRANCH  13  15
ENDBRANCH  12  13
BRANCH  12  17
ATOM     17  C   UNL     1      27.706  24.233  26.443  1.00  0.00    -0.006 C 
ATOM     18  C   UNL     1      27.853  23.899  24.947  1.00  0.00     0.008 C 
ATOM     19  C   UNL     1      29.092  24.284  27.107  1.00  0.00     0.008 C 
ENDBRANCH  12  17
ENDBRANCH  11  12
ENDBRANCH   1  11
TORSDOF 1
ENDMDL
MODEL 5
REMARK VINA RESULT:    -0.293      1.615      2.467
REMARK INTER + INTRA:           0.112
REMARK INTER:                  -0.827
REMARK INTRA:                   0.940
REMARK UNBOUND:                 0.560
REMARK SMILES CC1=CCC[C@@H](C)C(=O)C[C@H](C(C)C)C(=O)C1
REMARK SMILES IDX 8 1 9 2 6 3 7 4 5 5 4 6 3 7 2 8 1 9 10 11 11 12 15 13 16 14
REMARK SMILES IDX 17 15 12 17 13 18 14 19
REMARK H PARENT
REMARK Flexibility Score: 70.00
ROOT
ATOM      1  C   UNL     1      26.626  25.193  29.419  1.00  0.00     0.136 C 
ATOM      2  O   UNL     1      25.862  24.846  28.529  1.00  0.00    -0.299 OA
ENDROOT
BRANCH   1   3
ATOM      3  C   UNL     1      27.897  24.410  29.660  1.00  0.00     0.053 C 
ATOM      4  C   UNL     1      28.205  24.296  31.158  1.00  0.00     0.016 C 
BRANCH   3   5
ATOM      5  C   UNL     1      29.059  25.086  28.891  1.00  0.00     0.015 C 
BRANCH   5   6
ATOM      6  C   UNL     1      28.689  25.726  27.539  1.00  0.00     0.028 C 
BRANCH   6   7
ATOM      7  C   UNL     1      28.982  27.202  27.372  1.00  0.00    -0.028 C 
ATOM      8  C   UNL     1      28.077  28.202  27.232  1.00  0.00    -0.070 CG0
ATOM      9  C   UNL     1      28.599  29.617  27.198  1.00  0.00     0.039 C 
ATOM     10  G   UNL     1      26.588  27.983  27.022  1.00  0.00     0.000 G0
ENDBRANCH   6   7
ENDBRANCH   5   6
ENDBRANCH   3   5
ENDBRANCH   1   3
BRANCH   1  11
ATOM     11  C   UNL     1      26.245  26.354  30.309  1.00  0.00     0.087 C 
BRANCH  11  12
ATOM     12  C   UNL     1      26.550  27.734  29.653  1.00  0.00     0.066 C 
BRANCH  12  13
ATOM     13  C   UNL     1      25.832  27.876  28.316  1.00  0.00     0.140 C 
ATOM     14  O   UNL     1      24.610  27.929  28.299  1.00  0.00    -0.299 OA
BRANCH  13  15
ATOM     15  C   UNL     1      26.583  27.988  27.005  1.00  0.00     0.106 CG0
ATOM     16  G   UNL     1      28.069  28.195  27.248  1.00  0.00     0.000 G0
ENDBRANCH  13  15
ENDBRANCH  12  13
BRANCH  12  17
ATOM     17  C   UNL     1      26.224  28.950  30.578  1.00  0.00    -0.006 C 
ATOM     18  C   UNL     1      25.776  30.215  29.824  1.00  0.00     0.008 C 
ATOM     19  C   UNL     1      25.182  28.582  31.648  1.00  0.00     0.008 C 
ENDBRANCH  12  17
ENDBRANCH  11  12
ENDBRANCH   1  11
TORSDOF 1
ENDMDL
MODEL 6
REMARK VINA RESULT:    -0.234     14.797     17.188
REMARK INTER + INTRA:           0.203
REMARK INTER:                  -1.555
REMARK INTRA:                   1.758
REMARK UNBOUND:                 0.560
REMARK SMILES CC1=CCC[C@@H](C)C(=O)C[C@H](C(C)C)C(=O)C1
REMARK SMILES IDX 8 1 9 2 6 3 7 4 5 5 4 6 3 7 2 8 1 9 10 11 11 12 15 13 16 14
REMARK SMILES IDX 17 15 12 17 13 18 14 19
REMARK H PARENT
REMARK Flexibility Score: 70.00
ROOT
ATOM      1  C   UNL     1      27.857  41.946  19.157  1.00  0.00     0.136 C 
ATOM      2  O   UNL     1      29.013  42.257  19.410  1.00  0.00    -0.299 OA
ENDROOT
BRANCH   1   3
ATOM      3  C   UNL     1      26.816  43.028  18.969  1.00  0.00     0.053 C 
ATOM      4  C   UNL     1      27.234  44.016  17.875  1.00  0.00     0.016 C 
BRANCH   3   5
ATOM      5  C   UNL     1      26.583  43.742  20.323  1.00  0.00     0.015 C 
BRANCH   5   6
ATOM      6  C   UNL     1      27.849  44.085  21.131  1.00  0.00     0.028 C 
BRANCH   6   7
ATOM      7  C   UNL     1      27.866  43.684  22.590  1.00  0.00    -0.028 C 
ATOM      8  C   UNL     1      28.361  42.536  23.115  1.00  0.00    -0.070 CG0
ATOM      9  C   UNL     1      28.375  42.403  24.617  1.00  0.00     0.039 C 
ATOM     10  G   UNL     1      28.820  41.348  22.287  1.00  0.00     0.000 G0
ENDBRANCH   6   7
ENDBRANCH   5   6
ENDBRANCH   3   5
ENDBRANCH   1   3
BRANCH   1  11
ATOM     11  C   UNL     1      27.478  40.483  19.111  1.00  0.00     0.087 C 
BRANCH  11  12
ATOM     12  C   UNL     1      27.834  39.733  20.430  1.00  0.00     0.066 C 
BRANCH  12  13
ATOM     13  C   UNL     1      27.665  40.642  21.640  1.00  0.00     0.140 C 
ATOM     14  O   UNL     1      26.548  40.802  22.115  1.00  0.00    -0.299 OA
BRANCH  13  15
ATOM     15  C   UNL     1      28.841  41.332  22.302  1.00  0.00     0.106 CG0
ATOM     16  G   UNL     1      28.375  42.516  23.133  1.00  0.00     0.000 G0
ENDBRANCH  13  15
ENDBRANCH  12  13
BRANCH  12  17
ATOM     17  C   UNL     1      27.032  38.407  20.627  1.00  0.00    -0.006 C 
ATOM     18  C   UNL     1      25.603  38.442  20.054  1.00  0.00     0.008 C 
ATOM     19  C   UNL     1      27.793  37.196  20.062  1.00  0.00     0.008 C 
ENDBRANCH  12  17
ENDBRANCH  11  12
ENDBRANCH   1  11
TORSDOF 1
ENDMDL
MODEL 7
REMARK VINA RESULT:    -0.096      2.004      4.131
REMARK INTER + INTRA:           0.414
REMARK INTER:                  -1.522
REMARK INTRA:                   1.936
REMARK UNBOUND:                 0.560
REMARK SMILES CC1=CCC[C@@H](C)C(=O)C[C@H](C(C)C)C(=O)C1
REMARK SMILES IDX 8 1 9 2 6 3 7 4 5 5 4 6 3 7 2 8 1 9 10 11 11 12 15 13 16 14
REMARK SMILES IDX 17 15 12 17 13 18 14 19
REMARK H PARENT
REMARK Flexibility Score: 70.00
ROOT
ATOM      1  C   UNL     1      27.612  25.069  29.010  1.00  0.00     0.136 C 
ATOM      2  O   UNL     1      27.769  24.389  30.015  1.00  0.00    -0.299 OA
ENDROOT
BRANCH   1   3
ATOM      3  C   UNL     1      26.478  24.750  28.061  1.00  0.00     0.053 C 
ATOM      4  C   UNL     1      26.960  23.882  26.893  1.00  0.00     0.016 C 
BRANCH   3   5
ATOM      5  C   UNL     1      25.850  26.074  27.564  1.00  0.00     0.015 C 
BRANCH   5   6
ATOM      6  C   UNL     1      24.656  26.603  28.383  1.00  0.00     0.028 C 
BRANCH   6   7
ATOM      7  C   UNL     1      24.965  27.563  29.512  1.00  0.00    -0.028 C 
ATOM      8  C   UNL     1      25.674  28.716  29.431  1.00  0.00    -0.070 CG0
ATOM      9  C   UNL     1      25.755  29.575  30.668  1.00  0.00     0.039 C 
ATOM     10  G   UNL     1      26.457  29.152  28.204  1.00  0.00     0.000 G0
ENDBRANCH   6   7
ENDBRANCH   5   6
ENDBRANCH   3   5
ENDBRANCH   1   3
BRANCH   1  11
ATOM     11  C   UNL     1      28.601  26.169  28.701  1.00  0.00     0.087 C 
BRANCH  11  12
ATOM     12  C   UNL     1      28.089  27.139  27.595  1.00  0.00     0.066 C 
BRANCH  12  13
ATOM     13  C   UNL     1      27.848  28.534  28.158  1.00  0.00     0.140 C 
ATOM     14  O   UNL     1      28.801  29.185  28.564  1.00  0.00    -0.299 OA
BRANCH  13  15
ATOM     15  C   UNL     1      26.468  29.159  28.202  1.00  0.00     0.106 CG0
ATOM     16  G   UNL     1      25.705  28.700  29.433  1.00  0.00     0.000 G0
ENDBRANCH  13  15
ENDBRANCH  12  13
BRANCH  12  17
ATOM     17  C   UNL     1      29.025  27.210  26.346  1.00  0.00    -0.006 C 
ATOM     18  C   UNL     1      29.015  25.937  25.479  1.00  0.00     0.008 C 
ATOM     19  C   UNL     1      28.715  28.439  25.476  1.00  0.00     0.008 C 
ENDBRANCH  12  17
ENDBRANCH  11  12
ENDBRANCH   1  11
TORSDOF 1
ENDMDL
MODEL 8
REMARK VINA RESULT:    -0.096     14.351     16.527
REMARK INTER + INTRA:           0.414
REMARK INTER:                  -0.251
REMARK INTRA:                   0.665
REMARK UNBOUND:                 0.560
REMARK SMILES CC1=CCC[C@@H](C)C(=O)C[C@H](C(C)C)C(=O)C1
REMARK SMILES IDX 8 1 9 2 6 3 7 4 5 5 4 6 3 7 2 8 1 9 10 11 11 12 15 13 16 14
REMARK SMILES IDX 17 15 12 17 13 18 14 19
REMARK H PARENT
REMARK Flexibility Score: 70.00
ROOT
ATOM      1  C   UNL     1      28.421  41.708  20.259  1.00  0.00     0.136 C 
ATOM      2  O   UNL     1      28.945  41.336  21.300  1.00  0.00    -0.299 OA
ENDROOT
BRANCH   1   3
ATOM      3  C   UNL     1      27.614  42.987  20.244  1.00  0.00     0.053 C 
ATOM      4  C   UNL     1      28.184  44.016  21.227  1.00  0.00     0.016 C 
BRANCH   3   5
ATOM      5  C   UNL     1      26.136  42.653  20.564  1.00  0.00     0.015 C 
BRANCH   5   6
ATOM      6  C   UNL     1      25.904  41.444  21.491  1.00  0.00     0.028 C 
BRANCH   6   7
ATOM      7  C   UNL     1      24.753  40.522  21.147  1.00  0.00    -0.028 C 
ATOM      8  C   UNL     1      24.830  39.205  20.835  1.00  0.00    -0.070 CG0
ATOM      9  C   UNL     1      23.535  38.456  20.642  1.00  0.00     0.039 C 
ATOM     10  G   UNL     1      26.131  38.460  20.587  1.00  0.00     0.000 G0
ENDBRANCH   6   7
ENDBRANCH   5   6
ENDBRANCH   3   5
ENDBRANCH   1   3
BRANCH   1  11
ATOM     11  C   UNL     1      28.530  40.841  19.026  1.00  0.00     0.087 C 
BRANCH  11  12
ATOM     12  C   UNL     1      28.325  39.328  19.339  1.00  0.00     0.066 C 
BRANCH  12  13
ATOM     13  C   UNL     1      26.846  38.964  19.336  1.00  0.00     0.140 C 
ATOM     14  O   UNL     1      26.211  39.061  18.295  1.00  0.00    -0.299 OA
BRANCH  13  15
ATOM     15  C   UNL     1      26.138  38.450  20.573  1.00  0.00     0.106 CG0
ATOM     16  G   UNL     1      24.840  39.205  20.807  1.00  0.00     0.000 G0
ENDBRANCH  13  15
ENDBRANCH  12  13
BRANCH  12  17
ATOM     17  C   UNL     1      29.122  38.381  18.387  1.00  0.00    -0.006 C 
ATOM     18  C   UNL     1      28.991  36.886  18.729  1.00  0.00     0.008 C 
ATOM     19  C   UNL     1      28.750  38.616  16.914  1.00  0.00     0.008 C 
ENDBRANCH  12  17
ENDBRANCH  11  12
ENDBRANCH   1  11
TORSDOF 1
ENDMDL
MODEL 9
REMARK VINA RESULT:     0.664      2.325      4.912
REMARK INTER + INTRA:           1.573
REMARK INTER:                   1.183
REMARK INTRA:                   0.389
REMARK UNBOUND:                 0.560
REMARK SMILES CC1=CCC[C@@H](C)C(=O)C[C@H](C(C)C)C(=O)C1
REMARK SMILES IDX 8 1 9 2 6 3 7 4 5 5 4 6 3 7 2 8 1 9 10 11 11 12 15 13 16 14
REMARK SMILES IDX 17 15 12 17 13 18 14 19
REMARK H PARENT
REMARK Flexibility Score: 70.00
ROOT
ATOM      1  C   UNL     1      24.223  26.566  28.127  1.00  0.00     0.136 C 
ATOM      2  O   UNL     1      24.284  25.361  28.335  1.00  0.00    -0.299 OA
ENDROOT
BRANCH   1   3
ATOM      3  C   UNL     1      23.018  27.346  28.604  1.00  0.00     0.053 C 
ATOM      4  C   UNL     1      21.712  26.640  28.224  1.00  0.00     0.016 C 
BRANCH   3   5
ATOM      5  C   UNL     1      23.082  28.778  28.018  1.00  0.00     0.015 C 
BRANCH   5   6
ATOM      6  C   UNL     1      23.448  29.898  29.011  1.00  0.00     0.028 C 
BRANCH   6   7
ATOM      7  C   UNL     1      23.714  29.489  30.444  1.00  0.00    -0.028 C 
ATOM      8  C   UNL     1      24.918  29.206  31.001  1.00  0.00    -0.070 CG0
ATOM      9  C   UNL     1      24.955  28.934  32.484  1.00  0.00     0.039 C 
ATOM     10  G   UNL     1      26.210  29.064  30.215  1.00  0.00     0.000 G0
ENDBRANCH   6   7
ENDBRANCH   5   6
ENDBRANCH   3   5
ENDBRANCH   1   3
BRANCH   1  11
ATOM     11  C   UNL     1      25.321  27.234  27.332  1.00  0.00     0.087 C 
BRANCH  11  12
ATOM     12  C   UNL     1      26.630  27.416  28.157  1.00  0.00     0.066 C 
BRANCH  12  13
ATOM     13  C   UNL     1      26.322  27.652  29.630  1.00  0.00     0.140 C 
ATOM     14  O   UNL     1      26.187  26.689  30.372  1.00  0.00    -0.299 OA
BRANCH  13  15
ATOM     15  C   UNL     1      26.210  29.044  30.218  1.00  0.00     0.106 CG0
ATOM     16  G   UNL     1      24.919  29.196  31.006  1.00  0.00     0.000 G0
ENDBRANCH  13  15
ENDBRANCH  12  13
BRANCH  12  17
ATOM     17  C   UNL     1      27.638  26.233  27.993  1.00  0.00    -0.006 C 
ATOM     18  C   UNL     1      27.695  25.645  26.571  1.00  0.00     0.008 C 
ATOM     19  C   UNL     1      29.051  26.627  28.454  1.00  0.00     0.008 C 
ENDBRANCH  12  17
ENDBRANCH  11  12
ENDBRANCH   1  11
TORSDOF 1
ENDMDL
