MODEL 1
REMARK VINA RESULT:     5.388      0.000      0.000
REMARK INTER + INTRA:           6.836
REMARK INTER:                   6.963
REMARK INTRA:                  -0.127
REMARK UNBOUND:                -0.127
REMARK SMILES CCCCCCC(=O)[O-]
REMARK SMILES IDX 5 1 6 2 7 3 8 4 9 5 4 6 3 7 2 8 1 9
REMARK H PARENT
REMARK Flexibility Score: inf
ROOT
ATOM      1  C   UNL     1      -0.838   8.816 -24.289  1.00  0.00     0.006 C 
ENDROOT
BRANCH   1   2
ATOM      2  C   UNL     1      -0.547   9.503 -25.627  1.00  0.00     0.053 C 
BRANCH   2   3
ATOM      3  C   UNL     1       0.612   8.850 -26.311  1.00  0.00     0.041 C 
ATOM      4  O   UNL     1       1.317   9.501 -27.125  1.00  0.00    -0.550 OA
ATOM      5  O   UNL     1       0.944   7.534 -26.011  1.00  0.00    -0.550 OA
ENDBRANCH   2   3
ENDBRANCH   1   2
BRANCH   1   6
ATOM      6  C   UNL     1      -2.351   8.696 -24.052  1.00  0.00     0.000 C 
BRANCH   6   7
ATOM      7  C   UNL     1      -2.706   7.597 -23.038  1.00  0.00    -0.000 C 
BRANCH   7   8
ATOM      8  C   UNL     1      -1.912   7.720 -21.729  1.00  0.00    -0.003 C 
ATOM      9  C   UNL     1      -2.725   7.211 -20.543  1.00  0.00     0.004 C 
ENDBRANCH   7   8
ENDBRANCH   6   7
ENDBRANCH   1   6
TORSDOF 5
ENDMDL
MODEL 2
REMARK VINA RESULT:     6.167      3.071      5.135
REMARK INTER + INTRA:           7.843
REMARK INTER:                   8.029
REMARK INTRA:                  -0.186
REMARK UNBOUND:                -0.127
REMARK SMILES CCCCCCC(=O)[O-]
REMARK SMILES IDX 5 1 6 2 7 3 8 4 9 5 4 6 3 7 2 8 1 9
REMARK H PARENT
REMARK Flexibility Score: inf
ROOT
ATOM      1  C   UNL     1      -2.001   8.922 -24.054  1.00  0.00     0.006 C 
ENDROOT
BRANCH   1   2
ATOM      2  C   UNL     1      -1.470   8.140 -22.849  1.00  0.00     0.053 C 
BRANCH   2   3
ATOM      3  C   UNL     1      -2.581   7.401 -22.171  1.00  0.00     0.041 C 
ATOM      4  O   UNL     1      -3.500   6.876 -22.852  1.00  0.00    -0.550 OA
ATOM      5  O   UNL     1      -2.573   7.249 -20.790  1.00  0.00    -0.550 OA
ENDBRANCH   2   3
ENDBRANCH   1   2
BRANCH   1   6
ATOM      6  C   UNL     1      -0.880   9.198 -25.067  1.00  0.00     0.000 C 
BRANCH   6   7
ATOM      7  C   UNL     1       0.117   8.034 -25.178  1.00  0.00    -0.000 C 
BRANCH   7   8
ATOM      8  C   UNL     1       1.003   8.131 -26.428  1.00  0.00    -0.003 C 
ATOM      9  C   UNL     1       0.910   9.516 -27.061  1.00  0.00     0.004 C 
ENDBRANCH   7   8
ENDBRANCH   6   7
ENDBRANCH   1   6
TORSDOF 5
ENDMDL
MODEL 3
REMARK VINA RESULT:     7.618      3.529      5.563
REMARK INTER + INTRA:           9.718
REMARK INTER:                   9.823
REMARK INTRA:                  -0.105
REMARK UNBOUND:                -0.127
REMARK SMILES CCCCCCC(=O)[O-]
REMARK SMILES IDX 5 1 6 2 7 3 8 4 9 5 4 6 3 7 2 8 1 9
REMARK H PARENT
REMARK Flexibility Score: inf
ROOT
ATOM      1  C   UNL     1      -1.849   7.963 -22.863  1.00  0.00     0.006 C 
ENDROOT
BRANCH   1   2
ATOM      2  C   UNL     1      -3.059   7.225 -22.282  1.00  0.00     0.053 C 
BRANCH   2   3
ATOM      3  C   UNL     1      -3.052   7.300 -20.788  1.00  0.00     0.041 C 
ATOM      4  O   UNL     1      -1.975   7.161 -20.151  1.00  0.00    -0.550 OA
ATOM      5  O   UNL     1      -4.228   7.574 -20.101  1.00  0.00    -0.550 OA
ENDBRANCH   2   3
ENDBRANCH   1   2
BRANCH   1   6
ATOM      6  C   UNL     1      -2.228   8.712 -24.149  1.00  0.00     0.000 C 
BRANCH   6   7
ATOM      7  C   UNL     1      -1.029   9.419 -24.798  1.00  0.00    -0.000 C 
BRANCH   7   8
ATOM      8  C   UNL     1      -0.036   8.436 -25.435  1.00  0.00    -0.003 C 
ATOM      9  C   UNL     1       0.677   9.069 -26.626  1.00  0.00     0.004 C 
ENDBRANCH   7   8
ENDBRANCH   6   7
ENDBRANCH   1   6
TORSDOF 5
ENDMDL
MODEL 4
REMARK VINA RESULT:     7.798      3.009      4.627
REMARK INTER + INTRA:           9.950
REMARK INTER:                   8.693
REMARK INTRA:                   1.257
REMARK UNBOUND:                -0.127
REMARK SMILES CCCCCCC(=O)[O-]
REMARK SMILES IDX 5 1 6 2 7 3 8 4 9 5 4 6 3 7 2 8 1 9
REMARK H PARENT
REMARK Flexibility Score: inf
ROOT
ATOM      1  C   UNL     1      -0.469   8.825 -24.844  1.00  0.00     0.006 C 
ENDROOT
BRANCH   1   2
ATOM      2  C   UNL     1      -1.644   9.546 -24.176  1.00  0.00     0.053 C 
BRANCH   2   3
ATOM      3  C   UNL     1      -2.852   8.663 -24.146  1.00  0.00     0.041 C 
ATOM      4  O   UNL     1      -2.861   7.626 -23.433  1.00  0.00    -0.550 OA
ATOM      5  O   UNL     1      -3.987   9.014 -24.867  1.00  0.00    -0.550 OA
ENDBRANCH   2   3
ENDBRANCH   1   2
BRANCH   1   6
ATOM      6  C   UNL     1      -0.038   9.549 -26.128  1.00  0.00     0.000 C 
BRANCH   6   7
ATOM      7  C   UNL     1       0.992   8.750 -26.941  1.00  0.00    -0.000 C 
BRANCH   7   8
ATOM      8  C   UNL     1       0.869   7.235 -26.727  1.00  0.00    -0.003 C 
ATOM      9  C   UNL     1       1.006   6.876 -25.251  1.00  0.00     0.004 C 
ENDBRANCH   7   8
ENDBRANCH   6   7
ENDBRANCH   1   6
TORSDOF 5
ENDMDL
