MODEL 1
REMARK VINA RESULT:    -5.964      0.000      0.000
REMARK INTER + INTRA:          -6.138
REMARK INTER:                  -6.138
REMARK INTRA:                   0.000
REMARK UNBOUND:                 0.000
REMARK SMILES O=c1ccc2cc(O)ccc2o1
REMARK SMILES IDX 9 1 10 2 11 3 5 4 4 5 3 6 2 7 1 8 12 9 6 10 7 11 8 12
REMARK H PARENT 8 13
REMARK Flexibility Score: inf
ROOT
ATOM      1  C   UNL     1     -30.564  -2.435 -19.838  1.00  0.00     0.050 A 
ATOM      2  C   UNL     1     -31.201  -2.834 -18.658  1.00  0.00     0.052 A 
ATOM      3  C   UNL     1     -32.545  -3.221 -18.682  1.00  0.00     0.138 A 
ATOM      4  C   UNL     1     -33.256  -3.205 -19.903  1.00  0.00     0.021 A 
ATOM      5  C   UNL     1     -34.599  -3.597 -19.897  1.00  0.00     0.019 A 
ATOM      6  C   UNL     1     -35.191  -3.988 -18.696  1.00  0.00     0.094 A 
ATOM      7  C   UNL     1     -34.424  -3.978 -17.525  1.00  0.00     0.336 A 
ATOM      8  O   UNL     1     -34.941  -4.328 -16.433  1.00  0.00    -0.246 OA
ATOM      9  O   UNL     1     -33.149  -3.601 -17.559  1.00  0.00    -0.423 OA
ATOM     10  C   UNL     1     -32.614  -2.803 -21.083  1.00  0.00     0.058 A 
ATOM     11  C   UNL     1     -31.266  -2.417 -21.050  1.00  0.00     0.116 A 
ENDROOT
BRANCH  11  12
ATOM     12  O   UNL     1     -30.614  -2.016 -22.214  1.00  0.00    -0.508 OA
ATOM     13  H   UNL     1     -29.776  -2.485 -22.539  1.00  0.00     0.293 HD
ENDBRANCH  11  12
TORSDOF 1
ENDMDL
MODEL 2
REMARK VINA RESULT:    -5.476      7.155      8.640
REMARK INTER + INTRA:          -5.636
REMARK INTER:                  -5.636
REMARK INTRA:                   0.000
REMARK UNBOUND:                 0.000
REMARK SMILES O=c1ccc2cc(O)ccc2o1
REMARK SMILES IDX 9 1 10 2 11 3 5 4 4 5 3 6 2 7 1 8 12 9 6 10 7 11 8 12
REMARK H PARENT 8 13
REMARK Flexibility Score: inf
ROOT
ATOM      1  C   UNL     1     -35.994  -6.925 -15.033  1.00  0.00     0.050 A 
ATOM      2  C   UNL     1     -36.591  -5.919 -14.265  1.00  0.00     0.052 A 
ATOM      3  C   UNL     1     -37.860  -6.118 -13.712  1.00  0.00     0.138 A 
ATOM      4  C   UNL     1     -38.537  -7.338 -13.934  1.00  0.00     0.021 A 
ATOM      5  C   UNL     1     -39.805  -7.508 -13.368  1.00  0.00     0.019 A 
ATOM      6  C   UNL     1     -40.359  -6.477 -12.610  1.00  0.00     0.094 A 
ATOM      7  C   UNL     1     -39.630  -5.296 -12.434  1.00  0.00     0.336 A 
ATOM      8  O   UNL     1     -40.114  -4.355 -11.752  1.00  0.00    -0.246 OA
ATOM      9  O   UNL     1     -38.426  -5.160 -12.982  1.00  0.00    -0.423 OA
ATOM     10  C   UNL     1     -37.936  -8.343 -14.705  1.00  0.00     0.058 A 
ATOM     11  C   UNL     1     -36.662  -8.136 -15.255  1.00  0.00     0.116 A 
ENDROOT
BRANCH  11  12
ATOM     12  O   UNL     1     -36.051  -9.125 -16.022  1.00  0.00    -0.508 OA
ATOM     13  H   UNL     1     -36.321  -9.290 -16.985  1.00  0.00     0.293 HD
ENDBRANCH  11  12
TORSDOF 1
ENDMDL
MODEL 3
REMARK VINA RESULT:    -5.443      6.838      7.727
REMARK INTER + INTRA:          -5.602
REMARK INTER:                  -5.602
REMARK INTRA:                   0.000
REMARK UNBOUND:                 0.000
REMARK SMILES O=c1ccc2cc(O)ccc2o1
REMARK SMILES IDX 9 1 10 2 11 3 5 4 4 5 3 6 2 7 1 8 12 9 6 10 7 11 8 12
REMARK H PARENT 8 13
REMARK Flexibility Score: inf
ROOT
ATOM      1  C   UNL     1     -36.045  -8.808 -14.831  1.00  0.00     0.050 A 
ATOM      2  C   UNL     1     -36.864  -8.277 -15.832  1.00  0.00     0.052 A 
ATOM      3  C   UNL     1     -37.266  -6.938 -15.773  1.00  0.00     0.138 A 
ATOM      4  C   UNL     1     -36.841  -6.126 -14.697  1.00  0.00     0.021 A 
ATOM      5  C   UNL     1     -37.259  -4.792 -14.665  1.00  0.00     0.019 A 
ATOM      6  C   UNL     1     -38.075  -4.306 -15.686  1.00  0.00     0.094 A 
ATOM      7  C   UNL     1     -38.456  -5.168 -16.720  1.00  0.00     0.336 A 
ATOM      8  O   UNL     1     -39.192  -4.748 -17.651  1.00  0.00    -0.246 OA
ATOM      9  O   UNL     1     -38.045  -6.434 -16.727  1.00  0.00    -0.423 OA
ATOM     10  C   UNL     1     -36.021  -6.664 -13.696  1.00  0.00     0.058 A 
ATOM     11  C   UNL     1     -35.623  -8.007 -13.762  1.00  0.00     0.116 A 
ENDROOT
BRANCH  11  12
ATOM     12  O   UNL     1     -34.807  -8.555 -12.775  1.00  0.00    -0.508 OA
ATOM     13  H   UNL     1     -34.929  -8.319 -11.797  1.00  0.00     0.293 HD
ENDBRANCH  11  12
TORSDOF 1
ENDMDL
MODEL 4
REMARK VINA RESULT:    -5.423      7.466      9.135
REMARK INTER + INTRA:          -5.581
REMARK INTER:                  -5.581
REMARK INTRA:                   0.000
REMARK UNBOUND:                 0.000
REMARK SMILES O=c1ccc2cc(O)ccc2o1
REMARK SMILES IDX 9 1 10 2 11 3 5 4 4 5 3 6 2 7 1 8 12 9 6 10 7 11 8 12
REMARK H PARENT 8 13
REMARK Flexibility Score: inf
ROOT
ATOM      1  C   UNL     1     -40.185  -7.129 -13.586  1.00  0.00     0.050 A 
ATOM      2  C   UNL     1     -39.736  -5.942 -12.999  1.00  0.00     0.052 A 
ATOM      3  C   UNL     1     -38.396  -5.560 -13.124  1.00  0.00     0.138 A 
ATOM      4  C   UNL     1     -37.498  -6.381 -13.843  1.00  0.00     0.021 A 
ATOM      5  C   UNL     1     -36.165  -5.974 -13.951  1.00  0.00     0.019 A 
ATOM      6  C   UNL     1     -35.763  -4.781 -13.350  1.00  0.00     0.094 A 
ATOM      7  C   UNL     1     -36.708  -4.020 -12.652  1.00  0.00     0.336 A 
ATOM      8  O   UNL     1     -36.365  -2.941 -12.104  1.00  0.00    -0.246 OA
ATOM      9  O   UNL     1     -37.971  -4.430 -12.566  1.00  0.00    -0.423 OA
ATOM     10  C   UNL     1     -37.953  -7.571 -14.429  1.00  0.00     0.058 A 
ATOM     11  C   UNL     1     -39.298  -7.946 -14.300  1.00  0.00     0.116 A 
ENDROOT
BRANCH  11  12
ATOM     12  O   UNL     1     -39.765  -9.125 -14.877  1.00  0.00    -0.508 OA
ATOM     13  H   UNL     1     -40.596  -9.590 -14.531  1.00  0.00     0.293 HD
ENDBRANCH  11  12
TORSDOF 1
ENDMDL
MODEL 5
REMARK VINA RESULT:    -5.418      7.360      9.420
REMARK INTER + INTRA:          -5.577
REMARK INTER:                  -5.577
REMARK INTRA:                   0.000
REMARK UNBOUND:                 0.000
REMARK SMILES O=c1ccc2cc(O)ccc2o1
REMARK SMILES IDX 9 1 10 2 11 3 5 4 4 5 3 6 2 7 1 8 12 9 6 10 7 11 8 12
REMARK H PARENT 8 13
REMARK Flexibility Score: inf
ROOT
ATOM      1  C   UNL     1     -38.842  -9.095 -14.263  1.00  0.00     0.050 A 
ATOM      2  C   UNL     1     -37.625  -8.413 -14.168  1.00  0.00     0.052 A 
ATOM      3  C   UNL     1     -37.605  -7.054 -13.834  1.00  0.00     0.138 A 
ATOM      4  C   UNL     1     -38.821  -6.375 -13.596  1.00  0.00     0.021 A 
ATOM      5  C   UNL     1     -38.771  -5.017 -13.264  1.00  0.00     0.019 A 
ATOM      6  C   UNL     1     -37.534  -4.379 -13.181  1.00  0.00     0.094 A 
ATOM      7  C   UNL     1     -36.371  -5.116 -13.431  1.00  0.00     0.336 A 
ATOM      8  O   UNL     1     -35.245  -4.558 -13.359  1.00  0.00    -0.246 OA
ATOM      9  O   UNL     1     -36.447  -6.407 -13.744  1.00  0.00    -0.423 OA
ATOM     10  C   UNL     1     -40.039  -7.062 -13.694  1.00  0.00     0.058 A 
ATOM     11  C   UNL     1     -40.049  -8.424 -14.028  1.00  0.00     0.116 A 
ENDROOT
BRANCH  11  12
ATOM     12  O   UNL     1     -41.251  -9.122 -14.128  1.00  0.00    -0.508 OA
ATOM     13  H   UNL     1     -41.624  -9.408 -15.026  1.00  0.00     0.293 HD
ENDBRANCH  11  12
TORSDOF 1
ENDMDL
MODEL 6
REMARK VINA RESULT:    -5.299      7.438      8.399
REMARK INTER + INTRA:          -5.454
REMARK INTER:                  -5.454
REMARK INTRA:                   0.000
REMARK UNBOUND:                 0.000
REMARK SMILES O=c1ccc2cc(O)ccc2o1
REMARK SMILES IDX 9 1 10 2 11 3 5 4 4 5 3 6 2 7 1 8 12 9 6 10 7 11 8 12
REMARK H PARENT 8 13
REMARK Flexibility Score: inf
ROOT
ATOM      1  C   UNL     1     -38.111  -8.258 -15.001  1.00  0.00     0.050 A 
ATOM      2  C   UNL     1     -38.786  -7.309 -14.226  1.00  0.00     0.052 A 
ATOM      3  C   UNL     1     -38.081  -6.252 -13.641  1.00  0.00     0.138 A 
ATOM      4  C   UNL     1     -36.685  -6.148 -13.835  1.00  0.00     0.021 A 
ATOM      5  C   UNL     1     -36.008  -5.081 -13.237  1.00  0.00     0.019 A 
ATOM      6  C   UNL     1     -36.723  -4.159 -12.474  1.00  0.00     0.094 A 
ATOM      7  C   UNL     1     -38.104  -4.325 -12.325  1.00  0.00     0.336 A 
ATOM      8  O   UNL     1     -38.766  -3.503 -11.641  1.00  0.00    -0.246 OA
ATOM      9  O   UNL     1     -38.725  -5.350 -12.905  1.00  0.00    -0.423 OA
ATOM     10  C   UNL     1     -36.013  -7.103 -14.611  1.00  0.00     0.058 A 
ATOM     11  C   UNL     1     -36.727  -8.159 -15.195  1.00  0.00     0.116 A 
ENDROOT
BRANCH  11  12
ATOM     12  O   UNL     1     -36.074  -9.115 -15.970  1.00  0.00    -0.508 OA
ATOM     13  H   UNL     1     -35.695  -8.888 -16.882  1.00  0.00     0.293 HD
ENDBRANCH  11  12
TORSDOF 1
ENDMDL
MODEL 7
REMARK VINA RESULT:    -5.258      5.032      8.181
REMARK INTER + INTRA:          -5.412
REMARK INTER:                  -5.412
REMARK INTRA:                   0.000
REMARK UNBOUND:                 0.000
REMARK SMILES O=c1ccc2cc(O)ccc2o1
REMARK SMILES IDX 9 1 10 2 11 3 5 4 4 5 3 6 2 7 1 8 12 9 6 10 7 11 8 12
REMARK H PARENT 8 13
REMARK Flexibility Score: inf
ROOT
ATOM      1  C   UNL     1     -37.427  -9.125 -14.420  1.00  0.00     0.050 A 
ATOM      2  C   UNL     1     -36.500  -8.558 -15.301  1.00  0.00     0.052 A 
ATOM      3  C   UNL     1     -36.809  -7.373 -15.977  1.00  0.00     0.138 A 
ATOM      4  C   UNL     1     -38.061  -6.753 -15.768  1.00  0.00     0.021 A 
ATOM      5  C   UNL     1     -38.342  -5.570 -16.458  1.00  0.00     0.019 A 
ATOM      6  C   UNL     1     -37.386  -5.041 -17.326  1.00  0.00     0.094 A 
ATOM      7  C   UNL     1     -36.168  -5.711 -17.483  1.00  0.00     0.336 A 
ATOM      8  O   UNL     1     -35.293  -5.249 -18.261  1.00  0.00    -0.246 OA
ATOM      9  O   UNL     1     -35.926  -6.835 -16.814  1.00  0.00    -0.423 OA
ATOM     10  C   UNL     1     -38.987  -7.326 -14.885  1.00  0.00     0.058 A 
ATOM     11  C   UNL     1     -38.669  -8.514 -14.210  1.00  0.00     0.116 A 
ENDROOT
BRANCH  11  12
ATOM     12  O   UNL     1     -39.579  -9.094 -13.328  1.00  0.00    -0.508 OA
ATOM     13  H   UNL     1     -39.413 -10.008 -12.923  1.00  0.00     0.293 HD
ENDBRANCH  11  12
TORSDOF 1
ENDMDL
MODEL 8
REMARK VINA RESULT:    -5.254      4.341      5.910
REMARK INTER + INTRA:          -5.407
REMARK INTER:                  -5.407
REMARK INTRA:                   0.000
REMARK UNBOUND:                 0.000
REMARK SMILES O=c1ccc2cc(O)ccc2o1
REMARK SMILES IDX 9 1 10 2 11 3 5 4 4 5 3 6 2 7 1 8 12 9 6 10 7 11 8 12
REMARK H PARENT 8 13
REMARK Flexibility Score: inf
ROOT
ATOM      1  C   UNL     1     -35.593  -3.640 -17.433  1.00  0.00     0.050 A 
ATOM      2  C   UNL     1     -35.676  -5.035 -17.499  1.00  0.00     0.052 A 
ATOM      3  C   UNL     1     -35.915  -5.780 -16.340  1.00  0.00     0.138 A 
ATOM      4  C   UNL     1     -36.071  -5.117 -15.101  1.00  0.00     0.021 A 
ATOM      5  C   UNL     1     -36.309  -5.888 -13.959  1.00  0.00     0.019 A 
ATOM      6  C   UNL     1     -36.384  -7.276 -14.074  1.00  0.00     0.094 A 
ATOM      7  C   UNL     1     -36.219  -7.863 -15.334  1.00  0.00     0.336 A 
ATOM      8  O   UNL     1     -36.284  -9.114 -15.457  1.00  0.00    -0.246 OA
ATOM      9  O   UNL     1     -35.994  -7.106 -16.405  1.00  0.00    -0.423 OA
ATOM     10  C   UNL     1     -35.986  -3.719 -15.040  1.00  0.00     0.058 A 
ATOM     11  C   UNL     1     -35.747  -2.980 -16.207  1.00  0.00     0.116 A 
ENDROOT
BRANCH  11  12
ATOM     12  O   UNL     1     -35.661  -1.590 -16.162  1.00  0.00    -0.508 OA
ATOM     13  H   UNL     1     -35.006  -1.120 -15.548  1.00  0.00     0.293 HD
ENDBRANCH  11  12
TORSDOF 1
ENDMDL
MODEL 9
REMARK VINA RESULT:    -5.146      5.172      7.406
REMARK INTER + INTRA:          -5.296
REMARK INTER:                  -5.296
REMARK INTRA:                   0.000
REMARK UNBOUND:                 0.000
REMARK SMILES O=c1ccc2cc(O)ccc2o1
REMARK SMILES IDX 9 1 10 2 11 3 5 4 4 5 3 6 2 7 1 8 12 9 6 10 7 11 8 12
REMARK H PARENT 8 13
REMARK Flexibility Score: inf
ROOT
ATOM      1  C   UNL     1     -37.304  -4.931 -16.840  1.00  0.00     0.050 A 
ATOM      2  C   UNL     1     -38.352  -5.433 -16.063  1.00  0.00     0.052 A 
ATOM      3  C   UNL     1     -38.228  -6.677 -15.436  1.00  0.00     0.138 A 
ATOM      4  C   UNL     1     -37.039  -7.424 -15.593  1.00  0.00     0.021 A 
ATOM      5  C   UNL     1     -36.943  -8.665 -14.954  1.00  0.00     0.019 A 
ATOM      6  C   UNL     1     -38.015  -9.124 -14.189  1.00  0.00     0.094 A 
ATOM      7  C   UNL     1     -39.161  -8.330 -14.079  1.00  0.00     0.336 A 
ATOM      8  O   UNL     1     -40.138  -8.727 -13.392  1.00  0.00    -0.246 OA
ATOM      9  O   UNL     1     -39.226  -7.153 -14.697  1.00  0.00    -0.423 OA
ATOM     10  C   UNL     1     -35.991  -6.917 -16.374  1.00  0.00     0.058 A 
ATOM     11  C   UNL     1     -36.123  -5.669 -16.999  1.00  0.00     0.116 A 
ENDROOT
BRANCH  11  12
ATOM     12  O   UNL     1     -35.090  -5.151 -17.777  1.00  0.00    -0.508 OA
ATOM     13  H   UNL     1     -34.203  -5.633 -17.867  1.00  0.00     0.293 HD
ENDBRANCH  11  12
TORSDOF 1
ENDMDL
