MODEL 1
REMARK VINA RESULT:    -3.941      0.000      0.000
REMARK INTER + INTRA:          -4.809
REMARK INTER:                  -4.517
REMARK INTRA:                  -0.291
REMARK UNBOUND:                -0.291
REMARK SMILES O=C1C[C@H](c2ccc(O)cc2)Oc2cc(O)cc(O)c21
REMARK SMILES IDX 3 1 4 2 12 3 13 4 14 5 15 6 17 7 18 8 20 9 2 10 1 11 5 12
REMARK SMILES IDX 6 13 11 14 7 15 10 16 8 17 9 18 19 20 16 22
REMARK H PARENT 9 19 19 21 16 23
REMARK Flexibility Score: inf
ROOT
ATOM      1  C   UNL     1      31.848  64.673  19.311  1.00  0.00     0.131 C 
ATOM      2  C   UNL     1      31.205  65.859  20.053  1.00  0.00     0.211 C 
ATOM      3  O   UNL     1      29.801  65.896  19.781  1.00  0.00    -0.484 OA
ATOM      4  C   UNL     1      29.267  65.641  18.510  1.00  0.00     0.138 A 
ATOM      5  C   UNL     1      27.939  65.985  18.251  1.00  0.00     0.093 A 
ATOM      6  C   UNL     1      27.385  65.759  16.988  1.00  0.00     0.123 A 
ATOM      7  C   UNL     1      28.156  65.157  15.991  1.00  0.00     0.093 A 
ATOM      8  C   UNL     1      29.476  64.764  16.242  1.00  0.00     0.133 A 
ATOM      9  C   UNL     1      30.058  65.040  17.507  1.00  0.00     0.102 A 
ATOM     10  C   UNL     1      31.465  64.734  17.862  1.00  0.00     0.174 C 
ATOM     11  O   UNL     1      32.352  64.573  16.982  1.00  0.00    -0.294 OA
ENDROOT
BRANCH   2  12
ATOM     12  C   UNL     1      31.422  65.874  21.558  1.00  0.00    -0.007 A 
ATOM     13  C   UNL     1      32.744  65.927  22.037  1.00  0.00     0.011 A 
ATOM     14  C   UNL     1      30.368  65.804  22.494  1.00  0.00     0.011 A 
ATOM     15  C   UNL     1      33.008  65.933  23.409  1.00  0.00     0.046 A 
ATOM     16  C   UNL     1      30.637  65.804  23.867  1.00  0.00     0.046 A 
ATOM     17  C   UNL     1      31.957  65.873  24.327  1.00  0.00     0.115 A 
BRANCH  17  18
ATOM     18  O   UNL     1      32.235  65.881  25.692  1.00  0.00    -0.508 OA
ATOM     19  H   UNL     1      32.844  66.579  26.105  1.00  0.00     0.293 HD
ENDBRANCH  17  18
ENDBRANCH   2  12
BRANCH   8  20
ATOM     20  O   UNL     1      30.145  64.079  15.226  1.00  0.00    -0.507 OA
ATOM     21  H   UNL     1      31.106  64.251  14.967  1.00  0.00     0.293 HD
ENDBRANCH   8  20
BRANCH   6  22
ATOM     22  O   UNL     1      26.068  66.121  16.715  1.00  0.00    -0.508 OA
ATOM     23  H   UNL     1      25.297  65.486  16.893  1.00  0.00     0.293 HD
ENDBRANCH   6  22
TORSDOF 4
ENDMDL
MODEL 2
REMARK VINA RESULT:    -3.272      2.077      2.381
REMARK INTER + INTRA:          -4.042
REMARK INTER:                  -3.770
REMARK INTRA:                  -0.272
REMARK UNBOUND:                -0.291
REMARK SMILES O=C1C[C@H](c2ccc(O)cc2)Oc2cc(O)cc(O)c21
REMARK SMILES IDX 3 1 4 2 12 3 13 4 14 5 15 6 17 7 18 8 20 9 2 10 1 11 5 12
REMARK SMILES IDX 6 13 11 14 7 15 10 16 8 17 9 18 19 20 16 22
REMARK H PARENT 9 19 19 21 16 23
REMARK Flexibility Score: inf
ROOT
ATOM      1  C   UNL     1      32.654  63.060  18.237  1.00  0.00     0.131 C 
ATOM      2  C   UNL     1      32.222  64.061  19.324  1.00  0.00     0.211 C 
ATOM      3  O   UNL     1      30.838  64.384  19.162  1.00  0.00    -0.484 OA
ATOM      4  C   UNL     1      30.250  64.594  17.907  1.00  0.00     0.138 A 
ATOM      5  C   UNL     1      28.991  65.193  17.839  1.00  0.00     0.093 A 
ATOM      6  C   UNL     1      28.388  65.430  16.601  1.00  0.00     0.123 A 
ATOM      7  C   UNL     1      29.035  65.037  15.428  1.00  0.00     0.093 A 
ATOM      8  C   UNL     1      30.279  64.395  15.474  1.00  0.00     0.133 A 
ATOM      9  C   UNL     1      30.918  64.200  16.726  1.00  0.00     0.102 A 
ATOM     10  C   UNL     1      32.263  63.597  16.891  1.00  0.00     0.174 C 
ATOM     11  O   UNL     1      33.098  63.569  15.948  1.00  0.00    -0.294 OA
ENDROOT
BRANCH   2  12
ATOM     12  C   UNL     1      32.463  63.604  20.754  1.00  0.00    -0.007 A 
ATOM     13  C   UNL     1      32.772  62.249  20.975  1.00  0.00     0.011 A 
ATOM     14  C   UNL     1      32.360  64.463  21.870  1.00  0.00     0.011 A 
ATOM     15  C   UNL     1      32.995  61.768  22.267  1.00  0.00     0.046 A 
ATOM     16  C   UNL     1      32.577  63.975  23.163  1.00  0.00     0.046 A 
ATOM     17  C   UNL     1      32.899  62.627  23.364  1.00  0.00     0.115 A 
BRANCH  17  18
ATOM     18  O   UNL     1      33.125  62.134  24.647  1.00  0.00    -0.508 OA
ATOM     19  H   UNL     1      32.726  61.254  24.955  1.00  0.00     0.293 HD
ENDBRANCH  17  18
ENDBRANCH   2  12
BRANCH   8  20
ATOM     20  O   UNL     1      30.813  63.943  14.265  1.00  0.00    -0.507 OA
ATOM     21  H   UNL     1      30.868  64.505  13.427  1.00  0.00     0.293 HD
ENDBRANCH   8  20
BRANCH   6  22
ATOM     22  O   UNL     1      27.142  66.049  16.525  1.00  0.00    -0.508 OA
ATOM     23  H   UNL     1      26.785  66.615  17.286  1.00  0.00     0.293 HD
ENDBRANCH   6  22
TORSDOF 4
ENDMDL
MODEL 3
REMARK VINA RESULT:    -3.128     12.490     17.518
REMARK INTER + INTRA:          -3.877
REMARK INTER:                  -3.588
REMARK INTRA:                  -0.289
REMARK UNBOUND:                -0.291
REMARK SMILES O=C1C[C@H](c2ccc(O)cc2)Oc2cc(O)cc(O)c21
REMARK SMILES IDX 3 1 4 2 12 3 13 4 14 5 15 6 17 7 18 8 20 9 2 10 1 11 5 12
REMARK SMILES IDX 6 13 11 14 7 15 10 16 8 17 9 18 19 20 16 22
REMARK H PARENT 9 19 19 21 16 23
REMARK Flexibility Score: inf
ROOT
ATOM      1  C   UNL     1      14.174  65.043  14.021  1.00  0.00     0.131 C 
ATOM      2  C   UNL     1      14.848  65.912  12.943  1.00  0.00     0.211 C 
ATOM      3  O   UNL     1      16.270  65.787  13.042  1.00  0.00    -0.484 OA
ATOM      4  C   UNL     1      16.945  65.750  14.270  1.00  0.00     0.138 A 
ATOM      5  C   UNL     1      18.329  65.930  14.288  1.00  0.00     0.093 A 
ATOM      6  C   UNL     1      19.026  65.915  15.499  1.00  0.00     0.123 A 
ATOM      7  C   UNL     1      18.338  65.686  16.693  1.00  0.00     0.093 A 
ATOM      8  C   UNL     1      16.956  65.459  16.693  1.00  0.00     0.133 A 
ATOM      9  C   UNL     1      16.237  65.526  15.471  1.00  0.00     0.102 A 
ATOM     10  C   UNL     1      14.766  65.373  15.360  1.00  0.00     0.174 C 
ATOM     11  O   UNL     1      14.003  65.560  16.344  1.00  0.00    -0.294 OA
ENDROOT
BRANCH   2  12
ATOM     12  C   UNL     1      14.419  65.616  11.515  1.00  0.00    -0.007 A 
ATOM     13  C   UNL     1      13.311  64.772  11.316  1.00  0.00     0.011 A 
ATOM     14  C   UNL     1      15.096  66.118  10.382  1.00  0.00     0.011 A 
ATOM     15  C   UNL     1      12.875  64.455  10.027  1.00  0.00     0.046 A 
ATOM     16  C   UNL     1      14.660  65.793   9.093  1.00  0.00     0.046 A 
ATOM     17  C   UNL     1      13.546  64.964   8.913  1.00  0.00     0.115 A 
BRANCH  17  18
ATOM     18  O   UNL     1      13.100  64.642   7.633  1.00  0.00    -0.508 OA
ATOM     19  H   UNL     1      13.603  64.940   6.806  1.00  0.00     0.293 HD
ENDBRANCH  17  18
ENDBRANCH   2  12
BRANCH   8  20
ATOM     20  O   UNL     1      16.360  65.139  17.915  1.00  0.00    -0.507 OA
ATOM     21  H   UNL     1      16.290  64.200  18.280  1.00  0.00     0.293 HD
ENDBRANCH   8  20
BRANCH   6  22
ATOM     22  O   UNL     1      20.404  66.117  15.528  1.00  0.00    -0.508 OA
ATOM     23  H   UNL     1      20.878  66.412  16.375  1.00  0.00     0.293 HD
ENDBRANCH   6  22
TORSDOF 4
ENDMDL
MODEL 4
REMARK VINA RESULT:    -3.096      1.332      2.900
REMARK INTER + INTRA:          -3.840
REMARK INTER:                  -3.536
REMARK INTRA:                  -0.304
REMARK UNBOUND:                -0.291
REMARK SMILES O=C1C[C@H](c2ccc(O)cc2)Oc2cc(O)cc(O)c21
REMARK SMILES IDX 3 1 4 2 12 3 13 4 14 5 15 6 17 7 18 8 20 9 2 10 1 11 5 12
REMARK SMILES IDX 6 13 11 14 7 15 10 16 8 17 9 18 19 20 16 22
REMARK H PARENT 9 19 19 21 16 23
REMARK Flexibility Score: inf
ROOT
ATOM      1  C   UNL     1      29.415  66.125  20.035  1.00  0.00     0.131 C 
ATOM      2  C   UNL     1      30.292  65.003  20.621  1.00  0.00     0.211 C 
ATOM      3  O   UNL     1      31.315  64.650  19.685  1.00  0.00    -0.484 OA
ATOM      4  C   UNL     1      31.080  64.551  18.306  1.00  0.00     0.138 A 
ATOM      5  C   UNL     1      32.030  63.919  17.501  1.00  0.00     0.093 A 
ATOM      6  C   UNL     1      31.814  63.790  16.126  1.00  0.00     0.123 A 
ATOM      7  C   UNL     1      30.659  64.324  15.552  1.00  0.00     0.093 A 
ATOM      8  C   UNL     1      29.715  65.001  16.333  1.00  0.00     0.133 A 
ATOM      9  C   UNL     1      29.904  65.088  17.738  1.00  0.00     0.102 A 
ATOM     10  C   UNL     1      28.939  65.716  18.672  1.00  0.00     0.174 C 
ATOM     11  O   UNL     1      27.726  65.870  18.369  1.00  0.00    -0.294 OA
ENDROOT
BRANCH   2  12
ATOM     12  C   UNL     1      30.932  65.318  21.963  1.00  0.00    -0.007 A 
ATOM     13  C   UNL     1      32.322  65.140  22.094  1.00  0.00     0.011 A 
ATOM     14  C   UNL     1      30.198  65.747  23.091  1.00  0.00     0.011 A 
ATOM     15  C   UNL     1      32.965  65.404  23.306  1.00  0.00     0.046 A 
ATOM     16  C   UNL     1      30.846  66.004  24.304  1.00  0.00     0.046 A 
ATOM     17  C   UNL     1      32.232  65.836  24.412  1.00  0.00     0.115 A 
BRANCH  17  18
ATOM     18  O   UNL     1      32.887  66.098  25.614  1.00  0.00    -0.508 OA
ATOM     19  H   UNL     1      33.843  65.800  25.772  1.00  0.00     0.293 HD
ENDBRANCH  17  18
ENDBRANCH   2  12
BRANCH   8  20
ATOM     20  O   UNL     1      28.638  65.592  15.670  1.00  0.00    -0.507 OA
ATOM     21  H   UNL     1      28.155  65.171  14.890  1.00  0.00     0.293 HD
ENDBRANCH   8  20
BRANCH   6  22
ATOM     22  O   UNL     1      32.746  63.139  15.319  1.00  0.00    -0.508 OA
ATOM     23  H   UNL     1      33.319  62.384  15.677  1.00  0.00     0.293 HD
ENDBRANCH   6  22
TORSDOF 4
ENDMDL
MODEL 5
REMARK VINA RESULT:    -2.270     14.203     17.836
REMARK INTER + INTRA:          -2.893
REMARK INTER:                  -2.604
REMARK INTRA:                  -0.289
REMARK UNBOUND:                -0.291
REMARK SMILES O=C1C[C@H](c2ccc(O)cc2)Oc2cc(O)cc(O)c21
REMARK SMILES IDX 3 1 4 2 12 3 13 4 14 5 15 6 17 7 18 8 20 9 2 10 1 11 5 12
REMARK SMILES IDX 6 13 11 14 7 15 10 16 8 17 9 18 19 20 16 22
REMARK H PARENT 9 19 19 21 16 23
REMARK Flexibility Score: inf
ROOT
ATOM      1  C   UNL     1      16.757  66.089  12.533  1.00  0.00     0.131 C 
ATOM      2  C   UNL     1      15.623  65.101  12.205  1.00  0.00     0.211 C 
ATOM      3  O   UNL     1      14.643  65.128  13.247  1.00  0.00    -0.484 OA
ATOM      4  C   UNL     1      14.981  65.201  14.606  1.00  0.00     0.138 A 
ATOM      5  C   UNL     1      14.004  64.922  15.564  1.00  0.00     0.093 A 
ATOM      6  C   UNL     1      14.318  64.970  16.925  1.00  0.00     0.123 A 
ATOM      7  C   UNL     1      15.605  65.331  17.328  1.00  0.00     0.093 A 
ATOM      8  C   UNL     1      16.588  65.658  16.386  1.00  0.00     0.133 A 
ATOM      9  C   UNL     1      16.289  65.559  15.001  1.00  0.00     0.102 A 
ATOM     10  C   UNL     1      17.268  65.811  13.916  1.00  0.00     0.174 C 
ATOM     11  O   UNL     1      18.510  65.749  14.116  1.00  0.00    -0.294 OA
ENDROOT
BRANCH   2  12
ATOM     12  C   UNL     1      14.936  65.328  10.868  1.00  0.00    -0.007 A 
ATOM     13  C   UNL     1      13.620  64.855  10.710  1.00  0.00     0.011 A 
ATOM     14  C   UNL     1      15.563  65.958   9.771  1.00  0.00     0.011 A 
ATOM     15  C   UNL     1      12.940  65.025   9.501  1.00  0.00     0.046 A 
ATOM     16  C   UNL     1      14.880  66.120   8.561  1.00  0.00     0.046 A 
ATOM     17  C   UNL     1      13.566  65.657   8.425  1.00  0.00     0.115 A 
BRANCH  17  18
ATOM     18  O   UNL     1      12.875  65.821   7.226  1.00  0.00    -0.508 OA
ATOM     19  H   UNL     1      12.601  66.739   6.894  1.00  0.00     0.293 HD
ENDBRANCH  17  18
ENDBRANCH   2  12
BRANCH   8  20
ATOM     20  O   UNL     1      17.819  66.105  16.871  1.00  0.00    -0.507 OA
ATOM     21  H   UNL     1      18.705  65.906  16.431  1.00  0.00     0.293 HD
ENDBRANCH   8  20
BRANCH   6  22
ATOM     22  O   UNL     1      13.355  64.670  17.886  1.00  0.00    -0.508 OA
ATOM     23  H   UNL     1      13.293  65.192  18.753  1.00  0.00     0.293 HD
ENDBRANCH   6  22
TORSDOF 4
ENDMDL
MODEL 6
REMARK VINA RESULT:    -1.503     10.313     14.016
REMARK INTER + INTRA:          -2.014
REMARK INTER:                  -1.724
REMARK INTRA:                  -0.290
REMARK UNBOUND:                -0.291
REMARK SMILES O=C1C[C@H](c2ccc(O)cc2)Oc2cc(O)cc(O)c21
REMARK SMILES IDX 3 1 4 2 12 3 13 4 14 5 15 6 17 7 18 8 20 9 2 10 1 11 5 12
REMARK SMILES IDX 6 13 11 14 7 15 10 16 8 17 9 18 19 20 16 22
REMARK H PARENT 9 19 19 21 16 23
REMARK Flexibility Score: inf
ROOT
ATOM      1  C   UNL     1      17.912  65.347  13.818  1.00  0.00     0.131 C 
ATOM      2  C   UNL     1      18.298  65.908  15.200  1.00  0.00     0.211 C 
ATOM      3  O   UNL     1      17.370  65.445  16.185  1.00  0.00    -0.484 OA
ATOM      4  C   UNL     1      15.990  65.365  15.950  1.00  0.00     0.138 A 
ATOM      5  C   UNL     1      15.126  65.197  17.034  1.00  0.00     0.093 A 
ATOM      6  C   UNL     1      13.745  65.132  16.831  1.00  0.00     0.123 A 
ATOM      7  C   UNL     1      13.230  65.203  15.535  1.00  0.00     0.093 A 
ATOM      8  C   UNL     1      14.081  65.327  14.430  1.00  0.00     0.133 A 
ATOM      9  C   UNL     1      15.480  65.447  14.636  1.00  0.00     0.102 A 
ATOM     10  C   UNL     1      16.469  65.653  13.549  1.00  0.00     0.174 C 
ATOM     11  O   UNL     1      16.135  66.122  12.428  1.00  0.00    -0.294 OA
ENDROOT
BRANCH   2  12
ATOM     12  C   UNL     1      19.712  65.585  15.655  1.00  0.00    -0.007 A 
ATOM     13  C   UNL     1      20.785  66.125  14.923  1.00  0.00     0.011 A 
ATOM     14  C   UNL     1      20.000  64.745  16.754  1.00  0.00     0.011 A 
ATOM     15  C   UNL     1      22.106  65.856  15.288  1.00  0.00     0.046 A 
ATOM     16  C   UNL     1      21.325  64.474  17.111  1.00  0.00     0.046 A 
ATOM     17  C   UNL     1      22.381  65.032  16.381  1.00  0.00     0.115 A 
BRANCH  17  18
ATOM     18  O   UNL     1      23.704  64.774  16.734  1.00  0.00    -0.508 OA
ATOM     19  H   UNL     1      23.957  63.956  17.277  1.00  0.00     0.293 HD
ENDBRANCH  17  18
ENDBRANCH   2  12
BRANCH   8  20
ATOM     20  O   UNL     1      13.495  65.290  13.163  1.00  0.00    -0.507 OA
ATOM     21  H   UNL     1      12.611  64.845  12.962  1.00  0.00     0.293 HD
ENDBRANCH   8  20
BRANCH   6  22
ATOM     22  O   UNL     1      12.875  64.988  17.910  1.00  0.00    -0.508 OA
ATOM     23  H   UNL     1      12.874  64.150  18.481  1.00  0.00     0.293 HD
ENDBRANCH   6  22
TORSDOF 4
ENDMDL
