MODEL 1
REMARK VINA RESULT:    -4.883      0.000      0.000
REMARK INTER + INTRA:          -6.824
REMARK INTER:                  -6.596
REMARK INTRA:                  -0.228
REMARK UNBOUND:                -0.228
REMARK SMILES CCCCCCCC(=O)[O-]
REMARK SMILES IDX 5 1 6 2 7 3 8 4 9 5 10 6 4 7 3 8 2 9 1 10
REMARK H PARENT
REMARK Flexibility Score: inf
ROOT
ATOM      1  C   UNL     1     -12.574   0.550  -9.657  1.00  0.00     0.000 C 
ENDROOT
BRANCH   1   2
ATOM      2  C   UNL     1     -12.206  -0.746 -10.398  1.00  0.00     0.006 C 
BRANCH   2   3
ATOM      3  C   UNL     1     -10.722  -1.107 -10.256  1.00  0.00     0.053 C 
BRANCH   3   4
ATOM      4  C   UNL     1     -10.559  -2.320  -9.397  1.00  0.00     0.041 C 
ATOM      5  O   UNL     1     -10.350  -2.198  -8.162  1.00  0.00    -0.550 OA
ATOM      6  O   UNL     1     -10.587  -3.587  -9.968  1.00  0.00    -0.550 OA
ENDBRANCH   3   4
ENDBRANCH   2   3
ENDBRANCH   1   2
BRANCH   1   7
ATOM      7  C   UNL     1     -14.068   0.890  -9.765  1.00  0.00     0.000 C 
BRANCH   7   8
ATOM      8  C   UNL     1     -14.340   2.322  -9.281  1.00  0.00    -0.000 C 
BRANCH   8   9
ATOM      9  C   UNL     1     -13.048   3.104  -8.993  1.00  0.00    -0.003 C 
ATOM     10  C   UNL     1     -13.253   4.236  -7.988  1.00  0.00     0.004 C 
ENDBRANCH   8   9
ENDBRANCH   7   8
ENDBRANCH   1   7
TORSDOF 6
ENDMDL
MODEL 2
REMARK VINA RESULT:    -4.666      3.191      5.354
REMARK INTER + INTRA:          -6.531
REMARK INTER:                  -6.262
REMARK INTRA:                  -0.269
REMARK UNBOUND:                -0.228
REMARK SMILES CCCCCCCC(=O)[O-]
REMARK SMILES IDX 5 1 6 2 7 3 8 4 9 5 10 6 4 7 3 8 2 9 1 10
REMARK H PARENT
REMARK Flexibility Score: inf
ROOT
ATOM      1  C   UNL     1     -13.514   0.441  -9.802  1.00  0.00     0.000 C 
ENDROOT
BRANCH   1   2
ATOM      2  C   UNL     1     -12.466   1.428  -9.262  1.00  0.00     0.006 C 
BRANCH   2   3
ATOM      3  C   UNL     1     -12.933   2.886  -9.340  1.00  0.00     0.053 C 
BRANCH   3   4
ATOM      4  C   UNL     1     -12.380   3.674  -8.196  1.00  0.00     0.041 C 
ATOM      5  O   UNL     1     -13.155   4.250  -7.389  1.00  0.00    -0.550 OA
ATOM      6  O   UNL     1     -11.005   3.817  -8.049  1.00  0.00    -0.550 OA
ENDBRANCH   3   4
ENDBRANCH   2   3
ENDBRANCH   1   2
BRANCH   1   7
ATOM      7  C   UNL     1     -12.887  -0.706 -10.610  1.00  0.00     0.000 C 
BRANCH   7   8
ATOM      8  C   UNL     1     -11.427  -0.937 -10.190  1.00  0.00    -0.000 C 
BRANCH   8   9
ATOM      9  C   UNL     1     -11.209  -2.318  -9.550  1.00  0.00    -0.003 C 
ATOM     10  C   UNL     1     -10.329  -2.260  -8.303  1.00  0.00     0.004 C 
ENDBRANCH   8   9
ENDBRANCH   7   8
ENDBRANCH   1   7
TORSDOF 6
ENDMDL
MODEL 3
REMARK VINA RESULT:    -4.608      1.892      2.781
REMARK INTER + INTRA:          -6.452
REMARK INTER:                  -6.183
REMARK INTRA:                  -0.270
REMARK UNBOUND:                -0.228
REMARK SMILES CCCCCCCC(=O)[O-]
REMARK SMILES IDX 5 1 6 2 7 3 8 4 9 5 10 6 4 7 3 8 2 9 1 10
REMARK H PARENT
REMARK Flexibility Score: inf
ROOT
ATOM      1  C   UNL     1     -10.929  -0.927  -9.581  1.00  0.00     0.000 C 
ENDROOT
BRANCH   1   2
ATOM      2  C   UNL     1     -11.290  -2.421  -9.548  1.00  0.00     0.006 C 
BRANCH   2   3
ATOM      3  C   UNL     1     -10.139  -3.317 -10.022  1.00  0.00     0.053 C 
BRANCH   3   4
ATOM      4  C   UNL     1      -9.946  -4.462  -9.079  1.00  0.00     0.041 C 
ATOM      5  O   UNL     1      -9.113  -4.375  -8.140  1.00  0.00    -0.550 OA
ATOM      6  O   UNL     1     -10.648  -5.646  -9.268  1.00  0.00    -0.550 OA
ENDBRANCH   3   4
ENDBRANCH   2   3
ENDBRANCH   1   2
BRANCH   1   7
ATOM      7  C   UNL     1     -12.112  -0.041  -9.999  1.00  0.00     0.000 C 
BRANCH   7   8
ATOM      8  C   UNL     1     -13.290  -0.896 -10.490  1.00  0.00    -0.000 C 
BRANCH   8   9
ATOM      9  C   UNL     1     -14.627  -0.137 -10.453  1.00  0.00    -0.003 C 
ATOM     10  C   UNL     1     -14.558   1.140  -9.617  1.00  0.00     0.004 C 
ENDBRANCH   8   9
ENDBRANCH   7   8
ENDBRANCH   1   7
TORSDOF 6
ENDMDL
MODEL 4
REMARK VINA RESULT:    -4.300      2.583      3.897
REMARK INTER + INTRA:          -6.036
REMARK INTER:                  -5.852
REMARK INTRA:                  -0.183
REMARK UNBOUND:                -0.228
REMARK SMILES CCCCCCCC(=O)[O-]
REMARK SMILES IDX 5 1 6 2 7 3 8 4 9 5 10 6 4 7 3 8 2 9 1 10
REMARK H PARENT
REMARK Flexibility Score: inf
ROOT
ATOM      1  C   UNL     1     -10.526  -2.093  -8.764  1.00  0.00     0.000 C 
ENDROOT
BRANCH   1   2
ATOM      2  C   UNL     1     -10.983  -3.559  -8.843  1.00  0.00     0.006 C 
BRANCH   2   3
ATOM      3  C   UNL     1     -10.745  -4.323  -7.535  1.00  0.00     0.053 C 
BRANCH   3   4
ATOM      4  C   UNL     1     -10.527  -5.777  -7.812  1.00  0.00     0.041 C 
ATOM      5  O   UNL     1     -10.235  -6.564  -6.874  1.00  0.00    -0.550 OA
ATOM      6  O   UNL     1     -10.596  -6.256  -9.115  1.00  0.00    -0.550 OA
ENDBRANCH   3   4
ENDBRANCH   2   3
ENDBRANCH   1   2
BRANCH   1   7
ATOM      7  C   UNL     1     -10.796  -1.318 -10.062  1.00  0.00     0.000 C 
BRANCH   7   8
ATOM      8  C   UNL     1     -11.900  -0.270  -9.855  1.00  0.00    -0.000 C 
BRANCH   8   9
ATOM      9  C   UNL     1     -13.232  -0.680 -10.504  1.00  0.00    -0.003 C 
ATOM     10  C   UNL     1     -14.401   0.199 -10.062  1.00  0.00     0.004 C 
ENDBRANCH   8   9
ENDBRANCH   7   8
ENDBRANCH   1   7
TORSDOF 6
ENDMDL
MODEL 5
REMARK VINA RESULT:    -4.265      1.780      2.410
REMARK INTER + INTRA:          -5.989
REMARK INTER:                  -5.742
REMARK INTRA:                  -0.247
REMARK UNBOUND:                -0.228
REMARK SMILES CCCCCCCC(=O)[O-]
REMARK SMILES IDX 5 1 6 2 7 3 8 4 9 5 10 6 4 7 3 8 2 9 1 10
REMARK H PARENT
REMARK Flexibility Score: inf
ROOT
ATOM      1  C   UNL     1     -15.061   0.492  -9.583  1.00  0.00     0.000 C 
ENDROOT
BRANCH   1   2
ATOM      2  C   UNL     1     -14.313  -0.186 -10.743  1.00  0.00     0.006 C 
BRANCH   2   3
ATOM      3  C   UNL     1     -13.226  -1.154 -10.259  1.00  0.00     0.053 C 
BRANCH   3   4
ATOM      4  C   UNL     1     -11.910  -0.452 -10.153  1.00  0.00     0.041 C 
ATOM      5  O   UNL     1     -10.935  -0.822 -10.859  1.00  0.00    -0.550 OA
ATOM      6  O   UNL     1     -11.743   0.580  -9.237  1.00  0.00    -0.550 OA
ENDBRANCH   3   4
ENDBRANCH   2   3
ENDBRANCH   1   2
BRANCH   1   7
ATOM      7  C   UNL     1     -14.996   2.025  -9.653  1.00  0.00     0.000 C 
BRANCH   7   8
ATOM      8  C   UNL     1     -14.482   2.613  -8.330  1.00  0.00    -0.000 C 
BRANCH   8   9
ATOM      9  C   UNL     1     -13.828   3.992  -8.512  1.00  0.00    -0.003 C 
ATOM     10  C   UNL     1     -12.301   3.924  -8.531  1.00  0.00     0.004 C 
ENDBRANCH   8   9
ENDBRANCH   7   8
ENDBRANCH   1   7
TORSDOF 6
ENDMDL
MODEL 6
REMARK VINA RESULT:    -4.229      3.249      5.199
REMARK INTER + INTRA:          -5.941
REMARK INTER:                  -5.726
REMARK INTRA:                  -0.214
REMARK UNBOUND:                -0.228
REMARK SMILES CCCCCCCC(=O)[O-]
REMARK SMILES IDX 5 1 6 2 7 3 8 4 9 5 10 6 4 7 3 8 2 9 1 10
REMARK H PARENT
REMARK Flexibility Score: inf
ROOT
ATOM      1  C   UNL     1      -9.361  -3.633  -8.628  1.00  0.00     0.000 C 
ENDROOT
BRANCH   1   2
ATOM      2  C   UNL     1      -9.774  -4.908  -7.873  1.00  0.00     0.006 C 
BRANCH   2   3
ATOM      3  C   UNL     1     -10.742  -4.623  -6.718  1.00  0.00     0.053 C 
BRANCH   3   4
ATOM      4  C   UNL     1     -11.125  -5.896  -6.032  1.00  0.00     0.041 C 
ATOM      5  O   UNL     1     -12.053  -5.902  -5.181  1.00  0.00    -0.550 OA
ATOM      6  O   UNL     1     -10.423  -7.066  -6.293  1.00  0.00    -0.550 OA
ENDBRANCH   3   4
ENDBRANCH   2   3
ENDBRANCH   1   2
BRANCH   1   7
ATOM      7  C   UNL     1     -10.172  -3.418  -9.914  1.00  0.00     0.000 C 
BRANCH   7   8
ATOM      8  C   UNL     1     -11.377  -2.500  -9.655  1.00  0.00    -0.000 C 
BRANCH   8   9
ATOM      9  C   UNL     1     -10.978  -1.019  -9.548  1.00  0.00    -0.003 C 
ATOM     10  C   UNL     1     -12.104  -0.072  -9.961  1.00  0.00     0.004 C 
ENDBRANCH   8   9
ENDBRANCH   7   8
ENDBRANCH   1   7
TORSDOF 6
ENDMDL
MODEL 7
REMARK VINA RESULT:    -4.215      2.859      5.751
REMARK INTER + INTRA:          -5.921
REMARK INTER:                  -5.690
REMARK INTRA:                  -0.231
REMARK UNBOUND:                -0.228
REMARK SMILES CCCCCCCC(=O)[O-]
REMARK SMILES IDX 5 1 6 2 7 3 8 4 9 5 10 6 4 7 3 8 2 9 1 10
REMARK H PARENT
REMARK Flexibility Score: inf
ROOT
ATOM      1  C   UNL     1     -10.861  -1.564  -9.291  1.00  0.00     0.000 C 
ENDROOT
BRANCH   1   2
ATOM      2  C   UNL     1     -11.448  -0.612 -10.346  1.00  0.00     0.006 C 
BRANCH   2   3
ATOM      3  C   UNL     1     -12.981  -0.568 -10.314  1.00  0.00     0.053 C 
BRANCH   3   4
ATOM      4  C   UNL     1     -13.455   0.757  -9.806  1.00  0.00     0.041 C 
ATOM      5  O   UNL     1     -14.677   1.055  -9.859  1.00  0.00    -0.550 OA
ATOM      6  O   UNL     1     -12.541   1.684  -9.322  1.00  0.00    -0.550 OA
ENDBRANCH   3   4
ENDBRANCH   2   3
ENDBRANCH   1   2
BRANCH   1   7
ATOM      7  C   UNL     1     -10.410  -2.905  -9.889  1.00  0.00     0.000 C 
BRANCH   7   8
ATOM      8  C   UNL     1     -10.930  -4.082  -9.050  1.00  0.00    -0.000 C 
BRANCH   8   9
ATOM      9  C   UNL     1     -10.067  -4.346  -7.805  1.00  0.00    -0.003 C 
ATOM     10  C   UNL     1     -10.893  -4.775  -6.593  1.00  0.00     0.004 C 
ENDBRANCH   8   9
ENDBRANCH   7   8
ENDBRANCH   1   7
TORSDOF 6
ENDMDL
MODEL 8
REMARK VINA RESULT:    -4.047      4.318      6.944
REMARK INTER + INTRA:          -5.695
REMARK INTER:                  -5.359
REMARK INTRA:                  -0.336
REMARK UNBOUND:                -0.228
REMARK SMILES CCCCCCCC(=O)[O-]
REMARK SMILES IDX 5 1 6 2 7 3 8 4 9 5 10 6 4 7 3 8 2 9 1 10
REMARK H PARENT
REMARK Flexibility Score: inf
ROOT
ATOM      1  C   UNL     1     -10.812  -6.229  -8.703  1.00  0.00     0.000 C 
ENDROOT
BRANCH   1   2
ATOM      2  C   UNL     1     -11.260  -4.766  -8.853  1.00  0.00     0.006 C 
BRANCH   2   3
ATOM      3  C   UNL     1     -10.262  -3.923  -9.656  1.00  0.00     0.053 C 
BRANCH   3   4
ATOM      4  C   UNL     1     -10.379  -2.479  -9.282  1.00  0.00     0.041 C 
ATOM      5  O   UNL     1     -10.336  -2.132  -8.072  1.00  0.00    -0.550 OA
ATOM      6  O   UNL     1     -10.587  -1.520 -10.265  1.00  0.00    -0.550 OA
ENDBRANCH   3   4
ENDBRANCH   2   3
ENDBRANCH   1   2
BRANCH   1   7
ATOM      7  C   UNL     1     -10.572  -6.627  -7.239  1.00  0.00     0.000 C 
BRANCH   7   8
ATOM      8  C   UNL     1     -10.964  -5.485  -6.289  1.00  0.00    -0.000 C 
BRANCH   8   9
ATOM      9  C   UNL     1     -11.971  -5.929  -5.216  1.00  0.00    -0.003 C 
ATOM     10  C   UNL     1     -12.061  -7.448  -5.081  1.00  0.00     0.004 C 
ENDBRANCH   8   9
ENDBRANCH   7   8
ENDBRANCH   1   7
TORSDOF 6
ENDMDL
MODEL 9
REMARK VINA RESULT:    -3.737      5.622      7.500
REMARK INTER + INTRA:          -5.276
REMARK INTER:                  -4.909
REMARK INTRA:                  -0.367
REMARK UNBOUND:                -0.228
REMARK SMILES CCCCCCCC(=O)[O-]
REMARK SMILES IDX 5 1 6 2 7 3 8 4 9 5 10 6 4 7 3 8 2 9 1 10
REMARK H PARENT
REMARK Flexibility Score: inf
ROOT
ATOM      1  C   UNL     1     -11.658  -5.446  -5.907  1.00  0.00     0.000 C 
ENDROOT
BRANCH   1   2
ATOM      2  C   UNL     1     -10.637  -5.625  -7.042  1.00  0.00     0.006 C 
BRANCH   2   3
ATOM      3  C   UNL     1     -11.145  -5.086  -8.385  1.00  0.00     0.053 C 
BRANCH   3   4
ATOM      4  C   UNL     1     -10.111  -4.212  -9.022  1.00  0.00     0.041 C 
ATOM      5  O   UNL     1     -10.349  -3.648 -10.122  1.00  0.00    -0.550 OA
ATOM      6  O   UNL     1      -8.864  -4.061  -8.427  1.00  0.00    -0.550 OA
ENDBRANCH   3   4
ENDBRANCH   2   3
ENDBRANCH   1   2
BRANCH   1   7
ATOM      7  C   UNL     1     -11.944  -6.754  -5.155  1.00  0.00     0.000 C 
BRANCH   7   8
ATOM      8  C   UNL     1     -12.784  -7.709  -6.016  1.00  0.00    -0.000 C 
BRANCH   8   9
ATOM      9  C   UNL     1     -14.045  -7.037  -6.584  1.00  0.00    -0.003 C 
ATOM     10  C   UNL     1     -15.123  -6.811  -5.524  1.00  0.00     0.004 C 
ENDBRANCH   8   9
ENDBRANCH   7   8
ENDBRANCH   1   7
TORSDOF 6
ENDMDL
