MODEL 1
REMARK VINA RESULT:    -2.359      0.000      0.000
REMARK INTER + INTRA:          -2.359
REMARK INTER:                  -2.359
REMARK INTRA:                   0.000
REMARK UNBOUND:                 0.000
REMARK SMILES CC(=O)[O-]
REMARK SMILES IDX 1 1 2 2 3 3 4 4
REMARK H PARENT
REMARK Flexibility Score: inf
ROOT
ATOM      1  C   UNL     1     -41.522  22.635 -28.917  1.00  0.00     0.063 C 
ATOM      2  C   UNL     1     -41.752  21.394 -28.122  1.00  0.00     0.038 C 
ATOM      3  O   UNL     1     -40.775  20.722 -27.703  1.00  0.00    -0.550 OA
ATOM      4  O   UNL     1     -43.046  21.008 -27.796  1.00  0.00    -0.550 OA
ENDROOT
TORSDOF 0
ENDMDL
MODEL 2
REMARK VINA RESULT:    -2.357      3.937      4.230
REMARK INTER + INTRA:          -2.357
REMARK INTER:                  -2.357
REMARK INTRA:                   0.000
REMARK UNBOUND:                 0.000
REMARK SMILES CC(=O)[O-]
REMARK SMILES IDX 1 1 2 2 3 3 4 4
REMARK H PARENT
REMARK Flexibility Score: inf
ROOT
ATOM      1  C   UNL     1     -39.315  18.709 -29.780  1.00  0.00     0.063 C 
ATOM      2  C   UNL     1     -40.334  19.183 -30.760  1.00  0.00     0.038 C 
ATOM      3  O   UNL     1     -41.229  18.400 -31.171  1.00  0.00    -0.550 OA
ATOM      4  O   UNL     1     -40.331  20.507 -31.180  1.00  0.00    -0.550 OA
ENDROOT
TORSDOF 0
ENDMDL
MODEL 3
REMARK VINA RESULT:    -2.341      1.338      1.967
REMARK INTER + INTRA:          -2.341
REMARK INTER:                  -2.341
REMARK INTRA:                   0.000
REMARK UNBOUND:                 0.000
REMARK SMILES CC(=O)[O-]
REMARK SMILES IDX 1 1 2 2 3 3 4 4
REMARK H PARENT
REMARK Flexibility Score: inf
ROOT
ATOM      1  C   UNL     1     -40.616  20.826 -27.982  1.00  0.00     0.063 C 
ATOM      2  C   UNL     1     -41.915  21.500 -28.266  1.00  0.00     0.038 C 
ATOM      3  O   UNL     1     -42.984  21.041 -27.785  1.00  0.00    -0.550 OA
ATOM      4  O   UNL     1     -41.943  22.667 -29.018  1.00  0.00    -0.550 OA
ENDROOT
TORSDOF 0
ENDMDL
MODEL 4
REMARK VINA RESULT:    -2.338      3.677      4.066
REMARK INTER + INTRA:          -2.338
REMARK INTER:                  -2.338
REMARK INTRA:                   0.000
REMARK UNBOUND:                 0.000
REMARK SMILES CC(=O)[O-]
REMARK SMILES IDX 1 1 2 2 3 3 4 4
REMARK H PARENT
REMARK Flexibility Score: inf
ROOT
ATOM      1  C   UNL     1     -40.157  20.463 -30.756  1.00  0.00     0.063 C 
ATOM      2  C   UNL     1     -40.321  18.991 -30.578  1.00  0.00     0.038 C 
ATOM      3  O   UNL     1     -41.236  18.379 -31.187  1.00  0.00    -0.550 OA
ATOM      4  O   UNL     1     -39.428  18.284 -29.784  1.00  0.00    -0.550 OA
ENDROOT
TORSDOF 0
ENDMDL
MODEL 5
REMARK VINA RESULT:    -2.333     16.794     17.095
REMARK INTER + INTRA:          -2.333
REMARK INTER:                  -2.333
REMARK INTRA:                   0.000
REMARK UNBOUND:                 0.000
REMARK SMILES CC(=O)[O-]
REMARK SMILES IDX 1 1 2 2 3 3 4 4
REMARK H PARENT
REMARK Flexibility Score: inf
ROOT
ATOM      1  C   UNL     1     -53.827  23.632 -40.125  1.00  0.00     0.063 C 
ATOM      2  C   UNL     1     -54.748  23.560 -38.954  1.00  0.00     0.038 C 
ATOM      3  O   UNL     1     -54.625  24.375 -38.002  1.00  0.00    -0.550 OA
ATOM      4  O   UNL     1     -55.778  22.630 -38.936  1.00  0.00    -0.550 OA
ENDROOT
TORSDOF 0
ENDMDL
MODEL 6
REMARK VINA RESULT:    -2.323      1.748      2.059
REMARK INTER + INTRA:          -2.323
REMARK INTER:                  -2.323
REMARK INTRA:                   0.000
REMARK UNBOUND:                 0.000
REMARK SMILES CC(=O)[O-]
REMARK SMILES IDX 1 1 2 2 3 3 4 4
REMARK H PARENT
REMARK Flexibility Score: inf
ROOT
ATOM      1  C   UNL     1     -42.536  21.183 -27.882  1.00  0.00     0.063 C 
ATOM      2  C   UNL     1     -41.109  21.067 -28.298  1.00  0.00     0.038 C 
ATOM      3  O   UNL     1     -40.749  21.456 -29.439  1.00  0.00    -0.550 OA
ATOM      4  O   UNL     1     -40.162  20.580 -27.406  1.00  0.00    -0.550 OA
ENDROOT
TORSDOF 0
ENDMDL
MODEL 7
REMARK VINA RESULT:    -2.314      3.316      3.722
REMARK INTER + INTRA:          -2.314
REMARK INTER:                  -2.314
REMARK INTRA:                   0.000
REMARK UNBOUND:                 0.000
REMARK SMILES CC(=O)[O-]
REMARK SMILES IDX 1 1 2 2 3 3 4 4
REMARK H PARENT
REMARK Flexibility Score: inf
ROOT
ATOM      1  C   UNL     1     -40.963  18.628 -31.026  1.00  0.00     0.063 C 
ATOM      2  C   UNL     1     -40.369  19.891 -30.500  1.00  0.00     0.038 C 
ATOM      3  O   UNL     1     -40.029  19.974 -29.292  1.00  0.00    -0.550 OA
ATOM      4  O   UNL     1     -40.139  20.960 -31.356  1.00  0.00    -0.550 OA
ENDROOT
TORSDOF 0
ENDMDL
MODEL 8
REMARK VINA RESULT:    -2.278      4.207      4.311
REMARK INTER + INTRA:          -2.278
REMARK INTER:                  -2.278
REMARK INTRA:                   0.000
REMARK UNBOUND:                 0.000
REMARK SMILES CC(=O)[O-]
REMARK SMILES IDX 1 1 2 2 3 3 4 4
REMARK H PARENT
REMARK Flexibility Score: inf
ROOT
ATOM      1  C   UNL     1     -40.874  18.757 -30.943  1.00  0.00     0.063 C 
ATOM      2  C   UNL     1     -39.604  18.793 -30.162  1.00  0.00     0.038 C 
ATOM      3  O   UNL     1     -39.232  17.782 -29.512  1.00  0.00    -0.550 OA
ATOM      4  O   UNL     1     -38.800  19.925 -30.196  1.00  0.00    -0.550 OA
ENDROOT
TORSDOF 0
ENDMDL
MODEL 9
REMARK VINA RESULT:    -2.220      1.807      2.606
REMARK INTER + INTRA:          -2.220
REMARK INTER:                  -2.220
REMARK INTRA:                   0.000
REMARK UNBOUND:                 0.000
REMARK SMILES CC(=O)[O-]
REMARK SMILES IDX 1 1 2 2 3 3 4 4
REMARK H PARENT
REMARK Flexibility Score: inf
ROOT
ATOM      1  C   UNL     1     -42.259  21.237 -28.099  1.00  0.00     0.063 C 
ATOM      2  C   UNL     1     -41.590  22.403 -28.744  1.00  0.00     0.038 C 
ATOM      3  O   UNL     1     -42.273  23.269 -29.349  1.00  0.00    -0.550 OA
ATOM      4  O   UNL     1     -40.215  22.565 -28.631  1.00  0.00    -0.550 OA
ENDROOT
TORSDOF 0
ENDMDL
