MODEL 1
REMARK VINA RESULT:    -3.120      0.000      0.000
REMARK INTER + INTRA:          -4.626
REMARK INTER:                  -4.214
REMARK INTRA:                  -0.412
REMARK UNBOUND:                -0.412
REMARK SMILES CCCCCCCC(=O)[O-]
REMARK SMILES IDX 5 1 6 2 7 3 8 4 9 5 10 6 4 7 3 8 2 9 1 10
REMARK H PARENT
REMARK Flexibility Score: inf
ROOT
ATOM      1  C   UNL     1      -1.900  -7.061  31.176  1.00  0.00     0.000 C 
ENDROOT
BRANCH   1   2
ATOM      2  C   UNL     1      -3.068  -6.919  30.188  1.00  0.00     0.006 C 
BRANCH   2   3
ATOM      3  C   UNL     1      -4.270  -7.795  30.565  1.00  0.00     0.053 C 
BRANCH   3   4
ATOM      4  C   UNL     1      -3.994  -9.229  30.239  1.00  0.00     0.041 C 
ATOM      5  O   UNL     1      -3.690 -10.039  31.152  1.00  0.00    -0.550 OA
ATOM      6  O   UNL     1      -4.122  -9.681  28.931  1.00  0.00    -0.550 OA
ENDBRANCH   3   4
ENDBRANCH   2   3
ENDBRANCH   1   2
BRANCH   1   7
ATOM      7  C   UNL     1      -1.261  -5.711  31.536  1.00  0.00     0.000 C 
BRANCH   7   8
ATOM      8  C   UNL     1      -1.627  -5.296  32.969  1.00  0.00    -0.000 C 
BRANCH   8   9
ATOM      9  C   UNL     1      -2.924  -4.474  33.034  1.00  0.00    -0.003 C 
ATOM     10  C   UNL     1      -3.064  -3.498  31.867  1.00  0.00     0.004 C 
ENDBRANCH   8   9
ENDBRANCH   7   8
ENDBRANCH   1   7
TORSDOF 6
ENDMDL
MODEL 2
REMARK VINA RESULT:    -3.046      0.949      1.508
REMARK INTER + INTRA:          -4.527
REMARK INTER:                  -4.187
REMARK INTRA:                  -0.340
REMARK UNBOUND:                -0.412
REMARK SMILES CCCCCCCC(=O)[O-]
REMARK SMILES IDX 5 1 6 2 7 3 8 4 9 5 10 6 4 7 3 8 2 9 1 10
REMARK H PARENT
REMARK Flexibility Score: inf
ROOT
ATOM      1  C   UNL     1      -1.158  -6.198  31.048  1.00  0.00     0.000 C 
ENDROOT
BRANCH   1   2
ATOM      2  C   UNL     1      -2.000  -7.475  31.201  1.00  0.00     0.006 C 
BRANCH   2   3
ATOM      3  C   UNL     1      -3.354  -7.380  30.486  1.00  0.00     0.053 C 
BRANCH   3   4
ATOM      4  C   UNL     1      -4.000  -8.727  30.411  1.00  0.00     0.041 C 
ATOM      5  O   UNL     1      -4.941  -8.934  29.601  1.00  0.00    -0.550 OA
ATOM      6  O   UNL     1      -3.529  -9.769  31.200  1.00  0.00    -0.550 OA
ENDBRANCH   3   4
ENDBRANCH   2   3
ENDBRANCH   1   2
BRANCH   1   7
ATOM      7  C   UNL     1      -1.983  -4.918  31.252  1.00  0.00     0.000 C 
BRANCH   7   8
ATOM      8  C   UNL     1      -2.121  -4.588  32.746  1.00  0.00    -0.000 C 
BRANCH   8   9
ATOM      9  C   UNL     1      -3.276  -3.615  33.032  1.00  0.00    -0.003 C 
ATOM     10  C   UNL     1      -4.650  -4.258  32.847  1.00  0.00     0.004 C 
ENDBRANCH   8   9
ENDBRANCH   7   8
ENDBRANCH   1   7
TORSDOF 6
ENDMDL
MODEL 3
REMARK VINA RESULT:    -2.960     15.467     16.870
REMARK INTER + INTRA:          -4.411
REMARK INTER:                  -4.059
REMARK INTRA:                  -0.352
REMARK UNBOUND:                -0.412
REMARK SMILES CCCCCCCC(=O)[O-]
REMARK SMILES IDX 5 1 6 2 7 3 8 4 9 5 10 6 4 7 3 8 2 9 1 10
REMARK H PARENT
REMARK Flexibility Score: inf
ROOT
ATOM      1  C   UNL     1     -11.540   7.841  28.899  1.00  0.00     0.000 C 
ENDROOT
BRANCH   1   2
ATOM      2  C   UNL     1     -11.624   6.404  29.437  1.00  0.00     0.006 C 
BRANCH   2   3
ATOM      3  C   UNL     1     -12.872   6.169  30.298  1.00  0.00     0.053 C 
BRANCH   3   4
ATOM      4  C   UNL     1     -12.607   5.112  31.324  1.00  0.00     0.041 C 
ATOM      5  O   UNL     1     -12.836   3.903  31.062  1.00  0.00    -0.550 OA
ATOM      6  O   UNL     1     -12.059   5.459  32.553  1.00  0.00    -0.550 OA
ENDBRANCH   3   4
ENDBRANCH   2   3
ENDBRANCH   1   2
BRANCH   1   7
ATOM      7  C   UNL     1     -12.452   8.073  27.685  1.00  0.00     0.000 C 
BRANCH   7   8
ATOM      8  C   UNL     1     -11.652   8.000  26.376  1.00  0.00    -0.000 C 
BRANCH   8   9
ATOM      9  C   UNL     1     -12.032   6.783  25.517  1.00  0.00    -0.003 C 
ATOM     10  C   UNL     1     -13.161   5.955  26.131  1.00  0.00     0.004 C 
ENDBRANCH   8   9
ENDBRANCH   7   8
ENDBRANCH   1   7
TORSDOF 6
ENDMDL
MODEL 4
REMARK VINA RESULT:    -2.958      2.289      3.587
REMARK INTER + INTRA:          -4.408
REMARK INTER:                  -4.107
REMARK INTRA:                  -0.301
REMARK UNBOUND:                -0.412
REMARK SMILES CCCCCCCC(=O)[O-]
REMARK SMILES IDX 5 1 6 2 7 3 8 4 9 5 10 6 4 7 3 8 2 9 1 10
REMARK H PARENT
REMARK Flexibility Score: inf
ROOT
ATOM      1  C   UNL     1      -2.689  -3.892  32.474  1.00  0.00     0.000 C 
ENDROOT
BRANCH   1   2
ATOM      2  C   UNL     1      -1.999  -5.168  32.981  1.00  0.00     0.006 C 
BRANCH   2   3
ATOM      3  C   UNL     1      -1.160  -5.857  31.897  1.00  0.00     0.053 C 
BRANCH   3   4
ATOM      4  C   UNL     1      -2.040  -6.643  30.977  1.00  0.00     0.041 C 
ATOM      5  O   UNL     1      -2.528  -7.742  31.352  1.00  0.00    -0.550 OA
ATOM      6  O   UNL     1      -2.364  -6.138  29.724  1.00  0.00    -0.550 OA
ENDBRANCH   3   4
ENDBRANCH   2   3
ENDBRANCH   1   2
BRANCH   1   7
ATOM      7  C   UNL     1      -4.142  -3.772  32.958  1.00  0.00     0.000 C 
BRANCH   7   8
ATOM      8  C   UNL     1      -4.418  -2.370  33.520  1.00  0.00    -0.000 C 
BRANCH   8   9
ATOM      9  C   UNL     1      -3.398  -1.327  33.036  1.00  0.00    -0.003 C 
ATOM     10  C   UNL     1      -2.771  -0.536  34.184  1.00  0.00     0.004 C 
ENDBRANCH   8   9
ENDBRANCH   7   8
ENDBRANCH   1   7
TORSDOF 6
ENDMDL
MODEL 5
REMARK VINA RESULT:    -2.958      4.550      6.050
REMARK INTER + INTRA:          -4.408
REMARK INTER:                  -4.212
REMARK INTRA:                  -0.196
REMARK UNBOUND:                -0.412
REMARK SMILES CCCCCCCC(=O)[O-]
REMARK SMILES IDX 5 1 6 2 7 3 8 4 9 5 10 6 4 7 3 8 2 9 1 10
REMARK H PARENT
REMARK Flexibility Score: inf
ROOT
ATOM      1  C   UNL     1      -3.682  -1.184  33.952  1.00  0.00     0.000 C 
ENDROOT
BRANCH   1   2
ATOM      2  C   UNL     1      -3.245  -2.144  32.834  1.00  0.00     0.006 C 
BRANCH   2   3
ATOM      3  C   UNL     1      -3.582  -3.608  33.149  1.00  0.00     0.053 C 
BRANCH   3   4
ATOM      4  C   UNL     1      -2.452  -4.502  32.744  1.00  0.00     0.041 C 
ATOM      5  O   UNL     1      -1.966  -5.321  33.567  1.00  0.00    -0.550 OA
ATOM      6  O   UNL     1      -1.969  -4.466  31.442  1.00  0.00    -0.550 OA
ENDBRANCH   3   4
ENDBRANCH   2   3
ENDBRANCH   1   2
BRANCH   1   7
ATOM      7  C   UNL     1      -2.678  -0.044  34.179  1.00  0.00     0.000 C 
BRANCH   7   8
ATOM      8  C   UNL     1      -2.568   0.301  35.671  1.00  0.00    -0.000 C 
BRANCH   8   9
ATOM      9  C   UNL     1      -3.927   0.266  36.388  1.00  0.00    -0.003 C 
ATOM     10  C   UNL     1      -3.793   0.176  37.907  1.00  0.00     0.004 C 
ENDBRANCH   8   9
ENDBRANCH   7   8
ENDBRANCH   1   7
TORSDOF 6
ENDMDL
MODEL 6
REMARK VINA RESULT:    -2.918     14.393     15.150
REMARK INTER + INTRA:          -4.354
REMARK INTER:                  -4.085
REMARK INTRA:                  -0.269
REMARK UNBOUND:                -0.412
REMARK SMILES CCCCCCCC(=O)[O-]
REMARK SMILES IDX 5 1 6 2 7 3 8 4 9 5 10 6 4 7 3 8 2 9 1 10
REMARK H PARENT
REMARK Flexibility Score: inf
ROOT
ATOM      1  C   UNL     1     -10.099   4.201  35.337  1.00  0.00     0.000 C 
ENDROOT
BRANCH   1   2
ATOM      2  C   UNL     1     -10.486   5.292  34.326  1.00  0.00     0.006 C 
BRANCH   2   3
ATOM      3  C   UNL     1     -10.795   4.726  32.934  1.00  0.00     0.053 C 
BRANCH   3   4
ATOM      4  C   UNL     1     -12.210   5.024  32.552  1.00  0.00     0.041 C 
ATOM      5  O   UNL     1     -12.458   5.791  31.586  1.00  0.00    -0.550 OA
ATOM      6  O   UNL     1     -13.257   4.412  33.231  1.00  0.00    -0.550 OA
ENDBRANCH   3   4
ENDBRANCH   2   3
ENDBRANCH   1   2
BRANCH   1   7
ATOM      7  C   UNL     1     -10.674   4.460  36.738  1.00  0.00     0.000 C 
BRANCH   7   8
ATOM      8  C   UNL     1     -11.057   3.142  37.426  1.00  0.00    -0.000 C 
BRANCH   8   9
ATOM      9  C   UNL     1     -12.488   3.161  37.986  1.00  0.00    -0.003 C 
ATOM     10  C   UNL     1     -13.552   3.188  36.890  1.00  0.00     0.004 C 
ENDBRANCH   8   9
ENDBRANCH   7   8
ENDBRANCH   1   7
TORSDOF 6
ENDMDL
MODEL 7
REMARK VINA RESULT:    -2.894      4.055      5.420
REMARK INTER + INTRA:          -4.321
REMARK INTER:                  -3.866
REMARK INTRA:                  -0.455
REMARK UNBOUND:                -0.412
REMARK SMILES CCCCCCCC(=O)[O-]
REMARK SMILES IDX 5 1 6 2 7 3 8 4 9 5 10 6 4 7 3 8 2 9 1 10
REMARK H PARENT
REMARK Flexibility Score: inf
ROOT
ATOM      1  C   UNL     1      -1.765  -5.404  32.824  1.00  0.00     0.000 C 
ENDROOT
BRANCH   1   2
ATOM      2  C   UNL     1      -2.353  -4.021  32.502  1.00  0.00     0.006 C 
BRANCH   2   3
ATOM      3  C   UNL     1      -3.803  -3.870  32.980  1.00  0.00     0.053 C 
BRANCH   3   4
ATOM      4  C   UNL     1      -4.048  -2.479  33.475  1.00  0.00     0.041 C 
ATOM      5  O   UNL     1      -5.165  -2.167  33.964  1.00  0.00    -0.550 OA
ATOM      6  O   UNL     1      -3.024  -1.540  33.444  1.00  0.00    -0.550 OA
ENDBRANCH   3   4
ENDBRANCH   2   3
ENDBRANCH   1   2
BRANCH   1   7
ATOM      7  C   UNL     1      -1.251  -6.134  31.574  1.00  0.00     0.000 C 
BRANCH   7   8
ATOM      8  C   UNL     1      -2.179  -7.300  31.201  1.00  0.00    -0.000 C 
BRANCH   8   9
ATOM      9  C   UNL     1      -3.228  -6.907  30.148  1.00  0.00    -0.003 C 
ATOM     10  C   UNL     1      -4.637  -6.800  30.728  1.00  0.00     0.004 C 
ENDBRANCH   8   9
ENDBRANCH   7   8
ENDBRANCH   1   7
TORSDOF 6
ENDMDL
MODEL 8
REMARK VINA RESULT:    -2.887      2.930      5.032
REMARK INTER + INTRA:          -4.312
REMARK INTER:                  -3.961
REMARK INTRA:                  -0.351
REMARK UNBOUND:                -0.412
REMARK SMILES CCCCCCCC(=O)[O-]
REMARK SMILES IDX 5 1 6 2 7 3 8 4 9 5 10 6 4 7 3 8 2 9 1 10
REMARK H PARENT
REMARK Flexibility Score: inf
ROOT
ATOM      1  C   UNL     1      -3.332  -7.061  30.396  1.00  0.00     0.000 C 
ENDROOT
BRANCH   1   2
ATOM      2  C   UNL     1      -2.041  -6.243  30.234  1.00  0.00     0.006 C 
BRANCH   2   3
ATOM      3  C   UNL     1      -1.245  -6.130  31.541  1.00  0.00     0.053 C 
BRANCH   3   4
ATOM      4  C   UNL     1      -1.906  -5.163  32.473  1.00  0.00     0.041 C 
ATOM      5  O   UNL     1      -1.982  -5.419  33.703  1.00  0.00    -0.550 OA
ATOM      6  O   UNL     1      -2.394  -3.955  31.990  1.00  0.00    -0.550 OA
ENDBRANCH   3   4
ENDBRANCH   2   3
ENDBRANCH   1   2
BRANCH   1   7
ATOM      7  C   UNL     1      -3.095  -8.408  31.095  1.00  0.00     0.000 C 
BRANCH   7   8
ATOM      8  C   UNL     1      -3.979  -9.505  30.483  1.00  0.00    -0.000 C 
BRANCH   8   9
ATOM      9  C   UNL     1      -4.714  -9.035  29.218  1.00  0.00    -0.003 C 
ATOM     10  C   UNL     1      -4.217  -9.731  27.952  1.00  0.00     0.004 C 
ENDBRANCH   8   9
ENDBRANCH   7   8
ENDBRANCH   1   7
TORSDOF 6
ENDMDL
MODEL 9
REMARK VINA RESULT:    -2.882      2.398      2.788
REMARK INTER + INTRA:          -4.305
REMARK INTER:                  -3.688
REMARK INTRA:                  -0.618
REMARK UNBOUND:                -0.412
REMARK SMILES CCCCCCCC(=O)[O-]
REMARK SMILES IDX 5 1 6 2 7 3 8 4 9 5 10 6 4 7 3 8 2 9 1 10
REMARK H PARENT
REMARK Flexibility Score: inf
ROOT
ATOM      1  C   UNL     1      -2.394  -7.535  31.193  1.00  0.00     0.000 C 
ENDROOT
BRANCH   1   2
ATOM      2  C   UNL     1      -3.443  -7.352  30.084  1.00  0.00     0.006 C 
BRANCH   2   3
ATOM      3  C   UNL     1      -4.879  -7.353  30.623  1.00  0.00     0.053 C 
BRANCH   3   4
ATOM      4  C   UNL     1      -5.293  -5.967  31.009  1.00  0.00     0.041 C 
ATOM      5  O   UNL     1      -5.064  -5.000  30.237  1.00  0.00    -0.550 OA
ATOM      6  O   UNL     1      -5.978  -5.753  32.199  1.00  0.00    -0.550 OA
ENDBRANCH   3   4
ENDBRANCH   2   3
ENDBRANCH   1   2
BRANCH   1   7
ATOM      7  C   UNL     1      -1.232  -6.537  31.080  1.00  0.00     0.000 C 
BRANCH   7   8
ATOM      8  C   UNL     1      -1.707  -5.107  31.377  1.00  0.00    -0.000 C 
BRANCH   8   9
ATOM      9  C   UNL     1      -2.133  -4.917  32.841  1.00  0.00    -0.003 C 
ATOM     10  C   UNL     1      -3.061  -3.719  33.037  1.00  0.00     0.004 C 
ENDBRANCH   8   9
ENDBRANCH   7   8
ENDBRANCH   1   7
TORSDOF 6
ENDMDL
