MODEL 1
REMARK VINA RESULT:    -3.187      0.000      0.000
REMARK INTER + INTRA:          -5.780
REMARK INTER:                  -4.678
REMARK INTRA:                  -1.102
REMARK UNBOUND:                -1.102
REMARK SMILES CCCCCC(=O)CCCCC
REMARK SMILES IDX 6 1 7 2 5 3 4 4 3 5 2 6 1 7 8 8 9 9 10 10 11 11 12 12
REMARK H PARENT
REMARK Flexibility Score: inf
ROOT
ATOM      1  C   UNL     1     168.303 169.856 168.353  1.00  0.00     0.132 C 
ATOM      2  O   UNL     1     168.722 170.999 168.249  1.00  0.00    -0.300 OA
ENDROOT
BRANCH   1   3
ATOM      3  C   UNL     1     166.910 169.529 167.882  1.00  0.00     0.075 C 
BRANCH   3   4
ATOM      4  C   UNL     1     166.131 168.767 168.960  1.00  0.00     0.008 C 
BRANCH   4   5
ATOM      5  C   UNL     1     165.292 167.640 168.339  1.00  0.00     0.000 C 
BRANCH   5   6
ATOM      6  C   UNL     1     164.780 166.640 169.387  1.00  0.00    -0.003 C 
ATOM      7  C   UNL     1     165.359 166.893 170.779  1.00  0.00     0.004 C 
ENDBRANCH   5   6
ENDBRANCH   4   5
ENDBRANCH   3   4
ENDBRANCH   1   3
BRANCH   1   8
ATOM      8  C   UNL     1     169.182 168.796 168.961  1.00  0.00     0.075 C 
BRANCH   8   9
ATOM      9  C   UNL     1     169.950 167.997 167.896  1.00  0.00     0.008 C 
BRANCH   9  10
ATOM     10  C   UNL     1     169.799 166.466 168.014  1.00  0.00     0.000 C 
BRANCH  10  11
ATOM     11  C   UNL     1     168.698 165.998 168.981  1.00  0.00    -0.003 C 
ATOM     12  C   UNL     1     167.904 164.804 168.452  1.00  0.00     0.004 C 
ENDBRANCH  10  11
ENDBRANCH   9  10
ENDBRANCH   8   9
ENDBRANCH   1   8
TORSDOF 8
ENDMDL
MODEL 2
REMARK VINA RESULT:    -3.184      1.775      3.516
REMARK INTER + INTRA:          -5.775
REMARK INTER:                  -4.603
REMARK INTRA:                  -1.172
REMARK UNBOUND:                -1.102
REMARK SMILES CCCCCC(=O)CCCCC
REMARK SMILES IDX 6 1 7 2 5 3 4 4 3 5 2 6 1 7 8 8 9 9 10 10 11 11 12 12
REMARK H PARENT
REMARK Flexibility Score: inf
ROOT
ATOM      1  C   UNL     1     165.661 168.398 168.705  1.00  0.00     0.132 C 
ATOM      2  O   UNL     1     164.628 168.640 168.100  1.00  0.00    -0.300 OA
ENDROOT
BRANCH   1   3
ATOM      3  C   UNL     1     165.776 167.123 169.499  1.00  0.00     0.075 C 
BRANCH   3   4
ATOM      4  C   UNL     1     165.997 165.920 168.575  1.00  0.00     0.008 C 
BRANCH   4   5
ATOM      5  C   UNL     1     167.495 165.644 168.381  1.00  0.00     0.000 C 
BRANCH   5   6
ATOM      6  C   UNL     1     168.191 165.223 169.684  1.00  0.00    -0.003 C 
ATOM      7  C   UNL     1     169.128 164.030 169.496  1.00  0.00     0.004 C 
ENDBRANCH   5   6
ENDBRANCH   4   5
ENDBRANCH   3   4
ENDBRANCH   1   3
BRANCH   1   8
ATOM      8  C   UNL     1     166.798 169.384 168.657  1.00  0.00     0.075 C 
BRANCH   8   9
ATOM      9  C   UNL     1     167.632 169.373 169.948  1.00  0.00     0.008 C 
BRANCH   9  10
ATOM     10  C   UNL     1     169.068 168.837 169.775  1.00  0.00     0.000 C 
BRANCH  10  11
ATOM     11  C   UNL     1     169.565 168.777 168.320  1.00  0.00    -0.003 C 
ATOM     12  C   UNL     1     170.667 167.740 168.106  1.00  0.00     0.004 C 
ENDBRANCH  10  11
ENDBRANCH   9  10
ENDBRANCH   8   9
ENDBRANCH   1   8
TORSDOF 8
ENDMDL
MODEL 3
REMARK VINA RESULT:    -3.143      1.750      3.638
REMARK INTER + INTRA:          -5.715
REMARK INTER:                  -4.531
REMARK INTRA:                  -1.184
REMARK UNBOUND:                -1.102
REMARK SMILES CCCCCC(=O)CCCCC
REMARK SMILES IDX 6 1 7 2 5 3 4 4 3 5 2 6 1 7 8 8 9 9 10 10 11 11 12 12
REMARK H PARENT
REMARK Flexibility Score: inf
ROOT
ATOM      1  C   UNL     1     165.642 168.377 168.912  1.00  0.00     0.132 C 
ATOM      2  O   UNL     1     164.799 168.827 168.151  1.00  0.00    -0.300 OA
ENDROOT
BRANCH   1   3
ATOM      3  C   UNL     1     166.654 169.304 169.532  1.00  0.00     0.075 C 
BRANCH   3   4
ATOM      4  C   UNL     1     167.376 170.126 168.458  1.00  0.00     0.008 C 
BRANCH   4   5
ATOM      5  C   UNL     1     168.575 169.353 167.888  1.00  0.00     0.000 C 
BRANCH   5   6
ATOM      6  C   UNL     1     169.604 168.983 168.966  1.00  0.00    -0.003 C 
ATOM      7  C   UNL     1     170.590 167.911 168.499  1.00  0.00     0.004 C 
ENDBRANCH   5   6
ENDBRANCH   4   5
ENDBRANCH   3   4
ENDBRANCH   1   3
BRANCH   1   8
ATOM      8  C   UNL     1     165.664 166.900 169.205  1.00  0.00     0.075 C 
BRANCH   8   9
ATOM      9  C   UNL     1     166.499 166.116 168.181  1.00  0.00     0.008 C 
BRANCH   9  10
ATOM     10  C   UNL     1     167.797 165.505 168.750  1.00  0.00     0.000 C 
BRANCH  10  11
ATOM     11  C   UNL     1     168.047 165.792 170.241  1.00  0.00    -0.003 C 
ATOM     12  C   UNL     1     168.810 164.672 170.946  1.00  0.00     0.004 C 
ENDBRANCH  10  11
ENDBRANCH   9  10
ENDBRANCH   8   9
ENDBRANCH   1   8
TORSDOF 8
ENDMDL
MODEL 4
REMARK VINA RESULT:    -3.088      2.252      5.043
REMARK INTER + INTRA:          -5.634
REMARK INTER:                  -4.750
REMARK INTRA:                  -0.884
REMARK UNBOUND:                -1.102
REMARK SMILES CCCCCC(=O)CCCCC
REMARK SMILES IDX 6 1 7 2 5 3 4 4 3 5 2 6 1 7 8 8 9 9 10 10 11 11 12 12
REMARK H PARENT
REMARK Flexibility Score: inf
ROOT
ATOM      1  C   UNL     1     167.118 165.429 168.702  1.00  0.00     0.132 C 
ATOM      2  O   UNL     1     166.503 164.663 167.976  1.00  0.00    -0.300 OA
ENDROOT
BRANCH   1   3
ATOM      3  C   UNL     1     168.538 165.108 169.090  1.00  0.00     0.075 C 
BRANCH   3   4
ATOM      4  C   UNL     1     169.347 166.390 169.319  1.00  0.00     0.008 C 
BRANCH   4   5
ATOM      5  C   UNL     1     170.134 166.776 168.057  1.00  0.00     0.000 C 
BRANCH   5   6
ATOM      6  C   UNL     1     171.041 167.996 168.278  1.00  0.00    -0.003 C 
ATOM      7  C   UNL     1     170.829 168.651 169.643  1.00  0.00     0.004 C 
ENDBRANCH   5   6
ENDBRANCH   4   5
ENDBRANCH   3   4
ENDBRANCH   1   3
BRANCH   1   8
ATOM      8  C   UNL     1     166.442 166.675 169.208  1.00  0.00     0.075 C 
BRANCH   8   9
ATOM      9  C   UNL     1     166.100 167.652 168.072  1.00  0.00     0.008 C 
BRANCH   9  10
ATOM     10  C   UNL     1     165.680 169.060 168.545  1.00  0.00     0.000 C 
BRANCH  10  11
ATOM     11  C   UNL     1     166.845 169.983 168.942  1.00  0.00    -0.003 C 
ATOM     12  C   UNL     1     167.939 170.059 167.878  1.00  0.00     0.004 C 
ENDBRANCH  10  11
ENDBRANCH   9  10
ENDBRANCH   8   9
ENDBRANCH   1   8
TORSDOF 8
ENDMDL
MODEL 5
REMARK VINA RESULT:    -3.036      2.504      4.710
REMARK INTER + INTRA:          -5.558
REMARK INTER:                  -4.248
REMARK INTRA:                  -1.309
REMARK UNBOUND:                -1.102
REMARK SMILES CCCCCC(=O)CCCCC
REMARK SMILES IDX 6 1 7 2 5 3 4 4 3 5 2 6 1 7 8 8 9 9 10 10 11 11 12 12
REMARK H PARENT
REMARK Flexibility Score: inf
ROOT
ATOM      1  C   UNL     1     166.774 165.563 168.603  1.00  0.00     0.132 C 
ATOM      2  O   UNL     1     166.983 164.548 167.956  1.00  0.00    -0.300 OA
ENDROOT
BRANCH   1   3
ATOM      3  C   UNL     1     167.626 165.866 169.807  1.00  0.00     0.075 C 
BRANCH   3   4
ATOM      4  C   UNL     1     168.943 166.533 169.393  1.00  0.00     0.008 C 
BRANCH   4   5
ATOM      5  C   UNL     1     169.248 167.747 170.283  1.00  0.00     0.000 C 
BRANCH   5   6
ATOM      6  C   UNL     1     168.344 167.810 171.524  1.00  0.00    -0.003 C 
ATOM      7  C   UNL     1     167.811 169.217 171.796  1.00  0.00     0.004 C 
ENDBRANCH   5   6
ENDBRANCH   4   5
ENDBRANCH   3   4
ENDBRANCH   1   3
BRANCH   1   8
ATOM      8  C   UNL     1     165.658 166.488 168.193  1.00  0.00     0.075 C 
BRANCH   8   9
ATOM      9  C   UNL     1     165.474 167.649 169.182  1.00  0.00     0.008 C 
BRANCH   9  10
ATOM     10  C   UNL     1     165.512 169.050 168.536  1.00  0.00     0.000 C 
BRANCH  10  11
ATOM     11  C   UNL     1     166.903 169.504 168.058  1.00  0.00    -0.003 C 
ATOM     12  C   UNL     1     167.276 170.902 168.548  1.00  0.00     0.004 C 
ENDBRANCH  10  11
ENDBRANCH   9  10
ENDBRANCH   8   9
ENDBRANCH   1   8
TORSDOF 8
ENDMDL
MODEL 6
REMARK VINA RESULT:    -2.991      2.387      3.764
REMARK INTER + INTRA:          -5.492
REMARK INTER:                  -4.488
REMARK INTRA:                  -1.004
REMARK UNBOUND:                -1.102
REMARK SMILES CCCCCC(=O)CCCCC
REMARK SMILES IDX 6 1 7 2 5 3 4 4 3 5 2 6 1 7 8 8 9 9 10 10 11 11 12 12
REMARK H PARENT
REMARK Flexibility Score: inf
ROOT
ATOM      1  C   UNL     1     167.857 165.144 168.514  1.00  0.00     0.132 C 
ATOM      2  O   UNL     1     167.549 164.049 168.069  1.00  0.00    -0.300 OA
ENDROOT
BRANCH   1   3
ATOM      3  C   UNL     1     166.785 166.059 169.046  1.00  0.00     0.075 C 
BRANCH   3   4
ATOM      4  C   UNL     1     165.883 166.563 167.913  1.00  0.00     0.008 C 
BRANCH   4   5
ATOM      5  C   UNL     1     165.215 167.894 168.294  1.00  0.00     0.000 C 
BRANCH   5   6
ATOM      6  C   UNL     1     166.184 168.862 168.988  1.00  0.00    -0.003 C 
ATOM      7  C   UNL     1     166.930 169.762 168.002  1.00  0.00     0.004 C 
ENDBRANCH   5   6
ENDBRANCH   4   5
ENDBRANCH   3   4
ENDBRANCH   1   3
BRANCH   1   8
ATOM      8  C   UNL     1     169.302 165.566 168.511  1.00  0.00     0.075 C 
BRANCH   8   9
ATOM      9  C   UNL     1     169.483 167.016 168.034  1.00  0.00     0.008 C 
BRANCH   9  10
ATOM     10  C   UNL     1     170.217 167.931 169.036  1.00  0.00     0.000 C 
BRANCH  10  11
ATOM     11  C   UNL     1     169.586 167.993 170.438  1.00  0.00    -0.003 C 
ATOM     12  C   UNL     1     170.478 168.687 171.466  1.00  0.00     0.004 C 
ENDBRANCH  10  11
ENDBRANCH   9  10
ENDBRANCH   8   9
ENDBRANCH   1   8
TORSDOF 8
ENDMDL
MODEL 7
REMARK VINA RESULT:    -2.957      1.932      4.046
REMARK INTER + INTRA:          -5.441
REMARK INTER:                  -4.354
REMARK INTRA:                  -1.088
REMARK UNBOUND:                -1.102
REMARK SMILES CCCCCC(=O)CCCCC
REMARK SMILES IDX 6 1 7 2 5 3 4 4 3 5 2 6 1 7 8 8 9 9 10 10 11 11 12 12
REMARK H PARENT
REMARK Flexibility Score: inf
ROOT
ATOM      1  C   UNL     1     168.973 166.319 169.132  1.00  0.00     0.132 C 
ATOM      2  O   UNL     1     169.869 165.673 168.609  1.00  0.00    -0.300 OA
ENDROOT
BRANCH   1   3
ATOM      3  C   UNL     1     169.261 167.703 169.653  1.00  0.00     0.075 C 
BRANCH   3   4
ATOM      4  C   UNL     1     169.557 168.671 168.501  1.00  0.00     0.008 C 
BRANCH   4   5
ATOM      5  C   UNL     1     168.484 169.767 168.416  1.00  0.00     0.000 C 
BRANCH   5   6
ATOM      6  C   UNL     1     167.558 169.782 169.642  1.00  0.00    -0.003 C 
ATOM      7  C   UNL     1     166.372 170.733 169.476  1.00  0.00     0.004 C 
ENDBRANCH   5   6
ENDBRANCH   4   5
ENDBRANCH   3   4
ENDBRANCH   1   3
BRANCH   1   8
ATOM      8  C   UNL     1     167.600 165.714 169.260  1.00  0.00     0.075 C 
BRANCH   8   9
ATOM      9  C   UNL     1     166.763 165.901 167.984  1.00  0.00     0.008 C 
BRANCH   9  10
ATOM     10  C   UNL     1     165.629 166.939 168.112  1.00  0.00     0.000 C 
BRANCH  10  11
ATOM     11  C   UNL     1     165.036 167.079 169.525  1.00  0.00    -0.003 C 
ATOM     12  C   UNL     1     163.837 166.162 169.764  1.00  0.00     0.004 C 
ENDBRANCH  10  11
ENDBRANCH   9  10
ENDBRANCH   8   9
ENDBRANCH   1   8
TORSDOF 8
ENDMDL
MODEL 8
REMARK VINA RESULT:    -2.833      1.700      3.517
REMARK INTER + INTRA:          -5.260
REMARK INTER:                  -4.063
REMARK INTRA:                  -1.197
REMARK UNBOUND:                -1.102
REMARK SMILES CCCCCC(=O)CCCCC
REMARK SMILES IDX 6 1 7 2 5 3 4 4 3 5 2 6 1 7 8 8 9 9 10 10 11 11 12 12
REMARK H PARENT
REMARK Flexibility Score: inf
ROOT
ATOM      1  C   UNL     1     169.414 167.425 168.804  1.00  0.00     0.132 C 
ATOM      2  O   UNL     1     169.768 167.564 169.964  1.00  0.00    -0.300 OA
ENDROOT
BRANCH   1   3
ATOM      3  C   UNL     1     169.018 166.059 168.306  1.00  0.00     0.075 C 
BRANCH   3   4
ATOM      4  C   UNL     1     167.494 165.940 168.187  1.00  0.00     0.008 C 
BRANCH   4   5
ATOM      5  C   UNL     1     166.810 166.290 169.517  1.00  0.00     0.000 C 
BRANCH   5   6
ATOM      6  C   UNL     1     165.407 166.883 169.320  1.00  0.00    -0.003 C 
ATOM      7  C   UNL     1     165.140 167.306 167.875  1.00  0.00     0.004 C 
ENDBRANCH   5   6
ENDBRANCH   4   5
ENDBRANCH   3   4
ENDBRANCH   1   3
BRANCH   1   8
ATOM      8  C   UNL     1     169.391 168.618 167.886  1.00  0.00     0.075 C 
BRANCH   8   9
ATOM      9  C   UNL     1     168.902 169.889 168.600  1.00  0.00     0.008 C 
BRANCH   9  10
ATOM     10  C   UNL     1     167.467 170.317 168.229  1.00  0.00     0.000 C 
BRANCH  10  11
ATOM     11  C   UNL     1     166.519 170.509 169.426  1.00  0.00    -0.003 C 
ATOM     12  C   UNL     1     167.044 169.873 170.712  1.00  0.00     0.004 C 
ENDBRANCH  10  11
ENDBRANCH   9  10
ENDBRANCH   8   9
ENDBRANCH   1   8
TORSDOF 8
ENDMDL
