MODEL 1
REMARK VINA RESULT:    -2.299      0.000      0.000
REMARK INTER + INTRA:          -2.299
REMARK INTER:                  -2.299
REMARK INTRA:                   0.000
REMARK UNBOUND:                 0.000
REMARK SMILES CC(=O)[O-]
REMARK SMILES IDX 1 1 2 2 3 3 4 4
REMARK H PARENT
REMARK Flexibility Score: inf
ROOT
ATOM      1  C   UNL     1      41.335  54.701  10.584  1.00  0.00     0.063 C 
ATOM      2  C   UNL     1      41.131  53.710   9.489  1.00  0.00     0.038 C 
ATOM      3  O   UNL     1      41.573  53.945   8.334  1.00  0.00    -0.550 OA
ATOM      4  O   UNL     1      40.500  52.501   9.754  1.00  0.00    -0.550 OA
ENDROOT
TORSDOF 0
ENDMDL
MODEL 2
REMARK VINA RESULT:    -2.213      1.391      2.012
REMARK INTER + INTRA:          -2.213
REMARK INTER:                  -2.213
REMARK INTRA:                   0.000
REMARK UNBOUND:                 0.000
REMARK SMILES CC(=O)[O-]
REMARK SMILES IDX 1 1 2 2 3 3 4 4
REMARK H PARENT
REMARK Flexibility Score: inf
ROOT
ATOM      1  C   UNL     1      41.930  54.018   8.368  1.00  0.00     0.063 C 
ATOM      2  C   UNL     1      41.107  53.736   9.580  1.00  0.00     0.038 C 
ATOM      3  O   UNL     1      40.541  52.620   9.713  1.00  0.00    -0.550 OA
ATOM      4  O   UNL     1      41.009  54.685  10.589  1.00  0.00    -0.550 OA
ENDROOT
TORSDOF 0
ENDMDL
MODEL 3
REMARK VINA RESULT:    -2.030      1.433      2.140
REMARK INTER + INTRA:          -2.030
REMARK INTER:                  -2.030
REMARK INTRA:                   0.000
REMARK UNBOUND:                 0.000
REMARK SMILES CC(=O)[O-]
REMARK SMILES IDX 1 1 2 2 3 3 4 4
REMARK H PARENT
REMARK Flexibility Score: inf
ROOT
ATOM      1  C   UNL     1      40.522  52.659   9.737  1.00  0.00     0.063 C 
ATOM      2  C   UNL     1      41.273  53.942   9.622  1.00  0.00     0.038 C 
ATOM      3  O   UNL     1      41.352  54.719  10.608  1.00  0.00    -0.550 OA
ATOM      4  O   UNL     1      41.934  54.256   8.440  1.00  0.00    -0.550 OA
ENDROOT
TORSDOF 0
ENDMDL
MODEL 4
REMARK VINA RESULT:    -1.982      6.803      7.129
REMARK INTER + INTRA:          -1.982
REMARK INTER:                  -1.982
REMARK INTRA:                   0.000
REMARK UNBOUND:                 0.000
REMARK SMILES CC(=O)[O-]
REMARK SMILES IDX 1 1 2 2 3 3 4 4
REMARK H PARENT
REMARK Flexibility Score: inf
ROOT
ATOM      1  C   UNL     1      45.050  46.372   8.940  1.00  0.00     0.063 C 
ATOM      2  C   UNL     1      44.654  47.809   8.885  1.00  0.00     0.038 C 
ATOM      3  O   UNL     1      45.040  48.535   7.933  1.00  0.00    -0.550 OA
ATOM      4  O   UNL     1      43.812  48.335   9.857  1.00  0.00    -0.550 OA
ENDROOT
TORSDOF 0
ENDMDL
MODEL 5
REMARK VINA RESULT:    -1.973     18.804     19.186
REMARK INTER + INTRA:          -1.973
REMARK INTER:                  -1.973
REMARK INTRA:                   0.000
REMARK UNBOUND:                 0.000
REMARK SMILES CC(=O)[O-]
REMARK SMILES IDX 1 1 2 2 3 3 4 4
REMARK H PARENT
REMARK Flexibility Score: inf
ROOT
ATOM      1  C   UNL     1      30.824  51.013  23.627  1.00  0.00     0.063 C 
ATOM      2  C   UNL     1      30.034  50.648  24.838  1.00  0.00     0.038 C 
ATOM      3  O   UNL     1      28.813  50.945  24.909  1.00  0.00    -0.550 OA
ATOM      4  O   UNL     1      30.632  49.931  25.867  1.00  0.00    -0.550 OA
ENDROOT
TORSDOF 0
ENDMDL
MODEL 6
REMARK VINA RESULT:    -1.960     18.737     19.166
REMARK INTER + INTRA:          -1.960
REMARK INTER:                  -1.960
REMARK INTRA:                   0.000
REMARK UNBOUND:                 0.000
REMARK SMILES CC(=O)[O-]
REMARK SMILES IDX 1 1 2 2 3 3 4 4
REMARK H PARENT
REMARK Flexibility Score: inf
ROOT
ATOM      1  C   UNL     1      30.852  51.068  23.620  1.00  0.00     0.063 C 
ATOM      2  C   UNL     1      30.040  50.642  24.796  1.00  0.00     0.038 C 
ATOM      3  O   UNL     1      30.571  49.974  25.721  1.00  0.00    -0.550 OA
ATOM      4  O   UNL     1      28.710  51.028  24.899  1.00  0.00    -0.550 OA
ENDROOT
TORSDOF 0
ENDMDL
MODEL 7
REMARK VINA RESULT:    -1.959     18.049     18.437
REMARK INTER + INTRA:          -1.959
REMARK INTER:                  -1.959
REMARK INTRA:                   0.000
REMARK UNBOUND:                 0.000
REMARK SMILES CC(=O)[O-]
REMARK SMILES IDX 1 1 2 2 3 3 4 4
REMARK H PARENT
REMARK Flexibility Score: inf
ROOT
ATOM      1  C   UNL     1      29.139  50.951  24.815  1.00  0.00     0.063 C 
ATOM      2  C   UNL     1      30.494  51.253  24.268  1.00  0.00     0.038 C 
ATOM      3  O   UNL     1      30.901  52.442  24.211  1.00  0.00    -0.550 OA
ATOM      4  O   UNL     1      31.329  50.217  23.871  1.00  0.00    -0.550 OA
ENDROOT
TORSDOF 0
ENDMDL
MODEL 8
REMARK VINA RESULT:    -1.818     19.570     20.126
REMARK INTER + INTRA:          -1.818
REMARK INTER:                  -1.818
REMARK INTRA:                   0.000
REMARK UNBOUND:                 0.000
REMARK SMILES CC(=O)[O-]
REMARK SMILES IDX 1 1 2 2 3 3 4 4
REMARK H PARENT
REMARK Flexibility Score: inf
ROOT
ATOM      1  C   UNL     1      36.883  42.407  24.937  1.00  0.00     0.063 C 
ATOM      2  C   UNL     1      37.184  40.987  24.592  1.00  0.00     0.038 C 
ATOM      3  O   UNL     1      37.707  40.704  23.483  1.00  0.00    -0.550 OA
ATOM      4  O   UNL     1      36.938  39.980  25.517  1.00  0.00    -0.550 OA
ENDROOT
TORSDOF 0
ENDMDL
MODEL 9
REMARK VINA RESULT:    -1.726     18.236     18.362
REMARK INTER + INTRA:          -1.726
REMARK INTER:                  -1.726
REMARK INTRA:                   0.000
REMARK UNBOUND:                 0.000
REMARK SMILES CC(=O)[O-]
REMARK SMILES IDX 1 1 2 2 3 3 4 4
REMARK H PARENT
REMARK Flexibility Score: inf
ROOT
ATOM      1  C   UNL     1      30.843  54.045  24.840  1.00  0.00     0.063 C 
ATOM      2  C   UNL     1      31.249  52.612  24.904  1.00  0.00     0.038 C 
ATOM      3  O   UNL     1      32.172  52.250  25.680  1.00  0.00    -0.550 OA
ATOM      4  O   UNL     1      30.573  51.664  24.146  1.00  0.00    -0.550 OA
ENDROOT
TORSDOF 0
ENDMDL
