MODEL 1
REMARK VINA RESULT:    -3.489      0.000      0.000
REMARK INTER + INTRA:          -4.643
REMARK INTER:                  -4.406
REMARK INTRA:                  -0.237
REMARK UNBOUND:                -0.237
REMARK SMILES CSCC[C@H]([NH3+])C(=O)[O-]
REMARK SMILES IDX 4 1 5 2 6 3 7 7 8 8 9 9 3 10 2 11 1 12
REMARK H PARENT 6 4 6 5 6 6
REMARK Flexibility Score: inf
ROOT
ATOM      1  C   UNL     1     123.830 131.518 145.144  1.00  0.00     0.082 C 
ENDROOT
BRANCH   1   2
ATOM      2  C   UNL     1     123.264 130.091 144.983  1.00  0.00     0.228 C 
BRANCH   2   3
ATOM      3  N   UNL     1     123.705 129.468 143.728  1.00  0.00    -0.350 N 
ATOM      4  H   UNL     1     123.894 128.451 143.882  1.00  0.00     0.345 HD
ATOM      5  H   UNL     1     122.976 129.571 142.984  1.00  0.00     0.345 HD
ATOM      6  H   UNL     1     124.596 129.907 143.402  1.00  0.00     0.345 HD
ENDBRANCH   2   3
BRANCH   2   7
ATOM      7  C   UNL     1     121.759 130.141 145.031  1.00  0.00     0.099 C 
ATOM      8  O   UNL     1     121.113 130.701 144.107  1.00  0.00    -0.544 OA
ATOM      9  O   UNL     1     121.073 129.551 146.086  1.00  0.00    -0.544 OA
ENDBRANCH   2   7
ENDBRANCH   1   2
BRANCH   1  10
ATOM     10  C   UNL     1     123.531 132.120 146.522  1.00  0.00     0.076 C 
BRANCH  10  11
ATOM     11  S   UNL     1     124.209 131.056 147.845  1.00  0.00    -0.165 SA
ATOM     12  C   UNL     1     122.677 130.976 148.831  1.00  0.00     0.085 C 
ENDBRANCH  10  11
ENDBRANCH   1  10
TORSDOF 5
ENDMDL
MODEL 2
REMARK VINA RESULT:    -3.449      2.601      2.958
REMARK INTER + INTRA:          -4.593
REMARK INTER:                  -4.539
REMARK INTRA:                  -0.055
REMARK UNBOUND:                -0.237
REMARK SMILES CSCC[C@H]([NH3+])C(=O)[O-]
REMARK SMILES IDX 4 1 5 2 6 3 7 7 8 8 9 9 3 10 2 11 1 12
REMARK H PARENT 6 4 6 5 6 6
REMARK Flexibility Score: inf
ROOT
ATOM      1  C   UNL     1     123.182 129.590 146.284  1.00  0.00     0.082 C 
ENDROOT
BRANCH   1   2
ATOM      2  C   UNL     1     122.933 130.055 144.833  1.00  0.00     0.228 C 
BRANCH   2   3
ATOM      3  N   UNL     1     123.786 129.336 143.877  1.00  0.00    -0.350 N 
ATOM      4  H   UNL     1     123.327 129.314 142.937  1.00  0.00     0.345 HD
ATOM      5  H   UNL     1     124.720 129.799 143.789  1.00  0.00     0.345 HD
ATOM      6  H   UNL     1     123.917 128.346 144.185  1.00  0.00     0.345 HD
ENDBRANCH   2   3
BRANCH   2   7
ATOM      7  C   UNL     1     123.183 131.537 144.731  1.00  0.00     0.099 C 
ATOM      8  O   UNL     1     122.629 132.212 143.824  1.00  0.00    -0.544 OA
ATOM      9  O   UNL     1     124.010 132.173 145.650  1.00  0.00    -0.544 OA
ENDBRANCH   2   7
ENDBRANCH   1   2
BRANCH   1  10
ATOM     10  C   UNL     1     121.987 128.831 146.873  1.00  0.00     0.076 C 
BRANCH  10  11
ATOM     11  S   UNL     1     122.558 127.370 147.812  1.00  0.00    -0.165 SA
ATOM     12  C   UNL     1     120.941 126.975 148.555  1.00  0.00     0.085 C 
ENDBRANCH  10  11
ENDBRANCH   1  10
TORSDOF 5
ENDMDL
MODEL 3
REMARK VINA RESULT:    -3.411      9.919     10.551
REMARK INTER + INTRA:          -4.545
REMARK INTER:                  -4.392
REMARK INTRA:                  -0.153
REMARK UNBOUND:                -0.237
REMARK SMILES CSCC[C@H]([NH3+])C(=O)[O-]
REMARK SMILES IDX 4 1 5 2 6 3 7 7 8 8 9 9 3 10 2 11 1 12
REMARK H PARENT 6 4 6 5 6 6
REMARK Flexibility Score: inf
ROOT
ATOM      1  C   UNL     1     123.005 127.942 154.416  1.00  0.00     0.082 C 
ENDROOT
BRANCH   1   2
ATOM      2  C   UNL     1     123.614 127.502 155.764  1.00  0.00     0.228 C 
BRANCH   2   3
ATOM      3  N   UNL     1     124.784 128.314 156.125  1.00  0.00    -0.350 N 
ATOM      4  H   UNL     1     124.474 129.261 156.446  1.00  0.00     0.345 HD
ATOM      5  H   UNL     1     125.332 127.857 156.890  1.00  0.00     0.345 HD
ATOM      6  H   UNL     1     125.399 128.451 155.291  1.00  0.00     0.345 HD
ENDBRANCH   2   3
BRANCH   2   7
ATOM      7  C   UNL     1     124.001 126.048 155.689  1.00  0.00     0.099 C 
ATOM      8  O   UNL     1     125.119 125.666 156.125  1.00  0.00    -0.544 OA
ATOM      9  O   UNL     1     123.118 125.115 155.156  1.00  0.00    -0.544 OA
ENDBRANCH   2   7
ENDBRANCH   1   2
BRANCH   1  10
ATOM     10  C   UNL     1     121.875 128.965 154.585  1.00  0.00     0.076 C 
BRANCH  10  11
ATOM     11  S   UNL     1     120.294 128.118 154.942  1.00  0.00    -0.165 SA
ATOM     12  C   UNL     1     120.394 126.935 153.559  1.00  0.00     0.085 C 
ENDBRANCH  10  11
ENDBRANCH   1  10
TORSDOF 5
ENDMDL
MODEL 4
REMARK VINA RESULT:    -3.379      1.914      2.414
REMARK INTER + INTRA:          -4.505
REMARK INTER:                  -4.299
REMARK INTRA:                  -0.205
REMARK UNBOUND:                -0.237
REMARK SMILES CSCC[C@H]([NH3+])C(=O)[O-]
REMARK SMILES IDX 4 1 5 2 6 3 7 7 8 8 9 9 3 10 2 11 1 12
REMARK H PARENT 6 4 6 5 6 6
REMARK Flexibility Score: inf
ROOT
ATOM      1  C   UNL     1     122.961 129.621 146.099  1.00  0.00     0.082 C 
ENDROOT
BRANCH   1   2
ATOM      2  C   UNL     1     122.873 130.093 144.631  1.00  0.00     0.228 C 
BRANCH   2   3
ATOM      3  N   UNL     1     123.856 129.411 143.779  1.00  0.00    -0.350 N 
ATOM      4  H   UNL     1     124.773 129.914 143.820  1.00  0.00     0.345 HD
ATOM      5  H   UNL     1     123.996 128.422 144.091  1.00  0.00     0.345 HD
ATOM      6  H   UNL     1     123.537 129.419 142.784  1.00  0.00     0.345 HD
ENDBRANCH   2   3
BRANCH   2   7
ATOM      7  C   UNL     1     123.085 131.583 144.571  1.00  0.00     0.099 C 
ATOM      8  O   UNL     1     124.017 132.118 145.228  1.00  0.00    -0.544 OA
ATOM      9  O   UNL     1     122.268 132.375 143.773  1.00  0.00    -0.544 OA
ENDBRANCH   2   7
ENDBRANCH   1   2
BRANCH   1  10
ATOM     10  C   UNL     1     121.629 129.760 146.844  1.00  0.00     0.076 C 
BRANCH  10  11
ATOM     11  S   UNL     1     121.717 131.119 148.064  1.00  0.00    -0.165 SA
ATOM     12  C   UNL     1     123.488 130.917 148.448  1.00  0.00     0.085 C 
ENDBRANCH  10  11
ENDBRANCH   1  10
TORSDOF 5
ENDMDL
MODEL 5
REMARK VINA RESULT:    -3.351      3.794      4.471
REMARK INTER + INTRA:          -4.469
REMARK INTER:                  -4.269
REMARK INTRA:                  -0.200
REMARK UNBOUND:                -0.237
REMARK SMILES CSCC[C@H]([NH3+])C(=O)[O-]
REMARK SMILES IDX 4 1 5 2 6 3 7 7 8 8 9 9 3 10 2 11 1 12
REMARK H PARENT 6 4 6 5 6 6
REMARK Flexibility Score: inf
ROOT
ATOM      1  C   UNL     1     121.997 128.376 147.322  1.00  0.00     0.082 C 
ENDROOT
BRANCH   1   2
ATOM      2  C   UNL     1     122.451 127.519 148.523  1.00  0.00     0.228 C 
BRANCH   2   3
ATOM      3  N   UNL     1     122.083 126.107 148.356  1.00  0.00    -0.350 N 
ATOM      4  H   UNL     1     121.090 126.034 148.034  1.00  0.00     0.345 HD
ATOM      5  H   UNL     1     122.704 125.641 147.654  1.00  0.00     0.345 HD
ATOM      6  H   UNL     1     122.155 125.605 149.270  1.00  0.00     0.345 HD
ENDBRANCH   2   3
BRANCH   2   7
ATOM      7  C   UNL     1     121.840 128.064 149.787  1.00  0.00     0.099 C 
ATOM      8  O   UNL     1     122.499 128.844 150.525  1.00  0.00    -0.544 OA
ATOM      9  O   UNL     1     120.538 127.726 150.138  1.00  0.00    -0.544 OA
ENDBRANCH   2   7
ENDBRANCH   1   2
BRANCH   1  10
ATOM     10  C   UNL     1     123.117 129.272 146.780  1.00  0.00     0.076 C 
BRANCH  10  11
ATOM     11  S   UNL     1     122.922 130.983 147.395  1.00  0.00    -0.165 SA
ATOM     12  C   UNL     1     124.383 130.962 148.485  1.00  0.00     0.085 C 
ENDBRANCH  10  11
ENDBRANCH   1  10
TORSDOF 5
ENDMDL
MODEL 6
REMARK VINA RESULT:    -3.335      2.577      3.071
REMARK INTER + INTRA:          -4.449
REMARK INTER:                  -4.302
REMARK INTRA:                  -0.147
REMARK UNBOUND:                -0.237
REMARK SMILES CSCC[C@H]([NH3+])C(=O)[O-]
REMARK SMILES IDX 4 1 5 2 6 3 7 7 8 8 9 9 3 10 2 11 1 12
REMARK H PARENT 6 4 6 5 6 6
REMARK Flexibility Score: inf
ROOT
ATOM      1  C   UNL     1     122.663 131.403 147.401  1.00  0.00     0.082 C 
ENDROOT
BRANCH   1   2
ATOM      2  C   UNL     1     123.569 131.690 146.184  1.00  0.00     0.228 C 
BRANCH   2   3
ATOM      3  N   UNL     1     124.683 132.582 146.533  1.00  0.00    -0.350 N 
ATOM      4  H   UNL     1     124.355 133.318 147.201  1.00  0.00     0.345 HD
ATOM      5  H   UNL     1     125.466 132.045 146.974  1.00  0.00     0.345 HD
ATOM      6  H   UNL     1     125.035 133.069 145.678  1.00  0.00     0.345 HD
ENDBRANCH   2   3
BRANCH   2   7
ATOM      7  C   UNL     1     122.747 132.300 145.080  1.00  0.00     0.099 C 
ATOM      8  O   UNL     1     122.005 133.291 145.315  1.00  0.00    -0.544 OA
ATOM      9  O   UNL     1     122.816 131.788 143.790  1.00  0.00    -0.544 OA
ENDBRANCH   2   7
ENDBRANCH   1   2
BRANCH   1  10
ATOM     10  C   UNL     1     122.056 129.996 147.366  1.00  0.00     0.076 C 
BRANCH  10  11
ATOM     11  S   UNL     1     123.242 128.806 146.644  1.00  0.00    -0.165 SA
ATOM     12  C   UNL     1     122.994 127.504 147.895  1.00  0.00     0.085 C 
ENDBRANCH  10  11
ENDBRANCH   1  10
TORSDOF 5
ENDMDL
MODEL 7
REMARK VINA RESULT:    -3.331      3.349      4.029
REMARK INTER + INTRA:          -4.444
REMARK INTER:                  -4.255
REMARK INTRA:                  -0.189
REMARK UNBOUND:                -0.237
REMARK SMILES CSCC[C@H]([NH3+])C(=O)[O-]
REMARK SMILES IDX 4 1 5 2 6 3 7 7 8 8 9 9 3 10 2 11 1 12
REMARK H PARENT 6 4 6 5 6 6
REMARK Flexibility Score: inf
ROOT
ATOM      1  C   UNL     1     121.044 128.434 148.377  1.00  0.00     0.082 C 
ENDROOT
BRANCH   1   2
ATOM      2  C   UNL     1     121.837 127.374 147.583  1.00  0.00     0.228 C 
BRANCH   2   3
ATOM      3  N   UNL     1     122.155 126.201 148.409  1.00  0.00    -0.350 N 
ATOM      4  H   UNL     1     123.130 125.878 148.209  1.00  0.00     0.345 HD
ATOM      5  H   UNL     1     122.073 126.429 149.427  1.00  0.00     0.345 HD
ATOM      6  H   UNL     1     121.509 125.412 148.177  1.00  0.00     0.345 HD
ENDBRANCH   2   3
BRANCH   2   7
ATOM      7  C   UNL     1     123.106 127.989 147.053  1.00  0.00     0.099 C 
ATOM      8  O   UNL     1     123.056 128.871 146.157  1.00  0.00    -0.544 OA
ATOM      9  O   UNL     1     124.339 127.601 147.565  1.00  0.00    -0.544 OA
ENDBRANCH   2   7
ENDBRANCH   1   2
BRANCH   1  10
ATOM     10  C   UNL     1     121.883 129.099 149.475  1.00  0.00     0.076 C 
BRANCH  10  11
ATOM     11  S   UNL     1     121.964 130.906 149.211  1.00  0.00    -0.165 SA
ATOM     12  C   UNL     1     123.761 130.976 148.913  1.00  0.00     0.085 C 
ENDBRANCH  10  11
ENDBRANCH   1  10
TORSDOF 5
ENDMDL
MODEL 8
REMARK VINA RESULT:    -3.302      3.078      3.905
REMARK INTER + INTRA:          -4.408
REMARK INTER:                  -4.197
REMARK INTRA:                  -0.211
REMARK UNBOUND:                -0.237
REMARK SMILES CSCC[C@H]([NH3+])C(=O)[O-]
REMARK SMILES IDX 4 1 5 2 6 3 7 7 8 8 9 9 3 10 2 11 1 12
REMARK H PARENT 6 4 6 5 6 6
REMARK Flexibility Score: inf
ROOT
ATOM      1  C   UNL     1     121.485 129.620 146.736  1.00  0.00     0.082 C 
ENDROOT
BRANCH   1   2
ATOM      2  C   UNL     1     122.570 128.537 146.920  1.00  0.00     0.228 C 
BRANCH   2   3
ATOM      3  N   UNL     1     121.991 127.187 146.962  1.00  0.00    -0.350 N 
ATOM      4  H   UNL     1     122.043 126.748 146.013  1.00  0.00     0.345 HD
ATOM      5  H   UNL     1     122.503 126.583 147.645  1.00  0.00     0.345 HD
ATOM      6  H   UNL     1     120.982 127.236 147.230  1.00  0.00     0.345 HD
ENDBRANCH   2   3
BRANCH   2   7
ATOM      7  C   UNL     1     123.338 128.806 148.187  1.00  0.00     0.099 C 
ATOM      8  O   UNL     1     122.948 128.319 149.281  1.00  0.00    -0.544 OA
ATOM      9  O   UNL     1     124.494 129.577 148.155  1.00  0.00    -0.544 OA
ENDBRANCH   2   7
ENDBRANCH   1   2
BRANCH   1  10
ATOM     10  C   UNL     1     121.474 130.209 145.321  1.00  0.00     0.076 C 
BRANCH  10  11
ATOM     11  S   UNL     1     123.175 130.308 144.657  1.00  0.00    -0.165 SA
ATOM     12  C   UNL     1     123.595 131.899 145.442  1.00  0.00     0.085 C 
ENDBRANCH  10  11
ENDBRANCH   1  10
TORSDOF 5
ENDMDL
MODEL 9
REMARK VINA RESULT:    -3.228      2.836      3.802
REMARK INTER + INTRA:          -4.314
REMARK INTER:                  -4.071
REMARK INTRA:                  -0.242
REMARK UNBOUND:                -0.237
REMARK SMILES CSCC[C@H]([NH3+])C(=O)[O-]
REMARK SMILES IDX 4 1 5 2 6 3 7 7 8 8 9 9 3 10 2 11 1 12
REMARK H PARENT 6 4 6 5 6 6
REMARK Flexibility Score: inf
ROOT
ATOM      1  C   UNL     1     122.699 131.346 147.380  1.00  0.00     0.082 C 
ENDROOT
BRANCH   1   2
ATOM      2  C   UNL     1     123.558 130.656 148.461  1.00  0.00     0.228 C 
BRANCH   2   3
ATOM      3  N   UNL     1     124.969 131.055 148.372  1.00  0.00    -0.350 N 
ATOM      4  H   UNL     1     125.067 132.071 148.601  1.00  0.00     0.345 HD
ATOM      5  H   UNL     1     125.556 130.498 149.036  1.00  0.00     0.345 HD
ATOM      6  H   UNL     1     125.322 130.917 147.398  1.00  0.00     0.345 HD
ENDBRANCH   2   3
BRANCH   2   7
ATOM      7  C   UNL     1     123.436 129.162 148.321  1.00  0.00     0.099 C 
ATOM      8  O   UNL     1     122.971 128.472 149.267  1.00  0.00    -0.544 OA
ATOM      9  O   UNL     1     123.816 128.536 147.139  1.00  0.00    -0.544 OA
ENDBRANCH   2   7
ENDBRANCH   1   2
BRANCH   1  10
ATOM     10  C   UNL     1     123.541 132.140 146.375  1.00  0.00     0.076 C 
BRANCH  10  11
ATOM     11  S   UNL     1     123.477 131.355 144.725  1.00  0.00    -0.165 SA
ATOM     12  C   UNL     1     121.845 130.573 144.949  1.00  0.00     0.085 C 
ENDBRANCH  10  11
ENDBRANCH   1  10
TORSDOF 5
ENDMDL
