MODEL 1
REMARK VINA RESULT:     3.063      0.000      0.000
REMARK INTER + INTRA:           4.198
REMARK INTER:                   4.496
REMARK INTRA:                  -0.298
REMARK UNBOUND:                -0.298
REMARK SMILES O=C([O-])CCCCCCCC(=O)[O-]
REMARK SMILES IDX 7 1 6 2 5 3 4 4 2 5 1 6 3 7 8 8 9 9 10 10 11 11 12 12 13 13
REMARK H PARENT
REMARK Flexibility Score: inf
ROOT
ATOM      1  C   UNL     1     -17.845  17.787  14.639  1.00  0.00     0.000 C 
ENDROOT
BRANCH   1   2
ATOM      2  C   UNL     1     -19.117  16.980  14.928  1.00  0.00     0.000 C 
BRANCH   2   3
ATOM      3  C   UNL     1     -19.075  16.369  16.333  1.00  0.00     0.006 C 
BRANCH   3   4
ATOM      4  C   UNL     1     -19.097  17.460  17.407  1.00  0.00     0.053 C 
BRANCH   4   5
ATOM      5  C   UNL     1     -19.084  16.850  18.774  1.00  0.00     0.041 C 
ATOM      6  O   UNL     1     -19.113  15.599  18.909  1.00  0.00    -0.550 OA
ATOM      7  O   UNL     1     -18.991  17.662  19.896  1.00  0.00    -0.550 OA
ENDBRANCH   4   5
ENDBRANCH   3   4
ENDBRANCH   2   3
ENDBRANCH   1   2
BRANCH   1   8
ATOM      8  C   UNL     1     -17.731  18.117  13.144  1.00  0.00     0.000 C 
BRANCH   8   9
ATOM      9  C   UNL     1     -18.643  17.240  12.271  1.00  0.00     0.006 C 
BRANCH   9  10
ATOM     10  C   UNL     1     -18.738  17.743  10.825  1.00  0.00     0.053 C 
BRANCH  10  11
ATOM     11  C   UNL     1     -17.853  16.934   9.932  1.00  0.00     0.041 C 
ATOM     12  O   UNL     1     -17.647  17.299   8.744  1.00  0.00    -0.550 OA
ATOM     13  O   UNL     1     -17.292  15.751  10.395  1.00  0.00    -0.550 OA
ENDBRANCH  10  11
ENDBRANCH   9  10
ENDBRANCH   8   9
ENDBRANCH   1   8
TORSDOF 8
ENDMDL
MODEL 2
REMARK VINA RESULT:     4.055      7.383      9.936
REMARK INTER + INTRA:           5.654
REMARK INTER:                   5.606
REMARK INTRA:                   0.048
REMARK UNBOUND:                -0.298
REMARK SMILES O=C([O-])CCCCCCCC(=O)[O-]
REMARK SMILES IDX 7 1 6 2 5 3 4 4 2 5 1 6 3 7 8 8 9 9 10 10 11 11 12 12 13 13
REMARK H PARENT
REMARK Flexibility Score: inf
ROOT
ATOM      1  C   UNL     1     -18.975  23.179  18.238  1.00  0.00     0.000 C 
ENDROOT
BRANCH   1   2
ATOM      2  C   UNL     1     -18.116  24.379  17.822  1.00  0.00     0.000 C 
BRANCH   2   3
ATOM      3  C   UNL     1     -18.909  25.343  16.932  1.00  0.00     0.006 C 
BRANCH   3   4
ATOM      4  C   UNL     1     -18.005  26.443  16.370  1.00  0.00     0.053 C 
BRANCH   4   5
ATOM      5  C   UNL     1     -16.610  25.932  16.188  1.00  0.00     0.041 C 
ATOM      6  O   UNL     1     -16.287  25.335  15.128  1.00  0.00    -0.550 OA
ATOM      7  O   UNL     1     -15.654  26.159  17.170  1.00  0.00    -0.550 OA
ENDBRANCH   4   5
ENDBRANCH   3   4
ENDBRANCH   2   3
ENDBRANCH   1   2
BRANCH   1   8
ATOM      8  C   UNL     1     -18.478  22.579  19.561  1.00  0.00     0.000 C 
BRANCH   8   9
ATOM      9  C   UNL     1     -19.125  21.221  19.877  1.00  0.00     0.006 C 
BRANCH   9  10
ATOM     10  C   UNL     1     -19.077  20.877  21.371  1.00  0.00     0.053 C 
BRANCH  10  11
ATOM     11  C   UNL     1     -18.483  19.520  21.575  1.00  0.00     0.041 C 
ATOM     12  O   UNL     1     -17.581  19.345  22.437  1.00  0.00    -0.550 OA
ATOM     13  O   UNL     1     -18.891  18.456  20.782  1.00  0.00    -0.550 OA
ENDBRANCH  10  11
ENDBRANCH   9  10
ENDBRANCH   8   9
ENDBRANCH   1   8
TORSDOF 8
ENDMDL
MODEL 3
REMARK VINA RESULT:     4.586      7.561      8.288
REMARK INTER + INTRA:           6.434
REMARK INTER:                   6.673
REMARK INTRA:                  -0.239
REMARK UNBOUND:                -0.298
REMARK SMILES O=C([O-])CCCCCCCC(=O)[O-]
REMARK SMILES IDX 7 1 6 2 5 3 4 4 2 5 1 6 3 7 8 8 9 9 10 10 11 11 12 12 13 13
REMARK H PARENT
REMARK Flexibility Score: inf
ROOT
ATOM      1  C   UNL     1     -18.038  23.921  17.999  1.00  0.00     0.000 C 
ENDROOT
BRANCH   1   2
ATOM      2  C   UNL     1     -19.125  22.969  18.513  1.00  0.00     0.000 C 
BRANCH   2   3
ATOM      3  C   UNL     1     -18.508  21.782  19.262  1.00  0.00     0.006 C 
BRANCH   3   4
ATOM      4  C   UNL     1     -18.915  21.791  20.738  1.00  0.00     0.053 C 
BRANCH   4   5
ATOM      5  C   UNL     1     -18.773  20.423  21.329  1.00  0.00     0.041 C 
ATOM      6  O   UNL     1     -19.015  19.404  20.631  1.00  0.00    -0.550 OA
ATOM      7  O   UNL     1     -18.327  20.274  22.636  1.00  0.00    -0.550 OA
ENDBRANCH   4   5
ENDBRANCH   3   4
ENDBRANCH   2   3
ENDBRANCH   1   2
BRANCH   1   8
ATOM      8  C   UNL     1     -18.655  25.080  17.203  1.00  0.00     0.000 C 
BRANCH   8   9
ATOM      9  C   UNL     1     -17.612  26.122  16.767  1.00  0.00     0.006 C 
BRANCH   9  10
ATOM     10  C   UNL     1     -16.546  25.535  15.833  1.00  0.00     0.053 C 
BRANCH  10  11
ATOM     11  C   UNL     1     -15.192  25.628  16.463  1.00  0.00     0.041 C 
ATOM     12  O   UNL     1     -14.230  24.962  15.998  1.00  0.00    -0.550 OA
ATOM     13  O   UNL     1     -15.003  26.414  17.592  1.00  0.00    -0.550 OA
ENDBRANCH  10  11
ENDBRANCH   9  10
ENDBRANCH   8   9
ENDBRANCH   1   8
TORSDOF 8
ENDMDL
MODEL 4
REMARK VINA RESULT:     4.816      0.893      7.075
REMARK INTER + INTRA:           6.771
REMARK INTER:                   7.144
REMARK INTRA:                  -0.373
REMARK UNBOUND:                -0.298
REMARK SMILES O=C([O-])CCCCCCCC(=O)[O-]
REMARK SMILES IDX 7 1 6 2 5 3 4 4 2 5 1 6 3 7 8 8 9 9 10 10 11 11 12 12 13 13
REMARK H PARENT
REMARK Flexibility Score: inf
ROOT
ATOM      1  C   UNL     1     -17.528  18.310  14.457  1.00  0.00     0.000 C 
ENDROOT
BRANCH   1   2
ATOM      2  C   UNL     1     -17.194  17.838  13.037  1.00  0.00     0.000 C 
BRANCH   2   3
ATOM      3  C   UNL     1     -18.468  17.657  12.203  1.00  0.00     0.006 C 
BRANCH   3   4
ATOM      4  C   UNL     1     -18.423  16.348  11.410  1.00  0.00     0.053 C 
BRANCH   4   5
ATOM      5  C   UNL     1     -17.657  16.533  10.137  1.00  0.00     0.041 C 
ATOM      6  O   UNL     1     -16.819  15.668   9.772  1.00  0.00    -0.550 OA
ATOM      7  O   UNL     1     -17.906  17.635   9.331  1.00  0.00    -0.550 OA
ENDBRANCH   4   5
ENDBRANCH   3   4
ENDBRANCH   2   3
ENDBRANCH   1   2
BRANCH   1   8
ATOM      8  C   UNL     1     -18.967  17.932  14.839  1.00  0.00     0.000 C 
BRANCH   8   9
ATOM      9  C   UNL     1     -19.125  17.640  16.340  1.00  0.00     0.006 C 
BRANCH   9  10
ATOM     10  C   UNL     1     -18.919  16.158  16.678  1.00  0.00     0.053 C 
BRANCH  10  11
ATOM     11  C   UNL     1     -19.072  15.932  18.149  1.00  0.00     0.041 C 
ATOM     12  O   UNL     1     -19.112  16.912  18.940  1.00  0.00    -0.550 OA
ATOM     13  O   UNL     1     -19.125  14.639  18.653  1.00  0.00    -0.550 OA
ENDBRANCH  10  11
ENDBRANCH   9  10
ENDBRANCH   8   9
ENDBRANCH   1   8
TORSDOF 8
ENDMDL
