MODEL 1
REMARK VINA RESULT:    -3.249      0.000      0.000
REMARK INTER + INTRA:          -3.249
REMARK INTER:                  -3.249
REMARK INTRA:                   0.000
REMARK UNBOUND:                 0.000
REMARK SMILES CC(=O)[O-]
REMARK SMILES IDX 1 1 2 2 3 3 4 4
REMARK H PARENT
REMARK Flexibility Score: inf
ROOT
ATOM      1  C   UNL     1      -3.555   2.425   5.182  1.00  0.00     0.063 C 
ATOM      2  C   UNL     1      -3.105   1.541   4.068  1.00  0.00     0.038 C 
ATOM      3  O   UNL     1      -2.284   0.613   4.291  1.00  0.00    -0.550 OA
ATOM      4  O   UNL     1      -3.547   1.774   2.772  1.00  0.00    -0.550 OA
ENDROOT
TORSDOF 0
ENDMDL
MODEL 2
REMARK VINA RESULT:    -3.146      1.278      1.684
REMARK INTER + INTRA:          -3.146
REMARK INTER:                  -3.146
REMARK INTRA:                   0.000
REMARK UNBOUND:                 0.000
REMARK SMILES CC(=O)[O-]
REMARK SMILES IDX 1 1 2 2 3 3 4 4
REMARK H PARENT
REMARK Flexibility Score: inf
ROOT
ATOM      1  C   UNL     1      -3.382   2.205   5.051  1.00  0.00     0.063 C 
ATOM      2  C   UNL     1      -3.544   2.583   3.618  1.00  0.00     0.038 C 
ATOM      3  O   UNL     1      -3.388   1.719   2.715  1.00  0.00    -0.550 OA
ATOM      4  O   UNL     1      -3.814   3.900   3.272  1.00  0.00    -0.550 OA
ENDROOT
TORSDOF 0
ENDMDL
MODEL 3
REMARK VINA RESULT:    -2.954      1.638      2.033
REMARK INTER + INTRA:          -2.954
REMARK INTER:                  -2.954
REMARK INTRA:                   0.000
REMARK UNBOUND:                 0.000
REMARK SMILES CC(=O)[O-]
REMARK SMILES IDX 1 1 2 2 3 3 4 4
REMARK H PARENT
REMARK Flexibility Score: inf
ROOT
ATOM      1  C   UNL     1      -3.540   2.897   2.981  1.00  0.00     0.063 C 
ATOM      2  C   UNL     1      -3.332   2.115   4.233  1.00  0.00     0.038 C 
ATOM      3  O   UNL     1      -3.959   2.423   5.281  1.00  0.00    -0.550 OA
ATOM      4  O   UNL     1      -2.407   1.080   4.262  1.00  0.00    -0.550 OA
ENDROOT
TORSDOF 0
ENDMDL
MODEL 4
REMARK VINA RESULT:    -1.828      3.439      3.715
REMARK INTER + INTRA:          -1.828
REMARK INTER:                  -1.828
REMARK INTRA:                   0.000
REMARK UNBOUND:                 0.000
REMARK SMILES CC(=O)[O-]
REMARK SMILES IDX 1 1 2 2 3 3 4 4
REMARK H PARENT
REMARK Flexibility Score: inf
ROOT
ATOM      1  C   UNL     1      -3.503   3.082   2.970  1.00  0.00     0.063 C 
ATOM      2  C   UNL     1      -3.889   4.380   2.347  1.00  0.00     0.038 C 
ATOM      3  O   UNL     1      -3.027   5.284   2.186  1.00  0.00    -0.550 OA
ATOM      4  O   UNL     1      -5.210   4.617   1.993  1.00  0.00    -0.550 OA
ENDROOT
TORSDOF 0
ENDMDL
MODEL 5
REMARK VINA RESULT:    -1.779      3.453      3.853
REMARK INTER + INTRA:          -1.779
REMARK INTER:                  -1.779
REMARK INTRA:                   0.000
REMARK UNBOUND:                 0.000
REMARK SMILES CC(=O)[O-]
REMARK SMILES IDX 1 1 2 2 3 3 4 4
REMARK H PARENT
REMARK Flexibility Score: inf
ROOT
ATOM      1  C   UNL     1      -3.505   3.055   2.930  1.00  0.00     0.063 C 
ATOM      2  C   UNL     1      -3.934   4.368   2.371  1.00  0.00     0.038 C 
ATOM      3  O   UNL     1      -5.134   4.549   2.033  1.00  0.00    -0.550 OA
ATOM      4  O   UNL     1      -3.002   5.378   2.171  1.00  0.00    -0.550 OA
ENDROOT
TORSDOF 0
ENDMDL
MODEL 6
REMARK VINA RESULT:    -1.680      3.977      4.380
REMARK INTER + INTRA:          -1.680
REMARK INTER:                  -1.680
REMARK INTRA:                   0.000
REMARK UNBOUND:                 0.000
REMARK SMILES CC(=O)[O-]
REMARK SMILES IDX 1 1 2 2 3 3 4 4
REMARK H PARENT
REMARK Flexibility Score: inf
ROOT
ATOM      1  C   UNL     1      -3.564   3.625   2.696  1.00  0.00     0.063 C 
ATOM      2  C   UNL     1      -3.702   4.998   2.134  1.00  0.00     0.038 C 
ATOM      3  O   UNL     1      -3.663   5.178   0.889  1.00  0.00    -0.550 OA
ATOM      4  O   UNL     1      -3.819   6.090   2.985  1.00  0.00    -0.550 OA
ENDROOT
TORSDOF 0
ENDMDL
MODEL 7
REMARK VINA RESULT:    -1.656      6.433      6.784
REMARK INTER + INTRA:          -1.656
REMARK INTER:                  -1.656
REMARK INTRA:                   0.000
REMARK UNBOUND:                 0.000
REMARK SMILES CC(=O)[O-]
REMARK SMILES IDX 1 1 2 2 3 3 4 4
REMARK H PARENT
REMARK Flexibility Score: inf
ROOT
ATOM      1  C   UNL     1      -5.682  -5.187   1.038  1.00  0.00     0.063 C 
ATOM      2  C   UNL     1      -4.942  -3.892   1.049  1.00  0.00     0.038 C 
ATOM      3  O   UNL     1      -4.957  -3.165   2.077  1.00  0.00    -0.550 OA
ATOM      4  O   UNL     1      -4.280  -3.459  -0.092  1.00  0.00    -0.550 OA
ENDROOT
TORSDOF 0
ENDMDL
MODEL 8
REMARK VINA RESULT:    -1.575      4.787      5.107
REMARK INTER + INTRA:          -1.575
REMARK INTER:                  -1.575
REMARK INTRA:                   0.000
REMARK UNBOUND:                 0.000
REMARK SMILES CC(=O)[O-]
REMARK SMILES IDX 1 1 2 2 3 3 4 4
REMARK H PARENT
REMARK Flexibility Score: inf
ROOT
ATOM      1  C   UNL     1      -3.447   4.629   2.295  1.00  0.00     0.063 C 
ATOM      2  C   UNL     1      -4.257   5.468   1.367  1.00  0.00     0.038 C 
ATOM      3  O   UNL     1      -5.383   5.902   1.727  1.00  0.00    -0.550 OA
ATOM      4  O   UNL     1      -3.797   5.729   0.082  1.00  0.00    -0.550 OA
ENDROOT
TORSDOF 0
ENDMDL
MODEL 9
REMARK VINA RESULT:    -1.484      5.885      6.181
REMARK INTER + INTRA:          -1.484
REMARK INTER:                  -1.484
REMARK INTRA:                   0.000
REMARK UNBOUND:                 0.000
REMARK SMILES CC(=O)[O-]
REMARK SMILES IDX 1 1 2 2 3 3 4 4
REMARK H PARENT
REMARK Flexibility Score: inf
ROOT
ATOM      1  C   UNL     1      -1.220   6.541   8.609  1.00  0.00     0.063 C 
ATOM      2  C   UNL     1      -2.537   6.003   8.164  1.00  0.00     0.038 C 
ATOM      3  O   UNL     1      -2.894   4.845   8.505  1.00  0.00    -0.550 OA
ATOM      4  O   UNL     1      -3.351   6.756   7.328  1.00  0.00    -0.550 OA
ENDROOT
TORSDOF 0
ENDMDL
