MODEL 1
REMARK VINA RESULT:    -4.396      0.000      0.000
REMARK INTER + INTRA:          -5.675
REMARK INTER:                  -5.295
REMARK INTRA:                  -0.380
REMARK UNBOUND:                -0.380
REMARK SMILES NC(=O)C[C@@H]([NH3+])C(=O)[O-]
REMARK SMILES IDX 4 1 5 2 6 3 7 7 8 8 9 9 2 10 3 11 1 12
REMARK H PARENT 6 4 6 5 6 6 1 13 1 14
REMARK Flexibility Score: inf
ROOT
ATOM      1  C   UNL     1       9.582 -15.087 -21.754  1.00  0.00     0.171 C 
ENDROOT
BRANCH   1   2
ATOM      2  C   UNL     1       9.791 -14.830 -20.247  1.00  0.00     0.237 C 
BRANCH   2   3
ATOM      3  N   UNL     1      10.781 -15.765 -19.698  1.00  0.00    -0.350 N 
ATOM      4  H   UNL     1      10.453 -16.126 -18.772  1.00  0.00     0.345 HD
ATOM      5  H   UNL     1      11.707 -15.293 -19.575  1.00  0.00     0.345 HD
ATOM      6  H   UNL     1      10.894 -16.579 -20.344  1.00  0.00     0.345 HD
ENDBRANCH   2   3
BRANCH   2   7
ATOM      7  C   UNL     1      10.221 -13.408 -19.994  1.00  0.00     0.100 C 
ATOM      8  O   UNL     1      10.870 -13.110 -18.957  1.00  0.00    -0.544 OA
ATOM      9  O   UNL     1       9.915 -12.416 -20.918  1.00  0.00    -0.544 OA
ENDBRANCH   2   7
ENDBRANCH   1   2
BRANCH   1  10
ATOM     10  C   UNL     1      10.884 -15.357 -22.453  1.00  0.00     0.223 C 
ATOM     11  O   UNL     1      11.193 -16.538 -22.764  1.00  0.00    -0.275 OA
ATOM     12  N   UNL     1      11.757 -14.282 -22.801  1.00  0.00    -0.369 N 
ATOM     13  H   UNL     1      11.508 -13.295 -22.567  1.00  0.00     0.159 HD
ATOM     14  H   UNL     1      12.654 -14.473 -23.300  1.00  0.00     0.159 HD
ENDBRANCH   1  10
TORSDOF 4
ENDMDL
MODEL 2
REMARK VINA RESULT:    -4.373      2.050      2.508
REMARK INTER + INTRA:          -5.648
REMARK INTER:                  -5.545
REMARK INTRA:                  -0.103
REMARK UNBOUND:                -0.380
REMARK SMILES NC(=O)C[C@@H]([NH3+])C(=O)[O-]
REMARK SMILES IDX 4 1 5 2 6 3 7 7 8 8 9 9 2 10 3 11 1 12
REMARK H PARENT 6 4 6 5 6 6 1 13 1 14
REMARK Flexibility Score: inf
ROOT
ATOM      1  C   UNL     1      10.611 -14.331 -21.998  1.00  0.00     0.171 C 
ENDROOT
BRANCH   1   2
ATOM      2  C   UNL     1      10.026 -15.085 -20.785  1.00  0.00     0.237 C 
BRANCH   2   3
ATOM      3  N   UNL     1      10.164 -16.535 -20.965  1.00  0.00    -0.350 N 
ATOM      4  H   UNL     1       9.285 -17.015 -20.666  1.00  0.00     0.345 HD
ATOM      5  H   UNL     1      10.966 -16.903 -20.402  1.00  0.00     0.345 HD
ATOM      6  H   UNL     1      10.327 -16.752 -21.975  1.00  0.00     0.345 HD
ENDBRANCH   2   3
BRANCH   2   7
ATOM      7  C   UNL     1      10.694 -14.652 -19.505  1.00  0.00     0.100 C 
ATOM      8  O   UNL     1      11.213 -15.503 -18.735  1.00  0.00    -0.544 OA
ATOM      9  O   UNL     1      10.754 -13.303 -19.175  1.00  0.00    -0.544 OA
ENDBRANCH   2   7
ENDBRANCH   1   2
BRANCH   1  10
ATOM     10  C   UNL     1       9.722 -13.199 -22.426  1.00  0.00     0.223 C 
ATOM     11  O   UNL     1      10.096 -12.009 -22.245  1.00  0.00    -0.275 OA
ATOM     12  N   UNL     1       8.475 -13.459 -23.069  1.00  0.00    -0.369 N 
ATOM     13  H   UNL     1       8.158 -14.438 -23.244  1.00  0.00     0.159 HD
ATOM     14  H   UNL     1       7.867 -12.668 -23.378  1.00  0.00     0.159 HD
ENDBRANCH   1  10
TORSDOF 4
ENDMDL
MODEL 3
REMARK VINA RESULT:    -4.322      1.905      2.255
REMARK INTER + INTRA:          -5.586
REMARK INTER:                  -5.508
REMARK INTRA:                  -0.078
REMARK UNBOUND:                -0.380
REMARK SMILES NC(=O)C[C@@H]([NH3+])C(=O)[O-]
REMARK SMILES IDX 4 1 5 2 6 3 7 7 8 8 9 9 2 10 3 11 1 12
REMARK H PARENT 6 4 6 5 6 6 1 13 1 14
REMARK Flexibility Score: inf
ROOT
ATOM      1  C   UNL     1      10.958 -14.422 -22.080  1.00  0.00     0.171 C 
ENDROOT
BRANCH   1   2
ATOM      2  C   UNL     1      10.124 -14.999 -20.917  1.00  0.00     0.237 C 
BRANCH   2   3
ATOM      3  N   UNL     1      10.045 -16.461 -21.017  1.00  0.00    -0.350 N 
ATOM      4  H   UNL     1      10.377 -16.897 -20.126  1.00  0.00     0.345 HD
ATOM      5  H   UNL     1      10.632 -16.810 -21.811  1.00  0.00     0.345 HD
ATOM      6  H   UNL     1       9.053 -16.752 -21.172  1.00  0.00     0.345 HD
ENDBRANCH   2   3
BRANCH   2   7
ATOM      7  C   UNL     1      10.703 -14.598 -19.584  1.00  0.00     0.100 C 
ATOM      8  O   UNL     1      11.186 -15.465 -18.809  1.00  0.00    -0.544 OA
ATOM      9  O   UNL     1      10.720 -13.259 -19.210  1.00  0.00    -0.544 OA
ENDBRANCH   2   7
ENDBRANCH   1   2
BRANCH   1  10
ATOM     10  C   UNL     1      10.457 -13.071 -22.502  1.00  0.00     0.223 C 
ATOM     11  O   UNL     1       9.217 -12.848 -22.542  1.00  0.00    -0.275 OA
ATOM     12  N   UNL     1      11.374 -12.025 -22.824  1.00  0.00    -0.369 N 
ATOM     13  H   UNL     1      12.405 -12.186 -22.778  1.00  0.00     0.159 HD
ATOM     14  H   UNL     1      11.021 -11.083 -23.103  1.00  0.00     0.159 HD
ENDBRANCH   1  10
TORSDOF 4
ENDMDL
MODEL 4
REMARK VINA RESULT:    -4.145      2.041      3.339
REMARK INTER + INTRA:          -5.373
REMARK INTER:                  -5.092
REMARK INTRA:                  -0.281
REMARK UNBOUND:                -0.380
REMARK SMILES NC(=O)C[C@@H]([NH3+])C(=O)[O-]
REMARK SMILES IDX 4 1 5 2 6 3 7 7 8 8 9 9 2 10 3 11 1 12
REMARK H PARENT 6 4 6 5 6 6 1 13 1 14
REMARK Flexibility Score: inf
ROOT
ATOM      1  C   UNL     1      10.148 -14.855 -21.197  1.00  0.00     0.171 C 
ENDROOT
BRANCH   1   2
ATOM      2  C   UNL     1      10.950 -14.278 -22.382  1.00  0.00     0.237 C 
BRANCH   2   3
ATOM      3  N   UNL     1      11.387 -15.354 -23.280  1.00  0.00    -0.350 N 
ATOM      4  H   UNL     1      11.449 -14.996 -24.260  1.00  0.00     0.345 HD
ATOM      5  H   UNL     1      10.716 -16.157 -23.248  1.00  0.00     0.345 HD
ATOM      6  H   UNL     1      12.335 -15.689 -22.994  1.00  0.00     0.345 HD
ENDBRANCH   2   3
BRANCH   2   7
ATOM      7  C   UNL     1      10.136 -13.262 -23.143  1.00  0.00     0.100 C 
ATOM      8  O   UNL     1       9.817 -13.467 -24.344  1.00  0.00    -0.544 OA
ATOM      9  O   UNL     1       9.717 -12.096 -22.514  1.00  0.00    -0.544 OA
ENDBRANCH   2   7
ENDBRANCH   1   2
BRANCH   1  10
ATOM     10  C   UNL     1      10.620 -14.294 -19.886  1.00  0.00     0.223 C 
ATOM     11  O   UNL     1      10.981 -15.075 -18.966  1.00  0.00    -0.275 OA
ATOM     12  N   UNL     1      10.698 -12.883 -19.687  1.00  0.00    -0.369 N 
ATOM     13  H   UNL     1      10.420 -12.221 -20.445  1.00  0.00     0.159 HD
ATOM     14  H   UNL     1      11.040 -12.497 -18.779  1.00  0.00     0.159 HD
ENDBRANCH   1  10
TORSDOF 4
ENDMDL
MODEL 5
REMARK VINA RESULT:    -4.143      1.806      2.725
REMARK INTER + INTRA:          -5.371
REMARK INTER:                  -4.877
REMARK INTRA:                  -0.494
REMARK UNBOUND:                -0.380
REMARK SMILES NC(=O)C[C@@H]([NH3+])C(=O)[O-]
REMARK SMILES IDX 4 1 5 2 6 3 7 7 8 8 9 9 2 10 3 11 1 12
REMARK H PARENT 6 4 6 5 6 6 1 13 1 14
REMARK Flexibility Score: inf
ROOT
ATOM      1  C   UNL     1      10.844 -15.015 -22.014  1.00  0.00     0.171 C 
ENDROOT
BRANCH   1   2
ATOM      2  C   UNL     1       9.908 -13.956 -22.632  1.00  0.00     0.237 C 
BRANCH   2   3
ATOM      3  N   UNL     1       8.504 -14.353 -22.470  1.00  0.00    -0.350 N 
ATOM      4  H   UNL     1       8.433 -15.395 -22.419  1.00  0.00     0.345 HD
ATOM      5  H   UNL     1       7.926 -14.007 -23.271  1.00  0.00     0.345 HD
ATOM      6  H   UNL     1       8.125 -13.956 -21.579  1.00  0.00     0.345 HD
ENDBRANCH   2   3
BRANCH   2   7
ATOM      7  C   UNL     1      10.141 -12.600 -22.015  1.00  0.00     0.100 C 
ATOM      8  O   UNL     1      10.433 -11.610 -22.736  1.00  0.00    -0.544 OA
ATOM      9  O   UNL     1      10.016 -12.433 -20.641  1.00  0.00    -0.544 OA
ENDBRANCH   2   7
ENDBRANCH   1   2
BRANCH   1  10
ATOM     10  C   UNL     1      10.148 -15.813 -20.949  1.00  0.00     0.223 C 
ATOM     11  O   UNL     1       9.471 -16.827 -21.269  1.00  0.00    -0.275 OA
ATOM     12  N   UNL     1      10.276 -15.454 -19.573  1.00  0.00    -0.369 N 
ATOM     13  H   UNL     1      10.848 -14.629 -19.288  1.00  0.00     0.159 HD
ATOM     14  H   UNL     1       9.802 -16.021 -18.835  1.00  0.00     0.159 HD
ENDBRANCH   1  10
TORSDOF 4
ENDMDL
MODEL 6
REMARK VINA RESULT:    -3.976      1.829      2.460
REMARK INTER + INTRA:          -5.170
REMARK INTER:                  -4.680
REMARK INTRA:                  -0.490
REMARK UNBOUND:                -0.380
REMARK SMILES NC(=O)C[C@@H]([NH3+])C(=O)[O-]
REMARK SMILES IDX 4 1 5 2 6 3 7 7 8 8 9 9 2 10 3 11 1 12
REMARK H PARENT 6 4 6 5 6 6 1 13 1 14
REMARK Flexibility Score: inf
ROOT
ATOM      1  C   UNL     1       9.372 -15.111 -22.186  1.00  0.00     0.171 C 
ENDROOT
BRANCH   1   2
ATOM      2  C   UNL     1      10.692 -14.630 -21.547  1.00  0.00     0.237 C 
BRANCH   2   3
ATOM      3  N   UNL     1      11.594 -14.093 -22.573  1.00  0.00    -0.350 N 
ATOM      4  H   UNL     1      12.494 -14.624 -22.568  1.00  0.00     0.345 HD
ATOM      5  H   UNL     1      11.791 -13.080 -22.399  1.00  0.00     0.345 HD
ATOM      6  H   UNL     1      11.157 -14.199 -23.518  1.00  0.00     0.345 HD
ENDBRANCH   2   3
BRANCH   2   7
ATOM      7  C   UNL     1      10.433 -13.592 -20.485  1.00  0.00     0.100 C 
ATOM      8  O   UNL     1       9.951 -12.470 -20.791  1.00  0.00    -0.544 OA
ATOM      9  O   UNL     1      10.711 -13.878 -19.153  1.00  0.00    -0.544 OA
ENDBRANCH   2   7
ENDBRANCH   1   2
BRANCH   1  10
ATOM     10  C   UNL     1       9.034 -14.319 -23.417  1.00  0.00     0.223 C 
ATOM     11  O   UNL     1       9.462 -14.696 -24.540  1.00  0.00    -0.275 OA
ATOM     12  N   UNL     1       8.201 -13.163 -23.329  1.00  0.00    -0.369 N 
ATOM     13  H   UNL     1       7.822 -12.846 -22.409  1.00  0.00     0.159 HD
ATOM     14  H   UNL     1       7.957 -12.624 -24.190  1.00  0.00     0.159 HD
ENDBRANCH   1  10
TORSDOF 4
ENDMDL
MODEL 7
REMARK VINA RESULT:    -3.882      1.723      2.074
REMARK INTER + INTRA:          -5.057
REMARK INTER:                  -4.724
REMARK INTRA:                  -0.333
REMARK UNBOUND:                -0.380
REMARK SMILES NC(=O)C[C@@H]([NH3+])C(=O)[O-]
REMARK SMILES IDX 4 1 5 2 6 3 7 7 8 8 9 9 2 10 3 11 1 12
REMARK H PARENT 6 4 6 5 6 6 1 13 1 14
REMARK Flexibility Score: inf
ROOT
ATOM      1  C   UNL     1      11.266 -14.510 -22.311  1.00  0.00     0.171 C 
ENDROOT
BRANCH   1   2
ATOM      2  C   UNL     1      10.010 -13.997 -21.577  1.00  0.00     0.237 C 
BRANCH   2   3
ATOM      3  N   UNL     1       8.793 -14.505 -22.222  1.00  0.00    -0.350 N 
ATOM      4  H   UNL     1       7.980 -13.893 -21.980  1.00  0.00     0.345 HD
ATOM      5  H   UNL     1       8.592 -15.484 -21.913  1.00  0.00     0.345 HD
ATOM      6  H   UNL     1       8.913 -14.493 -23.261  1.00  0.00     0.345 HD
ENDBRANCH   2   3
BRANCH   2   7
ATOM      7  C   UNL     1      10.033 -14.393 -20.122  1.00  0.00     0.100 C 
ATOM      8  O   UNL     1       9.417 -15.418 -19.729  1.00  0.00    -0.544 OA
ATOM      9  O   UNL     1      10.752 -13.633 -19.207  1.00  0.00    -0.544 OA
ENDBRANCH   2   7
ENDBRANCH   1   2
BRANCH   1  10
ATOM     10  C   UNL     1      10.967 -15.735 -23.127  1.00  0.00     0.223 C 
ATOM     11  O   UNL     1      10.581 -16.788 -22.554  1.00  0.00    -0.275 OA
ATOM     12  N   UNL     1      11.081 -15.705 -24.549  1.00  0.00    -0.369 N 
ATOM     13  H   UNL     1      11.382 -14.835 -25.042  1.00  0.00     0.159 HD
ATOM     14  H   UNL     1      10.858 -16.555 -25.113  1.00  0.00     0.159 HD
ENDBRANCH   1  10
TORSDOF 4
ENDMDL
MODEL 8
REMARK VINA RESULT:    -3.817      1.977      3.258
REMARK INTER + INTRA:          -4.978
REMARK INTER:                  -4.650
REMARK INTRA:                  -0.328
REMARK UNBOUND:                -0.380
REMARK SMILES NC(=O)C[C@@H]([NH3+])C(=O)[O-]
REMARK SMILES IDX 4 1 5 2 6 3 7 7 8 8 9 9 2 10 3 11 1 12
REMARK H PARENT 6 4 6 5 6 6 1 13 1 14
REMARK Flexibility Score: inf
ROOT
ATOM      1  C   UNL     1       9.523 -13.858 -23.080  1.00  0.00     0.171 C 
ENDROOT
BRANCH   1   2
ATOM      2  C   UNL     1      10.564 -14.936 -22.713  1.00  0.00     0.237 C 
BRANCH   2   3
ATOM      3  N   UNL     1      11.902 -14.342 -22.600  1.00  0.00    -0.350 N 
ATOM      4  H   UNL     1      12.339 -14.620 -21.692  1.00  0.00     0.345 HD
ATOM      5  H   UNL     1      11.848 -13.297 -22.651  1.00  0.00     0.345 HD
ATOM      6  H   UNL     1      12.510 -14.690 -23.377  1.00  0.00     0.345 HD
ENDBRANCH   2   3
BRANCH   2   7
ATOM      7  C   UNL     1      10.193 -15.633 -21.429  1.00  0.00     0.100 C 
ATOM      8  O   UNL     1      10.680 -15.254 -20.331  1.00  0.00    -0.544 OA
ATOM      9  O   UNL     1       9.294 -16.692 -21.449  1.00  0.00    -0.544 OA
ENDBRANCH   2   7
ENDBRANCH   1   2
BRANCH   1  10
ATOM     10  C   UNL     1      10.020 -12.478 -22.756  1.00  0.00     0.223 C 
ATOM     11  O   UNL     1      10.162 -12.131 -21.553  1.00  0.00    -0.275 OA
ATOM     12  N   UNL     1      10.367 -11.569 -23.801  1.00  0.00    -0.369 N 
ATOM     13  H   UNL     1      10.273 -11.846 -24.803  1.00  0.00     0.159 HD
ATOM     14  H   UNL     1      10.725 -10.615 -23.570  1.00  0.00     0.159 HD
ENDBRANCH   1  10
TORSDOF 4
ENDMDL
