MODEL 1
REMARK VINA RESULT:    -3.614      0.000      0.000
REMARK INTER + INTRA:          -6.598
REMARK INTER:                  -5.727
REMARK INTRA:                  -0.871
REMARK UNBOUND:                -0.871
REMARK SMILES CCCCCCCCCCCC(=O)[O-]
REMARK SMILES IDX 7 1 8 2 9 3 10 4 11 5 12 6 13 7 14 8 6 9 5 10 4 11 3 12 2 13
REMARK SMILES IDX 1 14
REMARK H PARENT
REMARK Flexibility Score: inf
ROOT
ATOM      1  C   UNL     1     -19.353  20.423  45.801  1.00  0.00     0.000 C 
ENDROOT
BRANCH   1   2
ATOM      2  C   UNL     1     -18.033  21.140  45.495  1.00  0.00     0.000 C 
BRANCH   2   3
ATOM      3  C   UNL     1     -17.434  20.651  44.169  1.00  0.00     0.000 C 
BRANCH   3   4
ATOM      4  C   UNL     1     -16.945  21.803  43.279  1.00  0.00     0.006 C 
BRANCH   4   5
ATOM      5  C   UNL     1     -18.076  22.441  42.463  1.00  0.00     0.053 C 
BRANCH   5   6
ATOM      6  C   UNL     1     -17.988  23.934  42.527  1.00  0.00     0.041 C 
ATOM      7  O   UNL     1     -16.896  24.493  42.807  1.00  0.00    -0.550 OA
ATOM      8  O   UNL     1     -19.102  24.708  42.229  1.00  0.00    -0.550 OA
ENDBRANCH   5   6
ENDBRANCH   4   5
ENDBRANCH   3   4
ENDBRANCH   2   3
ENDBRANCH   1   2
BRANCH   1   9
ATOM      9  C   UNL     1     -20.449  21.423  46.189  1.00  0.00     0.000 C 
BRANCH   9  10
ATOM     10  C   UNL     1     -20.139  22.821  45.633  1.00  0.00    -0.000 C 
BRANCH  10  11
ATOM     11  C   UNL     1     -21.390  23.706  45.518  1.00  0.00    -0.000 C 
BRANCH  11  12
ATOM     12  C   UNL     1     -22.580  23.154  46.322  1.00  0.00    -0.000 C 
BRANCH  12  13
ATOM     13  C   UNL     1     -23.859  23.041  45.478  1.00  0.00    -0.003 C 
ATOM     14  C   UNL     1     -23.966  24.132  44.413  1.00  0.00     0.004 C 
ENDBRANCH  12  13
ENDBRANCH  11  12
ENDBRANCH  10  11
ENDBRANCH   9  10
ENDBRANCH   1   9
TORSDOF 10
ENDMDL
MODEL 2
REMARK VINA RESULT:    -3.600      2.075      4.658
REMARK INTER + INTRA:          -6.575
REMARK INTER:                  -5.518
REMARK INTRA:                  -1.057
REMARK UNBOUND:                -0.871
REMARK SMILES CCCCCCCCCCCC(=O)[O-]
REMARK SMILES IDX 7 1 8 2 9 3 10 4 11 5 12 6 13 7 14 8 6 9 5 10 4 11 3 12 2 13
REMARK SMILES IDX 1 14
REMARK H PARENT
REMARK Flexibility Score: inf
ROOT
ATOM      1  C   UNL     1     -18.481  20.506  45.313  1.00  0.00     0.000 C 
ENDROOT
BRANCH   1   2
ATOM      2  C   UNL     1     -19.832  20.999  45.846  1.00  0.00     0.000 C 
BRANCH   2   3
ATOM      3  C   UNL     1     -19.960  22.521  45.699  1.00  0.00     0.000 C 
BRANCH   3   4
ATOM      4  C   UNL     1     -21.418  23.002  45.764  1.00  0.00     0.006 C 
BRANCH   4   5
ATOM      5  C   UNL     1     -21.546  24.523  45.607  1.00  0.00     0.053 C 
BRANCH   5   6
ATOM      6  C   UNL     1     -22.552  24.855  44.549  1.00  0.00     0.041 C 
ATOM      7  O   UNL     1     -22.332  25.793  43.740  1.00  0.00    -0.550 OA
ATOM      8  O   UNL     1     -23.709  24.096  44.428  1.00  0.00    -0.550 OA
ENDBRANCH   5   6
ENDBRANCH   4   5
ENDBRANCH   3   4
ENDBRANCH   2   3
ENDBRANCH   1   2
BRANCH   1   9
ATOM      9  C   UNL     1     -17.576  21.682  44.928  1.00  0.00     0.000 C 
BRANCH   9  10
ATOM     10  C   UNL     1     -17.129  21.575  43.462  1.00  0.00    -0.000 C 
BRANCH  10  11
ATOM     11  C   UNL     1     -18.040  22.358  42.504  1.00  0.00    -0.000 C 
BRANCH  11  12
ATOM     12  C   UNL     1     -17.834  23.879  42.603  1.00  0.00    -0.000 C 
BRANCH  12  13
ATOM     13  C   UNL     1     -19.160  24.645  42.727  1.00  0.00    -0.003 C 
ATOM     14  C   UNL     1     -19.146  25.982  41.986  1.00  0.00     0.004 C 
ENDBRANCH  12  13
ENDBRANCH  11  12
ENDBRANCH  10  11
ENDBRANCH   9  10
ENDBRANCH   1   9
TORSDOF 10
ENDMDL
MODEL 3
REMARK VINA RESULT:    -3.578      3.082      5.636
REMARK INTER + INTRA:          -6.540
REMARK INTER:                  -5.616
REMARK INTRA:                  -0.924
REMARK UNBOUND:                -0.871
REMARK SMILES CCCCCCCCCCCC(=O)[O-]
REMARK SMILES IDX 7 1 8 2 9 3 10 4 11 5 12 6 13 7 14 8 6 9 5 10 4 11 3 12 2 13
REMARK SMILES IDX 1 14
REMARK H PARENT
REMARK Flexibility Score: inf
ROOT
ATOM      1  C   UNL     1     -19.877  21.596  45.752  1.00  0.00     0.000 C 
ENDROOT
BRANCH   1   2
ATOM      2  C   UNL     1     -20.223  23.078  45.562  1.00  0.00     0.000 C 
BRANCH   2   3
ATOM      3  C   UNL     1     -21.735  23.311  45.695  1.00  0.00     0.000 C 
BRANCH   3   4
ATOM      4  C   UNL     1     -22.206  24.577  44.962  1.00  0.00     0.006 C 
BRANCH   4   5
ATOM      5  C   UNL     1     -23.563  24.389  44.272  1.00  0.00     0.053 C 
BRANCH   5   6
ATOM      6  C   UNL     1     -24.608  24.002  45.271  1.00  0.00     0.041 C 
ATOM      7  O   UNL     1     -24.999  24.832  46.131  1.00  0.00    -0.550 OA
ATOM      8  O   UNL     1     -25.184  22.739  45.220  1.00  0.00    -0.550 OA
ENDBRANCH   5   6
ENDBRANCH   4   5
ENDBRANCH   3   4
ENDBRANCH   2   3
ENDBRANCH   1   2
BRANCH   1   9
ATOM      9  C   UNL     1     -18.360  21.373  45.706  1.00  0.00     0.000 C 
BRANCH   9  10
ATOM     10  C   UNL     1     -17.957  20.598  44.443  1.00  0.00    -0.000 C 
BRANCH  10  11
ATOM     11  C   UNL     1     -17.126  21.445  43.467  1.00  0.00    -0.000 C 
BRANCH  11  12
ATOM     12  C   UNL     1     -18.000  22.291  42.526  1.00  0.00    -0.000 C 
BRANCH  12  13
ATOM     13  C   UNL     1     -17.788  23.800  42.723  1.00  0.00    -0.003 C 
ATOM     14  C   UNL     1     -19.024  24.626  42.366  1.00  0.00     0.004 C 
ENDBRANCH  12  13
ENDBRANCH  11  12
ENDBRANCH  10  11
ENDBRANCH   9  10
ENDBRANCH   1   9
TORSDOF 10
ENDMDL
MODEL 4
REMARK VINA RESULT:    -3.507      2.403      4.905
REMARK INTER + INTRA:          -6.428
REMARK INTER:                  -5.252
REMARK INTRA:                  -1.175
REMARK UNBOUND:                -0.871
REMARK SMILES CCCCCCCCCCCC(=O)[O-]
REMARK SMILES IDX 7 1 8 2 9 3 10 4 11 5 12 6 13 7 14 8 6 9 5 10 4 11 3 12 2 13
REMARK SMILES IDX 1 14
REMARK H PARENT
REMARK Flexibility Score: inf
ROOT
ATOM      1  C   UNL     1     -18.076  20.397  44.627  1.00  0.00     0.000 C 
ENDROOT
BRANCH   1   2
ATOM      2  C   UNL     1     -19.236  20.597  45.609  1.00  0.00     0.000 C 
BRANCH   2   3
ATOM      3  C   UNL     1     -19.620  22.080  45.713  1.00  0.00     0.000 C 
BRANCH   3   4
ATOM      4  C   UNL     1     -21.086  22.285  46.128  1.00  0.00     0.006 C 
BRANCH   4   5
ATOM      5  C   UNL     1     -21.644  23.640  45.676  1.00  0.00     0.053 C 
BRANCH   5   6
ATOM      6  C   UNL     1     -23.079  23.506  45.275  1.00  0.00     0.041 C 
ATOM      7  O   UNL     1     -23.817  22.656  45.838  1.00  0.00    -0.550 OA
ATOM      8  O   UNL     1     -23.613  24.354  44.313  1.00  0.00    -0.550 OA
ENDBRANCH   5   6
ENDBRANCH   4   5
ENDBRANCH   3   4
ENDBRANCH   2   3
ENDBRANCH   1   2
BRANCH   1   9
ATOM      9  C   UNL     1     -17.058  21.539  44.732  1.00  0.00     0.000 C 
BRANCH   9  10
ATOM     10  C   UNL     1     -16.694  22.080  43.342  1.00  0.00    -0.000 C 
BRANCH  10  11
ATOM     11  C   UNL     1     -17.929  22.447  42.504  1.00  0.00    -0.000 C 
BRANCH  11  12
ATOM     12  C   UNL     1     -18.035  23.958  42.238  1.00  0.00    -0.000 C 
BRANCH  12  13
ATOM     13  C   UNL     1     -19.105  24.636  43.108  1.00  0.00    -0.003 C 
ATOM     14  C   UNL     1     -18.516  25.347  44.326  1.00  0.00     0.004 C 
ENDBRANCH  12  13
ENDBRANCH  11  12
ENDBRANCH  10  11
ENDBRANCH   9  10
ENDBRANCH   1   9
TORSDOF 10
ENDMDL
MODEL 5
REMARK VINA RESULT:    -3.490      2.034      2.855
REMARK INTER + INTRA:          -6.401
REMARK INTER:                  -4.754
REMARK INTRA:                  -1.647
REMARK UNBOUND:                -0.871
REMARK SMILES CCCCCCCCCCCC(=O)[O-]
REMARK SMILES IDX 7 1 8 2 9 3 10 4 11 5 12 6 13 7 14 8 6 9 5 10 4 11 3 12 2 13
REMARK SMILES IDX 1 14
REMARK H PARENT
REMARK Flexibility Score: inf
ROOT
ATOM      1  C   UNL     1     -16.920  20.224  45.469  1.00  0.00     0.000 C 
ENDROOT
BRANCH   1   2
ATOM      2  C   UNL     1     -16.186  21.011  44.377  1.00  0.00     0.000 C 
BRANCH   2   3
ATOM      3  C   UNL     1     -17.163  21.504  43.300  1.00  0.00     0.000 C 
BRANCH   3   4
ATOM      4  C   UNL     1     -17.039  23.012  43.033  1.00  0.00     0.006 C 
BRANCH   4   5
ATOM      5  C   UNL     1     -18.256  23.583  42.294  1.00  0.00     0.053 C 
BRANCH   5   6
ATOM      6  C   UNL     1     -18.372  25.055  42.539  1.00  0.00     0.041 C 
ATOM      7  O   UNL     1     -17.627  25.617  43.383  1.00  0.00    -0.550 OA
ATOM      8  O   UNL     1     -19.271  25.813  41.799  1.00  0.00    -0.550 OA
ENDBRANCH   5   6
ENDBRANCH   4   5
ENDBRANCH   3   4
ENDBRANCH   2   3
ENDBRANCH   1   2
BRANCH   1   9
ATOM      9  C   UNL     1     -18.382  19.972  45.081  1.00  0.00     0.000 C 
BRANCH   9  10
ATOM     10  C   UNL     1     -19.272  19.872  46.328  1.00  0.00    -0.000 C 
BRANCH  10  11
ATOM     11  C   UNL     1     -19.887  21.223  46.729  1.00  0.00    -0.000 C 
BRANCH  11  12
ATOM     12  C   UNL     1     -20.030  22.184  45.536  1.00  0.00    -0.000 C 
BRANCH  12  13
ATOM     13  C   UNL     1     -19.488  23.589  45.845  1.00  0.00    -0.003 C 
ATOM     14  C   UNL     1     -18.143  23.561  46.570  1.00  0.00     0.004 C 
ENDBRANCH  12  13
ENDBRANCH  11  12
ENDBRANCH  10  11
ENDBRANCH   9  10
ENDBRANCH   1   9
TORSDOF 10
ENDMDL
MODEL 6
REMARK VINA RESULT:    -3.475      3.346      4.913
REMARK INTER + INTRA:          -6.378
REMARK INTER:                  -5.175
REMARK INTRA:                  -1.203
REMARK UNBOUND:                -0.871
REMARK SMILES CCCCCCCCCCCC(=O)[O-]
REMARK SMILES IDX 7 1 8 2 9 3 10 4 11 5 12 6 13 7 14 8 6 9 5 10 4 11 3 12 2 13
REMARK SMILES IDX 1 14
REMARK H PARENT
REMARK Flexibility Score: inf
ROOT
ATOM      1  C   UNL     1     -16.165  20.779  44.750  1.00  0.00     0.000 C 
ENDROOT
BRANCH   1   2
ATOM      2  C   UNL     1     -15.145  21.322  43.741  1.00  0.00     0.000 C 
BRANCH   2   3
ATOM      3  C   UNL     1     -13.802  21.622  44.422  1.00  0.00     0.000 C 
BRANCH   3   4
ATOM      4  C   UNL     1     -12.855  22.439  43.530  1.00  0.00     0.006 C 
BRANCH   4   5
ATOM      5  C   UNL     1     -13.550  22.989  42.278  1.00  0.00     0.053 C 
BRANCH   5   6
ATOM      6  C   UNL     1     -12.941  24.296  41.876  1.00  0.00     0.041 C 
ATOM      7  O   UNL     1     -13.279  24.845  40.795  1.00  0.00    -0.550 OA
ATOM      8  O   UNL     1     -12.038  24.930  42.719  1.00  0.00    -0.550 OA
ENDBRANCH   5   6
ENDBRANCH   4   5
ENDBRANCH   3   4
ENDBRANCH   2   3
ENDBRANCH   1   2
BRANCH   1   9
ATOM      9  C   UNL     1     -17.564  20.691  44.129  1.00  0.00     0.000 C 
BRANCH   9  10
ATOM     10  C   UNL     1     -18.543  21.632  44.846  1.00  0.00    -0.000 C 
BRANCH  10  11
ATOM     11  C   UNL     1     -18.727  22.970  44.113  1.00  0.00    -0.000 C 
BRANCH  11  12
ATOM     12  C   UNL     1     -18.206  22.927  42.666  1.00  0.00    -0.000 C 
BRANCH  12  13
ATOM     13  C   UNL     1     -17.221  24.066  42.361  1.00  0.00    -0.003 C 
ATOM     14  C   UNL     1     -16.637  24.700  43.623  1.00  0.00     0.004 C 
ENDBRANCH  12  13
ENDBRANCH  11  12
ENDBRANCH  10  11
ENDBRANCH   9  10
ENDBRANCH   1   9
TORSDOF 10
ENDMDL
MODEL 7
REMARK VINA RESULT:    -3.445      2.386      4.390
REMARK INTER + INTRA:          -6.330
REMARK INTER:                  -5.050
REMARK INTRA:                  -1.280
REMARK UNBOUND:                -0.871
REMARK SMILES CCCCCCCCCCCC(=O)[O-]
REMARK SMILES IDX 7 1 8 2 9 3 10 4 11 5 12 6 13 7 14 8 6 9 5 10 4 11 3 12 2 13
REMARK SMILES IDX 1 14
REMARK H PARENT
REMARK Flexibility Score: inf
ROOT
ATOM      1  C   UNL     1     -18.048  22.430  42.528  1.00  0.00     0.000 C 
ENDROOT
BRANCH   1   2
ATOM      2  C   UNL     1     -17.767  23.930  42.385  1.00  0.00     0.000 C 
BRANCH   2   3
ATOM      3  C   UNL     1     -19.070  24.718  42.186  1.00  0.00     0.000 C 
BRANCH   3   4
ATOM      4  C   UNL     1     -18.955  26.179  42.646  1.00  0.00     0.006 C 
BRANCH   4   5
ATOM      5  C   UNL     1     -19.767  26.464  43.916  1.00  0.00     0.053 C 
BRANCH   5   6
ATOM      6  C   UNL     1     -21.197  26.742  43.570  1.00  0.00     0.041 C 
ATOM      7  O   UNL     1     -21.527  27.859  43.093  1.00  0.00    -0.550 OA
ATOM      8  O   UNL     1     -22.155  25.749  43.729  1.00  0.00    -0.550 OA
ENDBRANCH   5   6
ENDBRANCH   4   5
ENDBRANCH   3   4
ENDBRANCH   2   3
ENDBRANCH   1   2
BRANCH   1   9
ATOM      9  C   UNL     1     -17.019  21.760  43.447  1.00  0.00     0.000 C 
BRANCH   9  10
ATOM     10  C   UNL     1     -17.650  20.591  44.219  1.00  0.00    -0.000 C 
BRANCH  10  11
ATOM     11  C   UNL     1     -18.773  21.042  45.167  1.00  0.00    -0.000 C 
BRANCH  11  12
ATOM     12  C   UNL     1     -18.301  22.096  46.183  1.00  0.00    -0.000 C 
BRANCH  12  13
ATOM     13  C   UNL     1     -19.115  23.397  46.103  1.00  0.00    -0.003 C 
ATOM     14  C   UNL     1     -20.514  23.187  45.524  1.00  0.00     0.004 C 
ENDBRANCH  12  13
ENDBRANCH  11  12
ENDBRANCH  10  11
ENDBRANCH   9  10
ENDBRANCH   1   9
TORSDOF 10
ENDMDL
MODEL 8
REMARK VINA RESULT:    -3.439      1.965      3.265
REMARK INTER + INTRA:          -6.321
REMARK INTER:                  -5.198
REMARK INTRA:                  -1.123
REMARK UNBOUND:                -0.871
REMARK SMILES CCCCCCCCCCCC(=O)[O-]
REMARK SMILES IDX 7 1 8 2 9 3 10 4 11 5 12 6 13 7 14 8 6 9 5 10 4 11 3 12 2 13
REMARK SMILES IDX 1 14
REMARK H PARENT
REMARK Flexibility Score: inf
ROOT
ATOM      1  C   UNL     1     -19.024  22.324  45.595  1.00  0.00     0.000 C 
ENDROOT
BRANCH   1   2
ATOM      2  C   UNL     1     -19.020  20.811  45.347  1.00  0.00     0.000 C 
BRANCH   2   3
ATOM      3  C   UNL     1     -17.786  20.389  44.536  1.00  0.00     0.000 C 
BRANCH   3   4
ATOM      4  C   UNL     1     -17.395  21.425  43.470  1.00  0.00     0.006 C 
BRANCH   4   5
ATOM      5  C   UNL     1     -15.903  21.778  43.509  1.00  0.00     0.053 C 
BRANCH   5   6
ATOM      6  C   UNL     1     -15.721  23.257  43.644  1.00  0.00     0.041 C 
ATOM      7  O   UNL     1     -15.595  23.778  44.783  1.00  0.00    -0.550 OA
ATOM      8  O   UNL     1     -15.639  24.053  42.509  1.00  0.00    -0.550 OA
ENDBRANCH   5   6
ENDBRANCH   4   5
ENDBRANCH   3   4
ENDBRANCH   2   3
ENDBRANCH   1   2
BRANCH   1   9
ATOM      9  C   UNL     1     -20.452  22.884  45.575  1.00  0.00     0.000 C 
BRANCH   9  10
ATOM     10  C   UNL     1     -20.512  24.207  44.797  1.00  0.00    -0.000 C 
BRANCH  10  11
ATOM     11  C   UNL     1     -19.157  24.602  44.189  1.00  0.00    -0.000 C 
BRANCH  11  12
ATOM     12  C   UNL     1     -19.177  24.602  42.651  1.00  0.00    -0.000 C 
BRANCH  12  13
ATOM     13  C   UNL     1     -18.944  26.001  42.059  1.00  0.00    -0.003 C 
ATOM     14  C   UNL     1     -20.070  26.981  42.391  1.00  0.00     0.004 C 
ENDBRANCH  12  13
ENDBRANCH  11  12
ENDBRANCH  10  11
ENDBRANCH   9  10
ENDBRANCH   1   9
TORSDOF 10
ENDMDL
MODEL 9
REMARK VINA RESULT:    -3.426      1.866      3.166
REMARK INTER + INTRA:          -6.300
REMARK INTER:                  -5.401
REMARK INTRA:                  -0.899
REMARK UNBOUND:                -0.871
REMARK SMILES CCCCCCCCCCCC(=O)[O-]
REMARK SMILES IDX 7 1 8 2 9 3 10 4 11 5 12 6 13 7 14 8 6 9 5 10 4 11 3 12 2 13
REMARK SMILES IDX 1 14
REMARK H PARENT
REMARK Flexibility Score: inf
ROOT
ATOM      1  C   UNL     1     -16.511  20.987  44.418  1.00  0.00     0.000 C 
ENDROOT
BRANCH   1   2
ATOM      2  C   UNL     1     -16.386  22.067  43.338  1.00  0.00     0.000 C 
BRANCH   2   3
ATOM      3  C   UNL     1     -17.745  22.349  42.680  1.00  0.00     0.000 C 
BRANCH   3   4
ATOM      4  C   UNL     1     -18.015  23.850  42.497  1.00  0.00     0.006 C 
BRANCH   4   5
ATOM      5  C   UNL     1     -19.106  24.374  43.439  1.00  0.00     0.053 C 
BRANCH   5   6
ATOM      6  C   UNL     1     -19.656  25.670  42.931  1.00  0.00     0.041 C 
ATOM      7  O   UNL     1     -20.440  26.348  43.645  1.00  0.00    -0.550 OA
ATOM      8  O   UNL     1     -19.262  26.152  41.689  1.00  0.00    -0.550 OA
ENDBRANCH   5   6
ENDBRANCH   4   5
ENDBRANCH   3   4
ENDBRANCH   2   3
ENDBRANCH   1   2
BRANCH   1   9
ATOM      9  C   UNL     1     -17.883  20.304  44.362  1.00  0.00     0.000 C 
BRANCH   9  10
ATOM     10  C   UNL     1     -18.223  19.643  45.706  1.00  0.00    -0.000 C 
BRANCH  10  11
ATOM     11  C   UNL     1     -19.462  20.258  46.374  1.00  0.00    -0.000 C 
BRANCH  11  12
ATOM     12  C   UNL     1     -19.890  21.583  45.721  1.00  0.00    -0.000 C 
BRANCH  12  13
ATOM     13  C   UNL     1     -21.094  22.226  46.427  1.00  0.00    -0.003 C 
ATOM     14  C   UNL     1     -22.037  21.197  47.049  1.00  0.00     0.004 C 
ENDBRANCH  12  13
ENDBRANCH  11  12
ENDBRANCH  10  11
ENDBRANCH   9  10
ENDBRANCH   1   9
TORSDOF 10
ENDMDL
