MODEL 1
REMARK VINA RESULT:    -3.202      0.000      0.000
REMARK INTER + INTRA:          -3.202
REMARK INTER:                  -3.202
REMARK INTRA:                   0.000
REMARK UNBOUND:                 0.000
REMARK SMILES c1ccc2ccccc2c1
REMARK SMILES IDX 2 1 1 2 10 3 9 4 8 5 7 6 6 7 5 8 4 9 3 10
REMARK H PARENT
REMARK Flexibility Score: inf
ROOT
ATOM      1  C   UNL     1       4.272   5.609  38.312  1.00  0.00     0.001 A 
ATOM      2  C   UNL     1       3.072   6.304  38.484  1.00  0.00     0.001 A 
ATOM      3  C   UNL     1       2.080   6.250  37.500  1.00  0.00     0.009 A 
ATOM      4  C   UNL     1       2.286   5.496  36.334  1.00  0.00    -0.018 A 
ATOM      5  C   UNL     1       1.298   5.432  35.339  1.00  0.00     0.009 A 
ATOM      6  C   UNL     1       1.516   4.678  34.182  1.00  0.00     0.001 A 
ATOM      7  C   UNL     1       2.716   3.983  34.011  1.00  0.00     0.001 A 
ATOM      8  C   UNL     1       3.708   4.037  34.995  1.00  0.00     0.009 A 
ATOM      9  C   UNL     1       3.502   4.791  36.160  1.00  0.00    -0.018 A 
ATOM     10  C   UNL     1       4.490   4.855  37.156  1.00  0.00     0.009 A 
ENDROOT
TORSDOF 0
ENDMDL
MODEL 2
REMARK VINA RESULT:    -3.198      0.044      2.081
REMARK INTER + INTRA:          -3.198
REMARK INTER:                  -3.198
REMARK INTRA:                   0.000
REMARK UNBOUND:                 0.000
REMARK SMILES c1ccc2ccccc2c1
REMARK SMILES IDX 2 1 1 2 10 3 9 4 8 5 7 6 6 7 5 8 4 9 3 10
REMARK H PARENT
REMARK Flexibility Score: inf
ROOT
ATOM      1  C   UNL     1       3.138   6.322  38.487  1.00  0.00     0.001 A 
ATOM      2  C   UNL     1       4.323   5.605  38.307  1.00  0.00     0.001 A 
ATOM      3  C   UNL     1       4.515   4.842  37.150  1.00  0.00     0.009 A 
ATOM      4  C   UNL     1       3.515   4.792  36.167  1.00  0.00    -0.018 A 
ATOM      5  C   UNL     1       3.695   4.030  35.002  1.00  0.00     0.009 A 
ATOM      6  C   UNL     1       2.691   3.988  34.030  1.00  0.00     0.001 A 
ATOM      7  C   UNL     1       1.506   4.705  34.210  1.00  0.00     0.001 A 
ATOM      8  C   UNL     1       1.314   5.469  35.367  1.00  0.00     0.009 A 
ATOM      9  C   UNL     1       2.314   5.519  36.350  1.00  0.00    -0.018 A 
ATOM     10  C   UNL     1       2.134   6.281  37.515  1.00  0.00     0.009 A 
ENDROOT
TORSDOF 0
ENDMDL
MODEL 3
REMARK VINA RESULT:    -3.194      0.061      3.437
REMARK INTER + INTRA:          -3.194
REMARK INTER:                  -3.194
REMARK INTRA:                   0.000
REMARK UNBOUND:                 0.000
REMARK SMILES c1ccc2ccccc2c1
REMARK SMILES IDX 2 1 1 2 10 3 9 4 8 5 7 6 6 7 5 8 4 9 3 10
REMARK H PARENT
REMARK Flexibility Score: inf
ROOT
ATOM      1  C   UNL     1       2.634   3.985  34.002  1.00  0.00     0.001 A 
ATOM      2  C   UNL     1       1.434   4.676  34.190  1.00  0.00     0.001 A 
ATOM      3  C   UNL     1       1.230   5.432  35.349  1.00  0.00     0.009 A 
ATOM      4  C   UNL     1       2.232   5.498  36.330  1.00  0.00    -0.018 A 
ATOM      5  C   UNL     1       2.041   6.253  37.498  1.00  0.00     0.009 A 
ATOM      6  C   UNL     1       3.046   6.311  38.468  1.00  0.00     0.001 A 
ATOM      7  C   UNL     1       4.246   5.619  38.280  1.00  0.00     0.001 A 
ATOM      8  C   UNL     1       4.449   4.863  37.121  1.00  0.00     0.009 A 
ATOM      9  C   UNL     1       3.448   4.798  36.140  1.00  0.00    -0.018 A 
ATOM     10  C   UNL     1       3.639   4.042  34.972  1.00  0.00     0.009 A 
ENDROOT
TORSDOF 0
ENDMDL
MODEL 4
REMARK VINA RESULT:    -3.185      0.097      4.017
REMARK INTER + INTRA:          -3.185
REMARK INTER:                  -3.185
REMARK INTRA:                   0.000
REMARK UNBOUND:                 0.000
REMARK SMILES c1ccc2ccccc2c1
REMARK SMILES IDX 2 1 1 2 10 3 9 4 8 5 7 6 6 7 5 8 4 9 3 10
REMARK H PARENT
REMARK Flexibility Score: inf
ROOT
ATOM      1  C   UNL     1       1.495   4.764  34.250  1.00  0.00     0.001 A 
ATOM      2  C   UNL     1       2.663   4.023  34.050  1.00  0.00     0.001 A 
ATOM      3  C   UNL     1       3.676   4.032  35.015  1.00  0.00     0.009 A 
ATOM      4  C   UNL     1       3.523   4.788  36.187  1.00  0.00    -0.018 A 
ATOM      5  C   UNL     1       4.532   4.805  37.164  1.00  0.00     0.009 A 
ATOM      6  C   UNL     1       4.368   5.562  38.327  1.00  0.00     0.001 A 
ATOM      7  C   UNL     1       3.200   6.303  38.527  1.00  0.00     0.001 A 
ATOM      8  C   UNL     1       2.187   6.294  37.562  1.00  0.00     0.009 A 
ATOM      9  C   UNL     1       2.339   5.538  36.390  1.00  0.00    -0.018 A 
ATOM     10  C   UNL     1       1.331   5.520  35.413  1.00  0.00     0.009 A 
ENDROOT
TORSDOF 0
ENDMDL
MODEL 5
REMARK VINA RESULT:    -3.155      7.535      8.336
REMARK INTER + INTRA:          -3.155
REMARK INTER:                  -3.155
REMARK INTRA:                   0.000
REMARK UNBOUND:                 0.000
REMARK SMILES c1ccc2ccccc2c1
REMARK SMILES IDX 2 1 1 2 10 3 9 4 8 5 7 6 6 7 5 8 4 9 3 10
REMARK H PARENT
REMARK Flexibility Score: inf
ROOT
ATOM      1  C   UNL     1       1.748  -3.308  37.807  1.00  0.00     0.001 A 
ATOM      2  C   UNL     1       1.287  -3.759  36.567  1.00  0.00     0.001 A 
ATOM      3  C   UNL     1       0.149  -3.189  35.989  1.00  0.00     0.009 A 
ATOM      4  C   UNL     1      -0.538  -2.161  36.654  1.00  0.00    -0.018 A 
ATOM      5  C   UNL     1      -1.682  -1.580  36.086  1.00  0.00     0.009 A 
ATOM      6  C   UNL     1      -2.356  -0.557  36.758  1.00  0.00     0.001 A 
ATOM      7  C   UNL     1      -1.895  -0.106  37.997  1.00  0.00     0.001 A 
ATOM      8  C   UNL     1      -0.757  -0.676  38.575  1.00  0.00     0.009 A 
ATOM      9  C   UNL     1      -0.070  -1.704  37.910  1.00  0.00    -0.018 A 
ATOM     10  C   UNL     1       1.074  -2.285  38.479  1.00  0.00     0.009 A 
ENDROOT
TORSDOF 0
ENDMDL
MODEL 6
REMARK VINA RESULT:    -3.149      7.441      8.285
REMARK INTER + INTRA:          -3.149
REMARK INTER:                  -3.149
REMARK INTRA:                   0.000
REMARK UNBOUND:                 0.000
REMARK SMILES c1ccc2ccccc2c1
REMARK SMILES IDX 2 1 1 2 10 3 9 4 8 5 7 6 6 7 5 8 4 9 3 10
REMARK H PARENT
REMARK Flexibility Score: inf
ROOT
ATOM      1  C   UNL     1       0.804  -3.569  36.450  1.00  0.00     0.001 A 
ATOM      2  C   UNL     1       1.336  -3.204  37.689  1.00  0.00     0.001 A 
ATOM      3  C   UNL     1       0.760  -2.163  38.424  1.00  0.00     0.009 A 
ATOM      4  C   UNL     1      -0.356  -1.480  37.918  1.00  0.00    -0.018 A 
ATOM      5  C   UNL     1      -0.945  -0.433  38.645  1.00  0.00     0.009 A 
ATOM      6  C   UNL     1      -2.057   0.240  38.130  1.00  0.00     0.001 A 
ATOM      7  C   UNL     1      -2.589  -0.125  36.891  1.00  0.00     0.001 A 
ATOM      8  C   UNL     1      -2.012  -1.166  36.156  1.00  0.00     0.009 A 
ATOM      9  C   UNL     1      -0.896  -1.850  36.662  1.00  0.00    -0.018 A 
ATOM     10  C   UNL     1      -0.307  -2.896  35.935  1.00  0.00     0.009 A 
ENDROOT
TORSDOF 0
ENDMDL
MODEL 7
REMARK VINA RESULT:    -3.145      7.554      8.365
REMARK INTER + INTRA:          -3.145
REMARK INTER:                  -3.145
REMARK INTRA:                   0.000
REMARK UNBOUND:                 0.000
REMARK SMILES c1ccc2ccccc2c1
REMARK SMILES IDX 2 1 1 2 10 3 9 4 8 5 7 6 6 7 5 8 4 9 3 10
REMARK H PARENT
REMARK Flexibility Score: inf
ROOT
ATOM      1  C   UNL     1      -2.295  -0.712  36.652  1.00  0.00     0.001 A 
ATOM      2  C   UNL     1      -1.892  -0.249  37.908  1.00  0.00     0.001 A 
ATOM      3  C   UNL     1      -0.751  -0.777  38.520  1.00  0.00     0.009 A 
ATOM      4  C   UNL     1      -0.007  -1.778  37.876  1.00  0.00    -0.018 A 
ATOM      5  C   UNL     1       1.141  -2.317  38.480  1.00  0.00     0.009 A 
ATOM      6  C   UNL     1       1.874  -3.312  37.828  1.00  0.00     0.001 A 
ATOM      7  C   UNL     1       1.471  -3.775  36.573  1.00  0.00     0.001 A 
ATOM      8  C   UNL     1       0.330  -3.247  35.960  1.00  0.00     0.009 A 
ATOM      9  C   UNL     1      -0.414  -2.247  36.604  1.00  0.00    -0.018 A 
ATOM     10  C   UNL     1      -1.562  -1.708  36.001  1.00  0.00     0.009 A 
ENDROOT
TORSDOF 0
ENDMDL
MODEL 8
REMARK VINA RESULT:    -3.109      7.580      8.355
REMARK INTER + INTRA:          -3.109
REMARK INTER:                  -3.109
REMARK INTRA:                   0.000
REMARK UNBOUND:                 0.000
REMARK SMILES c1ccc2ccccc2c1
REMARK SMILES IDX 2 1 1 2 10 3 9 4 8 5 7 6 6 7 5 8 4 9 3 10
REMARK H PARENT
REMARK Flexibility Score: inf
ROOT
ATOM      1  C   UNL     1      -2.080  -0.248  37.918  1.00  0.00     0.001 A 
ATOM      2  C   UNL     1      -2.432  -0.744  36.660  1.00  0.00     0.001 A 
ATOM      3  C   UNL     1      -1.633  -1.704  36.032  1.00  0.00     0.009 A 
ATOM      4  C   UNL     1      -0.471  -2.173  36.663  1.00  0.00    -0.018 A 
ATOM      5  C   UNL     1       0.341  -3.137  36.045  1.00  0.00     0.009 A 
ATOM      6  C   UNL     1       1.496  -3.597  36.684  1.00  0.00     0.001 A 
ATOM      7  C   UNL     1       1.849  -3.101  37.942  1.00  0.00     0.001 A 
ATOM      8  C   UNL     1       1.049  -2.140  38.570  1.00  0.00     0.009 A 
ATOM      9  C   UNL     1      -0.113  -1.671  37.938  1.00  0.00    -0.018 A 
ATOM     10  C   UNL     1      -0.925  -0.707  38.557  1.00  0.00     0.009 A 
ENDROOT
TORSDOF 0
ENDMDL
MODEL 9
REMARK VINA RESULT:    -3.056      7.797      8.545
REMARK INTER + INTRA:          -3.056
REMARK INTER:                  -3.056
REMARK INTRA:                   0.000
REMARK UNBOUND:                 0.000
REMARK SMILES c1ccc2ccccc2c1
REMARK SMILES IDX 2 1 1 2 10 3 9 4 8 5 7 6 6 7 5 8 4 9 3 10
REMARK H PARENT
REMARK Flexibility Score: inf
ROOT
ATOM      1  C   UNL     1       3.082  -3.307  38.437  1.00  0.00     0.001 A 
ATOM      2  C   UNL     1       3.010  -3.998  37.225  1.00  0.00     0.001 A 
ATOM      3  C   UNL     1       1.896  -3.847  36.393  1.00  0.00     0.009 A 
ATOM      4  C   UNL     1       0.844  -3.001  36.774  1.00  0.00    -0.018 A 
ATOM      5  C   UNL     1      -0.280  -2.839  35.949  1.00  0.00     0.009 A 
ATOM      6  C   UNL     1      -1.322  -1.993  36.339  1.00  0.00     0.001 A 
ATOM      7  C   UNL     1      -1.250  -1.302  37.552  1.00  0.00     0.001 A 
ATOM      8  C   UNL     1      -0.136  -1.454  38.384  1.00  0.00     0.009 A 
ATOM      9  C   UNL     1       0.916  -2.300  38.003  1.00  0.00    -0.018 A 
ATOM     10  C   UNL     1       2.040  -2.461  38.828  1.00  0.00     0.009 A 
ENDROOT
TORSDOF 0
ENDMDL
