MODEL 1
REMARK VINA RESULT:    -5.123      0.000      0.000
REMARK INTER + INTRA:          -5.740
REMARK INTER:                  -5.422
REMARK INTRA:                  -0.317
REMARK UNBOUND:                -0.317
REMARK SMILES CC(C)[C@H]1CC[C@@H](C)[C@@H]2C=C[C@H](C)C[C@@H]21
REMARK SMILES IDX 8 1 7 2 6 3 5 4 4 5 15 6 9 7 10 8 11 9 12 10 14 11 13 12
REMARK SMILES IDX 2 13 1 14 3 15
REMARK H PARENT
REMARK Flexibility Score: inf
ROOT
ATOM      1  C   UNL     1      30.311   7.244  30.934  1.00  0.00     0.008 C 
ATOM      2  C   UNL     1      31.224   8.279  31.612  1.00  0.00    -0.007 C 
ATOM      3  C   UNL     1      32.056   7.610  32.737  1.00  0.00     0.004 C 
ATOM      4  C   UNL     1      31.460   7.871  34.118  1.00  0.00     0.004 C 
ATOM      5  C   UNL     1      31.520   9.379  34.455  1.00  0.00    -0.005 C 
ATOM      6  C   UNL     1      31.084  10.293  33.252  1.00  0.00    -0.000 C 
ATOM      7  C   UNL     1      30.390   9.503  32.109  1.00  0.00     0.018 C 
ATOM      8  C   UNL     1      30.063  10.414  30.944  1.00  0.00    -0.027 C 
ATOM      9  C   UNL     1      30.755  11.535  30.678  1.00  0.00    -0.028 C 
ATOM     10  C   UNL     1      31.781  12.117  31.629  1.00  0.00     0.008 C 
ATOM     11  C   UNL     1      32.268  11.098  32.680  1.00  0.00     0.012 C 
ATOM     12  C   UNL     1      32.965  12.688  30.845  1.00  0.00     0.012 C 
ENDROOT
BRANCH   5  13
ATOM     13  C   UNL     1      30.782   9.689  35.797  1.00  0.00    -0.014 C 
ATOM     14  C   UNL     1      29.817  10.888  35.728  1.00  0.00     0.007 C 
ATOM     15  C   UNL     1      31.775   9.871  36.957  1.00  0.00     0.007 C 
ENDBRANCH   5  13
TORSDOF 1
ENDMDL
MODEL 2
REMARK VINA RESULT:    -5.110      1.669      5.023
REMARK INTER + INTRA:          -5.726
REMARK INTER:                  -5.397
REMARK INTRA:                  -0.330
REMARK UNBOUND:                -0.317
REMARK SMILES CC(C)[C@H]1CC[C@@H](C)[C@@H]2C=C[C@H](C)C[C@@H]21
REMARK SMILES IDX 8 1 7 2 6 3 5 4 4 5 15 6 9 7 10 8 11 9 12 10 14 11 13 12
REMARK SMILES IDX 2 13 1 14 3 15
REMARK H PARENT
REMARK Flexibility Score: inf
ROOT
ATOM      1  C   UNL     1      31.985   5.906  36.688  1.00  0.00     0.008 C 
ATOM      2  C   UNL     1      31.042   6.957  36.078  1.00  0.00    -0.007 C 
ATOM      3  C   UNL     1      30.751   6.621  34.592  1.00  0.00     0.004 C 
ATOM      4  C   UNL     1      31.602   7.461  33.641  1.00  0.00     0.004 C 
ATOM      5  C   UNL     1      31.231   8.957  33.766  1.00  0.00    -0.005 C 
ATOM      6  C   UNL     1      31.070   9.425  35.258  1.00  0.00    -0.000 C 
ATOM      7  C   UNL     1      31.619   8.395  36.282  1.00  0.00     0.018 C 
ATOM      8  C   UNL     1      31.367   8.856  37.702  1.00  0.00    -0.027 C 
ATOM      9  C   UNL     1      30.355   9.676  38.034  1.00  0.00    -0.028 C 
ATOM     10  C   UNL     1      29.503  10.393  37.006  1.00  0.00     0.008 C 
ATOM     11  C   UNL     1      29.605   9.765  35.602  1.00  0.00     0.012 C 
ATOM     12  C   UNL     1      28.045  10.440  37.470  1.00  0.00     0.012 C 
ENDROOT
BRANCH   5  13
ATOM     13  C   UNL     1      32.189   9.850  32.914  1.00  0.00    -0.014 C 
ATOM     14  C   UNL     1      33.125  10.750  33.744  1.00  0.00     0.007 C 
ATOM     15  C   UNL     1      31.411  10.693  31.891  1.00  0.00     0.007 C 
ENDBRANCH   5  13
TORSDOF 1
ENDMDL
MODEL 3
REMARK VINA RESULT:    -4.885      2.029      3.210
REMARK INTER + INTRA:          -5.488
REMARK INTER:                  -5.241
REMARK INTRA:                  -0.248
REMARK UNBOUND:                -0.317
REMARK SMILES CC(C)[C@H]1CC[C@@H](C)[C@@H]2C=C[C@H](C)C[C@@H]21
REMARK SMILES IDX 8 1 7 2 6 3 5 4 4 5 15 6 9 7 10 8 11 9 12 10 14 11 13 12
REMARK SMILES IDX 2 13 1 14 3 15
REMARK H PARENT
REMARK Flexibility Score: inf
ROOT
ATOM      1  C   UNL     1      29.821   5.875  34.576  1.00  0.00     0.008 C 
ATOM      2  C   UNL     1      30.821   6.974  34.975  1.00  0.00    -0.007 C 
ATOM      3  C   UNL     1      31.563   6.580  36.278  1.00  0.00     0.004 C 
ATOM      4  C   UNL     1      30.972   7.276  37.503  1.00  0.00     0.004 C 
ATOM      5  C   UNL     1      31.176   8.805  37.404  1.00  0.00    -0.005 C 
ATOM      6  C   UNL     1      30.853   9.375  35.975  1.00  0.00    -0.000 C 
ATOM      7  C   UNL     1      30.104   8.359  35.070  1.00  0.00     0.018 C 
ATOM      8  C   UNL     1      29.889   8.927  33.683  1.00  0.00    -0.027 C 
ATOM      9  C   UNL     1      30.694   9.859  33.143  1.00  0.00    -0.028 C 
ATOM     10  C   UNL     1      31.756  10.591  33.937  1.00  0.00     0.008 C 
ATOM     11  C   UNL     1      32.121   9.874  35.252  1.00  0.00     0.012 C 
ATOM     12  C   UNL     1      33.004  10.806  33.078  1.00  0.00     0.012 C 
ENDROOT
BRANCH   5  13
ATOM     13  C   UNL     1      30.449   9.549  38.570  1.00  0.00    -0.014 C 
ATOM     14  C   UNL     1      30.896  11.011  38.767  1.00  0.00     0.007 C 
ATOM     15  C   UNL     1      30.567   8.774  39.893  1.00  0.00     0.007 C 
ENDBRANCH   5  13
TORSDOF 1
ENDMDL
MODEL 4
REMARK VINA RESULT:    -4.864      1.592      3.740
REMARK INTER + INTRA:          -5.466
REMARK INTER:                  -5.136
REMARK INTRA:                  -0.330
REMARK UNBOUND:                -0.317
REMARK SMILES CC(C)[C@H]1CC[C@@H](C)[C@@H]2C=C[C@H](C)C[C@@H]21
REMARK SMILES IDX 8 1 7 2 6 3 5 4 4 5 15 6 9 7 10 8 11 9 12 10 14 11 13 12
REMARK SMILES IDX 2 13 1 14 3 15
REMARK H PARENT
REMARK Flexibility Score: inf
ROOT
ATOM      1  C   UNL     1      32.737  12.629  30.826  1.00  0.00     0.008 C 
ATOM      2  C   UNL     1      31.839  12.022  31.917  1.00  0.00    -0.007 C 
ATOM      3  C   UNL     1      32.704  11.472  33.081  1.00  0.00     0.004 C 
ATOM      4  C   UNL     1      32.883   9.957  32.992  1.00  0.00     0.004 C 
ATOM      5  C   UNL     1      31.523   9.242  33.166  1.00  0.00    -0.005 C 
ATOM      6  C   UNL     1      30.366   9.922  32.347  1.00  0.00    -0.000 C 
ATOM      7  C   UNL     1      30.881  10.951  31.304  1.00  0.00     0.018 C 
ATOM      8  C   UNL     1      29.725  11.633  30.602  1.00  0.00    -0.027 C 
ATOM      9  C   UNL     1      28.513  11.778  31.163  1.00  0.00    -0.028 C 
ATOM     10  C   UNL     1      28.114  11.090  32.453  1.00  0.00     0.008 C 
ATOM     11  C   UNL     1      29.326  10.594  33.267  1.00  0.00     0.012 C 
ATOM     12  C   UNL     1      27.242  12.021  33.300  1.00  0.00     0.012 C 
ENDROOT
BRANCH   5  13
ATOM     13  C   UNL     1      31.658   7.704  32.930  1.00  0.00    -0.014 C 
ATOM     14  C   UNL     1      30.861   7.174  31.722  1.00  0.00     0.007 C 
ATOM     15  C   UNL     1      31.301   6.907  34.194  1.00  0.00     0.007 C 
ENDBRANCH   5  13
TORSDOF 1
ENDMDL
MODEL 5
REMARK VINA RESULT:    -4.761      1.759      4.732
REMARK INTER + INTRA:          -5.357
REMARK INTER:                  -5.029
REMARK INTRA:                  -0.327
REMARK UNBOUND:                -0.317
REMARK SMILES CC(C)[C@H]1CC[C@@H](C)[C@@H]2C=C[C@H](C)C[C@@H]21
REMARK SMILES IDX 8 1 7 2 6 3 5 4 4 5 15 6 9 7 10 8 11 9 12 10 14 11 13 12
REMARK SMILES IDX 2 13 1 14 3 15
REMARK H PARENT
REMARK Flexibility Score: inf
ROOT
ATOM      1  C   UNL     1      33.061  10.762  33.870  1.00  0.00     0.008 C 
ATOM      2  C   UNL     1      32.470  10.378  32.503  1.00  0.00    -0.007 C 
ATOM      3  C   UNL     1      32.443  11.610  31.562  1.00  0.00     0.004 C 
ATOM      4  C   UNL     1      31.056  12.248  31.498  1.00  0.00     0.004 C 
ATOM      5  C   UNL     1      30.042  11.269  30.861  1.00  0.00    -0.005 C 
ATOM      6  C   UNL     1      30.181   9.802  31.409  1.00  0.00    -0.000 C 
ATOM      7  C   UNL     1      31.069   9.708  32.680  1.00  0.00     0.018 C 
ATOM      8  C   UNL     1      31.236   8.268  33.118  1.00  0.00    -0.027 C 
ATOM      9  C   UNL     1      31.150   7.232  32.267  1.00  0.00    -0.028 C 
ATOM     10  C   UNL     1      30.666   7.376  30.838  1.00  0.00     0.008 C 
ATOM     11  C   UNL     1      30.714   8.832  30.334  1.00  0.00     0.012 C 
ATOM     12  C   UNL     1      31.472   6.460  29.913  1.00  0.00     0.012 C 
ENDROOT
BRANCH   5  13
ATOM     13  C   UNL     1      28.590  11.841  30.921  1.00  0.00    -0.014 C 
ATOM     14  C   UNL     1      27.806  11.453  32.190  1.00  0.00     0.007 C 
ATOM     15  C   UNL     1      27.785  11.468  29.665  1.00  0.00     0.007 C 
ENDBRANCH   5  13
TORSDOF 1
ENDMDL
MODEL 6
REMARK VINA RESULT:    -4.715      5.498      7.962
REMARK INTER + INTRA:          -5.309
REMARK INTER:                  -4.935
REMARK INTRA:                  -0.373
REMARK UNBOUND:                -0.317
REMARK SMILES CC(C)[C@H]1CC[C@@H](C)[C@@H]2C=C[C@H](C)C[C@@H]21
REMARK SMILES IDX 8 1 7 2 6 3 5 4 4 5 15 6 9 7 10 8 11 9 12 10 14 11 13 12
REMARK SMILES IDX 2 13 1 14 3 15
REMARK H PARENT
REMARK Flexibility Score: inf
ROOT
ATOM      1  C   UNL     1      29.924  12.172  25.821  1.00  0.00     0.008 C 
ATOM      2  C   UNL     1      29.446  10.723  25.627  1.00  0.00    -0.007 C 
ATOM      3  C   UNL     1      28.424  10.341  26.729  1.00  0.00     0.004 C 
ATOM      4  C   UNL     1      29.068   9.522  27.846  1.00  0.00     0.004 C 
ATOM      5  C   UNL     1      29.558   8.160  27.302  1.00  0.00    -0.005 C 
ATOM      6  C   UNL     1      30.302   8.284  25.922  1.00  0.00    -0.000 C 
ATOM      7  C   UNL     1      30.666   9.748  25.556  1.00  0.00     0.018 C 
ATOM      8  C   UNL     1      31.306   9.820  24.186  1.00  0.00    -0.027 C 
ATOM      9  C   UNL     1      31.069   8.914  23.222  1.00  0.00    -0.028 C 
ATOM     10  C   UNL     1      30.321   7.621  23.471  1.00  0.00     0.008 C 
ATOM     11  C   UNL     1      29.493   7.650  24.772  1.00  0.00     0.012 C 
ATOM     12  C   UNL     1      29.428   7.288  22.273  1.00  0.00     0.012 C 
ENDROOT
BRANCH   5  13
ATOM     13  C   UNL     1      30.352   7.369  28.390  1.00  0.00    -0.014 C 
ATOM     14  C   UNL     1      30.551   8.134  29.713  1.00  0.00     0.007 C 
ATOM     15  C   UNL     1      31.706   6.877  27.852  1.00  0.00     0.007 C 
ENDBRANCH   5  13
TORSDOF 1
ENDMDL
MODEL 7
REMARK VINA RESULT:    -4.638      1.919      5.342
REMARK INTER + INTRA:          -5.226
REMARK INTER:                  -4.850
REMARK INTRA:                  -0.376
REMARK UNBOUND:                -0.317
REMARK SMILES CC(C)[C@H]1CC[C@@H](C)[C@@H]2C=C[C@H](C)C[C@@H]21
REMARK SMILES IDX 8 1 7 2 6 3 5 4 4 5 15 6 9 7 10 8 11 9 12 10 14 11 13 12
REMARK SMILES IDX 2 13 1 14 3 15
REMARK H PARENT
REMARK Flexibility Score: inf
ROOT
ATOM      1  C   UNL     1      28.827  10.799  33.978  1.00  0.00     0.008 C 
ATOM      2  C   UNL     1      29.999   9.806  33.903  1.00  0.00    -0.007 C 
ATOM      3  C   UNL     1      31.053  10.293  32.874  1.00  0.00     0.004 C 
ATOM      4  C   UNL     1      30.919   9.568  31.536  1.00  0.00     0.004 C 
ATOM      5  C   UNL     1      31.228   8.062  31.705  1.00  0.00    -0.005 C 
ATOM      6  C   UNL     1      30.553   7.438  32.980  1.00  0.00    -0.000 C 
ATOM      7  C   UNL     1      29.477   8.362  33.613  1.00  0.00     0.018 C 
ATOM      8  C   UNL     1      28.917   7.751  34.880  1.00  0.00    -0.027 C 
ATOM      9  C   UNL     1      29.611   6.888  35.642  1.00  0.00    -0.028 C 
ATOM     10  C   UNL     1      30.924   6.273  35.205  1.00  0.00     0.008 C 
ATOM     11  C   UNL     1      31.592   7.046  34.050  1.00  0.00     0.012 C 
ATOM     12  C   UNL     1      31.877   6.159  36.398  1.00  0.00     0.012 C 
ENDROOT
BRANCH   5  13
ATOM     13  C   UNL     1      30.953   7.277  30.383  1.00  0.00    -0.014 C 
ATOM     14  C   UNL     1      30.253   8.103  29.287  1.00  0.00     0.007 C 
ATOM     15  C   UNL     1      30.172   5.979  30.651  1.00  0.00     0.007 C 
ENDBRANCH   5  13
TORSDOF 1
ENDMDL
MODEL 8
REMARK VINA RESULT:    -4.621      2.015      3.941
REMARK INTER + INTRA:          -5.208
REMARK INTER:                  -4.829
REMARK INTRA:                  -0.379
REMARK UNBOUND:                -0.317
REMARK SMILES CC(C)[C@H]1CC[C@@H](C)[C@@H]2C=C[C@H](C)C[C@@H]21
REMARK SMILES IDX 8 1 7 2 6 3 5 4 4 5 15 6 9 7 10 8 11 9 12 10 14 11 13 12
REMARK SMILES IDX 2 13 1 14 3 15
REMARK H PARENT
REMARK Flexibility Score: inf
ROOT
ATOM      1  C   UNL     1      31.580   5.983  36.682  1.00  0.00     0.008 C 
ATOM      2  C   UNL     1      31.538   7.488  36.368  1.00  0.00    -0.007 C 
ATOM      3  C   UNL     1      31.096   8.288  37.622  1.00  0.00     0.004 C 
ATOM      4  C   UNL     1      29.619   8.673  37.560  1.00  0.00     0.004 C 
ATOM      5  C   UNL     1      29.364   9.647  36.386  1.00  0.00    -0.005 C 
ATOM      6  C   UNL     1      30.094   9.214  35.062  1.00  0.00    -0.000 C 
ATOM      7  C   UNL     1      30.642   7.762  35.117  1.00  0.00     0.018 C 
ATOM      8  C   UNL     1      31.404   7.424  33.852  1.00  0.00    -0.027 C 
ATOM      9  C   UNL     1      32.008   8.354  33.094  1.00  0.00    -0.028 C 
ATOM     10  C   UNL     1      31.809   9.842  33.299  1.00  0.00     0.008 C 
ATOM     11  C   UNL     1      31.234  10.183  34.688  1.00  0.00     0.012 C 
ATOM     12  C   UNL     1      33.125  10.588  33.064  1.00  0.00     0.012 C 
ENDROOT
BRANCH   5  13
ATOM     13  C   UNL     1      27.839   9.937  36.212  1.00  0.00    -0.014 C 
ATOM     14  C   UNL     1      26.917   8.962  36.970  1.00  0.00     0.007 C 
ATOM     15  C   UNL     1      27.443   9.998  34.728  1.00  0.00     0.007 C 
ENDBRANCH   5  13
TORSDOF 1
ENDMDL
MODEL 9
REMARK VINA RESULT:    -4.559      1.960      4.897
REMARK INTER + INTRA:          -5.143
REMARK INTER:                  -4.796
REMARK INTRA:                  -0.347
REMARK UNBOUND:                -0.317
REMARK SMILES CC(C)[C@H]1CC[C@@H](C)[C@@H]2C=C[C@H](C)C[C@@H]21
REMARK SMILES IDX 8 1 7 2 6 3 5 4 4 5 15 6 9 7 10 8 11 9 12 10 14 11 13 12
REMARK SMILES IDX 2 13 1 14 3 15
REMARK H PARENT
REMARK Flexibility Score: inf
ROOT
ATOM      1  C   UNL     1      33.125  10.758  33.549  1.00  0.00     0.008 C 
ATOM      2  C   UNL     1      32.009   9.737  33.830  1.00  0.00    -0.007 C 
ATOM      3  C   UNL     1      31.149   9.516  32.558  1.00  0.00     0.004 C 
ATOM      4  C   UNL     1      29.844  10.309  32.608  1.00  0.00     0.004 C 
ATOM      5  C   UNL     1      28.947   9.798  33.760  1.00  0.00    -0.005 C 
ATOM      6  C   UNL     1      29.743   9.557  35.094  1.00  0.00    -0.000 C 
ATOM      7  C   UNL     1      31.168  10.173  35.073  1.00  0.00     0.018 C 
ATOM      8  C   UNL     1      31.918   9.843  36.346  1.00  0.00    -0.027 C 
ATOM      9  C   UNL     1      31.657   8.752  37.085  1.00  0.00    -0.028 C 
ATOM     10  C   UNL     1      30.454   7.863  36.847  1.00  0.00     0.008 C 
ATOM     11  C   UNL     1      29.833   8.058  35.449  1.00  0.00     0.012 C 
ATOM     12  C   UNL     1      30.828   6.395  37.068  1.00  0.00     0.012 C 
ENDROOT
BRANCH   5  13
ATOM     13  C   UNL     1      27.675  10.690  33.924  1.00  0.00    -0.014 C 
ATOM     14  C   UNL     1      27.423  11.658  32.752  1.00  0.00     0.007 C 
ATOM     15  C   UNL     1      27.695  11.460  35.255  1.00  0.00     0.007 C 
ENDBRANCH   5  13
TORSDOF 1
ENDMDL
