MODEL 1
REMARK VINA RESULT:     8.761      0.000      0.000
REMARK INTER + INTRA:          10.780
REMARK INTER:                  10.809
REMARK INTRA:                  -0.029
REMARK UNBOUND:                -0.029
REMARK SMILES O=c1c(O)c(-c2cc(O)c(O)c(O)c2)oc2cc(O)cc(O)c12
REMARK SMILES IDX 5 1 3 2 2 3 1 4 23 5 21 6 20 7 18 8 17 9 16 10 15 11 6 12
REMARK SMILES IDX 7 13 8 14 14 15 10 16 12 17 9 18 11 20 13 22 4 24 22 26
REMARK SMILES IDX 19 28
REMARK H PARENT 9 19 11 21 13 23 4 25 22 27 19 29
REMARK Flexibility Score: inf
ROOT
ATOM      1  C   UNL     1      20.060  -1.948  14.537  1.00  0.00     0.180 A 
ATOM      2  C   UNL     1      19.432  -3.066  13.963  1.00  0.00     0.208 A 
ATOM      3  C   UNL     1      18.974  -2.987  12.638  1.00  0.00     0.238 A 
ATOM      4  O   UNL     1      18.461  -4.009  12.113  1.00  0.00    -0.285 OA
ATOM      5  C   UNL     1      19.139  -1.785  11.908  1.00  0.00     0.111 A 
ATOM      6  C   UNL     1      18.678  -1.579  10.573  1.00  0.00     0.134 A 
ATOM      7  C   UNL     1      19.011  -0.394   9.903  1.00  0.00     0.093 A 
ATOM      8  C   UNL     1      19.730   0.618  10.544  1.00  0.00     0.123 A 
ATOM      9  C   UNL     1      20.132   0.451  11.866  1.00  0.00     0.094 A 
ATOM     10  C   UNL     1      19.847  -0.734  12.549  1.00  0.00     0.146 A 
ATOM     11  O   UNL     1      20.257  -0.858  13.806  1.00  0.00    -0.452 OA
ENDROOT
BRANCH   1  12
ATOM     12  C   UNL     1      20.545  -1.948  15.936  1.00  0.00     0.029 A 
ATOM     13  C   UNL     1      21.869  -1.606  16.249  1.00  0.00     0.062 A 
ATOM     14  C   UNL     1      22.319  -1.634  17.572  1.00  0.00     0.162 A 
ATOM     15  C   UNL     1      19.685  -2.353  16.966  1.00  0.00     0.062 A 
ATOM     16  C   UNL     1      21.448  -2.017  18.609  1.00  0.00     0.200 A 
ATOM     17  C   UNL     1      20.117  -2.385  18.297  1.00  0.00     0.162 A 
BRANCH  14  18
ATOM     18  O   UNL     1      23.642  -1.279  17.838  1.00  0.00    -0.504 OA
ATOM     19  H   UNL     1      24.414  -1.919  17.693  1.00  0.00     0.293 HD
ENDBRANCH  14  18
BRANCH  16  20
ATOM     20  O   UNL     1      21.935  -2.022  19.918  1.00  0.00    -0.502 OA
ATOM     21  H   UNL     1      22.900  -2.193  20.164  1.00  0.00     0.293 HD
ENDBRANCH  16  20
BRANCH  17  22
ATOM     22  O   UNL     1      19.197  -2.788  19.267  1.00  0.00    -0.504 OA
ATOM     23  H   UNL     1      19.157  -3.717  19.659  1.00  0.00     0.293 HD
ENDBRANCH  17  22
ENDBRANCH   1  12
BRANCH   2  24
ATOM     24  O   UNL     1      19.300  -4.251  14.695  1.00  0.00    -0.502 OA
ATOM     25  H   UNL     1      19.625  -5.144  14.346  1.00  0.00     0.293 HD
ENDBRANCH   2  24
BRANCH   6  26
ATOM     26  O   UNL     1      17.875  -2.485   9.875  1.00  0.00    -0.507 OA
ATOM     27  H   UNL     1      16.890  -2.624  10.039  1.00  0.00     0.293 HD
ENDBRANCH   6  26
BRANCH   8  28
ATOM     28  O   UNL     1      20.043   1.800   9.875  1.00  0.00    -0.508 OA
ATOM     29  H   UNL     1      20.070   2.691  10.358  1.00  0.00     0.293 HD
ENDBRANCH   8  28
TORSDOF 7
ENDMDL
MODEL 2
REMARK VINA RESULT:    11.755      1.037      2.146
REMARK INTER + INTRA:          14.475
REMARK INTER:                  14.537
REMARK INTRA:                  -0.062
REMARK UNBOUND:                -0.029
REMARK SMILES O=c1c(O)c(-c2cc(O)c(O)c(O)c2)oc2cc(O)cc(O)c12
REMARK SMILES IDX 5 1 3 2 2 3 1 4 23 5 21 6 20 7 18 8 17 9 16 10 15 11 6 12
REMARK SMILES IDX 7 13 8 14 14 15 10 16 12 17 9 18 11 20 13 22 4 24 22 26
REMARK SMILES IDX 19 28
REMARK H PARENT 9 19 11 21 13 23 4 25 22 27 19 29
REMARK Flexibility Score: inf
ROOT
ATOM      1  C   UNL     1      20.479  -2.423  15.519  1.00  0.00     0.180 A 
ATOM      2  C   UNL     1      19.763  -3.563  15.117  1.00  0.00     0.208 A 
ATOM      3  C   UNL     1      19.199  -3.597  13.831  1.00  0.00     0.238 A 
ATOM      4  O   UNL     1      18.606  -4.643  13.459  1.00  0.00    -0.285 OA
ATOM      5  C   UNL     1      19.347  -2.484  12.968  1.00  0.00     0.111 A 
ATOM      6  C   UNL     1      18.784  -2.394  11.661  1.00  0.00     0.134 A 
ATOM      7  C   UNL     1      19.103  -1.300  10.845  1.00  0.00     0.093 A 
ATOM      8  C   UNL     1      19.911  -0.262  11.317  1.00  0.00     0.123 A 
ATOM      9  C   UNL     1      20.416  -0.313  12.614  1.00  0.00     0.094 A 
ATOM     10  C   UNL     1      20.145  -1.408  13.437  1.00  0.00     0.146 A 
ATOM     11  O   UNL     1      20.655  -1.423  14.664  1.00  0.00    -0.452 OA
ENDROOT
BRANCH   1  12
ATOM     12  C   UNL     1      21.079  -2.303  16.867  1.00  0.00     0.029 A 
ATOM     13  C   UNL     1      20.327  -2.548  18.025  1.00  0.00     0.062 A 
ATOM     14  C   UNL     1      20.902  -2.408  19.291  1.00  0.00     0.162 A 
ATOM     15  C   UNL     1      22.410  -1.880  16.996  1.00  0.00     0.062 A 
ATOM     16  C   UNL     1      22.244  -2.007  19.420  1.00  0.00     0.200 A 
ATOM     17  C   UNL     1      23.002  -1.735  18.255  1.00  0.00     0.162 A 
BRANCH  14  18
ATOM     18  O   UNL     1      20.118  -2.669  20.416  1.00  0.00    -0.504 OA
ATOM     19  H   UNL     1      19.659  -1.933  20.939  1.00  0.00     0.293 HD
ENDBRANCH  14  18
BRANCH  16  20
ATOM     20  O   UNL     1      22.782  -1.888  20.704  1.00  0.00    -0.502 OA
ATOM     21  H   UNL     1      22.466  -1.220  21.392  1.00  0.00     0.293 HD
ENDBRANCH  16  20
BRANCH  17  22
ATOM     22  O   UNL     1      24.336  -1.321  18.300  1.00  0.00    -0.504 OA
ATOM     23  H   UNL     1      24.816  -1.050  19.145  1.00  0.00     0.293 HD
ENDBRANCH  17  22
ENDBRANCH   1  12
BRANCH   2  24
ATOM     24  O   UNL     1      19.648  -4.660  15.977  1.00  0.00    -0.502 OA
ATOM     25  H   UNL     1      19.936  -4.621  16.947  1.00  0.00     0.293 HD
ENDBRANCH   2  24
BRANCH   6  26
ATOM     26  O   UNL     1      17.892  -3.329  11.127  1.00  0.00    -0.507 OA
ATOM     27  H   UNL     1      16.913  -3.386  11.361  1.00  0.00     0.293 HD
ENDBRANCH   6  26
BRANCH   8  28
ATOM     28  O   UNL     1      20.211   0.830  10.505  1.00  0.00    -0.508 OA
ATOM     29  H   UNL     1      19.982   0.835   9.518  1.00  0.00     0.293 HD
ENDBRANCH   8  28
TORSDOF 7
ENDMDL
