MODEL 1
REMARK VINA RESULT:    -6.628      0.000      0.000
REMARK INTER + INTRA:          -7.892
REMARK INTER:                  -7.596
REMARK INTRA:                  -0.295
REMARK UNBOUND:                -0.295
REMARK SMILES O=C1C[C@H](c2ccc(O)cc2)Oc2cc(O)cc(O)c21
REMARK SMILES IDX 3 1 4 2 12 3 13 4 14 5 15 6 17 7 18 8 20 9 2 10 1 11 5 12
REMARK SMILES IDX 6 13 11 14 7 15 10 16 8 17 9 18 19 20 16 22
REMARK H PARENT 9 19 19 21 16 23
REMARK Flexibility Score: inf
ROOT
ATOM      1  C   UNL     1      29.746 -92.613  36.979  1.00  0.00     0.131 C 
ATOM      2  C   UNL     1      30.727 -91.989  37.978  1.00  0.00     0.211 C 
ATOM      3  O   UNL     1      31.915 -92.777  38.056  1.00  0.00    -0.484 OA
ATOM      4  C   UNL     1      31.867 -94.172  38.154  1.00  0.00     0.138 A 
ATOM      5  C   UNL     1      33.018 -94.859  38.547  1.00  0.00     0.093 A 
ATOM      6  C   UNL     1      32.999 -96.246  38.680  1.00  0.00     0.123 A 
ATOM      7  C   UNL     1      31.816 -96.950  38.434  1.00  0.00     0.093 A 
ATOM      8  C   UNL     1      30.648 -96.282  38.046  1.00  0.00     0.133 A 
ATOM      9  C   UNL     1      30.677 -94.872  37.852  1.00  0.00     0.102 A 
ATOM     10  C   UNL     1      29.558 -94.076  37.267  1.00  0.00     0.174 C 
ATOM     11  O   UNL     1      28.482 -94.617  36.899  1.00  0.00    -0.294 OA
ENDROOT
BRANCH   2  12
ATOM     12  C   UNL     1      31.069 -90.574  37.582  1.00  0.00    -0.007 A 
ATOM     13  C   UNL     1      30.392 -89.484  38.161  1.00  0.00     0.011 A 
ATOM     14  C   UNL     1      32.108 -90.326  36.669  1.00  0.00     0.011 A 
ATOM     15  C   UNL     1      30.734 -88.174  37.814  1.00  0.00     0.046 A 
ATOM     16  C   UNL     1      32.448 -89.015  36.323  1.00  0.00     0.046 A 
ATOM     17  C   UNL     1      31.760 -87.935  36.894  1.00  0.00     0.115 A 
BRANCH  17  18
ATOM     18  O   UNL     1      32.090 -86.624  36.556  1.00  0.00    -0.508 OA
ATOM     19  H   UNL     1      32.988 -86.225  36.800  1.00  0.00     0.293 HD
ENDBRANCH  17  18
ENDBRANCH   2  12
BRANCH   8  20
ATOM     20  O   UNL     1      29.500 -97.062  37.887  1.00  0.00    -0.507 OA
ATOM     21  H   UNL     1      29.461 -97.925  37.367  1.00  0.00     0.293 HD
ENDBRANCH   8  20
BRANCH   6  22
ATOM     22  O   UNL     1      34.158 -96.915  39.066  1.00  0.00    -0.508 OA
ATOM     23  H   UNL     1      34.923 -96.431  39.523  1.00  0.00     0.293 HD
ENDBRANCH   6  22
TORSDOF 4
ENDMDL
MODEL 2
REMARK VINA RESULT:    -5.683      1.355      2.920
REMARK INTER + INTRA:          -6.809
REMARK INTER:                  -6.509
REMARK INTRA:                  -0.299
REMARK UNBOUND:                -0.295
REMARK SMILES O=C1C[C@H](c2ccc(O)cc2)Oc2cc(O)cc(O)c21
REMARK SMILES IDX 3 1 4 2 12 3 13 4 14 5 15 6 17 7 18 8 20 9 2 10 1 11 5 12
REMARK SMILES IDX 6 13 11 14 7 15 10 16 8 17 9 18 19 20 16 22
REMARK H PARENT 9 19 19 21 16 23
REMARK Flexibility Score: inf
ROOT
ATOM      1  C   UNL     1      32.177 -92.642  38.064  1.00  0.00     0.131 C 
ATOM      2  C   UNL     1      31.292 -92.071  36.950  1.00  0.00     0.211 C 
ATOM      3  O   UNL     1      29.963 -92.581  37.070  1.00  0.00    -0.484 OA
ATOM      4  C   UNL     1      29.713 -93.936  37.310  1.00  0.00     0.138 A 
ATOM      5  C   UNL     1      28.424 -94.430  37.100  1.00  0.00     0.093 A 
ATOM      6  C   UNL     1      28.145 -95.780  37.304  1.00  0.00     0.123 A 
ATOM      7  C   UNL     1      29.167 -96.646  37.706  1.00  0.00     0.093 A 
ATOM      8  C   UNL     1      30.469 -96.175  37.915  1.00  0.00     0.133 A 
ATOM      9  C   UNL     1      30.747 -94.786  37.765  1.00  0.00     0.102 A 
ATOM     10  C   UNL     1      32.039 -94.137  38.135  1.00  0.00     0.174 C 
ATOM     11  O   UNL     1      32.997 -94.797  38.616  1.00  0.00    -0.294 OA
ENDROOT
BRANCH   2  12
ATOM     12  C   UNL     1      31.276 -90.564  36.995  1.00  0.00    -0.007 A 
ATOM     13  C   UNL     1      30.306 -89.879  37.749  1.00  0.00     0.011 A 
ATOM     14  C   UNL     1      32.269 -89.826  36.327  1.00  0.00     0.011 A 
ATOM     15  C   UNL     1      30.316 -88.483  37.813  1.00  0.00     0.046 A 
ATOM     16  C   UNL     1      32.276 -88.430  36.392  1.00  0.00     0.046 A 
ATOM     17  C   UNL     1      31.297 -87.754  37.134  1.00  0.00     0.115 A 
BRANCH  17  18
ATOM     18  O   UNL     1      31.295 -86.363  37.206  1.00  0.00    -0.508 OA
ATOM     19  H   UNL     1      32.137 -85.842  37.417  1.00  0.00     0.293 HD
ENDBRANCH  17  18
ENDBRANCH   2  12
BRANCH   8  20
ATOM     20  O   UNL     1      31.437 -97.125  38.250  1.00  0.00    -0.507 OA
ATOM     21  H   UNL     1      32.388 -97.116  37.914  1.00  0.00     0.293 HD
ENDBRANCH   8  20
BRANCH   6  22
ATOM     22  O   UNL     1      26.852 -96.253  37.097  1.00  0.00    -0.508 OA
ATOM     23  H   UNL     1      26.633 -96.876  36.327  1.00  0.00     0.293 HD
ENDBRANCH   6  22
TORSDOF 4
ENDMDL
MODEL 3
REMARK VINA RESULT:    -5.417      8.873     11.131
REMARK INTER + INTRA:          -6.504
REMARK INTER:                  -6.197
REMARK INTRA:                  -0.307
REMARK UNBOUND:                -0.295
REMARK SMILES O=C1C[C@H](c2ccc(O)cc2)Oc2cc(O)cc(O)c21
REMARK SMILES IDX 3 1 4 2 12 3 13 4 14 5 15 6 17 7 18 8 20 9 2 10 1 11 5 12
REMARK SMILES IDX 6 13 11 14 7 15 10 16 8 17 9 18 19 20 16 22
REMARK H PARENT 9 19 19 21 16 23
REMARK Flexibility Score: inf
ROOT
ATOM      1  C   UNL     1      41.797 -95.499  34.988  1.00  0.00     0.131 C 
ATOM      2  C   UNL     1      40.773 -94.602  35.694  1.00  0.00     0.211 C 
ATOM      3  O   UNL     1      39.465 -94.850  35.177  1.00  0.00    -0.484 OA
ATOM      4  C   UNL     1      39.225 -94.957  33.803  1.00  0.00     0.138 A 
ATOM      5  C   UNL     1      37.910 -94.876  33.341  1.00  0.00     0.093 A 
ATOM      6  C   UNL     1      37.636 -94.952  31.977  1.00  0.00     0.123 A 
ATOM      7  C   UNL     1      38.688 -95.094  31.066  1.00  0.00     0.093 A 
ATOM      8  C   UNL     1      40.016 -95.169  31.505  1.00  0.00     0.133 A 
ATOM      9  C   UNL     1      40.296 -95.151  32.901  1.00  0.00     0.102 A 
ATOM     10  C   UNL     1      41.640 -95.407  33.496  1.00  0.00     0.174 C 
ATOM     11  O   UNL     1      42.644 -95.661  32.780  1.00  0.00    -0.294 OA
ENDROOT
BRANCH   2  12
ATOM     12  C   UNL     1      40.794 -94.833  37.185  1.00  0.00    -0.007 A 
ATOM     13  C   UNL     1      41.943 -95.344  37.815  1.00  0.00     0.011 A 
ATOM     14  C   UNL     1      39.681 -94.486  37.970  1.00  0.00     0.011 A 
ATOM     15  C   UNL     1      41.967 -95.527  39.200  1.00  0.00     0.046 A 
ATOM     16  C   UNL     1      39.708 -94.670  39.355  1.00  0.00     0.046 A 
ATOM     17  C   UNL     1      40.852 -95.192  39.974  1.00  0.00     0.115 A 
BRANCH  17  18
ATOM     18  O   UNL     1      40.890 -95.380  41.354  1.00  0.00    -0.508 OA
ATOM     19  H   UNL     1      40.741 -96.292  41.769  1.00  0.00     0.293 HD
ENDBRANCH  17  18
ENDBRANCH   2  12
BRANCH   8  20
ATOM     20  O   UNL     1      41.002 -95.243  30.518  1.00  0.00    -0.507 OA
ATOM     21  H   UNL     1      41.530 -94.454  30.177  1.00  0.00     0.293 HD
ENDBRANCH   8  20
BRANCH   6  22
ATOM     22  O   UNL     1      36.318 -94.877  31.535  1.00  0.00    -0.508 OA
ATOM     23  H   UNL     1      35.637 -94.284  31.996  1.00  0.00     0.293 HD
ENDBRANCH   6  22
TORSDOF 4
ENDMDL
MODEL 4
REMARK VINA RESULT:    -5.331      9.452     10.900
REMARK INTER + INTRA:          -6.406
REMARK INTER:                  -6.107
REMARK INTRA:                  -0.299
REMARK UNBOUND:                -0.295
REMARK SMILES O=C1C[C@H](c2ccc(O)cc2)Oc2cc(O)cc(O)c21
REMARK SMILES IDX 3 1 4 2 12 3 13 4 14 5 15 6 17 7 18 8 20 9 2 10 1 11 5 12
REMARK SMILES IDX 6 13 11 14 7 15 10 16 8 17 9 18 19 20 16 22
REMARK H PARENT 9 19 19 21 16 23
REMARK Flexibility Score: inf
ROOT
ATOM      1  C   UNL     1      38.305 -96.306  30.154  1.00  0.00     0.131 C 
ATOM      2  C   UNL     1      37.938 -94.990  30.850  1.00  0.00     0.211 C 
ATOM      3  O   UNL     1      36.522 -94.807  30.839  1.00  0.00    -0.484 OA
ATOM      4  C   UNL     1      35.759 -95.035  29.689  1.00  0.00     0.138 A 
ATOM      5  C   UNL     1      34.454 -94.540  29.639  1.00  0.00     0.093 A 
ATOM      6  C   UNL     1      33.675 -94.726  28.498  1.00  0.00     0.123 A 
ATOM      7  C   UNL     1      34.210 -95.396  27.394  1.00  0.00     0.093 A 
ATOM      8  C   UNL     1      35.519 -95.893  27.418  1.00  0.00     0.133 A 
ATOM      9  C   UNL     1      36.300 -95.758  28.601  1.00  0.00     0.102 A 
ATOM     10  C   UNL     1      37.629 -96.402  28.814  1.00  0.00     0.174 C 
ATOM     11  O   UNL     1      38.163 -97.125  27.934  1.00  0.00    -0.294 OA
ENDROOT
BRANCH   2  12
ATOM     12  C   UNL     1      38.454 -94.970  32.267  1.00  0.00    -0.007 A 
ATOM     13  C   UNL     1      39.744 -94.488  32.554  1.00  0.00     0.011 A 
ATOM     14  C   UNL     1      37.626 -95.382  33.327  1.00  0.00     0.011 A 
ATOM     15  C   UNL     1      40.205 -94.444  33.873  1.00  0.00     0.046 A 
ATOM     16  C   UNL     1      38.090 -95.337  34.644  1.00  0.00     0.046 A 
ATOM     17  C   UNL     1      39.382 -94.868  34.921  1.00  0.00     0.115 A 
BRANCH  17  18
ATOM     18  O   UNL     1      39.854 -94.819  36.231  1.00  0.00    -0.508 OA
ATOM     19  H   UNL     1      39.546 -94.103  36.878  1.00  0.00     0.293 HD
ENDBRANCH  17  18
ENDBRANCH   2  12
BRANCH   8  20
ATOM     20  O   UNL     1      35.989 -96.488  26.245  1.00  0.00    -0.507 OA
ATOM     21  H   UNL     1      36.952 -96.478  25.944  1.00  0.00     0.293 HD
ENDBRANCH   8  20
BRANCH   6  22
ATOM     22  O   UNL     1      32.373 -94.233  28.468  1.00  0.00    -0.508 OA
ATOM     23  H   UNL     1      32.169 -93.291  28.152  1.00  0.00     0.293 HD
ENDBRANCH   6  22
TORSDOF 4
ENDMDL
MODEL 5
REMARK VINA RESULT:    -5.318      9.594     11.406
REMARK INTER + INTRA:          -6.390
REMARK INTER:                  -6.081
REMARK INTRA:                  -0.309
REMARK UNBOUND:                -0.295
REMARK SMILES O=C1C[C@H](c2ccc(O)cc2)Oc2cc(O)cc(O)c21
REMARK SMILES IDX 3 1 4 2 12 3 13 4 14 5 15 6 17 7 18 8 20 9 2 10 1 11 5 12
REMARK SMILES IDX 6 13 11 14 7 15 10 16 8 17 9 18 19 20 16 22
REMARK H PARENT 9 19 19 21 16 23
REMARK Flexibility Score: inf
ROOT
ATOM      1  C   UNL     1      40.783 -95.774  31.571  1.00  0.00     0.131 C 
ATOM      2  C   UNL     1      40.133 -94.712  32.466  1.00  0.00     0.211 C 
ATOM      3  O   UNL     1      38.718 -94.900  32.503  1.00  0.00    -0.484 OA
ATOM      4  C   UNL     1      37.978 -95.146  31.342  1.00  0.00     0.138 A 
ATOM      5  C   UNL     1      36.590 -95.001  31.386  1.00  0.00     0.093 A 
ATOM      6  C   UNL     1      35.824 -95.213  30.241  1.00  0.00     0.123 A 
ATOM      7  C   UNL     1      36.452 -95.554  29.039  1.00  0.00     0.093 A 
ATOM      8  C   UNL     1      37.843 -95.697  28.969  1.00  0.00     0.133 A 
ATOM      9  C   UNL     1      38.626 -95.540  30.148  1.00  0.00     0.102 A 
ATOM     10  C   UNL     1      40.084 -95.844  30.242  1.00  0.00     0.174 C 
ATOM     11  O   UNL     1      40.736 -96.269  29.253  1.00  0.00    -0.294 OA
ENDROOT
BRANCH   2  12
ATOM     12  C   UNL     1      40.701 -94.767  33.863  1.00  0.00    -0.007 A 
ATOM     13  C   UNL     1      42.077 -94.974  34.070  1.00  0.00     0.011 A 
ATOM     14  C   UNL     1      39.866 -94.555  34.974  1.00  0.00     0.011 A 
ATOM     15  C   UNL     1      42.602 -94.993  35.365  1.00  0.00     0.046 A 
ATOM     16  C   UNL     1      40.394 -94.576  36.268  1.00  0.00     0.046 A 
ATOM     17  C   UNL     1      41.764 -94.796  36.467  1.00  0.00     0.115 A 
BRANCH  17  18
ATOM     18  O   UNL     1      42.300 -94.818  37.753  1.00  0.00    -0.508 OA
ATOM     19  H   UNL     1      42.642 -95.675  38.169  1.00  0.00     0.293 HD
ENDBRANCH  17  18
ENDBRANCH   2  12
BRANCH   8  20
ATOM     20  O   UNL     1      38.386 -95.974  27.712  1.00  0.00    -0.507 OA
ATOM     21  H   UNL     1      38.899 -95.311  27.151  1.00  0.00     0.293 HD
ENDBRANCH   8  20
BRANCH   6  22
ATOM     22  O   UNL     1      34.440 -95.072  30.305  1.00  0.00    -0.508 OA
ATOM     23  H   UNL     1      33.820 -95.668  29.767  1.00  0.00     0.293 HD
ENDBRANCH   6  22
TORSDOF 4
ENDMDL
MODEL 6
REMARK VINA RESULT:    -5.291     15.751     16.985
REMARK INTER + INTRA:          -6.360
REMARK INTER:                  -6.066
REMARK INTRA:                  -0.294
REMARK UNBOUND:                -0.295
REMARK SMILES O=C1C[C@H](c2ccc(O)cc2)Oc2cc(O)cc(O)c21
REMARK SMILES IDX 3 1 4 2 12 3 13 4 14 5 15 6 17 7 18 8 20 9 2 10 1 11 5 12
REMARK SMILES IDX 6 13 11 14 7 15 10 16 8 17 9 18 19 20 16 22
REMARK H PARENT 9 19 19 21 16 23
REMARK Flexibility Score: inf
ROOT
ATOM      1  C   UNL     1      35.797 -77.647  38.431  1.00  0.00     0.131 C 
ATOM      2  C   UNL     1      37.117 -78.353  38.099  1.00  0.00     0.211 C 
ATOM      3  O   UNL     1      37.660 -77.833  36.886  1.00  0.00    -0.484 OA
ATOM      4  C   UNL     1      36.866 -77.624  35.753  1.00  0.00     0.138 A 
ATOM      5  C   UNL     1      37.492 -77.427  34.521  1.00  0.00     0.093 A 
ATOM      6  C   UNL     1      36.732 -77.242  33.367  1.00  0.00     0.123 A 
ATOM      7  C   UNL     1      35.336 -77.273  33.444  1.00  0.00     0.093 A 
ATOM      8  C   UNL     1      34.687 -77.478  34.668  1.00  0.00     0.133 A 
ATOM      9  C   UNL     1      35.457 -77.608  35.859  1.00  0.00     0.102 A 
ATOM     10  C   UNL     1      34.884 -77.645  37.236  1.00  0.00     0.174 C 
ATOM     11  O   UNL     1      33.645 -77.565  37.440  1.00  0.00    -0.294 OA
ENDROOT
BRANCH   2  12
ATOM     12  C   UNL     1      38.109 -78.192  39.224  1.00  0.00    -0.007 A 
ATOM     13  C   UNL     1      38.325 -79.235  40.144  1.00  0.00     0.011 A 
ATOM     14  C   UNL     1      38.870 -77.016  39.333  1.00  0.00     0.011 A 
ATOM     15  C   UNL     1      39.268 -79.092  41.166  1.00  0.00     0.046 A 
ATOM     16  C   UNL     1      39.812 -76.876  40.356  1.00  0.00     0.046 A 
ATOM     17  C   UNL     1      40.012 -77.913  41.276  1.00  0.00     0.115 A 
BRANCH  17  18
ATOM     18  O   UNL     1      40.949 -77.784  42.300  1.00  0.00    -0.508 OA
ATOM     19  H   UNL     1      40.679 -77.843  43.274  1.00  0.00     0.293 HD
ENDBRANCH  17  18
ENDBRANCH   2  12
BRANCH   8  20
ATOM     20  O   UNL     1      33.292 -77.559  34.636  1.00  0.00    -0.507 OA
ATOM     21  H   UNL     1      32.670 -76.866  35.024  1.00  0.00     0.293 HD
ENDBRANCH   8  20
BRANCH   6  22
ATOM     22  O   UNL     1      37.372 -77.039  32.148  1.00  0.00    -0.508 OA
ATOM     23  H   UNL     1      38.067 -77.689  31.798  1.00  0.00     0.293 HD
ENDBRANCH   6  22
TORSDOF 4
ENDMDL
MODEL 7
REMARK VINA RESULT:    -5.291     15.845     17.118
REMARK INTER + INTRA:          -6.360
REMARK INTER:                  -6.042
REMARK INTRA:                  -0.317
REMARK UNBOUND:                -0.295
REMARK SMILES O=C1C[C@H](c2ccc(O)cc2)Oc2cc(O)cc(O)c21
REMARK SMILES IDX 3 1 4 2 12 3 13 4 14 5 15 6 17 7 18 8 20 9 2 10 1 11 5 12
REMARK SMILES IDX 6 13 11 14 7 15 10 16 8 17 9 18 19 20 16 22
REMARK H PARENT 9 19 19 21 16 23
REMARK Flexibility Score: inf
ROOT
ATOM      1  C   UNL     1      36.072 -77.462  33.942  1.00  0.00     0.131 C 
ATOM      2  C   UNL     1      37.510 -76.954  34.108  1.00  0.00     0.211 C 
ATOM      3  O   UNL     1      38.150 -77.637  35.187  1.00  0.00    -0.484 OA
ATOM      4  C   UNL     1      37.509 -77.839  36.414  1.00  0.00     0.138 A 
ATOM      5  C   UNL     1      38.275 -78.214  37.519  1.00  0.00     0.093 A 
ATOM      6  C   UNL     1      37.674 -78.399  38.762  1.00  0.00     0.123 A 
ATOM      7  C   UNL     1      36.299 -78.190  38.906  1.00  0.00     0.093 A 
ATOM      8  C   UNL     1      35.512 -77.805  37.813  1.00  0.00     0.133 A 
ATOM      9  C   UNL     1      36.110 -77.672  36.528  1.00  0.00     0.102 A 
ATOM     10  C   UNL     1      35.352 -77.450  35.262  1.00  0.00     0.174 C 
ATOM     11  O   UNL     1      34.097 -77.360  35.249  1.00  0.00    -0.294 OA
ENDROOT
BRANCH   2  12
ATOM     12  C   UNL     1      38.296 -77.143  32.835  1.00  0.00    -0.007 A 
ATOM     13  C   UNL     1      39.615 -77.631  32.872  1.00  0.00     0.011 A 
ATOM     14  C   UNL     1      37.698 -76.883  31.590  1.00  0.00     0.011 A 
ATOM     15  C   UNL     1      40.327 -77.833  31.686  1.00  0.00     0.046 A 
ATOM     16  C   UNL     1      38.413 -77.085  30.406  1.00  0.00     0.046 A 
ATOM     17  C   UNL     1      39.731 -77.560  30.452  1.00  0.00     0.115 A 
BRANCH  17  18
ATOM     18  O   UNL     1      40.453 -77.765  29.278  1.00  0.00    -0.508 OA
ATOM     19  H   UNL     1      40.888 -78.656  29.073  1.00  0.00     0.293 HD
ENDBRANCH  17  18
ENDBRANCH   2  12
BRANCH   8  20
ATOM     20  O   UNL     1      34.161 -77.555  38.067  1.00  0.00    -0.507 OA
ATOM     21  H   UNL     1      33.396 -78.054  37.638  1.00  0.00     0.293 HD
ENDBRANCH   8  20
BRANCH   6  22
ATOM     22  O   UNL     1      38.453 -78.780  39.852  1.00  0.00    -0.508 OA
ATOM     23  H   UNL     1      39.053 -78.120  40.333  1.00  0.00     0.293 HD
ENDBRANCH   6  22
TORSDOF 4
ENDMDL
MODEL 8
REMARK VINA RESULT:    -5.271      9.727     11.005
REMARK INTER + INTRA:          -6.337
REMARK INTER:                  -6.049
REMARK INTRA:                  -0.288
REMARK UNBOUND:                -0.295
REMARK SMILES O=C1C[C@H](c2ccc(O)cc2)Oc2cc(O)cc(O)c21
REMARK SMILES IDX 3 1 4 2 12 3 13 4 14 5 15 6 17 7 18 8 20 9 2 10 1 11 5 12
REMARK SMILES IDX 6 13 11 14 7 15 10 16 8 17 9 18 19 20 16 22
REMARK H PARENT 9 19 19 21 16 23
REMARK Flexibility Score: inf
ROOT
ATOM      1  C   UNL     1      37.375 -95.595  28.497  1.00  0.00     0.131 C 
ATOM      2  C   UNL     1      36.280 -95.976  29.501  1.00  0.00     0.211 C 
ATOM      3  O   UNL     1      36.456 -95.250  30.717  1.00  0.00    -0.484 OA
ATOM      4  C   UNL     1      37.711 -95.116  31.321  1.00  0.00     0.138 A 
ATOM      5  C   UNL     1      37.777 -94.685  32.647  1.00  0.00     0.093 A 
ATOM      6  C   UNL     1      39.009 -94.565  33.288  1.00  0.00     0.123 A 
ATOM      7  C   UNL     1      40.182 -94.895  32.602  1.00  0.00     0.093 A 
ATOM      8  C   UNL     1      40.139 -95.338  31.274  1.00  0.00     0.133 A 
ATOM      9  C   UNL     1      38.889 -95.406  30.596  1.00  0.00     0.102 A 
ATOM     10  C   UNL     1      38.733 -95.682  29.138  1.00  0.00     0.174 C 
ATOM     11  O   UNL     1      39.726 -95.882  28.391  1.00  0.00    -0.294 OA
ENDROOT
BRANCH   2  12
ATOM     12  C   UNL     1      34.911 -95.708  28.928  1.00  0.00    -0.007 A 
ATOM     13  C   UNL     1      34.471 -94.390  28.707  1.00  0.00     0.011 A 
ATOM     14  C   UNL     1      34.078 -96.778  28.557  1.00  0.00     0.011 A 
ATOM     15  C   UNL     1      33.213 -94.149  28.147  1.00  0.00     0.046 A 
ATOM     16  C   UNL     1      32.820 -96.533  27.998  1.00  0.00     0.046 A 
ATOM     17  C   UNL     1      32.384 -95.217  27.793  1.00  0.00     0.115 A 
BRANCH  17  18
ATOM     18  O   UNL     1      31.132 -94.962  27.237  1.00  0.00    -0.508 OA
ATOM     19  H   UNL     1      30.631 -95.671  26.715  1.00  0.00     0.293 HD
ENDBRANCH  17  18
ENDBRANCH   2  12
BRANCH   8  20
ATOM     20  O   UNL     1      41.355 -95.708  30.694  1.00  0.00    -0.507 OA
ATOM     21  H   UNL     1      41.456 -96.073  29.759  1.00  0.00     0.293 HD
ENDBRANCH   8  20
BRANCH   6  22
ATOM     22  O   UNL     1      39.056 -94.126  34.608  1.00  0.00    -0.508 OA
ATOM     23  H   UNL     1      39.537 -94.657  35.327  1.00  0.00     0.293 HD
ENDBRANCH   6  22
TORSDOF 4
ENDMDL
MODEL 9
REMARK VINA RESULT:    -5.175     15.484     16.485
REMARK INTER + INTRA:          -6.226
REMARK INTER:                  -5.918
REMARK INTRA:                  -0.309
REMARK UNBOUND:                -0.295
REMARK SMILES O=C1C[C@H](c2ccc(O)cc2)Oc2cc(O)cc(O)c21
REMARK SMILES IDX 3 1 4 2 12 3 13 4 14 5 15 6 17 7 18 8 20 9 2 10 1 11 5 12
REMARK SMILES IDX 6 13 11 14 7 15 10 16 8 17 9 18 19 20 16 22
REMARK H PARENT 9 19 19 21 16 23
REMARK Flexibility Score: inf
ROOT
ATOM      1  C   UNL     1      38.186 -77.368  36.681  1.00  0.00     0.131 C 
ATOM      2  C   UNL     1      37.131 -78.423  37.036  1.00  0.00     0.211 C 
ATOM      3  O   UNL     1      37.115 -78.646  38.446  1.00  0.00    -0.484 OA
ATOM      4  C   UNL     1      38.296 -78.803  39.180  1.00  0.00     0.138 A 
ATOM      5  C   UNL     1      38.220 -79.332  40.470  1.00  0.00     0.093 A 
ATOM      6  C   UNL     1      39.379 -79.526  41.220  1.00  0.00     0.123 A 
ATOM      7  C   UNL     1      40.623 -79.205  40.669  1.00  0.00     0.093 A 
ATOM      8  C   UNL     1      40.724 -78.682  39.374  1.00  0.00     0.133 A 
ATOM      9  C   UNL     1      39.540 -78.426  38.625  1.00  0.00     0.102 A 
ATOM     10  C   UNL     1      39.505 -77.705  37.319  1.00  0.00     0.174 C 
ATOM     11  O   UNL     1      40.552 -77.265  36.777  1.00  0.00    -0.294 OA
ENDROOT
BRANCH   2  12
ATOM     12  C   UNL     1      35.764 -77.996  36.562  1.00  0.00    -0.007 A 
ATOM     13  C   UNL     1      35.552 -77.633  35.219  1.00  0.00     0.011 A 
ATOM     14  C   UNL     1      34.672 -78.010  37.447  1.00  0.00     0.011 A 
ATOM     15  C   UNL     1      34.277 -77.267  34.779  1.00  0.00     0.046 A 
ATOM     16  C   UNL     1      33.398 -77.643  37.004  1.00  0.00     0.046 A 
ATOM     17  C   UNL     1      33.198 -77.270  35.668  1.00  0.00     0.115 A 
BRANCH  17  18
ATOM     18  O   UNL     1      31.932 -76.903  35.216  1.00  0.00    -0.508 OA
ATOM     19  H   UNL     1      31.789 -76.537  34.283  1.00  0.00     0.293 HD
ENDBRANCH  17  18
ENDBRANCH   2  12
BRANCH   8  20
ATOM     20  O   UNL     1      42.013 -78.454  38.885  1.00  0.00    -0.507 OA
ATOM     21  H   UNL     1      42.857 -78.806  39.311  1.00  0.00     0.293 HD
ENDBRANCH   8  20
BRANCH   6  22
ATOM     22  O   UNL     1      39.284 -80.047  42.508  1.00  0.00    -0.508 OA
ATOM     23  H   UNL     1      38.948 -80.988  42.676  1.00  0.00     0.293 HD
ENDBRANCH   6  22
TORSDOF 4
ENDMDL
