MODEL 1
REMARK VINA RESULT:    -5.395      0.000      0.000
REMARK INTER + INTRA:          -8.692
REMARK INTER:                  -8.234
REMARK INTRA:                  -0.458
REMARK UNBOUND:                -0.458
REMARK SMILES CCCCCCCCCC=CC(=O)[O-]
REMARK SMILES IDX 7 1 8 2 9 3 10 4 11 5 12 6 13 7 14 8 6 9 5 10 4 11 3 12 2 13
REMARK SMILES IDX 1 14
REMARK H PARENT
REMARK Flexibility Score: inf
ROOT
ATOM      1  C   UNL     1      -3.586   5.907   4.489  1.00  0.00     0.000 C 
ENDROOT
BRANCH   1   2
ATOM      2  C   UNL     1      -2.427   5.001   4.919  1.00  0.00     0.004 C 
BRANCH   2   3
ATOM      3  C   UNL     1      -2.921   3.868   5.827  1.00  0.00     0.027 C 
BRANCH   3   4
ATOM      4  C   UNL     1      -1.784   3.244   6.585  1.00  0.00    -0.025 C 
ATOM      5  C   UNL     1      -1.885   2.962   7.887  1.00  0.00     0.020 C 
BRANCH   5   6
ATOM      6  C   UNL     1      -0.785   2.337   8.638  1.00  0.00     0.064 C 
ATOM      7  O   UNL     1      -0.328   1.226   8.262  1.00  0.00    -0.545 OA
ATOM      8  O   UNL     1      -0.243   2.955   9.759  1.00  0.00    -0.545 OA
ENDBRANCH   5   6
ENDBRANCH   3   4
ENDBRANCH   2   3
ENDBRANCH   1   2
BRANCH   1   9
ATOM      9  C   UNL     1      -3.293   7.374   4.824  1.00  0.00     0.000 C 
BRANCH   9  10
ATOM     10  C   UNL     1      -4.203   7.875   5.951  1.00  0.00     0.000 C 
BRANCH  10  11
ATOM     11  C   UNL     1      -5.011   6.722   6.564  1.00  0.00    -0.000 C 
BRANCH  11  12
ATOM     12  C   UNL     1      -5.754   7.146   7.848  1.00  0.00    -0.000 C 
BRANCH  12  13
ATOM     13  C   UNL     1      -6.921   6.216   8.221  1.00  0.00    -0.003 C 
ATOM     14  C   UNL     1      -6.521   5.125   9.212  1.00  0.00     0.004 C 
ENDBRANCH  12  13
ENDBRANCH  11  12
ENDBRANCH  10  11
ENDBRANCH   9  10
ENDBRANCH   1   9
TORSDOF 9
ENDMDL
MODEL 2
REMARK VINA RESULT:    -5.124      2.957      5.343
REMARK INTER + INTRA:          -8.278
REMARK INTER:                  -7.611
REMARK INTRA:                  -0.666
REMARK UNBOUND:                -0.458
REMARK SMILES CCCCCCCCCC=CC(=O)[O-]
REMARK SMILES IDX 7 1 8 2 9 3 10 4 11 5 12 6 13 7 14 8 6 9 5 10 4 11 3 12 2 13
REMARK SMILES IDX 1 14
REMARK H PARENT
REMARK Flexibility Score: inf
ROOT
ATOM      1  C   UNL     1      -2.812   6.591   4.066  1.00  0.00     0.000 C 
ENDROOT
BRANCH   1   2
ATOM      2  C   UNL     1      -4.127   6.770   4.834  1.00  0.00     0.004 C 
BRANCH   2   3
ATOM      3  C   UNL     1      -4.061   7.987   5.764  1.00  0.00     0.027 C 
BRANCH   3   4
ATOM      4  C   UNL     1      -4.811   7.737   7.041  1.00  0.00    -0.025 C 
ATOM      5  C   UNL     1      -5.522   6.621   7.226  1.00  0.00     0.020 C 
BRANCH   5   6
ATOM      6  C   UNL     1      -6.249   6.356   8.477  1.00  0.00     0.064 C 
ATOM      7  O   UNL     1      -6.991   5.343   8.561  1.00  0.00    -0.545 OA
ATOM      8  O   UNL     1      -6.130   7.210   9.568  1.00  0.00    -0.545 OA
ENDBRANCH   5   6
ENDBRANCH   3   4
ENDBRANCH   2   3
ENDBRANCH   1   2
BRANCH   1   9
ATOM      9  C   UNL     1      -2.102   5.299   4.482  1.00  0.00     0.000 C 
BRANCH   9  10
ATOM     10  C   UNL     1      -2.943   4.507   5.490  1.00  0.00     0.000 C 
BRANCH  10  11
ATOM     11  C   UNL     1      -2.174   3.283   6.010  1.00  0.00    -0.000 C 
BRANCH  11  12
ATOM     12  C   UNL     1      -2.104   3.250   7.552  1.00  0.00    -0.000 C 
BRANCH  12  13
ATOM     13  C   UNL     1      -0.945   2.398   8.097  1.00  0.00    -0.003 C 
ATOM     14  C   UNL     1      -0.962   2.272   9.619  1.00  0.00     0.004 C 
ENDBRANCH  12  13
ENDBRANCH  11  12
ENDBRANCH  10  11
ENDBRANCH   9  10
ENDBRANCH   1   9
TORSDOF 9
ENDMDL
MODEL 3
REMARK VINA RESULT:    -4.437     13.392     14.057
REMARK INTER + INTRA:          -7.229
REMARK INTER:                  -6.181
REMARK INTRA:                  -1.049
REMARK UNBOUND:                -0.458
REMARK SMILES CCCCCCCCCC=CC(=O)[O-]
REMARK SMILES IDX 7 1 8 2 9 3 10 4 11 5 12 6 13 7 14 8 6 9 5 10 4 11 3 12 2 13
REMARK SMILES IDX 1 14
REMARK H PARENT
REMARK Flexibility Score: inf
ROOT
ATOM      1  C   UNL     1       6.159  10.473  -1.167  1.00  0.00     0.000 C 
ENDROOT
BRANCH   1   2
ATOM      2  C   UNL     1       5.864   9.141  -1.868  1.00  0.00     0.004 C 
BRANCH   2   3
ATOM      3  C   UNL     1       7.154   8.347  -2.108  1.00  0.00     0.027 C 
BRANCH   3   4
ATOM      4  C   UNL     1       7.023   6.935  -1.615  1.00  0.00    -0.025 C 
ATOM      5  C   UNL     1       8.081   6.124  -1.528  1.00  0.00     0.020 C 
BRANCH   5   6
ATOM      6  C   UNL     1       7.969   4.743  -1.033  1.00  0.00     0.064 C 
ATOM      7  O   UNL     1       8.998   4.021  -0.969  1.00  0.00    -0.545 OA
ATOM      8  O   UNL     1       6.743   4.224  -0.634  1.00  0.00    -0.545 OA
ENDBRANCH   5   6
ENDBRANCH   3   4
ENDBRANCH   2   3
ENDBRANCH   1   2
BRANCH   1   9
ATOM      9  C   UNL     1       7.610  10.527  -0.676  1.00  0.00     0.000 C 
BRANCH   9  10
ATOM     10  C   UNL     1       7.680  10.948   0.796  1.00  0.00     0.000 C 
BRANCH  10  11
ATOM     11  C   UNL     1       8.830  10.234   1.522  1.00  0.00    -0.000 C 
BRANCH  11  12
ATOM     12  C   UNL     1       9.140   8.853   0.906  1.00  0.00    -0.000 C 
BRANCH  12  13
ATOM     13  C   UNL     1       9.196   7.716   1.941  1.00  0.00    -0.003 C 
ATOM     14  C   UNL     1       9.221   8.220   3.382  1.00  0.00     0.004 C 
ENDBRANCH  12  13
ENDBRANCH  11  12
ENDBRANCH  10  11
ENDBRANCH   9  10
ENDBRANCH   1   9
TORSDOF 9
ENDMDL
MODEL 4
REMARK VINA RESULT:    -4.366     12.945     14.510
REMARK INTER + INTRA:          -7.122
REMARK INTER:                  -6.403
REMARK INTRA:                  -0.719
REMARK UNBOUND:                -0.458
REMARK SMILES CCCCCCCCCC=CC(=O)[O-]
REMARK SMILES IDX 7 1 8 2 9 3 10 4 11 5 12 6 13 7 14 8 6 9 5 10 4 11 3 12 2 13
REMARK SMILES IDX 1 14
REMARK H PARENT
REMARK Flexibility Score: inf
ROOT
ATOM      1  C   UNL     1       7.700   5.893  -1.391  1.00  0.00     0.000 C 
ENDROOT
BRANCH   1   2
ATOM      2  C   UNL     1       7.097   6.966  -2.306  1.00  0.00     0.004 C 
BRANCH   2   3
ATOM      3  C   UNL     1       7.658   8.354  -1.970  1.00  0.00     0.027 C 
BRANCH   3   4
ATOM      4  C   UNL     1       6.585   9.402  -2.029  1.00  0.00    -0.025 C 
ATOM      5  C   UNL     1       5.294   9.089  -1.887  1.00  0.00     0.020 C 
BRANCH   5   6
ATOM      6  C   UNL     1       4.233  10.108  -1.927  1.00  0.00     0.064 C 
ATOM      7  O   UNL     1       3.498  10.279  -0.920  1.00  0.00    -0.545 OA
ATOM      8  O   UNL     1       4.030  10.884  -3.062  1.00  0.00    -0.545 OA
ENDBRANCH   5   6
ENDBRANCH   3   4
ENDBRANCH   2   3
ENDBRANCH   1   2
BRANCH   1   9
ATOM      9  C   UNL     1       8.813   6.478  -0.514  1.00  0.00     0.000 C 
BRANCH   9  10
ATOM     10  C   UNL     1       9.053   5.608   0.725  1.00  0.00     0.000 C 
BRANCH  10  11
ATOM     11  C   UNL     1       9.536   6.457   1.911  1.00  0.00    -0.000 C 
BRANCH  11  12
ATOM     12  C   UNL     1       9.242   7.959   1.712  1.00  0.00    -0.000 C 
BRANCH  12  13
ATOM     13  C   UNL     1       9.121   8.743   3.030  1.00  0.00    -0.003 C 
ATOM     14  C   UNL     1       9.366   7.878   4.264  1.00  0.00     0.004 C 
ENDBRANCH  12  13
ENDBRANCH  11  12
ENDBRANCH  10  11
ENDBRANCH   9  10
ENDBRANCH   1   9
TORSDOF 9
ENDMDL
MODEL 5
REMARK VINA RESULT:    -4.363     14.759     16.123
REMARK INTER + INTRA:          -7.117
REMARK INTER:                  -6.650
REMARK INTRA:                  -0.467
REMARK UNBOUND:                -0.458
REMARK SMILES CCCCCCCCCC=CC(=O)[O-]
REMARK SMILES IDX 7 1 8 2 9 3 10 4 11 5 12 6 13 7 14 8 6 9 5 10 4 11 3 12 2 13
REMARK SMILES IDX 1 14
REMARK H PARENT
REMARK Flexibility Score: inf
ROOT
ATOM      1  C   UNL     1       7.574   5.771  -1.357  1.00  0.00     0.000 C 
ENDROOT
BRANCH   1   2
ATOM      2  C   UNL     1       7.429   5.133  -2.744  1.00  0.00     0.004 C 
BRANCH   2   3
ATOM      3  C   UNL     1       8.002   6.048  -3.833  1.00  0.00     0.027 C 
BRANCH   3   4
ATOM      4  C   UNL     1       7.768   5.476  -5.202  1.00  0.00    -0.025 C 
ATOM      5  C   UNL     1       7.777   6.248  -6.292  1.00  0.00     0.020 C 
BRANCH   5   6
ATOM      6  C   UNL     1       7.565   5.699  -7.640  1.00  0.00     0.064 C 
ATOM      7  O   UNL     1       7.841   4.493  -7.870  1.00  0.00    -0.545 OA
ATOM      8  O   UNL     1       7.064   6.493  -8.665  1.00  0.00    -0.545 OA
ENDBRANCH   5   6
ENDBRANCH   3   4
ENDBRANCH   2   3
ENDBRANCH   1   2
BRANCH   1   9
ATOM      9  C   UNL     1       8.472   4.920  -0.451  1.00  0.00     0.000 C 
BRANCH   9  10
ATOM     10  C   UNL     1       9.153   5.783   0.618  1.00  0.00     0.000 C 
BRANCH  10  11
ATOM     11  C   UNL     1       9.268   7.244   0.158  1.00  0.00    -0.000 C 
BRANCH  11  12
ATOM     12  C   UNL     1       9.139   8.237   1.332  1.00  0.00    -0.000 C 
BRANCH  12  13
ATOM     13  C   UNL     1       9.273   7.578   2.715  1.00  0.00    -0.003 C 
ATOM     14  C   UNL     1       9.258   8.586   3.862  1.00  0.00     0.004 C 
ENDBRANCH  12  13
ENDBRANCH  11  12
ENDBRANCH  10  11
ENDBRANCH   9  10
ENDBRANCH   1   9
TORSDOF 9
ENDMDL
MODEL 6
REMARK VINA RESULT:    -4.349     16.879     18.501
REMARK INTER + INTRA:          -7.095
REMARK INTER:                  -5.683
REMARK INTRA:                  -1.412
REMARK UNBOUND:                -0.458
REMARK SMILES CCCCCCCCCC=CC(=O)[O-]
REMARK SMILES IDX 7 1 8 2 9 3 10 4 11 5 12 6 13 7 14 8 6 9 5 10 4 11 3 12 2 13
REMARK SMILES IDX 1 14
REMARK H PARENT
REMARK Flexibility Score: inf
ROOT
ATOM      1  C   UNL     1       2.091  -4.942  -7.646  1.00  0.00     0.000 C 
ENDROOT
BRANCH   1   2
ATOM      2  C   UNL     1       1.179  -5.697  -6.671  1.00  0.00     0.004 C 
BRANCH   2   3
ATOM      3  C   UNL     1       0.301  -4.725  -5.873  1.00  0.00     0.027 C 
BRANCH   3   4
ATOM      4  C   UNL     1      -0.795  -4.156  -6.729  1.00  0.00    -0.025 C 
ATOM      5  C   UNL     1      -1.504  -4.926  -7.559  1.00  0.00     0.020 C 
BRANCH   5   6
ATOM      6  C   UNL     1      -2.589  -4.385  -8.391  1.00  0.00     0.064 C 
ATOM      7  O   UNL     1      -3.385  -3.541  -7.903  1.00  0.00    -0.545 OA
ATOM      8  O   UNL     1      -2.750  -4.793  -9.710  1.00  0.00    -0.545 OA
ENDBRANCH   5   6
ENDBRANCH   3   4
ENDBRANCH   2   3
ENDBRANCH   1   2
BRANCH   1   9
ATOM      9  C   UNL     1       1.924  -5.468  -9.075  1.00  0.00     0.000 C 
BRANCH   9  10
ATOM     10  C   UNL     1       1.175  -4.457  -9.952  1.00  0.00     0.000 C 
BRANCH  10  11
ATOM     11  C   UNL     1       1.330  -3.031  -9.405  1.00  0.00    -0.000 C 
BRANCH  11  12
ATOM     12  C   UNL     1       0.105  -2.147  -9.723  1.00  0.00    -0.000 C 
BRANCH  12  13
ATOM     13  C   UNL     1      -0.274  -1.186  -8.583  1.00  0.00    -0.003 C 
ATOM     14  C   UNL     1      -1.616  -0.493  -8.808  1.00  0.00     0.004 C 
ENDBRANCH  12  13
ENDBRANCH  11  12
ENDBRANCH  10  11
ENDBRANCH   9  10
ENDBRANCH   1   9
TORSDOF 9
ENDMDL
MODEL 7
REMARK VINA RESULT:    -4.312      1.789      2.832
REMARK INTER + INTRA:          -7.039
REMARK INTER:                  -6.294
REMARK INTRA:                  -0.745
REMARK UNBOUND:                -0.458
REMARK SMILES CCCCCCCCCC=CC(=O)[O-]
REMARK SMILES IDX 7 1 8 2 9 3 10 4 11 5 12 6 13 7 14 8 6 9 5 10 4 11 3 12 2 13
REMARK SMILES IDX 1 14
REMARK H PARENT
REMARK Flexibility Score: inf
ROOT
ATOM      1  C   UNL     1      -3.858   8.150   5.767  1.00  0.00     0.000 C 
ENDROOT
BRANCH   1   2
ATOM      2  C   UNL     1      -4.109   6.948   4.848  1.00  0.00     0.004 C 
BRANCH   2   3
ATOM      3  C   UNL     1      -2.826   6.536   4.116  1.00  0.00     0.027 C 
BRANCH   3   4
ATOM      4  C   UNL     1      -2.368   5.173   4.549  1.00  0.00    -0.025 C 
ATOM      5  C   UNL     1      -2.808   4.614   5.680  1.00  0.00     0.020 C 
BRANCH   5   6
ATOM      6  C   UNL     1      -2.380   3.274   6.108  1.00  0.00     0.064 C 
ATOM      7  O   UNL     1      -2.428   2.316   5.292  1.00  0.00    -0.545 OA
ATOM      8  O   UNL     1      -1.922   3.048   7.401  1.00  0.00    -0.545 OA
ENDBRANCH   5   6
ENDBRANCH   3   4
ENDBRANCH   2   3
ENDBRANCH   1   2
BRANCH   1   9
ATOM      9  C   UNL     1      -4.658   8.026   7.068  1.00  0.00     0.000 C 
BRANCH   9  10
ATOM     10  C   UNL     1      -5.380   6.676   7.145  1.00  0.00     0.000 C 
BRANCH  10  11
ATOM     11  C   UNL     1      -6.431   6.675   8.265  1.00  0.00    -0.000 C 
BRANCH  11  12
ATOM     12  C   UNL     1      -6.133   7.734   9.347  1.00  0.00    -0.000 C 
BRANCH  12  13
ATOM     13  C   UNL     1      -7.380   8.188  10.125  1.00  0.00    -0.003 C 
ATOM     14  C   UNL     1      -8.681   7.946   9.362  1.00  0.00     0.004 C 
ENDBRANCH  12  13
ENDBRANCH  11  12
ENDBRANCH  10  11
ENDBRANCH   9  10
ENDBRANCH   1   9
TORSDOF 9
ENDMDL
MODEL 8
REMARK VINA RESULT:    -4.300     14.157     16.579
REMARK INTER + INTRA:          -7.021
REMARK INTER:                  -6.471
REMARK INTRA:                  -0.551
REMARK UNBOUND:                -0.458
REMARK SMILES CCCCCCCCCC=CC(=O)[O-]
REMARK SMILES IDX 7 1 8 2 9 3 10 4 11 5 12 6 13 7 14 8 6 9 5 10 4 11 3 12 2 13
REMARK SMILES IDX 1 14
REMARK H PARENT
REMARK Flexibility Score: inf
ROOT
ATOM      1  C   UNL     1       8.227   5.553  -2.576  1.00  0.00     0.000 C 
ENDROOT
BRANCH   1   2
ATOM      2  C   UNL     1       7.316   6.544  -1.842  1.00  0.00     0.004 C 
BRANCH   2   3
ATOM      3  C   UNL     1       8.040   7.871  -1.584  1.00  0.00     0.027 C 
BRANCH   3   4
ATOM      4  C   UNL     1       7.113   9.039  -1.767  1.00  0.00    -0.025 C 
ATOM      5  C   UNL     1       5.788   8.879  -1.815  1.00  0.00     0.020 C 
BRANCH   5   6
ATOM      6  C   UNL     1       4.869  10.016  -1.979  1.00  0.00     0.064 C 
ATOM      7  O   UNL     1       5.153  10.932  -2.793  1.00  0.00    -0.545 OA
ATOM      8  O   UNL     1       3.690  10.093  -1.246  1.00  0.00    -0.545 OA
ENDBRANCH   5   6
ENDBRANCH   3   4
ENDBRANCH   2   3
ENDBRANCH   1   2
BRANCH   1   9
ATOM      9  C   UNL     1       8.553   6.049  -3.990  1.00  0.00     0.000 C 
BRANCH   9  10
ATOM     10  C   UNL     1       7.555   5.493  -5.013  1.00  0.00     0.000 C 
BRANCH  10  11
ATOM     11  C   UNL     1       7.753   6.146  -6.389  1.00  0.00    -0.000 C 
BRANCH  11  12
ATOM     12  C   UNL     1       7.906   5.101  -7.514  1.00  0.00    -0.000 C 
BRANCH  12  13
ATOM     13  C   UNL     1       9.173   4.238  -7.386  1.00  0.00    -0.003 C 
ATOM     14  C   UNL     1       9.306   3.204  -8.502  1.00  0.00     0.004 C 
ENDBRANCH  12  13
ENDBRANCH  11  12
ENDBRANCH  10  11
ENDBRANCH   9  10
ENDBRANCH   1   9
TORSDOF 9
ENDMDL
MODEL 9
REMARK VINA RESULT:    -4.260     13.800     14.910
REMARK INTER + INTRA:          -6.960
REMARK INTER:                  -5.850
REMARK INTRA:                  -1.110
REMARK UNBOUND:                -0.458
REMARK SMILES CCCCCCCCCC=CC(=O)[O-]
REMARK SMILES IDX 7 1 8 2 9 3 10 4 11 5 12 6 13 7 14 8 6 9 5 10 4 11 3 12 2 13
REMARK SMILES IDX 1 14
REMARK H PARENT
REMARK Flexibility Score: inf
ROOT
ATOM      1  C   UNL     1       7.982   4.316  -1.094  1.00  0.00     0.000 C 
ENDROOT
BRANCH   1   2
ATOM      2  C   UNL     1       7.252   4.845  -2.335  1.00  0.00     0.004 C 
BRANCH   2   3
ATOM      3  C   UNL     1       8.127   5.842  -3.105  1.00  0.00     0.027 C 
BRANCH   3   4
ATOM      4  C   UNL     1       7.798   7.258  -2.727  1.00  0.00    -0.025 C 
ATOM      5  C   UNL     1       6.609   7.585  -2.215  1.00  0.00     0.020 C 
BRANCH   5   6
ATOM      6  C   UNL     1       6.278   8.965  -1.826  1.00  0.00     0.064 C 
ATOM      7  O   UNL     1       7.204   9.765  -1.529  1.00  0.00    -0.545 OA
ATOM      8  O   UNL     1       4.959   9.399  -1.780  1.00  0.00    -0.545 OA
ENDBRANCH   5   6
ENDBRANCH   3   4
ENDBRANCH   2   3
ENDBRANCH   1   2
BRANCH   1   9
ATOM      9  C   UNL     1       9.502   4.404  -1.270  1.00  0.00     0.000 C 
BRANCH   9  10
ATOM     10  C   UNL     1      10.166   5.021  -0.034  1.00  0.00     0.000 C 
BRANCH  10  11
ATOM     11  C   UNL     1       9.141   5.780   0.822  1.00  0.00    -0.000 C 
BRANCH  11  12
ATOM     12  C   UNL     1       9.184   7.302   0.571  1.00  0.00    -0.000 C 
BRANCH  12  13
ATOM     13  C   UNL     1       9.219   8.139   1.861  1.00  0.00    -0.003 C 
ATOM     14  C   UNL     1       9.447   7.296   3.114  1.00  0.00     0.004 C 
ENDBRANCH  12  13
ENDBRANCH  11  12
ENDBRANCH  10  11
ENDBRANCH   9  10
ENDBRANCH   1   9
TORSDOF 9
ENDMDL
