MODEL 1
REMARK VINA RESULT:    -4.043      0.000      0.000
REMARK INTER + INTRA:          -5.816
REMARK INTER:                  -5.698
REMARK INTRA:                  -0.118
REMARK UNBOUND:                -0.118
REMARK SMILES CCCCCCCCC(=O)[O-]
REMARK SMILES IDX 6 1 7 2 8 3 9 4 10 5 11 6 5 7 4 8 3 9 2 10 1 11
REMARK H PARENT
REMARK Flexibility Score: inf
ROOT
ATOM      1  C   UNL     1     -30.342 -17.583  13.913  1.00  0.00     0.000 C 
ENDROOT
BRANCH   1   2
ATOM      2  C   UNL     1     -30.791 -18.880  13.224  1.00  0.00     0.006 C 
BRANCH   2   3
ATOM      3  C   UNL     1     -31.036 -20.016  14.227  1.00  0.00     0.053 C 
BRANCH   3   4
ATOM      4  C   UNL     1     -30.784 -21.361  13.615  1.00  0.00     0.041 C 
ATOM      5  O   UNL     1     -30.875 -22.403  14.315  1.00  0.00    -0.550 OA
ATOM      6  O   UNL     1     -30.480 -21.465  12.263  1.00  0.00    -0.550 OA
ENDBRANCH   3   4
ENDBRANCH   2   3
ENDBRANCH   1   2
BRANCH   1   7
ATOM      7  C   UNL     1     -30.498 -16.380  12.975  1.00  0.00     0.000 C 
BRANCH   7   8
ATOM      8  C   UNL     1     -30.496 -15.064  13.762  1.00  0.00    -0.000 C 
BRANCH   8   9
ATOM      9  C   UNL     1     -30.932 -13.891  12.871  1.00  0.00    -0.000 C 
BRANCH   9  10
ATOM     10  C   UNL     1     -30.764 -12.529  13.564  1.00  0.00    -0.003 C 
ATOM     11  C   UNL     1     -30.316 -11.429  12.602  1.00  0.00     0.004 C 
ENDBRANCH   9  10
ENDBRANCH   8   9
ENDBRANCH   7   8
ENDBRANCH   1   7
TORSDOF 7
ENDMDL
MODEL 2
REMARK VINA RESULT:    -4.000      3.974      7.398
REMARK INTER + INTRA:          -5.755
REMARK INTER:                  -5.643
REMARK INTRA:                  -0.112
REMARK UNBOUND:                -0.118
REMARK SMILES CCCCCCCCC(=O)[O-]
REMARK SMILES IDX 6 1 7 2 8 3 9 4 10 5 11 6 5 7 4 8 3 9 2 10 1 11
REMARK H PARENT
REMARK Flexibility Score: inf
ROOT
ATOM      1  C   UNL     1     -30.681 -17.042  13.256  1.00  0.00     0.000 C 
ENDROOT
BRANCH   1   2
ATOM      2  C   UNL     1     -30.937 -15.704  13.965  1.00  0.00     0.006 C 
BRANCH   2   3
ATOM      3  C   UNL     1     -30.809 -14.507  13.013  1.00  0.00     0.053 C 
BRANCH   3   4
ATOM      4  C   UNL     1     -30.732 -13.210  13.758  1.00  0.00     0.041 C 
ATOM      5  O   UNL     1     -30.536 -12.132  13.137  1.00  0.00    -0.550 OA
ATOM      6  O   UNL     1     -30.908 -13.187  15.136  1.00  0.00    -0.550 OA
ENDBRANCH   3   4
ENDBRANCH   2   3
ENDBRANCH   1   2
BRANCH   1   7
ATOM      7  C   UNL     1     -30.690 -18.204  14.257  1.00  0.00     0.000 C 
BRANCH   7   8
ATOM      8  C   UNL     1     -30.413 -19.538  13.553  1.00  0.00    -0.000 C 
BRANCH   8   9
ATOM      9  C   UNL     1     -31.085 -20.702  14.297  1.00  0.00    -0.000 C 
BRANCH   9  10
ATOM     10  C   UNL     1     -30.803 -22.063  13.642  1.00  0.00    -0.003 C 
ATOM     11  C   UNL     1     -30.973 -23.232  14.612  1.00  0.00     0.004 C 
ENDBRANCH   9  10
ENDBRANCH   8   9
ENDBRANCH   7   8
ENDBRANCH   1   7
TORSDOF 7
ENDMDL
MODEL 3
REMARK VINA RESULT:    -3.885      1.491      2.385
REMARK INTER + INTRA:          -5.594
REMARK INTER:                  -5.435
REMARK INTRA:                  -0.158
REMARK UNBOUND:                -0.118
REMARK SMILES CCCCCCCCC(=O)[O-]
REMARK SMILES IDX 6 1 7 2 8 3 9 4 10 5 11 6 5 7 4 8 3 9 2 10 1 11
REMARK H PARENT
REMARK Flexibility Score: inf
ROOT
ATOM      1  C   UNL     1     -30.980 -15.430  14.083  1.00  0.00     0.000 C 
ENDROOT
BRANCH   1   2
ATOM      2  C   UNL     1     -30.043 -16.531  13.565  1.00  0.00     0.006 C 
BRANCH   2   3
ATOM      3  C   UNL     1     -30.813 -17.761  13.063  1.00  0.00     0.053 C 
BRANCH   3   4
ATOM      4  C   UNL     1     -30.579 -18.956  13.936  1.00  0.00     0.041 C 
ATOM      5  O   UNL     1     -30.743 -18.874  15.181  1.00  0.00    -0.550 OA
ATOM      6  O   UNL     1     -30.212 -20.171  13.369  1.00  0.00    -0.550 OA
ENDBRANCH   3   4
ENDBRANCH   2   3
ENDBRANCH   1   2
BRANCH   1   7
ATOM      7  C   UNL     1     -31.075 -14.273  13.080  1.00  0.00     0.000 C 
BRANCH   7   8
ATOM      8  C   UNL     1     -30.702 -12.941  13.741  1.00  0.00    -0.000 C 
BRANCH   8   9
ATOM      9  C   UNL     1     -31.053 -11.757  12.827  1.00  0.00    -0.000 C 
BRANCH   9  10
ATOM     10  C   UNL     1     -29.820 -10.935  12.424  1.00  0.00    -0.003 C 
ATOM     11  C   UNL     1     -30.186  -9.604  11.768  1.00  0.00     0.004 C 
ENDBRANCH   9  10
ENDBRANCH   8   9
ENDBRANCH   7   8
ENDBRANCH   1   7
TORSDOF 7
ENDMDL
MODEL 4
REMARK VINA RESULT:    -3.689      4.767      7.651
REMARK INTER + INTRA:          -5.317
REMARK INTER:                  -5.197
REMARK INTRA:                  -0.120
REMARK UNBOUND:                -0.118
REMARK SMILES CCCCCCCCC(=O)[O-]
REMARK SMILES IDX 6 1 7 2 8 3 9 4 10 5 11 6 5 7 4 8 3 9 2 10 1 11
REMARK H PARENT
REMARK Flexibility Score: inf
ROOT
ATOM      1  C   UNL     1     -31.059 -14.533  13.856  1.00  0.00     0.000 C 
ENDROOT
BRANCH   1   2
ATOM      2  C   UNL     1     -30.970 -13.374  12.851  1.00  0.00     0.006 C 
BRANCH   2   3
ATOM      3  C   UNL     1     -30.930 -12.005  13.544  1.00  0.00     0.053 C 
BRANCH   3   4
ATOM      4  C   UNL     1     -30.456 -10.928  12.617  1.00  0.00     0.041 C 
ATOM      5  O   UNL     1     -31.101  -9.852  12.513  1.00  0.00    -0.550 OA
ATOM      6  O   UNL     1     -29.283 -11.099  11.892  1.00  0.00    -0.550 OA
ENDBRANCH   3   4
ENDBRANCH   2   3
ENDBRANCH   1   2
BRANCH   1   7
ATOM      7  C   UNL     1     -30.226 -15.732  13.387  1.00  0.00     0.000 C 
BRANCH   7   8
ATOM      8  C   UNL     1     -31.049 -17.025  13.437  1.00  0.00    -0.000 C 
BRANCH   8   9
ATOM      9  C   UNL     1     -30.203 -18.195  13.962  1.00  0.00    -0.000 C 
BRANCH   9  10
ATOM     10  C   UNL     1     -31.035 -19.463  14.209  1.00  0.00    -0.003 C 
ATOM     11  C   UNL     1     -30.585 -20.641  13.345  1.00  0.00     0.004 C 
ENDBRANCH   9  10
ENDBRANCH   8   9
ENDBRANCH   7   8
ENDBRANCH   1   7
TORSDOF 7
ENDMDL
MODEL 5
REMARK VINA RESULT:    -3.604     16.873     18.999
REMARK INTER + INTRA:          -5.197
REMARK INTER:                  -4.947
REMARK INTRA:                  -0.250
REMARK UNBOUND:                -0.118
REMARK SMILES CCCCCCCCC(=O)[O-]
REMARK SMILES IDX 6 1 7 2 8 3 9 4 10 5 11 6 5 7 4 8 3 9 2 10 1 11
REMARK H PARENT
REMARK Flexibility Score: inf
ROOT
ATOM      1  C   UNL     1     -14.935 -26.543  11.712  1.00  0.00     0.000 C 
ENDROOT
BRANCH   1   2
ATOM      2  C   UNL     1     -14.454 -27.269  12.978  1.00  0.00     0.006 C 
BRANCH   2   3
ATOM      3  C   UNL     1     -13.207 -28.125  12.719  1.00  0.00     0.053 C 
BRANCH   3   4
ATOM      4  C   UNL     1     -11.958 -27.441  13.184  1.00  0.00     0.041 C 
ATOM      5  O   UNL     1     -11.465 -27.718  14.309  1.00  0.00    -0.550 OA
ATOM      6  O   UNL     1     -11.320 -26.521  12.361  1.00  0.00    -0.550 OA
ENDBRANCH   3   4
ENDBRANCH   2   3
ENDBRANCH   1   2
BRANCH   1   7
ATOM      7  C   UNL     1     -15.961 -27.390  10.950  1.00  0.00     0.000 C 
BRANCH   7   8
ATOM      8  C   UNL     1     -17.386 -26.879  11.195  1.00  0.00    -0.000 C 
BRANCH   8   9
ATOM      9  C   UNL     1     -18.214 -27.913  11.971  1.00  0.00    -0.000 C 
BRANCH   9  10
ATOM     10  C   UNL     1     -19.596 -27.379  12.379  1.00  0.00    -0.003 C 
ATOM     11  C   UNL     1     -19.979 -27.761  13.808  1.00  0.00     0.004 C 
ENDBRANCH   9  10
ENDBRANCH   8   9
ENDBRANCH   7   8
ENDBRANCH   1   7
TORSDOF 7
ENDMDL
MODEL 6
REMARK VINA RESULT:    -3.473     14.650     16.079
REMARK INTER + INTRA:          -5.013
REMARK INTER:                  -4.887
REMARK INTRA:                  -0.125
REMARK UNBOUND:                -0.118
REMARK SMILES CCCCCCCCC(=O)[O-]
REMARK SMILES IDX 6 1 7 2 8 3 9 4 10 5 11 6 5 7 4 8 3 9 2 10 1 11
REMARK H PARENT
REMARK Flexibility Score: inf
ROOT
ATOM      1  C   UNL     1     -19.873 -28.035  12.751  1.00  0.00     0.000 C 
ENDROOT
BRANCH   1   2
ATOM      2  C   UNL     1     -18.770 -27.349  11.932  1.00  0.00     0.006 C 
BRANCH   2   3
ATOM      3  C   UNL     1     -17.447 -28.125  11.973  1.00  0.00     0.053 C 
BRANCH   3   4
ATOM      4  C   UNL     1     -16.353 -27.397  11.253  1.00  0.00     0.041 C 
ATOM      5  O   UNL     1     -16.126 -27.635  10.038  1.00  0.00    -0.550 OA
ATOM      6  O   UNL     1     -15.605 -26.431  11.916  1.00  0.00    -0.550 OA
ENDBRANCH   3   4
ENDBRANCH   2   3
ENDBRANCH   1   2
BRANCH   1   7
ATOM      7  C   UNL     1     -20.256 -27.190  13.973  1.00  0.00     0.000 C 
BRANCH   7   8
ATOM      8  C   UNL     1     -21.025 -28.028  15.001  1.00  0.00    -0.000 C 
BRANCH   8   9
ATOM      9  C   UNL     1     -22.080 -27.177  15.724  1.00  0.00    -0.000 C 
BRANCH   9  10
ATOM     10  C   UNL     1     -22.993 -28.013  16.634  1.00  0.00    -0.003 C 
ATOM     11  C   UNL     1     -23.147 -27.411  18.031  1.00  0.00     0.004 C 
ENDBRANCH   9  10
ENDBRANCH   8   9
ENDBRANCH   7   8
ENDBRANCH   1   7
TORSDOF 7
ENDMDL
MODEL 7
REMARK VINA RESULT:    -3.289     18.482     18.801
REMARK INTER + INTRA:          -4.753
REMARK INTER:                  -4.572
REMARK INTRA:                  -0.181
REMARK UNBOUND:                -0.118
REMARK SMILES CCCCCCCCC(=O)[O-]
REMARK SMILES IDX 6 1 7 2 8 3 9 4 10 5 11 6 5 7 4 8 3 9 2 10 1 11
REMARK H PARENT
REMARK Flexibility Score: inf
ROOT
ATOM      1  C   UNL     1     -11.551 -17.376  17.810  1.00  0.00     0.000 C 
ENDROOT
BRANCH   1   2
ATOM      2  C   UNL     1     -11.977 -18.748  18.352  1.00  0.00     0.006 C 
BRANCH   2   3
ATOM      3  C   UNL     1     -12.845 -18.632  19.613  1.00  0.00     0.053 C 
BRANCH   3   4
ATOM      4  C   UNL     1     -13.482 -19.939  19.972  1.00  0.00     0.041 C 
ATOM      5  O   UNL     1     -13.599 -20.846  19.106  1.00  0.00    -0.550 OA
ATOM      6  O   UNL     1     -13.918 -20.168  21.271  1.00  0.00    -0.550 OA
ENDBRANCH   3   4
ENDBRANCH   2   3
ENDBRANCH   1   2
BRANCH   1   7
ATOM      7  C   UNL     1     -11.522 -17.376  16.276  1.00  0.00     0.000 C 
BRANCH   7   8
ATOM      8  C   UNL     1     -11.604 -15.948  15.725  1.00  0.00    -0.000 C 
BRANCH   8   9
ATOM      9  C   UNL     1     -12.154 -15.944  14.290  1.00  0.00    -0.000 C 
BRANCH   9  10
ATOM     10  C   UNL     1     -12.475 -14.529  13.784  1.00  0.00    -0.003 C 
ATOM     11  C   UNL     1     -12.583 -13.507  14.916  1.00  0.00     0.004 C 
ENDBRANCH   9  10
ENDBRANCH   8   9
ENDBRANCH   7   8
ENDBRANCH   1   7
TORSDOF 7
ENDMDL
MODEL 8
REMARK VINA RESULT:    -3.246     18.722     19.707
REMARK INTER + INTRA:          -4.692
REMARK INTER:                  -4.506
REMARK INTRA:                  -0.186
REMARK UNBOUND:                -0.118
REMARK SMILES CCCCCCCCC(=O)[O-]
REMARK SMILES IDX 6 1 7 2 8 3 9 4 10 5 11 6 5 7 4 8 3 9 2 10 1 11
REMARK H PARENT
REMARK Flexibility Score: inf
ROOT
ATOM      1  C   UNL     1     -11.574 -17.628  16.491  1.00  0.00     0.000 C 
ENDROOT
BRANCH   1   2
ATOM      2  C   UNL     1     -11.491 -16.225  15.872  1.00  0.00     0.006 C 
BRANCH   2   3
ATOM      3  C   UNL     1     -12.254 -16.130  14.544  1.00  0.00     0.053 C 
BRANCH   3   4
ATOM      4  C   UNL     1     -12.372 -14.712  14.071  1.00  0.00     0.041 C 
ATOM      5  O   UNL     1     -12.162 -14.427  12.863  1.00  0.00    -0.550 OA
ATOM      6  O   UNL     1     -12.745 -13.711  14.960  1.00  0.00    -0.550 OA
ENDBRANCH   3   4
ENDBRANCH   2   3
ENDBRANCH   1   2
BRANCH   1   7
ATOM      7  C   UNL     1     -11.728 -17.548  18.015  1.00  0.00     0.000 C 
BRANCH   7   8
ATOM      8  C   UNL     1     -11.873 -18.947  18.627  1.00  0.00    -0.000 C 
BRANCH   8   9
ATOM      9  C   UNL     1     -13.193 -19.072  19.402  1.00  0.00    -0.000 C 
BRANCH   9  10
ATOM     10  C   UNL     1     -13.504 -20.521  19.809  1.00  0.00    -0.003 C 
ATOM     11  C   UNL     1     -13.309 -21.512  18.662  1.00  0.00     0.004 C 
ENDBRANCH   9  10
ENDBRANCH   8   9
ENDBRANCH   7   8
ENDBRANCH   1   7
TORSDOF 7
ENDMDL
MODEL 9
REMARK VINA RESULT:    -3.159     19.001     19.813
REMARK INTER + INTRA:          -4.569
REMARK INTER:                  -4.245
REMARK INTRA:                  -0.324
REMARK UNBOUND:                -0.118
REMARK SMILES CCCCCCCCC(=O)[O-]
REMARK SMILES IDX 6 1 7 2 8 3 9 4 10 5 11 6 5 7 4 8 3 9 2 10 1 11
REMARK H PARENT
REMARK Flexibility Score: inf
ROOT
ATOM      1  C   UNL     1     -11.802 -17.581  17.052  1.00  0.00     0.000 C 
ENDROOT
BRANCH   1   2
ATOM      2  C   UNL     1     -11.182 -16.943  15.799  1.00  0.00     0.006 C 
BRANCH   2   3
ATOM      3  C   UNL     1     -12.196 -16.101  15.013  1.00  0.00     0.053 C 
BRANCH   3   4
ATOM      4  C   UNL     1     -11.931 -16.146  13.539  1.00  0.00     0.041 C 
ATOM      5  O   UNL     1     -12.285 -15.190  12.801  1.00  0.00    -0.550 OA
ATOM      6  O   UNL     1     -11.264 -17.232  12.984  1.00  0.00    -0.550 OA
ENDBRANCH   3   4
ENDBRANCH   2   3
ENDBRANCH   1   2
BRANCH   1   7
ATOM      7  C   UNL     1     -11.056 -18.863  17.442  1.00  0.00     0.000 C 
BRANCH   7   8
ATOM      8  C   UNL     1     -11.763 -19.579  18.599  1.00  0.00    -0.000 C 
BRANCH   8   9
ATOM      9  C   UNL     1     -12.944 -18.746  19.121  1.00  0.00    -0.000 C 
BRANCH   9  10
ATOM     10  C   UNL     1     -13.088 -18.818  20.649  1.00  0.00    -0.003 C 
ATOM     11  C   UNL     1     -12.294 -17.729  21.369  1.00  0.00     0.004 C 
ENDBRANCH   9  10
ENDBRANCH   8   9
ENDBRANCH   7   8
ENDBRANCH   1   7
TORSDOF 7
ENDMDL
