MODEL 1
REMARK VINA RESULT:    -5.566      0.000      0.000
REMARK INTER + INTRA:         -12.426
REMARK INTER:                 -10.122
REMARK INTRA:                  -2.304
REMARK UNBOUND:                -2.304
REMARK SMILES CCCCCCCCCCCCCCCC(=O)[O-]
REMARK SMILES IDX 9 1 10 2 11 3 12 4 13 5 14 6 15 7 16 8 17 9 18 10 8 11 7 12
REMARK SMILES IDX 6 13 5 14 4 15 3 16 2 17 1 18
REMARK H PARENT
REMARK Flexibility Score: inf
ROOT
ATOM      1  C   UNL     1      18.875  12.875  -1.155  1.00  0.00     0.000 C 
ENDROOT
BRANCH   1   2
ATOM      2  C   UNL     1      18.912  13.802   0.076  1.00  0.00     0.000 C 
BRANCH   2   3
ATOM      3  C   UNL     1      19.846  15.018  -0.053  1.00  0.00     0.000 C 
BRANCH   3   4
ATOM      4  C   UNL     1      20.627  15.310   1.236  1.00  0.00     0.000 C 
BRANCH   4   5
ATOM      5  C   UNL     1      22.003  15.908   0.922  1.00  0.00     0.000 C 
BRANCH   5   6
ATOM      6  C   UNL     1      23.037  15.502   1.982  1.00  0.00     0.006 C 
BRANCH   6   7
ATOM      7  C   UNL     1      22.411  14.692   3.125  1.00  0.00     0.053 C 
BRANCH   7   8
ATOM      8  C   UNL     1      23.232  13.485   3.465  1.00  0.00     0.041 C 
ATOM      9  O   UNL     1      24.359  13.316   2.930  1.00  0.00    -0.550 OA
ATOM     10  O   UNL     1      22.738  12.533   4.349  1.00  0.00    -0.550 OA
ENDBRANCH   7   8
ENDBRANCH   6   7
ENDBRANCH   5   6
ENDBRANCH   4   5
ENDBRANCH   3   4
ENDBRANCH   2   3
ENDBRANCH   1   2
BRANCH   1  11
ATOM     11  C   UNL     1      19.801  13.293  -2.314  1.00  0.00     0.000 C 
BRANCH  11  12
ATOM     12  C   UNL     1      20.596  12.140  -2.958  1.00  0.00    -0.000 C 
BRANCH  12  13
ATOM     13  C   UNL     1      21.846  12.573  -3.751  1.00  0.00    -0.000 C 
BRANCH  13  14
ATOM     14  C   UNL     1      23.153  12.606  -2.938  1.00  0.00    -0.000 C 
BRANCH  14  15
ATOM     15  C   UNL     1      23.042  13.460  -1.666  1.00  0.00    -0.000 C 
BRANCH  15  16
ATOM     16  C   UNL     1      23.461  12.657  -0.428  1.00  0.00    -0.000 C 
BRANCH  16  17
ATOM     17  C   UNL     1      22.239  12.071   0.287  1.00  0.00    -0.003 C 
ATOM     18  C   UNL     1      22.421  10.581   0.560  1.00  0.00     0.004 C 
ENDBRANCH  16  17
ENDBRANCH  15  16
ENDBRANCH  14  15
ENDBRANCH  13  14
ENDBRANCH  12  13
ENDBRANCH  11  12
ENDBRANCH   1  11
TORSDOF 14
ENDMDL
MODEL 2
REMARK VINA RESULT:    -5.557      1.508      2.778
REMARK INTER + INTRA:         -12.410
REMARK INTER:                 -10.627
REMARK INTRA:                  -1.783
REMARK UNBOUND:                -2.304
REMARK SMILES CCCCCCCCCCCCCCCC(=O)[O-]
REMARK SMILES IDX 9 1 10 2 11 3 12 4 13 5 14 6 15 7 16 8 17 9 18 10 8 11 7 12
REMARK SMILES IDX 6 13 5 14 4 15 3 16 2 17 1 18
REMARK H PARENT
REMARK Flexibility Score: inf
ROOT
ATOM      1  C   UNL     1      19.503  14.727   0.404  1.00  0.00     0.000 C 
ENDROOT
BRANCH   1   2
ATOM      2  C   UNL     1      20.585  15.825   0.410  1.00  0.00     0.000 C 
BRANCH   2   3
ATOM      3  C   UNL     1      22.024  15.323   0.200  1.00  0.00     0.000 C 
BRANCH   3   4
ATOM      4  C   UNL     1      22.972  15.734   1.335  1.00  0.00     0.000 C 
BRANCH   4   5
ATOM      5  C   UNL     1      22.187  16.164   2.579  1.00  0.00     0.000 C 
BRANCH   5   6
ATOM      6  C   UNL     1      22.285  15.105   3.687  1.00  0.00     0.006 C 
BRANCH   6   7
ATOM      7  C   UNL     1      23.382  14.070   3.407  1.00  0.00     0.053 C 
BRANCH   7   8
ATOM      8  C   UNL     1      22.957  12.688   3.800  1.00  0.00     0.041 C 
ATOM      9  O   UNL     1      22.157  12.042   3.073  1.00  0.00    -0.550 OA
ATOM     10  O   UNL     1      23.417  12.128   4.985  1.00  0.00    -0.550 OA
ENDBRANCH   7   8
ENDBRANCH   6   7
ENDBRANCH   5   6
ENDBRANCH   4   5
ENDBRANCH   3   4
ENDBRANCH   2   3
ENDBRANCH   1   2
BRANCH   1  11
ATOM     11  C   UNL     1      20.029  13.292   0.604  1.00  0.00     0.000 C 
BRANCH  11  12
ATOM     12  C   UNL     1      19.561  12.275  -0.454  1.00  0.00    -0.000 C 
BRANCH  12  13
ATOM     13  C   UNL     1      19.094  12.890  -1.789  1.00  0.00    -0.000 C 
BRANCH  13  14
ATOM     14  C   UNL     1      20.185  13.010  -2.868  1.00  0.00    -0.000 C 
BRANCH  14  15
ATOM     15  C   UNL     1      21.375  12.071  -2.619  1.00  0.00    -0.000 C 
BRANCH  15  16
ATOM     16  C   UNL     1      22.679  12.866  -2.474  1.00  0.00    -0.000 C 
BRANCH  16  17
ATOM     17  C   UNL     1      23.199  13.323  -3.841  1.00  0.00    -0.003 C 
ATOM     18  C   UNL     1      23.186  12.178  -4.848  1.00  0.00     0.004 C 
ENDBRANCH  16  17
ENDBRANCH  15  16
ENDBRANCH  14  15
ENDBRANCH  13  14
ENDBRANCH  12  13
ENDBRANCH  11  12
ENDBRANCH   1  11
TORSDOF 14
ENDMDL
MODEL 3
REMARK VINA RESULT:    -5.534      2.504      5.324
REMARK INTER + INTRA:         -12.367
REMARK INTER:                 -10.051
REMARK INTRA:                  -2.316
REMARK UNBOUND:                -2.304
REMARK SMILES CCCCCCCCCCCCCCCC(=O)[O-]
REMARK SMILES IDX 9 1 10 2 11 3 12 4 13 5 14 6 15 7 16 8 17 9 18 10 8 11 7 12
REMARK SMILES IDX 6 13 5 14 4 15 3 16 2 17 1 18
REMARK H PARENT
REMARK Flexibility Score: inf
ROOT
ATOM      1  C   UNL     1      22.568  15.977   1.894  1.00  0.00     0.000 C 
ENDROOT
BRANCH   1   2
ATOM      2  C   UNL     1      21.442  16.156   0.858  1.00  0.00     0.000 C 
BRANCH   2   3
ATOM      3  C   UNL     1      20.196  15.284   1.093  1.00  0.00     0.000 C 
BRANCH   3   4
ATOM      4  C   UNL     1      19.555  14.792  -0.212  1.00  0.00     0.000 C 
BRANCH   4   5
ATOM      5  C   UNL     1      18.957  13.392  -0.037  1.00  0.00     0.000 C 
BRANCH   5   6
ATOM      6  C   UNL     1      19.684  12.367  -0.921  1.00  0.00     0.006 C 
BRANCH   6   7
ATOM      7  C   UNL     1      20.129  12.967  -2.261  1.00  0.00     0.053 C 
BRANCH   7   8
ATOM      8  C   UNL     1      21.267  12.200  -2.863  1.00  0.00     0.041 C 
ATOM      9  O   UNL     1      21.703  12.506  -4.003  1.00  0.00    -0.550 OA
ATOM     10  O   UNL     1      21.823  11.127  -2.177  1.00  0.00    -0.550 OA
ENDBRANCH   7   8
ENDBRANCH   6   7
ENDBRANCH   5   6
ENDBRANCH   4   5
ENDBRANCH   3   4
ENDBRANCH   2   3
ENDBRANCH   1   2
BRANCH   1  11
ATOM     11  C   UNL     1      22.117  15.420   3.259  1.00  0.00     0.000 C 
BRANCH  11  12
ATOM     12  C   UNL     1      23.093  14.419   3.907  1.00  0.00    -0.000 C 
BRANCH  12  13
ATOM     13  C   UNL     1      22.589  12.963   3.969  1.00  0.00    -0.000 C 
BRANCH  13  14
ATOM     14  C   UNL     1      21.766  12.506   2.751  1.00  0.00    -0.000 C 
BRANCH  14  15
ATOM     15  C   UNL     1      22.623  11.827   1.673  1.00  0.00    -0.000 C 
BRANCH  15  16
ATOM     16  C   UNL     1      22.871  12.775   0.493  1.00  0.00    -0.000 C 
BRANCH  16  17
ATOM     17  C   UNL     1      24.354  12.796   0.106  1.00  0.00    -0.003 C 
ATOM     18  C   UNL     1      25.213  13.333   1.246  1.00  0.00     0.004 C 
ENDBRANCH  16  17
ENDBRANCH  15  16
ENDBRANCH  14  15
ENDBRANCH  13  14
ENDBRANCH  12  13
ENDBRANCH  11  12
ENDBRANCH   1  11
TORSDOF 14
ENDMDL
MODEL 4
REMARK VINA RESULT:    -5.511      1.302      3.356
REMARK INTER + INTRA:         -12.326
REMARK INTER:                 -10.051
REMARK INTRA:                  -2.275
REMARK UNBOUND:                -2.304
REMARK SMILES CCCCCCCCCCCCCCCC(=O)[O-]
REMARK SMILES IDX 9 1 10 2 11 3 12 4 13 5 14 6 15 7 16 8 17 9 18 10 8 11 7 12
REMARK SMILES IDX 6 13 5 14 4 15 3 16 2 17 1 18
REMARK H PARENT
REMARK Flexibility Score: inf
ROOT
ATOM      1  C   UNL     1      20.599  15.176   1.289  1.00  0.00     0.000 C 
ENDROOT
BRANCH   1   2
ATOM      2  C   UNL     1      21.771  16.176   1.348  1.00  0.00     0.000 C 
BRANCH   2   3
ATOM      3  C   UNL     1      23.162  15.564   1.107  1.00  0.00     0.000 C 
BRANCH   3   4
ATOM      4  C   UNL     1      23.101  14.203   0.399  1.00  0.00     0.000 C 
BRANCH   4   5
ATOM      5  C   UNL     1      23.870  13.137   1.188  1.00  0.00     0.000 C 
BRANCH   5   6
ATOM      6  C   UNL     1      22.931  12.022   1.668  1.00  0.00     0.006 C 
BRANCH   6   7
ATOM      7  C   UNL     1      22.012  12.485   2.806  1.00  0.00     0.053 C 
BRANCH   7   8
ATOM      8  C   UNL     1      22.792  12.994   3.979  1.00  0.00     0.041 C 
ATOM      9  O   UNL     1      23.468  12.198   4.683  1.00  0.00    -0.550 OA
ATOM     10  O   UNL     1      22.746  14.341   4.315  1.00  0.00    -0.550 OA
ENDBRANCH   7   8
ENDBRANCH   6   7
ENDBRANCH   5   6
ENDBRANCH   4   5
ENDBRANCH   3   4
ENDBRANCH   2   3
ENDBRANCH   1   2
BRANCH   1  11
ATOM     11  C   UNL     1      19.646  15.357   0.090  1.00  0.00     0.000 C 
BRANCH  11  12
ATOM     12  C   UNL     1      18.970  14.064  -0.403  1.00  0.00    -0.000 C 
BRANCH  12  13
ATOM     13  C   UNL     1      19.347  12.790   0.381  1.00  0.00    -0.000 C 
BRANCH  13  14
ATOM     14  C   UNL     1      20.171  11.759  -0.411  1.00  0.00    -0.000 C 
BRANCH  14  15
ATOM     15  C   UNL     1      20.547  12.248  -1.817  1.00  0.00    -0.000 C 
BRANCH  15  16
ATOM     16  C   UNL     1      21.967  11.807  -2.190  1.00  0.00    -0.000 C 
BRANCH  16  17
ATOM     17  C   UNL     1      22.410  12.440  -3.514  1.00  0.00    -0.003 C 
ATOM     18  C   UNL     1      23.651  13.307  -3.323  1.00  0.00     0.004 C 
ENDBRANCH  16  17
ENDBRANCH  15  16
ENDBRANCH  14  15
ENDBRANCH  13  14
ENDBRANCH  12  13
ENDBRANCH  11  12
ENDBRANCH   1  11
TORSDOF 14
ENDMDL
MODEL 5
REMARK VINA RESULT:    -5.456      2.969      5.352
REMARK INTER + INTRA:         -12.226
REMARK INTER:                  -9.616
REMARK INTRA:                  -2.609
REMARK UNBOUND:                -2.304
REMARK SMILES CCCCCCCCCCCCCCCC(=O)[O-]
REMARK SMILES IDX 9 1 10 2 11 3 12 4 13 5 14 6 15 7 16 8 17 9 18 10 8 11 7 12
REMARK SMILES IDX 6 13 5 14 4 15 3 16 2 17 1 18
REMARK H PARENT
REMARK Flexibility Score: inf
ROOT
ATOM      1  C   UNL     1      20.633  15.228   1.174  1.00  0.00     0.000 C 
ENDROOT
BRANCH   1   2
ATOM      2  C   UNL     1      19.813  14.770  -0.049  1.00  0.00     0.000 C 
BRANCH   2   3
ATOM      3  C   UNL     1      19.196  13.365   0.069  1.00  0.00     0.000 C 
BRANCH   3   4
ATOM      4  C   UNL     1      19.471  12.487  -1.160  1.00  0.00     0.000 C 
BRANCH   4   5
ATOM      5  C   UNL     1      20.187  13.283  -2.257  1.00  0.00     0.000 C 
BRANCH   5   6
ATOM      6  C   UNL     1      21.051  12.364  -3.131  1.00  0.00     0.006 C 
BRANCH   6   7
ATOM      7  C   UNL     1      22.468  12.918  -3.335  1.00  0.00     0.053 C 
BRANCH   7   8
ATOM      8  C   UNL     1      23.070  12.444  -4.622  1.00  0.00     0.041 C 
ATOM      9  O   UNL     1      23.931  11.525  -4.617  1.00  0.00    -0.550 OA
ATOM     10  O   UNL     1      22.704  13.038  -5.824  1.00  0.00    -0.550 OA
ENDBRANCH   7   8
ENDBRANCH   6   7
ENDBRANCH   5   6
ENDBRANCH   4   5
ENDBRANCH   3   4
ENDBRANCH   2   3
ENDBRANCH   1   2
BRANCH   1  11
ATOM     11  C   UNL     1      22.090  15.627   0.869  1.00  0.00     0.000 C 
BRANCH  11  12
ATOM     12  C   UNL     1      22.811  14.727  -0.153  1.00  0.00    -0.000 C 
BRANCH  12  13
ATOM     13  C   UNL     1      23.591  13.544   0.454  1.00  0.00    -0.000 C 
BRANCH  13  14
ATOM     14  C   UNL     1      22.829  12.206   0.480  1.00  0.00    -0.000 C 
BRANCH  14  15
ATOM     15  C   UNL     1      22.163  11.926   1.834  1.00  0.00    -0.000 C 
BRANCH  15  16
ATOM     16  C   UNL     1      23.035  12.433   2.990  1.00  0.00    -0.000 C 
BRANCH  16  17
ATOM     17  C   UNL     1      22.236  13.351   3.921  1.00  0.00    -0.003 C 
ATOM     18  C   UNL     1      22.958  14.676   4.143  1.00  0.00     0.004 C 
ENDBRANCH  16  17
ENDBRANCH  15  16
ENDBRANCH  14  15
ENDBRANCH  13  14
ENDBRANCH  12  13
ENDBRANCH  11  12
ENDBRANCH   1  11
TORSDOF 14
ENDMDL
MODEL 6
REMARK VINA RESULT:    -5.433      2.451      4.458
REMARK INTER + INTRA:         -12.185
REMARK INTER:                 -10.143
REMARK INTRA:                  -2.042
REMARK UNBOUND:                -2.304
REMARK SMILES CCCCCCCCCCCCCCCC(=O)[O-]
REMARK SMILES IDX 9 1 10 2 11 3 12 4 13 5 14 6 15 7 16 8 17 9 18 10 8 11 7 12
REMARK SMILES IDX 6 13 5 14 4 15 3 16 2 17 1 18
REMARK H PARENT
REMARK Flexibility Score: inf
ROOT
ATOM      1  C   UNL     1      22.789  12.909   2.639  1.00  0.00     0.000 C 
ENDROOT
BRANCH   1   2
ATOM      2  C   UNL     1      23.906  13.598   1.829  1.00  0.00     0.000 C 
BRANCH   2   3
ATOM      3  C   UNL     1      23.524  14.958   1.219  1.00  0.00     0.000 C 
BRANCH   3   4
ATOM      4  C   UNL     1      22.452  15.697   2.032  1.00  0.00     0.000 C 
BRANCH   4   5
ATOM      5  C   UNL     1      21.343  16.235   1.119  1.00  0.00     0.000 C 
BRANCH   5   6
ATOM      6  C   UNL     1      20.196  15.222   0.988  1.00  0.00     0.006 C 
BRANCH   6   7
ATOM      7  C   UNL     1      20.026  14.719  -0.451  1.00  0.00     0.053 C 
BRANCH   7   8
ATOM      8  C   UNL     1      19.032  13.601  -0.536  1.00  0.00     0.041 C 
ATOM      9  O   UNL     1      18.753  12.924   0.489  1.00  0.00    -0.550 OA
ATOM     10  O   UNL     1      18.438  13.287  -1.752  1.00  0.00    -0.550 OA
ENDBRANCH   7   8
ENDBRANCH   6   7
ENDBRANCH   5   6
ENDBRANCH   4   5
ENDBRANCH   3   4
ENDBRANCH   2   3
ENDBRANCH   1   2
BRANCH   1  11
ATOM     11  C   UNL     1      21.843  12.014   1.814  1.00  0.00     0.000 C 
BRANCH  11  12
ATOM     12  C   UNL     1      22.534  11.166   0.728  1.00  0.00    -0.000 C 
BRANCH  12  13
ATOM     13  C   UNL     1      21.612  10.692  -0.414  1.00  0.00    -0.000 C 
BRANCH  13  14
ATOM     14  C   UNL     1      21.742  11.485  -1.727  1.00  0.00    -0.000 C 
BRANCH  14  15
ATOM     15  C   UNL     1      22.669  12.703  -1.598  1.00  0.00    -0.000 C 
BRANCH  15  16
ATOM     16  C   UNL     1      23.432  12.952  -2.906  1.00  0.00    -0.000 C 
BRANCH  16  17
ATOM     17  C   UNL     1      22.488  12.896  -4.112  1.00  0.00    -0.003 C 
ATOM     18  C   UNL     1      23.143  12.187  -5.293  1.00  0.00     0.004 C 
ENDBRANCH  16  17
ENDBRANCH  15  16
ENDBRANCH  14  15
ENDBRANCH  13  14
ENDBRANCH  12  13
ENDBRANCH  11  12
ENDBRANCH   1  11
TORSDOF 14
ENDMDL
MODEL 7
REMARK VINA RESULT:    -5.420      2.966      5.939
REMARK INTER + INTRA:         -12.161
REMARK INTER:                  -9.840
REMARK INTRA:                  -2.321
REMARK UNBOUND:                -2.304
REMARK SMILES CCCCCCCCCCCCCCCC(=O)[O-]
REMARK SMILES IDX 9 1 10 2 11 3 12 4 13 5 14 6 15 7 16 8 17 9 18 10 8 11 7 12
REMARK SMILES IDX 6 13 5 14 4 15 3 16 2 17 1 18
REMARK H PARENT
REMARK Flexibility Score: inf
ROOT
ATOM      1  C   UNL     1      22.015  12.581   2.625  1.00  0.00     0.000 C 
ENDROOT
BRANCH   1   2
ATOM      2  C   UNL     1      22.597  12.088   1.285  1.00  0.00     0.000 C 
BRANCH   2   3
ATOM      3  C   UNL     1      23.906  12.772   0.853  1.00  0.00     0.000 C 
BRANCH   3   4
ATOM      4  C   UNL     1      24.040  12.899  -0.671  1.00  0.00     0.000 C 
BRANCH   4   5
ATOM      5  C   UNL     1      22.674  13.139  -1.325  1.00  0.00     0.000 C 
BRANCH   5   6
ATOM      6  C   UNL     1      22.346  12.034  -2.340  1.00  0.00     0.006 C 
BRANCH   6   7
ATOM      7  C   UNL     1      21.919  12.601  -3.700  1.00  0.00     0.053 C 
BRANCH   7   8
ATOM      8  C   UNL     1      22.955  12.358  -4.754  1.00  0.00     0.041 C 
ATOM      9  O   UNL     1      23.932  11.600  -4.518  1.00  0.00    -0.550 OA
ATOM     10  O   UNL     1      22.859  12.994  -5.986  1.00  0.00    -0.550 OA
ENDBRANCH   7   8
ENDBRANCH   6   7
ENDBRANCH   5   6
ENDBRANCH   4   5
ENDBRANCH   3   4
ENDBRANCH   2   3
ENDBRANCH   1   2
BRANCH   1  11
ATOM     11  C   UNL     1      22.651  13.872   3.177  1.00  0.00     0.000 C 
BRANCH  11  12
ATOM     12  C   UNL     1      21.788  15.139   3.022  1.00  0.00    -0.000 C 
BRANCH  12  13
ATOM     13  C   UNL     1      22.329  16.179   2.020  1.00  0.00    -0.000 C 
BRANCH  13  14
ATOM     14  C   UNL     1      21.695  16.125   0.618  1.00  0.00    -0.000 C 
BRANCH  14  15
ATOM     15  C   UNL     1      20.201  15.770   0.654  1.00  0.00    -0.000 C 
BRANCH  15  16
ATOM     16  C   UNL     1      19.886  14.628  -0.321  1.00  0.00    -0.000 C 
BRANCH  16  17
ATOM     17  C   UNL     1      19.094  13.515   0.374  1.00  0.00    -0.003 C 
ATOM     18  C   UNL     1      19.281  12.178  -0.336  1.00  0.00     0.004 C 
ENDBRANCH  16  17
ENDBRANCH  15  16
ENDBRANCH  14  15
ENDBRANCH  13  14
ENDBRANCH  12  13
ENDBRANCH  11  12
ENDBRANCH   1  11
TORSDOF 14
ENDMDL
MODEL 8
REMARK VINA RESULT:    -5.391      1.180      3.725
REMARK INTER + INTRA:         -12.107
REMARK INTER:                 -10.110
REMARK INTRA:                  -1.997
REMARK UNBOUND:                -2.304
REMARK SMILES CCCCCCCCCCCCCCCC(=O)[O-]
REMARK SMILES IDX 9 1 10 2 11 3 12 4 13 5 14 6 15 7 16 8 17 9 18 10 8 11 7 12
REMARK SMILES IDX 6 13 5 14 4 15 3 16 2 17 1 18
REMARK H PARENT
REMARK Flexibility Score: inf
ROOT
ATOM      1  C   UNL     1      22.180  12.618  -3.416  1.00  0.00     0.000 C 
ENDROOT
BRANCH   1   2
ATOM      2  C   UNL     1      23.367  13.165  -2.599  1.00  0.00     0.000 C 
BRANCH   2   3
ATOM      3  C   UNL     1      23.052  13.486  -1.128  1.00  0.00     0.000 C 
BRANCH   3   4
ATOM      4  C   UNL     1      24.084  12.900  -0.154  1.00  0.00     0.000 C 
BRANCH   4   5
ATOM      5  C   UNL     1      23.665  13.138   1.301  1.00  0.00     0.000 C 
BRANCH   5   6
ATOM      6  C   UNL     1      22.615  12.111   1.748  1.00  0.00     0.006 C 
BRANCH   6   7
ATOM      7  C   UNL     1      21.825  12.582   2.976  1.00  0.00     0.053 C 
BRANCH   7   8
ATOM      8  C   UNL     1      22.730  12.936   4.116  1.00  0.00     0.041 C 
ATOM      9  O   UNL     1      22.788  14.123   4.532  1.00  0.00    -0.550 OA
ATOM     10  O   UNL     1      23.532  11.962   4.698  1.00  0.00    -0.550 OA
ENDBRANCH   7   8
ENDBRANCH   6   7
ENDBRANCH   5   6
ENDBRANCH   4   5
ENDBRANCH   3   4
ENDBRANCH   2   3
ENDBRANCH   1   2
BRANCH   1  11
ATOM     11  C   UNL     1      21.150  11.805  -2.606  1.00  0.00     0.000 C 
BRANCH  11  12
ATOM     12  C   UNL     1      19.827  12.541  -2.315  1.00  0.00    -0.000 C 
BRANCH  12  13
ATOM     13  C   UNL     1      19.393  12.541  -0.835  1.00  0.00    -0.000 C 
BRANCH  13  14
ATOM     14  C   UNL     1      18.968  13.913  -0.282  1.00  0.00    -0.000 C 
BRANCH  14  15
ATOM     15  C   UNL     1      19.991  14.503   0.700  1.00  0.00    -0.000 C 
BRANCH  15  16
ATOM     16  C   UNL     1      20.305  15.964   0.352  1.00  0.00    -0.000 C 
BRANCH  16  17
ATOM     17  C   UNL     1      21.764  16.305   0.673  1.00  0.00    -0.003 C 
ATOM     18  C   UNL     1      22.001  16.348   2.180  1.00  0.00     0.004 C 
ENDBRANCH  16  17
ENDBRANCH  15  16
ENDBRANCH  14  15
ENDBRANCH  13  14
ENDBRANCH  12  13
ENDBRANCH  11  12
ENDBRANCH   1  11
TORSDOF 14
ENDMDL
MODEL 9
REMARK VINA RESULT:    -5.379      3.049      5.368
REMARK INTER + INTRA:         -12.086
REMARK INTER:                  -9.873
REMARK INTRA:                  -2.213
REMARK UNBOUND:                -2.304
REMARK SMILES CCCCCCCCCCCCCCCC(=O)[O-]
REMARK SMILES IDX 9 1 10 2 11 3 12 4 13 5 14 6 15 7 16 8 17 9 18 10 8 11 7 12
REMARK SMILES IDX 6 13 5 14 4 15 3 16 2 17 1 18
REMARK H PARENT
REMARK Flexibility Score: inf
ROOT
ATOM      1  C   UNL     1      20.746  12.664   1.078  1.00  0.00     0.000 C 
ENDROOT
BRANCH   1   2
ATOM      2  C   UNL     1      19.409  12.436   0.346  1.00  0.00     0.000 C 
BRANCH   2   3
ATOM      3  C   UNL     1      19.043  13.512  -0.691  1.00  0.00     0.000 C 
BRANCH   3   4
ATOM      4  C   UNL     1      20.128  13.706  -1.759  1.00  0.00     0.000 C 
BRANCH   4   5
ATOM      5  C   UNL     1      19.937  12.727  -2.923  1.00  0.00     0.000 C 
BRANCH   5   6
ATOM      6  C   UNL     1      21.109  11.739  -3.012  1.00  0.00     0.006 C 
BRANCH   6   7
ATOM      7  C   UNL     1      22.466  12.451  -3.076  1.00  0.00     0.053 C 
BRANCH   7   8
ATOM      8  C   UNL     1      23.090  12.339  -4.434  1.00  0.00     0.041 C 
ATOM      9  O   UNL     1      22.679  13.061  -5.380  1.00  0.00    -0.550 OA
ATOM     10  O   UNL     1      24.102  11.415  -4.662  1.00  0.00    -0.550 OA
ENDBRANCH   7   8
ENDBRANCH   6   7
ENDBRANCH   5   6
ENDBRANCH   4   5
ENDBRANCH   3   4
ENDBRANCH   2   3
ENDBRANCH   1   2
BRANCH   1  11
ATOM     11  C   UNL     1      21.857  11.651   0.737  1.00  0.00     0.000 C 
BRANCH  11  12
ATOM     12  C   UNL     1      23.274  12.250   0.638  1.00  0.00    -0.000 C 
BRANCH  12  13
ATOM     13  C   UNL     1      23.331  13.717   0.163  1.00  0.00    -0.000 C 
BRANCH  13  14
ATOM     14  C   UNL     1      23.798  14.727   1.227  1.00  0.00    -0.000 C 
BRANCH  14  15
ATOM     15  C   UNL     1      22.733  15.783   1.554  1.00  0.00    -0.000 C 
BRANCH  15  16
ATOM     16  C   UNL     1      22.022  15.455   2.874  1.00  0.00    -0.000 C 
BRANCH  16  17
ATOM     17  C   UNL     1      22.993  14.827   3.880  1.00  0.00    -0.003 C 
ATOM     18  C   UNL     1      22.518  13.445   4.317  1.00  0.00     0.004 C 
ENDBRANCH  16  17
ENDBRANCH  15  16
ENDBRANCH  14  15
ENDBRANCH  13  14
ENDBRANCH  12  13
ENDBRANCH  11  12
ENDBRANCH   1  11
TORSDOF 14
ENDMDL
