MODEL 1
REMARK VINA RESULT:    -6.042      0.000      0.000
REMARK INTER + INTRA:         -10.075
REMARK INTER:                  -8.690
REMARK INTRA:                  -1.385
REMARK UNBOUND:                -1.385
REMARK SMILES O=c1c(O[C@H]2O[C@H](CO)[C@H](O)[C@H](O)[C@@H]2O)c(-c2ccc(O)cc2)oc2cc(O)cc(O)c12
REMARK SMILES IDX 4 1 3 2 16 3 24 4 2 5 25 6 1 7 32 8 26 9 30 10 27 11 29 12
REMARK SMILES IDX 17 13 18 14 19 15 20 16 23 17 22 18 21 19 31 21 28 23 5 25
REMARK SMILES IDX 14 26 6 27 12 28 7 29 10 30 15 31 13 33 8 35 9 36 11 38
REMARK H PARENT 21 20 31 22 28 24 15 32 13 34 9 37 11 39
REMARK Flexibility Score: inf
ROOT
ATOM      1  O   UNL     1      18.094   0.044 -12.263  1.00  0.00    -0.454 OA
ENDROOT
BRANCH   1   2
ATOM      2  C   UNL     1      18.334  -0.112 -13.638  1.00  0.00     0.214 A 
ATOM      3  C   UNL     1      17.436  -0.880 -14.412  1.00  0.00     0.180 A 
ATOM      4  O   UNL     1      17.616  -0.991 -15.724  1.00  0.00    -0.452 OA
ATOM      5  C   UNL     1      19.447   0.471 -14.281  1.00  0.00     0.239 A 
ATOM      6  C   UNL     1      18.631  -0.431 -16.372  1.00  0.00     0.146 A 
ATOM      7  O   UNL     1      20.311   1.094 -13.604  1.00  0.00    -0.285 OA
ATOM      8  C   UNL     1      19.604   0.328 -15.677  1.00  0.00     0.111 A 
ATOM      9  C   UNL     1      18.732  -0.605 -17.756  1.00  0.00     0.094 A 
ATOM     10  C   UNL     1      20.685   0.899 -16.401  1.00  0.00     0.134 A 
ATOM     11  C   UNL     1      19.800  -0.037 -18.466  1.00  0.00     0.123 A 
ATOM     12  C   UNL     1      20.772   0.706 -17.789  1.00  0.00     0.093 A 
BRANCH   3  13
ATOM     13  C   UNL     1      16.246  -1.540 -13.821  1.00  0.00     0.021 A 
ATOM     14  C   UNL     1      16.238  -2.940 -13.677  1.00  0.00     0.016 A 
ATOM     15  C   UNL     1      15.123  -3.592 -13.136  1.00  0.00     0.047 A 
ATOM     16  C   UNL     1      14.007  -2.854 -12.723  1.00  0.00     0.115 A 
ATOM     17  C   UNL     1      15.128  -0.800 -13.382  1.00  0.00     0.016 A 
ATOM     18  C   UNL     1      14.012  -1.455 -12.847  1.00  0.00     0.047 A 
BRANCH  16  19
ATOM     19  O   UNL     1      12.903  -3.519 -12.189  1.00  0.00    -0.508 OA
ATOM     20  H   UNL     1      11.972  -3.120 -12.232  1.00  0.00     0.293 HD
ENDBRANCH  16  19
ENDBRANCH   3  13
BRANCH  10  21
ATOM     21  O   UNL     1      21.671   1.657 -15.757  1.00  0.00    -0.507 OA
ATOM     22  H   UNL     1      22.643   1.640 -16.053  1.00  0.00     0.293 HD
ENDBRANCH  10  21
BRANCH  11  23
ATOM     23  O   UNL     1      19.908  -0.207 -19.849  1.00  0.00    -0.508 OA
ATOM     24  H   UNL     1      19.088  -0.332 -20.433  1.00  0.00     0.293 HD
ENDBRANCH  11  23
ENDBRANCH   1   2
BRANCH   1  25
ATOM     25  C   UNL     1      18.760  -0.681 -11.221  1.00  0.00     0.339 C 
ATOM     26  C   UNL     1      17.933  -1.917 -10.828  1.00  0.00     0.214 C 
ATOM     27  O   UNL     1      19.023   0.149 -10.095  1.00  0.00    -0.332 OA
ATOM     28  C   UNL     1      16.639  -1.489 -10.109  1.00  0.00     0.180 C 
ATOM     29  C   UNL     1      17.824   0.650  -9.515  1.00  0.00     0.179 C 
ATOM     30  C   UNL     1      16.952  -0.501  -8.966  1.00  0.00     0.177 C 
BRANCH  26  31
ATOM     31  O   UNL     1      18.710  -2.745  -9.999  1.00  0.00    -0.384 OA
ATOM     32  H   UNL     1      18.246  -2.791  -9.119  1.00  0.00     0.211 HD
ENDBRANCH  26  31
BRANCH  28  33
ATOM     33  O   UNL     1      15.968  -2.624  -9.621  1.00  0.00    -0.387 OA
ATOM     34  H   UNL     1      15.532  -3.065 -10.401  1.00  0.00     0.211 HD
ENDBRANCH  28  33
BRANCH  29  35
ATOM     35  C   UNL     1      18.200   1.663  -8.419  1.00  0.00     0.191 C 
BRANCH  35  36
ATOM     36  O   UNL     1      17.248   1.649  -7.387  1.00  0.00    -0.394 OA
ATOM     37  H   UNL     1      16.826   2.548  -7.371  1.00  0.00     0.210 HD
ENDBRANCH  35  36
ENDBRANCH  29  35
BRANCH  30  38
ATOM     38  O   UNL     1      17.630  -1.155  -7.920  1.00  0.00    -0.387 OA
ATOM     39  H   UNL     1      17.517  -0.595  -7.108  1.00  0.00     0.211 HD
ENDBRANCH  30  38
ENDBRANCH   1  25
TORSDOF 11
ENDMDL
MODEL 2
REMARK VINA RESULT:    -5.938      2.306      3.540
REMARK INTER + INTRA:          -9.926
REMARK INTER:                  -8.225
REMARK INTRA:                  -1.701
REMARK UNBOUND:                -1.385
REMARK SMILES O=c1c(O[C@H]2O[C@H](CO)[C@H](O)[C@H](O)[C@@H]2O)c(-c2ccc(O)cc2)oc2cc(O)cc(O)c12
REMARK SMILES IDX 4 1 3 2 16 3 24 4 2 5 25 6 1 7 32 8 26 9 30 10 27 11 29 12
REMARK SMILES IDX 17 13 18 14 19 15 20 16 23 17 22 18 21 19 31 21 28 23 5 25
REMARK SMILES IDX 14 26 6 27 12 28 7 29 10 30 15 31 13 33 8 35 9 36 11 38
REMARK H PARENT 21 20 31 22 28 24 15 32 13 34 9 37 11 39
REMARK Flexibility Score: inf
ROOT
ATOM      1  O   UNL     1      19.467   1.071 -14.063  1.00  0.00    -0.454 OA
ENDROOT
BRANCH   1   2
ATOM      2  C   UNL     1      19.435   0.622 -15.394  1.00  0.00     0.214 A 
ATOM      3  C   UNL     1      18.343  -0.159 -15.832  1.00  0.00     0.180 A 
ATOM      4  O   UNL     1      18.269  -0.544 -17.102  1.00  0.00    -0.452 OA
ATOM      5  C   UNL     1      20.461   0.922 -16.316  1.00  0.00     0.239 A 
ATOM      6  C   UNL     1      19.196  -0.255 -18.008  1.00  0.00     0.146 A 
ATOM      7  O   UNL     1      21.487   1.548 -15.934  1.00  0.00    -0.285 OA
ATOM      8  C   UNL     1      20.345   0.492 -17.655  1.00  0.00     0.111 A 
ATOM      9  C   UNL     1      19.024  -0.705 -19.322  1.00  0.00     0.094 A 
ATOM     10  C   UNL     1      21.323   0.769 -18.649  1.00  0.00     0.134 A 
ATOM     11  C   UNL     1      19.993  -0.427 -20.298  1.00  0.00     0.123 A 
ATOM     12  C   UNL     1      21.136   0.302 -19.959  1.00  0.00     0.093 A 
BRANCH   3  13
ATOM     13  C   UNL     1      17.225  -0.534 -14.932  1.00  0.00     0.021 A 
ATOM     14  C   UNL     1      16.059   0.256 -14.918  1.00  0.00     0.016 A 
ATOM     15  C   UNL     1      14.994  -0.066 -14.068  1.00  0.00     0.047 A 
ATOM     16  C   UNL     1      15.074  -1.185 -13.231  1.00  0.00     0.115 A 
ATOM     17  C   UNL     1      17.290  -1.673 -14.103  1.00  0.00     0.016 A 
ATOM     18  C   UNL     1      16.225  -1.989 -13.250  1.00  0.00     0.047 A 
BRANCH  16  19
ATOM     19  O   UNL     1      14.005  -1.491 -12.389  1.00  0.00    -0.508 OA
ATOM     20  H   UNL     1      13.918  -1.073 -11.468  1.00  0.00     0.293 HD
ENDBRANCH  16  19
ENDBRANCH   3  13
BRANCH  10  21
ATOM     21  O   UNL     1      22.477   1.505 -18.347  1.00  0.00    -0.507 OA
ATOM     22  H   UNL     1      22.513   2.516 -18.448  1.00  0.00     0.293 HD
ENDBRANCH  10  21
BRANCH  11  23
ATOM     23  O   UNL     1      19.829  -0.873 -21.612  1.00  0.00    -0.508 OA
ATOM     24  H   UNL     1      19.240  -0.376 -22.271  1.00  0.00     0.293 HD
ENDBRANCH  11  23
ENDBRANCH   1   2
BRANCH   1  25
ATOM     25  C   UNL     1      19.036   2.364 -13.617  1.00  0.00     0.339 C 
ATOM     26  C   UNL     1      20.159   3.046 -12.818  1.00  0.00     0.214 C 
ATOM     27  O   UNL     1      17.834   2.279 -12.860  1.00  0.00    -0.332 OA
ATOM     28  C   UNL     1      20.371   2.325 -11.472  1.00  0.00     0.180 C 
ATOM     29  C   UNL     1      18.004   1.499 -11.682  1.00  0.00     0.179 C 
ATOM     30  C   UNL     1      19.030   2.152 -10.729  1.00  0.00     0.177 C 
BRANCH  26  31
ATOM     31  O   UNL     1      19.821   4.395 -12.610  1.00  0.00    -0.384 OA
ATOM     32  H   UNL     1      19.402   4.722 -13.453  1.00  0.00     0.211 HD
ENDBRANCH  26  31
BRANCH  28  33
ATOM     33  O   UNL     1      21.289   3.045 -10.686  1.00  0.00    -0.387 OA
ATOM     34  H   UNL     1      21.527   3.869 -11.194  1.00  0.00     0.211 HD
ENDBRANCH  28  33
BRANCH  29  35
ATOM     35  C   UNL     1      16.629   1.320 -11.015  1.00  0.00     0.191 C 
BRANCH  35  36
ATOM     36  O   UNL     1      15.801   2.422 -11.287  1.00  0.00    -0.394 OA
ATOM     37  H   UNL     1      15.984   3.101 -10.586  1.00  0.00     0.210 HD
ENDBRANCH  35  36
ENDBRANCH  29  35
BRANCH  30  38
ATOM     38  O   UNL     1      18.546   3.397 -10.287  1.00  0.00    -0.387 OA
ATOM     39  H   UNL     1      18.183   3.257  -9.374  1.00  0.00     0.211 HD
ENDBRANCH  30  38
ENDBRANCH   1  25
TORSDOF 11
ENDMDL
MODEL 3
REMARK VINA RESULT:    -5.826      2.990      5.541
REMARK INTER + INTRA:          -9.765
REMARK INTER:                  -8.443
REMARK INTRA:                  -1.321
REMARK UNBOUND:                -1.385
REMARK SMILES O=c1c(O[C@H]2O[C@H](CO)[C@H](O)[C@H](O)[C@@H]2O)c(-c2ccc(O)cc2)oc2cc(O)cc(O)c12
REMARK SMILES IDX 4 1 3 2 16 3 24 4 2 5 25 6 1 7 32 8 26 9 30 10 27 11 29 12
REMARK SMILES IDX 17 13 18 14 19 15 20 16 23 17 22 18 21 19 31 21 28 23 5 25
REMARK SMILES IDX 14 26 6 27 12 28 7 29 10 30 15 31 13 33 8 35 9 36 11 38
REMARK H PARENT 21 20 31 22 28 24 15 32 13 34 9 37 11 39
REMARK Flexibility Score: inf
ROOT
ATOM      1  O   UNL     1      17.412  -2.889 -11.959  1.00  0.00    -0.454 OA
ENDROOT
BRANCH   1   2
ATOM      2  C   UNL     1      17.066  -3.671 -13.073  1.00  0.00     0.214 A 
ATOM      3  C   UNL     1      16.828  -3.038 -14.313  1.00  0.00     0.180 A 
ATOM      4  O   UNL     1      16.555  -3.767 -15.390  1.00  0.00    -0.452 OA
ATOM      5  C   UNL     1      16.944  -5.075 -13.001  1.00  0.00     0.239 A 
ATOM      6  C   UNL     1      16.464  -5.092 -15.371  1.00  0.00     0.146 A 
ATOM      7  O   UNL     1      17.070  -5.662 -11.891  1.00  0.00    -0.285 OA
ATOM      8  C   UNL     1      16.651  -5.814 -14.167  1.00  0.00     0.111 A 
ATOM      9  C   UNL     1      16.176  -5.771 -16.560  1.00  0.00     0.094 A 
ATOM     10  C   UNL     1      16.531  -7.230 -14.182  1.00  0.00     0.134 A 
ATOM     11  C   UNL     1      16.059  -7.168 -16.569  1.00  0.00     0.123 A 
ATOM     12  C   UNL     1      16.233  -7.891 -15.384  1.00  0.00     0.093 A 
BRANCH   3  13
ATOM     13  C   UNL     1      16.921  -1.567 -14.483  1.00  0.00     0.021 A 
ATOM     14  C   UNL     1      15.757  -0.786 -14.352  1.00  0.00     0.016 A 
ATOM     15  C   UNL     1      15.811   0.603 -14.521  1.00  0.00     0.047 A 
ATOM     16  C   UNL     1      17.029   1.230 -14.811  1.00  0.00     0.115 A 
ATOM     17  C   UNL     1      18.148  -0.927 -14.752  1.00  0.00     0.016 A 
ATOM     18  C   UNL     1      18.199   0.461 -14.926  1.00  0.00     0.047 A 
BRANCH  16  19
ATOM     19  O   UNL     1      17.066   2.615 -14.979  1.00  0.00    -0.508 OA
ATOM     20  H   UNL     1      17.114   3.036 -15.900  1.00  0.00     0.293 HD
ENDBRANCH  16  19
ENDBRANCH   3  13
BRANCH  10  21
ATOM     21  O   UNL     1      16.707  -7.986 -13.016  1.00  0.00    -0.507 OA
ATOM     22  H   UNL     1      16.211  -7.772 -12.155  1.00  0.00     0.293 HD
ENDBRANCH  10  21
BRANCH  11  23
ATOM     23  O   UNL     1      15.770  -7.852 -17.752  1.00  0.00    -0.508 OA
ATOM     24  H   UNL     1      14.815  -8.051 -18.030  1.00  0.00     0.293 HD
ENDBRANCH  11  23
ENDBRANCH   1   2
BRANCH   1  25
ATOM     25  C   UNL     1      16.512  -2.494 -10.915  1.00  0.00     0.339 C 
ATOM     26  C   UNL     1      16.289  -0.973 -10.959  1.00  0.00     0.214 C 
ATOM     27  O   UNL     1      16.978  -2.917  -9.639  1.00  0.00    -0.332 OA
ATOM     28  C   UNL     1      17.573  -0.232 -10.536  1.00  0.00     0.180 C 
ATOM     29  C   UNL     1      18.232  -2.330  -9.312  1.00  0.00     0.179 C 
ATOM     30  C   UNL     1      18.112  -0.793  -9.204  1.00  0.00     0.177 C 
BRANCH  26  31
ATOM     31  O   UNL     1      15.222  -0.640 -10.106  1.00  0.00    -0.384 OA
ATOM     32  H   UNL     1      15.351   0.310  -9.836  1.00  0.00     0.211 HD
ENDBRANCH  26  31
BRANCH  28  33
ATOM     33  O   UNL     1      17.315   1.146 -10.431  1.00  0.00    -0.387 OA
ATOM     34  H   UNL     1      17.596   1.564 -11.292  1.00  0.00     0.211 HD
ENDBRANCH  28  33
BRANCH  29  35
ATOM     35  C   UNL     1      18.740  -2.962  -8.005  1.00  0.00     0.191 C 
BRANCH  35  36
ATOM     36  O   UNL     1      17.677  -3.167  -7.110  1.00  0.00    -0.394 OA
ATOM     37  H   UNL     1      17.073  -2.383  -7.194  1.00  0.00     0.210 HD
ENDBRANCH  35  36
ENDBRANCH  29  35
BRANCH  30  38
ATOM     38  O   UNL     1      17.253  -0.456  -8.142  1.00  0.00    -0.387 OA
ATOM     39  H   UNL     1      17.426  -1.107  -7.413  1.00  0.00     0.211 HD
ENDBRANCH  30  38
ENDBRANCH   1  25
TORSDOF 11
ENDMDL
MODEL 4
REMARK VINA RESULT:    -5.771      1.649      2.494
REMARK INTER + INTRA:          -9.686
REMARK INTER:                  -8.245
REMARK INTRA:                  -1.440
REMARK UNBOUND:                -1.385
REMARK SMILES O=c1c(O[C@H]2O[C@H](CO)[C@H](O)[C@H](O)[C@@H]2O)c(-c2ccc(O)cc2)oc2cc(O)cc(O)c12
REMARK SMILES IDX 4 1 3 2 16 3 24 4 2 5 25 6 1 7 32 8 26 9 30 10 27 11 29 12
REMARK SMILES IDX 17 13 18 14 19 15 20 16 23 17 22 18 21 19 31 21 28 23 5 25
REMARK SMILES IDX 14 26 6 27 12 28 7 29 10 30 15 31 13 33 8 35 9 36 11 38
REMARK H PARENT 21 20 31 22 28 24 15 32 13 34 9 37 11 39
REMARK Flexibility Score: inf
ROOT
ATOM      1  O   UNL     1      19.349   1.051 -14.016  1.00  0.00    -0.454 OA
ENDROOT
BRANCH   1   2
ATOM      2  C   UNL     1      19.381   0.592 -15.343  1.00  0.00     0.214 A 
ATOM      3  C   UNL     1      18.354  -0.262 -15.803  1.00  0.00     0.180 A 
ATOM      4  O   UNL     1      18.339  -0.660 -17.071  1.00  0.00    -0.452 OA
ATOM      5  C   UNL     1      20.409   0.952 -16.241  1.00  0.00     0.239 A 
ATOM      6  C   UNL     1      19.268  -0.316 -17.956  1.00  0.00     0.146 A 
ATOM      7  O   UNL     1      21.382   1.647 -15.839  1.00  0.00    -0.285 OA
ATOM      8  C   UNL     1      20.356   0.507 -17.580  1.00  0.00     0.111 A 
ATOM      9  C   UNL     1      19.161  -0.785 -19.270  1.00  0.00     0.094 A 
ATOM     10  C   UNL     1      21.340   0.841 -18.550  1.00  0.00     0.134 A 
ATOM     11  C   UNL     1      20.134  -0.451 -20.223  1.00  0.00     0.123 A 
ATOM     12  C   UNL     1      21.219   0.354 -19.861  1.00  0.00     0.093 A 
BRANCH   3  13
ATOM     13  C   UNL     1      17.240  -0.703 -14.929  1.00  0.00     0.021 A 
ATOM     14  C   UNL     1      16.219   0.210 -14.602  1.00  0.00     0.016 A 
ATOM     15  C   UNL     1      15.163  -0.174 -13.768  1.00  0.00     0.047 A 
ATOM     16  C   UNL     1      15.106  -1.477 -13.258  1.00  0.00     0.115 A 
ATOM     17  C   UNL     1      17.165  -2.020 -14.431  1.00  0.00     0.016 A 
ATOM     18  C   UNL     1      16.110  -2.401 -13.592  1.00  0.00     0.047 A 
BRANCH  16  19
ATOM     19  O   UNL     1      14.048  -1.844 -12.426  1.00  0.00    -0.508 OA
ATOM     20  H   UNL     1      13.350  -1.170 -12.127  1.00  0.00     0.293 HD
ENDBRANCH  16  19
ENDBRANCH   3  13
BRANCH  10  21
ATOM     21  O   UNL     1      22.435   1.653 -18.225  1.00  0.00    -0.507 OA
ATOM     22  H   UNL     1      23.301   1.268 -17.857  1.00  0.00     0.293 HD
ENDBRANCH  10  21
BRANCH  11  23
ATOM     23  O   UNL     1      20.034  -0.916 -21.536  1.00  0.00    -0.508 OA
ATOM     24  H   UNL     1      20.386  -1.829 -21.804  1.00  0.00     0.293 HD
ENDBRANCH  11  23
ENDBRANCH   1   2
BRANCH   1  25
ATOM     25  C   UNL     1      20.207   0.593 -12.963  1.00  0.00     0.339 C 
ATOM     26  C   UNL     1      19.535  -0.563 -12.202  1.00  0.00     0.214 C 
ATOM     27  O   UNL     1      20.567   1.655 -12.086  1.00  0.00    -0.332 OA
ATOM     28  C   UNL     1      18.329  -0.043 -11.395  1.00  0.00     0.180 C 
ATOM     29  C   UNL     1      19.430   2.220 -11.444  1.00  0.00     0.179 C 
ATOM     30  C   UNL     1      18.730   1.178 -10.541  1.00  0.00     0.177 C 
BRANCH  26  31
ATOM     31  O   UNL     1      20.480  -1.162 -11.350  1.00  0.00    -0.384 OA
ATOM     32  H   UNL     1      19.975  -1.548 -10.582  1.00  0.00     0.211 HD
ENDBRANCH  26  31
BRANCH  28  33
ATOM     33  O   UNL     1      17.818  -1.073 -10.586  1.00  0.00    -0.387 OA
ATOM     34  H   UNL     1      18.491  -1.809 -10.588  1.00  0.00     0.211 HD
ENDBRANCH  28  33
BRANCH  29  35
ATOM     35  C   UNL     1      19.884   3.457 -10.651  1.00  0.00     0.191 C 
BRANCH  35  36
ATOM     36  O   UNL     1      18.993   3.724  -9.598  1.00  0.00    -0.394 OA
ATOM     37  H   UNL     1      18.086   3.472  -9.916  1.00  0.00     0.210 HD
ENDBRANCH  35  36
ENDBRANCH  29  35
BRANCH  30  38
ATOM     38  O   UNL     1      19.595   0.791  -9.501  1.00  0.00    -0.387 OA
ATOM     39  H   UNL     1      19.275   1.243  -8.677  1.00  0.00     0.211 HD
ENDBRANCH  30  38
ENDBRANCH   1  25
TORSDOF 11
ENDMDL
MODEL 5
REMARK VINA RESULT:    -5.760      3.228      5.700
REMARK INTER + INTRA:          -9.670
REMARK INTER:                  -8.399
REMARK INTRA:                  -1.271
REMARK UNBOUND:                -1.385
REMARK SMILES O=c1c(O[C@H]2O[C@H](CO)[C@H](O)[C@H](O)[C@@H]2O)c(-c2ccc(O)cc2)oc2cc(O)cc(O)c12
REMARK SMILES IDX 4 1 3 2 16 3 24 4 2 5 25 6 1 7 32 8 26 9 30 10 27 11 29 12
REMARK SMILES IDX 17 13 18 14 19 15 20 16 23 17 22 18 21 19 31 21 28 23 5 25
REMARK SMILES IDX 14 26 6 27 12 28 7 29 10 30 15 31 13 33 8 35 9 36 11 38
REMARK H PARENT 21 20 31 22 28 24 15 32 13 34 9 37 11 39
REMARK Flexibility Score: inf
ROOT
ATOM      1  O   UNL     1      17.427  -1.564 -11.663  1.00  0.00    -0.454 OA
ENDROOT
BRANCH   1   2
ATOM      2  C   UNL     1      16.157  -1.157 -12.103  1.00  0.00     0.214 A 
ATOM      3  C   UNL     1      15.593  -1.772 -13.243  1.00  0.00     0.180 A 
ATOM      4  O   UNL     1      14.369  -1.439 -13.640  1.00  0.00    -0.452 OA
ATOM      5  C   UNL     1      15.417  -0.150 -11.446  1.00  0.00     0.239 A 
ATOM      6  C   UNL     1      13.627  -0.521 -13.030  1.00  0.00     0.146 A 
ATOM      7  O   UNL     1      15.927   0.474 -10.475  1.00  0.00    -0.285 OA
ATOM      8  C   UNL     1      14.121   0.175 -11.900  1.00  0.00     0.111 A 
ATOM      9  C   UNL     1      12.348  -0.244 -13.524  1.00  0.00     0.094 A 
ATOM     10  C   UNL     1      13.305   1.162 -11.284  1.00  0.00     0.134 A 
ATOM     11  C   UNL     1      11.547   0.730 -12.910  1.00  0.00     0.123 A 
ATOM     12  C   UNL     1      12.027   1.430 -11.799  1.00  0.00     0.093 A 
BRANCH   3  13
ATOM     13  C   UNL     1      16.300  -2.830 -14.004  1.00  0.00     0.021 A 
ATOM     14  C   UNL     1      17.311  -2.464 -14.914  1.00  0.00     0.016 A 
ATOM     15  C   UNL     1      17.986  -3.440 -15.656  1.00  0.00     0.047 A 
ATOM     16  C   UNL     1      17.669  -4.794 -15.492  1.00  0.00     0.115 A 
ATOM     17  C   UNL     1      16.002  -4.197 -13.827  1.00  0.00     0.016 A 
ATOM     18  C   UNL     1      16.675  -5.171 -14.575  1.00  0.00     0.047 A 
BRANCH  16  19
ATOM     19  O   UNL     1      18.349  -5.754 -16.242  1.00  0.00    -0.508 OA
ATOM     20  H   UNL     1      19.107  -5.500 -16.867  1.00  0.00     0.293 HD
ENDBRANCH  16  19
ENDBRANCH   3  13
BRANCH  10  21
ATOM     21  O   UNL     1      13.751   1.877 -10.164  1.00  0.00    -0.507 OA
ATOM     22  H   UNL     1      13.710   2.891 -10.121  1.00  0.00     0.293 HD
ENDBRANCH  10  21
BRANCH  11  23
ATOM     23  O   UNL     1      10.268   1.012 -13.398  1.00  0.00    -0.508 OA
ATOM     24  H   UNL     1       9.772   1.854 -13.127  1.00  0.00     0.293 HD
ENDBRANCH  11  23
ENDBRANCH   1   2
BRANCH   1  25
ATOM     25  C   UNL     1      17.703  -2.770 -10.940  1.00  0.00     0.339 C 
ATOM     26  C   UNL     1      17.211  -2.639  -9.488  1.00  0.00     0.214 C 
ATOM     27  O   UNL     1      19.086  -3.104 -10.993  1.00  0.00    -0.332 OA
ATOM     28  C   UNL     1      18.082  -1.628  -8.717  1.00  0.00     0.180 C 
ATOM     29  C   UNL     1      19.897  -2.099 -10.396  1.00  0.00     0.179 C 
ATOM     30  C   UNL     1      19.580  -1.955  -8.890  1.00  0.00     0.177 C 
BRANCH  26  31
ATOM     31  O   UNL     1      17.256  -3.902  -8.872  1.00  0.00    -0.384 OA
ATOM     32  H   UNL     1      18.098  -3.936  -8.340  1.00  0.00     0.211 HD
ENDBRANCH  26  31
BRANCH  28  33
ATOM     33  O   UNL     1      17.723  -1.629  -7.358  1.00  0.00    -0.387 OA
ATOM     34  H   UNL     1      16.918  -1.047  -7.266  1.00  0.00     0.211 HD
ENDBRANCH  28  33
BRANCH  29  35
ATOM     35  C   UNL     1      21.373  -2.454 -10.643  1.00  0.00     0.191 C 
BRANCH  35  36
ATOM     36  O   UNL     1      21.579  -3.837 -10.501  1.00  0.00    -0.394 OA
ATOM     37  H   UNL     1      22.298  -4.089 -11.138  1.00  0.00     0.210 HD
ENDBRANCH  35  36
ENDBRANCH  29  35
BRANCH  30  38
ATOM     38  O   UNL     1      19.906  -3.148  -8.218  1.00  0.00    -0.387 OA
ATOM     39  H   UNL     1      19.838  -2.959  -7.246  1.00  0.00     0.211 HD
ENDBRANCH  30  38
ENDBRANCH   1  25
TORSDOF 11
ENDMDL
MODEL 6
REMARK VINA RESULT:    -5.728      2.042      3.657
REMARK INTER + INTRA:          -9.624
REMARK INTER:                  -8.215
REMARK INTRA:                  -1.409
REMARK UNBOUND:                -1.385
REMARK SMILES O=c1c(O[C@H]2O[C@H](CO)[C@H](O)[C@H](O)[C@@H]2O)c(-c2ccc(O)cc2)oc2cc(O)cc(O)c12
REMARK SMILES IDX 4 1 3 2 16 3 24 4 2 5 25 6 1 7 32 8 26 9 30 10 27 11 29 12
REMARK SMILES IDX 17 13 18 14 19 15 20 16 23 17 22 18 21 19 31 21 28 23 5 25
REMARK SMILES IDX 14 26 6 27 12 28 7 29 10 30 15 31 13 33 8 35 9 36 11 38
REMARK H PARENT 21 20 31 22 28 24 15 32 13 34 9 37 11 39
REMARK Flexibility Score: inf
ROOT
ATOM      1  O   UNL     1      19.543   1.096 -14.083  1.00  0.00    -0.454 OA
ENDROOT
BRANCH   1   2
ATOM      2  C   UNL     1      19.527   0.650 -15.415  1.00  0.00     0.214 A 
ATOM      3  C   UNL     1      18.460  -0.161 -15.857  1.00  0.00     0.180 A 
ATOM      4  O   UNL     1      18.400  -0.546 -17.128  1.00  0.00    -0.452 OA
ATOM      5  C   UNL     1      20.546   0.982 -16.334  1.00  0.00     0.239 A 
ATOM      6  C   UNL     1      19.319  -0.227 -18.032  1.00  0.00     0.146 A 
ATOM      7  O   UNL     1      21.553   1.637 -15.948  1.00  0.00    -0.285 OA
ATOM      8  C   UNL     1      20.446   0.553 -17.675  1.00  0.00     0.111 A 
ATOM      9  C   UNL     1      19.164  -0.678 -19.347  1.00  0.00     0.094 A 
ATOM     10  C   UNL     1      21.417   0.861 -18.665  1.00  0.00     0.134 A 
ATOM     11  C   UNL     1      20.126  -0.370 -20.321  1.00  0.00     0.123 A 
ATOM     12  C   UNL     1      21.247   0.392 -19.977  1.00  0.00     0.093 A 
BRANCH   3  13
ATOM     13  C   UNL     1      17.351  -0.572 -14.961  1.00  0.00     0.021 A 
ATOM     14  C   UNL     1      16.229   0.268 -14.827  1.00  0.00     0.016 A 
ATOM     15  C   UNL     1      15.174  -0.086 -13.977  1.00  0.00     0.047 A 
ATOM     16  C   UNL     1      15.221  -1.287 -13.259  1.00  0.00     0.115 A 
ATOM     17  C   UNL     1      17.382  -1.790 -14.252  1.00  0.00     0.016 A 
ATOM     18  C   UNL     1      16.329  -2.140 -13.399  1.00  0.00     0.047 A 
BRANCH  16  19
ATOM     19  O   UNL     1      14.163  -1.625 -12.415  1.00  0.00    -0.508 OA
ATOM     20  H   UNL     1      13.368  -2.159 -12.748  1.00  0.00     0.293 HD
ENDBRANCH  16  19
ENDBRANCH   3  13
BRANCH  10  21
ATOM     21  O   UNL     1      22.548   1.629 -18.358  1.00  0.00    -0.507 OA
ATOM     22  H   UNL     1      22.519   2.645 -18.334  1.00  0.00     0.293 HD
ENDBRANCH  10  21
BRANCH  11  23
ATOM     23  O   UNL     1      19.978  -0.817 -21.636  1.00  0.00    -0.508 OA
ATOM     24  H   UNL     1      19.917  -1.805 -21.855  1.00  0.00     0.293 HD
ENDBRANCH  11  23
ENDBRANCH   1   2
BRANCH   1  25
ATOM     25  C   UNL     1      20.076   0.363 -12.972  1.00  0.00     0.339 C 
ATOM     26  C   UNL     1      19.299   0.710 -11.690  1.00  0.00     0.214 C 
ATOM     27  O   UNL     1      21.471   0.595 -12.816  1.00  0.00    -0.332 OA
ATOM     28  C   UNL     1      19.600   2.158 -11.259  1.00  0.00     0.180 C 
ATOM     29  C   UNL     1      21.752   1.964 -12.548  1.00  0.00     0.179 C 
ATOM     30  C   UNL     1      21.122   2.407 -11.209  1.00  0.00     0.177 C 
BRANCH  26  31
ATOM     31  O   UNL     1      19.659  -0.194 -10.676  1.00  0.00    -0.384 OA
ATOM     32  H   UNL     1      19.849   0.345  -9.860  1.00  0.00     0.211 HD
ENDBRANCH  26  31
BRANCH  28  33
ATOM     33  O   UNL     1      19.009   2.415 -10.009  1.00  0.00    -0.387 OA
ATOM     34  H   UNL     1      19.687   2.896  -9.458  1.00  0.00     0.211 HD
ENDBRANCH  28  33
BRANCH  29  35
ATOM     35  C   UNL     1      23.279   2.158 -12.559  1.00  0.00     0.191 C 
BRANCH  35  36
ATOM     36  O   UNL     1      23.765   2.173 -13.877  1.00  0.00    -0.394 OA
ATOM     37  H   UNL     1      24.697   2.514 -13.837  1.00  0.00     0.210 HD
ENDBRANCH  35  36
ENDBRANCH  29  35
BRANCH  30  38
ATOM     38  O   UNL     1      21.705   1.690 -10.147  1.00  0.00    -0.387 OA
ATOM     39  H   UNL     1      22.629   1.459 -10.428  1.00  0.00     0.211 HD
ENDBRANCH  30  38
ENDBRANCH   1  25
TORSDOF 11
ENDMDL
MODEL 7
REMARK VINA RESULT:    -5.606      3.669      6.887
REMARK INTER + INTRA:          -9.448
REMARK INTER:                  -8.257
REMARK INTRA:                  -1.191
REMARK UNBOUND:                -1.385
REMARK SMILES O=c1c(O[C@H]2O[C@H](CO)[C@H](O)[C@H](O)[C@@H]2O)c(-c2ccc(O)cc2)oc2cc(O)cc(O)c12
REMARK SMILES IDX 4 1 3 2 16 3 24 4 2 5 25 6 1 7 32 8 26 9 30 10 27 11 29 12
REMARK SMILES IDX 17 13 18 14 19 15 20 16 23 17 22 18 21 19 31 21 28 23 5 25
REMARK SMILES IDX 14 26 6 27 12 28 7 29 10 30 15 31 13 33 8 35 9 36 11 38
REMARK H PARENT 21 20 31 22 28 24 15 32 13 34 9 37 11 39
REMARK Flexibility Score: inf
ROOT
ATOM      1  O   UNL     1      14.976  -1.356 -11.120  1.00  0.00    -0.454 OA
ENDROOT
BRANCH   1   2
ATOM      2  C   UNL     1      16.079  -1.626 -10.295  1.00  0.00     0.214 A 
ATOM      3  C   UNL     1      16.569  -2.948 -10.209  1.00  0.00     0.180 A 
ATOM      4  O   UNL     1      17.646  -3.211  -9.477  1.00  0.00    -0.452 OA
ATOM      5  C   UNL     1      16.721  -0.621  -9.540  1.00  0.00     0.239 A 
ATOM      6  C   UNL     1      18.298  -2.288  -8.779  1.00  0.00     0.146 A 
ATOM      7  O   UNL     1      16.257   0.553  -9.531  1.00  0.00    -0.285 OA
ATOM      8  C   UNL     1      17.861  -0.942  -8.773  1.00  0.00     0.111 A 
ATOM      9  C   UNL     1      19.425  -2.666  -8.041  1.00  0.00     0.094 A 
ATOM     10  C   UNL     1      18.575   0.015  -8.002  1.00  0.00     0.134 A 
ATOM     11  C   UNL     1      20.127  -1.716  -7.282  1.00  0.00     0.123 A 
ATOM     12  C   UNL     1      19.699  -0.385  -7.262  1.00  0.00     0.093 A 
BRANCH   3  13
ATOM     13  C   UNL     1      15.952  -4.071 -10.956  1.00  0.00     0.021 A 
ATOM     14  C   UNL     1      16.671  -4.676 -12.005  1.00  0.00     0.016 A 
ATOM     15  C   UNL     1      16.109  -5.729 -12.736  1.00  0.00     0.047 A 
ATOM     16  C   UNL     1      14.827  -6.199 -12.424  1.00  0.00     0.115 A 
ATOM     17  C   UNL     1      14.671  -4.564 -10.632  1.00  0.00     0.016 A 
ATOM     18  C   UNL     1      14.109  -5.613 -11.368  1.00  0.00     0.047 A 
BRANCH  16  19
ATOM     19  O   UNL     1      14.281  -7.247 -13.164  1.00  0.00    -0.508 OA
ATOM     20  H   UNL     1      13.374  -7.165 -13.611  1.00  0.00     0.293 HD
ENDBRANCH  16  19
ENDBRANCH   3  13
BRANCH  10  21
ATOM     21  O   UNL     1      18.180   1.359  -7.965  1.00  0.00    -0.507 OA
ATOM     22  H   UNL     1      18.026   1.852  -7.090  1.00  0.00     0.293 HD
ENDBRANCH  10  21
BRANCH  11  23
ATOM     23  O   UNL     1      21.252  -2.086  -6.542  1.00  0.00    -0.508 OA
ATOM     24  H   UNL     1      22.152  -1.641  -6.688  1.00  0.00     0.293 HD
ENDBRANCH  11  23
ENDBRANCH   1   2
BRANCH   1  25
ATOM     25  C   UNL     1      14.993  -1.372 -12.554  1.00  0.00     0.339 C 
ATOM     26  C   UNL     1      15.492  -0.019 -13.090  1.00  0.00     0.214 C 
ATOM     27  O   UNL     1      13.716  -1.705 -13.087  1.00  0.00    -0.332 OA
ATOM     28  C   UNL     1      14.448   1.081 -12.821  1.00  0.00     0.180 C 
ATOM     29  C   UNL     1      12.725  -0.751 -12.721  1.00  0.00     0.179 C 
ATOM     30  C   UNL     1      13.053   0.639 -13.310  1.00  0.00     0.177 C 
BRANCH  26  31
ATOM     31  O   UNL     1      15.745  -0.137 -14.468  1.00  0.00    -0.384 OA
ATOM     32  H   UNL     1      16.566   0.394 -14.659  1.00  0.00     0.211 HD
ENDBRANCH  26  31
BRANCH  28  33
ATOM     33  O   UNL     1      14.843   2.276 -13.447  1.00  0.00    -0.387 OA
ATOM     34  H   UNL     1      14.202   2.984 -13.160  1.00  0.00     0.211 HD
ENDBRANCH  28  33
BRANCH  29  35
ATOM     35  C   UNL     1      11.355  -1.269 -13.192  1.00  0.00     0.191 C 
BRANCH  35  36
ATOM     36  O   UNL     1      10.461  -0.201 -13.378  1.00  0.00    -0.394 OA
ATOM     37  H   UNL     1       9.556  -0.540 -13.152  1.00  0.00     0.210 HD
ENDBRANCH  35  36
ENDBRANCH  29  35
BRANCH  30  38
ATOM     38  O   UNL     1      13.017   0.582 -14.716  1.00  0.00    -0.387 OA
ATOM     39  H   UNL     1      12.872  -0.368 -14.963  1.00  0.00     0.211 HD
ENDBRANCH  30  38
ENDBRANCH   1  25
TORSDOF 11
ENDMDL
MODEL 8
REMARK VINA RESULT:    -5.572      3.334      6.851
REMARK INTER + INTRA:          -9.400
REMARK INTER:                  -7.759
REMARK INTRA:                  -1.640
REMARK UNBOUND:                -1.385
REMARK SMILES O=c1c(O[C@H]2O[C@H](CO)[C@H](O)[C@H](O)[C@@H]2O)c(-c2ccc(O)cc2)oc2cc(O)cc(O)c12
REMARK SMILES IDX 4 1 3 2 16 3 24 4 2 5 25 6 1 7 32 8 26 9 30 10 27 11 29 12
REMARK SMILES IDX 17 13 18 14 19 15 20 16 23 17 22 18 21 19 31 21 28 23 5 25
REMARK SMILES IDX 14 26 6 27 12 28 7 29 10 30 15 31 13 33 8 35 9 36 11 38
REMARK H PARENT 21 20 31 22 28 24 15 32 13 34 9 37 11 39
REMARK Flexibility Score: inf
ROOT
ATOM      1  O   UNL     1      16.198   1.805 -12.341  1.00  0.00    -0.454 OA
ENDROOT
BRANCH   1   2
ATOM      2  C   UNL     1      16.415   0.749 -11.441  1.00  0.00     0.214 A 
ATOM      3  C   UNL     1      15.357  -0.141 -11.156  1.00  0.00     0.180 A 
ATOM      4  O   UNL     1      15.561  -1.178 -10.350  1.00  0.00    -0.452 OA
ATOM      5  C   UNL     1      17.658   0.544 -10.805  1.00  0.00     0.239 A 
ATOM      6  C   UNL     1      16.724  -1.426  -9.758  1.00  0.00     0.146 A 
ATOM      7  O   UNL     1      18.597   1.368 -10.976  1.00  0.00    -0.285 OA
ATOM      8  C   UNL     1      17.833  -0.569  -9.954  1.00  0.00     0.111 A 
ATOM      9  C   UNL     1      16.839  -2.547  -8.929  1.00  0.00     0.094 A 
ATOM     10  C   UNL     1      19.057  -0.857  -9.291  1.00  0.00     0.134 A 
ATOM     11  C   UNL     1      18.050  -2.827  -8.278  1.00  0.00     0.123 A 
ATOM     12  C   UNL     1      19.149  -1.982  -8.458  1.00  0.00     0.093 A 
BRANCH   3  13
ATOM     13  C   UNL     1      14.013   0.002 -11.767  1.00  0.00     0.021 A 
ATOM     14  C   UNL     1      13.597  -0.929 -12.738  1.00  0.00     0.016 A 
ATOM     15  C   UNL     1      12.340  -0.810 -13.343  1.00  0.00     0.047 A 
ATOM     16  C   UNL     1      11.479   0.232 -12.978  1.00  0.00     0.115 A 
ATOM     17  C   UNL     1      13.132   1.036 -11.388  1.00  0.00     0.016 A 
ATOM     18  C   UNL     1      11.877   1.155 -11.998  1.00  0.00     0.047 A 
BRANCH  16  19
ATOM     19  O   UNL     1      10.230   0.337 -13.592  1.00  0.00    -0.508 OA
ATOM     20  H   UNL     1       9.562   1.049 -13.316  1.00  0.00     0.293 HD
ENDBRANCH  16  19
ENDBRANCH   3  13
BRANCH  10  21
ATOM     21  O   UNL     1      20.182  -0.038  -9.455  1.00  0.00    -0.507 OA
ATOM     22  H   UNL     1      20.953  -0.297 -10.064  1.00  0.00     0.293 HD
ENDBRANCH  10  21
BRANCH  11  23
ATOM     23  O   UNL     1      18.172  -3.944  -7.449  1.00  0.00    -0.508 OA
ATOM     24  H   UNL     1      18.951  -4.587  -7.537  1.00  0.00     0.293 HD
ENDBRANCH  11  23
ENDBRANCH   1   2
BRANCH   1  25
ATOM     25  C   UNL     1      16.657   1.840 -13.699  1.00  0.00     0.339 C 
ATOM     26  C   UNL     1      17.340   3.187 -13.990  1.00  0.00     0.214 C 
ATOM     27  O   UNL     1      15.596   1.585 -14.614  1.00  0.00    -0.332 OA
ATOM     28  C   UNL     1      16.300   4.323 -14.001  1.00  0.00     0.180 C 
ATOM     29  C   UNL     1      14.572   2.570 -14.524  1.00  0.00     0.179 C 
ATOM     30  C   UNL     1      15.110   3.964 -14.916  1.00  0.00     0.177 C 
BRANCH  26  31
ATOM     31  O   UNL     1      18.002   3.108 -15.229  1.00  0.00    -0.384 OA
ATOM     32  H   UNL     1      18.979   3.122 -15.037  1.00  0.00     0.211 HD
ENDBRANCH  26  31
BRANCH  28  33
ATOM     33  O   UNL     1      16.907   5.521 -14.418  1.00  0.00    -0.387 OA
ATOM     34  H   UNL     1      17.616   5.277 -15.075  1.00  0.00     0.211 HD
ENDBRANCH  28  33
BRANCH  29  35
ATOM     35  C   UNL     1      13.398   2.133 -15.416  1.00  0.00     0.191 C 
BRANCH  35  36
ATOM     36  O   UNL     1      13.870   1.557 -16.607  1.00  0.00    -0.394 OA
ATOM     37  H   UNL     1      14.836   1.367 -16.474  1.00  0.00     0.210 HD
ENDBRANCH  35  36
ENDBRANCH  29  35
BRANCH  30  38
ATOM     38  O   UNL     1      15.508   3.960 -16.266  1.00  0.00    -0.387 OA
ATOM     39  H   UNL     1      14.866   4.535 -16.758  1.00  0.00     0.211 HD
ENDBRANCH  30  38
ENDBRANCH   1  25
TORSDOF 11
ENDMDL
MODEL 9
REMARK VINA RESULT:    -5.443      3.236      6.624
REMARK INTER + INTRA:          -9.214
REMARK INTER:                  -7.872
REMARK INTRA:                  -1.342
REMARK UNBOUND:                -1.385
REMARK SMILES O=c1c(O[C@H]2O[C@H](CO)[C@H](O)[C@H](O)[C@@H]2O)c(-c2ccc(O)cc2)oc2cc(O)cc(O)c12
REMARK SMILES IDX 4 1 3 2 16 3 24 4 2 5 25 6 1 7 32 8 26 9 30 10 27 11 29 12
REMARK SMILES IDX 17 13 18 14 19 15 20 16 23 17 22 18 21 19 31 21 28 23 5 25
REMARK SMILES IDX 14 26 6 27 12 28 7 29 10 30 15 31 13 33 8 35 9 36 11 38
REMARK H PARENT 21 20 31 22 28 24 15 32 13 34 9 37 11 39
REMARK Flexibility Score: inf
ROOT
ATOM      1  O   UNL     1      17.522  -0.438  -9.989  1.00  0.00    -0.454 OA
ENDROOT
BRANCH   1   2
ATOM      2  C   UNL     1      16.251   0.157 -10.045  1.00  0.00     0.214 A 
ATOM      3  C   UNL     1      15.381  -0.175 -11.106  1.00  0.00     0.180 A 
ATOM      4  O   UNL     1      14.155   0.336 -11.143  1.00  0.00    -0.452 OA
ATOM      5  C   UNL     1      15.808   1.082  -9.075  1.00  0.00     0.239 A 
ATOM      6  C   UNL     1      13.687   1.183 -10.233  1.00  0.00     0.146 A 
ATOM      7  O   UNL     1      16.591   1.460  -8.161  1.00  0.00    -0.285 OA
ATOM      8  C   UNL     1      14.498   1.602  -9.151  1.00  0.00     0.111 A 
ATOM      9  C   UNL     1      12.379   1.662 -10.359  1.00  0.00     0.094 A 
ATOM     10  C   UNL     1      13.969   2.522  -8.205  1.00  0.00     0.134 A 
ATOM     11  C   UNL     1      11.862   2.568  -9.422  1.00  0.00     0.123 A 
ATOM     12  C   UNL     1      12.657   2.997  -8.354  1.00  0.00     0.093 A 
BRANCH   3  13
ATOM     13  C   UNL     1      15.764  -1.127 -12.177  1.00  0.00     0.021 A 
ATOM     14  C   UNL     1      15.336  -2.465 -12.091  1.00  0.00     0.016 A 
ATOM     15  C   UNL     1      15.695  -3.390 -13.080  1.00  0.00     0.047 A 
ATOM     16  C   UNL     1      16.474  -2.987 -14.171  1.00  0.00     0.115 A 
ATOM     17  C   UNL     1      16.530  -0.723 -13.290  1.00  0.00     0.016 A 
ATOM     18  C   UNL     1      16.891  -1.650 -14.274  1.00  0.00     0.047 A 
BRANCH  16  19
ATOM     19  O   UNL     1      16.825  -3.921 -15.147  1.00  0.00    -0.508 OA
ATOM     20  H   UNL     1      17.450  -4.693 -14.942  1.00  0.00     0.293 HD
ENDBRANCH  16  19
ENDBRANCH   3  13
BRANCH  10  21
ATOM     21  O   UNL     1      14.734   2.966  -7.119  1.00  0.00    -0.507 OA
ATOM     22  H   UNL     1      14.467   3.777  -6.567  1.00  0.00     0.293 HD
ENDBRANCH  10  21
BRANCH  11  23
ATOM     23  O   UNL     1      10.557   3.052  -9.542  1.00  0.00    -0.508 OA
ATOM     24  H   UNL     1       9.876   2.597 -10.140  1.00  0.00     0.293 HD
ENDBRANCH  11  23
ENDBRANCH   1   2
BRANCH   1  25
ATOM     25  C   UNL     1      17.793  -1.765  -9.520  1.00  0.00     0.339 C 
ATOM     26  C   UNL     1      18.333  -1.716  -8.080  1.00  0.00     0.214 C 
ATOM     27  O   UNL     1      18.687  -2.452 -10.388  1.00  0.00    -0.332 OA
ATOM     28  C   UNL     1      19.746  -1.102  -8.059  1.00  0.00     0.180 C 
ATOM     29  C   UNL     1      19.951  -1.803 -10.468  1.00  0.00     0.179 C 
ATOM     30  C   UNL     1      20.657  -1.797  -9.093  1.00  0.00     0.177 C 
BRANCH  26  31
ATOM     31  O   UNL     1      18.350  -3.018  -7.551  1.00  0.00    -0.384 OA
ATOM     32  H   UNL     1      18.210  -2.934  -6.568  1.00  0.00     0.211 HD
ENDBRANCH  26  31
BRANCH  28  33
ATOM     33  O   UNL     1      20.289  -1.202  -6.766  1.00  0.00    -0.387 OA
ATOM     34  H   UNL     1      20.753  -2.083  -6.710  1.00  0.00     0.211 HD
ENDBRANCH  28  33
BRANCH  29  35
ATOM     35  C   UNL     1      20.793  -2.508 -11.545  1.00  0.00     0.191 C 
BRANCH  35  36
ATOM     36  O   UNL     1      20.532  -3.889 -11.551  1.00  0.00    -0.394 OA
ATOM     37  H   UNL     1      20.362  -4.154 -10.609  1.00  0.00     0.210 HD
ENDBRANCH  35  36
ENDBRANCH  29  35
BRANCH  30  38
ATOM     38  O   UNL     1      20.938  -3.117  -8.695  1.00  0.00    -0.387 OA
ATOM     39  H   UNL     1      21.914  -3.165  -8.520  1.00  0.00     0.211 HD
ENDBRANCH  30  38
ENDBRANCH   1  25
TORSDOF 11
ENDMDL
