MODEL 1
REMARK VINA RESULT:    -3.252      0.000      0.000
REMARK INTER + INTRA:          -6.751
REMARK INTER:                  -5.534
REMARK INTRA:                  -1.217
REMARK UNBOUND:                -1.217
REMARK SMILES CCCCCCCCCCCCCC(=O)[O-]
REMARK SMILES IDX 8 1 9 2 10 3 11 4 12 5 13 6 14 7 15 8 16 9 7 10 6 11 5 12
REMARK SMILES IDX 4 13 3 14 2 15 1 16
REMARK H PARENT
REMARK Flexibility Score: inf
ROOT
ATOM      1  C   UNL     1       7.597 -22.568 -18.636  1.00  0.00     0.000 C 
ENDROOT
BRANCH   1   2
ATOM      2  C   UNL     1       8.860 -23.037 -17.904  1.00  0.00     0.000 C 
BRANCH   2   3
ATOM      3  C   UNL     1      10.069 -23.062 -18.852  1.00  0.00     0.000 C 
BRANCH   3   4
ATOM      4  C   UNL     1      10.710 -21.676 -19.044  1.00  0.00     0.000 C 
BRANCH   4   5
ATOM      5  C   UNL     1      10.742 -21.167 -20.500  1.00  0.00     0.006 C 
BRANCH   5   6
ATOM      6  C   UNL     1      10.192 -22.162 -21.536  1.00  0.00     0.053 C 
BRANCH   6   7
ATOM      7  C   UNL     1       9.174 -21.528 -22.432  1.00  0.00     0.041 C 
ATOM      8  O   UNL     1       8.913 -20.301 -22.328  1.00  0.00    -0.550 OA
ATOM      9  O   UNL     1       8.534 -22.288 -23.404  1.00  0.00    -0.550 OA
ENDBRANCH   6   7
ENDBRANCH   5   6
ENDBRANCH   4   5
ENDBRANCH   3   4
ENDBRANCH   2   3
ENDBRANCH   1   2
BRANCH   1  10
ATOM     10  C   UNL     1       6.336 -22.915 -17.830  1.00  0.00     0.000 C 
BRANCH  10  11
ATOM     11  C   UNL     1       6.502 -22.653 -16.324  1.00  0.00    -0.000 C 
BRANCH  11  12
ATOM     12  C   UNL     1       6.123 -21.230 -15.870  1.00  0.00    -0.000 C 
BRANCH  12  13
ATOM     13  C   UNL     1       7.339 -20.316 -15.610  1.00  0.00    -0.000 C 
BRANCH  13  14
ATOM     14  C   UNL     1       8.458 -21.040 -14.841  1.00  0.00    -0.000 C 
BRANCH  14  15
ATOM     15  C   UNL     1       9.601 -20.098 -14.435  1.00  0.00    -0.003 C 
ATOM     16  C   UNL     1      10.933 -20.468 -15.088  1.00  0.00     0.004 C 
ENDBRANCH  14  15
ENDBRANCH  13  14
ENDBRANCH  12  13
ENDBRANCH  11  12
ENDBRANCH  10  11
ENDBRANCH   1  10
TORSDOF 12
ENDMDL
MODEL 2
REMARK VINA RESULT:    -2.950      0.928      1.571
REMARK INTER + INTRA:          -6.236
REMARK INTER:                  -5.179
REMARK INTRA:                  -1.057
REMARK UNBOUND:                -1.217
REMARK SMILES CCCCCCCCCCCCCC(=O)[O-]
REMARK SMILES IDX 8 1 9 2 10 3 11 4 12 5 13 6 14 7 15 8 16 9 7 10 6 11 5 12
REMARK SMILES IDX 4 13 3 14 2 15 1 16
REMARK H PARENT
REMARK Flexibility Score: inf
ROOT
ATOM      1  C   UNL     1       7.105 -23.007 -17.336  1.00  0.00     0.000 C 
ENDROOT
BRANCH   1   2
ATOM      2  C   UNL     1       7.897 -22.093 -18.280  1.00  0.00     0.000 C 
BRANCH   2   3
ATOM      3  C   UNL     1       8.559 -22.905 -19.404  1.00  0.00     0.000 C 
BRANCH   3   4
ATOM      4  C   UNL     1      10.087 -23.004 -19.252  1.00  0.00     0.000 C 
BRANCH   4   5
ATOM      5  C   UNL     1      10.901 -22.272 -20.338  1.00  0.00     0.006 C 
BRANCH   5   6
ATOM      6  C   UNL     1      10.308 -20.924 -20.780  1.00  0.00     0.053 C 
BRANCH   6   7
ATOM      7  C   UNL     1       9.850 -20.956 -22.206  1.00  0.00     0.041 C 
ATOM      8  O   UNL     1      10.688 -20.890 -23.143  1.00  0.00    -0.550 OA
ATOM      9  O   UNL     1       8.499 -21.091 -22.499  1.00  0.00    -0.550 OA
ENDBRANCH   6   7
ENDBRANCH   5   6
ENDBRANCH   4   5
ENDBRANCH   3   4
ENDBRANCH   2   3
ENDBRANCH   1   2
BRANCH   1  10
ATOM     10  C   UNL     1       6.287 -22.180 -16.332  1.00  0.00     0.000 C 
BRANCH  10  11
ATOM     11  C   UNL     1       6.569 -20.672 -16.434  1.00  0.00    -0.000 C 
BRANCH  11  12
ATOM     12  C   UNL     1       7.401 -20.090 -15.274  1.00  0.00    -0.000 C 
BRANCH  12  13
ATOM     13  C   UNL     1       8.610 -20.965 -14.878  1.00  0.00    -0.000 C 
BRANCH  13  14
ATOM     14  C   UNL     1       9.763 -20.133 -14.290  1.00  0.00    -0.000 C 
BRANCH  14  15
ATOM     15  C   UNL     1      11.125 -20.495 -14.900  1.00  0.00    -0.003 C 
ATOM     16  C   UNL     1      11.010 -21.030 -16.328  1.00  0.00     0.004 C 
ENDBRANCH  14  15
ENDBRANCH  13  14
ENDBRANCH  12  13
ENDBRANCH  11  12
ENDBRANCH  10  11
ENDBRANCH   1  10
TORSDOF 12
ENDMDL
MODEL 3
REMARK VINA RESULT:    -2.822      2.770      6.245
REMARK INTER + INTRA:          -6.018
REMARK INTER:                  -4.977
REMARK INTRA:                  -1.042
REMARK UNBOUND:                -1.217
REMARK SMILES CCCCCCCCCCCCCC(=O)[O-]
REMARK SMILES IDX 8 1 9 2 10 3 11 4 12 5 13 6 14 7 15 8 16 9 7 10 6 11 5 12
REMARK SMILES IDX 4 13 3 14 2 15 1 16
REMARK H PARENT
REMARK Flexibility Score: inf
ROOT
ATOM      1  C   UNL     1       7.026 -22.948 -18.489  1.00  0.00     0.000 C 
ENDROOT
BRANCH   1   2
ATOM      2  C   UNL     1       7.663 -23.125 -17.105  1.00  0.00     0.000 C 
BRANCH   2   3
ATOM      3  C   UNL     1       6.653 -22.815 -15.990  1.00  0.00     0.000 C 
BRANCH   3   4
ATOM      4  C   UNL     1       6.275 -21.325 -15.920  1.00  0.00     0.000 C 
BRANCH   4   5
ATOM      5  C   UNL     1       7.467 -20.353 -15.799  1.00  0.00     0.006 C 
BRANCH   5   6
ATOM      6  C   UNL     1       8.392 -20.625 -14.601  1.00  0.00     0.053 C 
BRANCH   6   7
ATOM      7  C   UNL     1       9.837 -20.591 -14.992  1.00  0.00     0.041 C 
ATOM      8  O   UNL     1      10.697 -20.123 -14.200  1.00  0.00    -0.550 OA
ATOM      9  O   UNL     1      10.238 -21.105 -16.219  1.00  0.00    -0.550 OA
ENDBRANCH   6   7
ENDBRANCH   5   6
ENDBRANCH   4   5
ENDBRANCH   3   4
ENDBRANCH   2   3
ENDBRANCH   1   2
BRANCH   1  10
ATOM     10  C   UNL     1       8.102 -22.867 -19.582  1.00  0.00     0.000 C 
BRANCH  10  11
ATOM     11  C   UNL     1       9.020 -21.643 -19.423  1.00  0.00    -0.000 C 
BRANCH  11  12
ATOM     12  C   UNL     1      10.432 -21.812 -20.019  1.00  0.00    -0.000 C 
BRANCH  12  13
ATOM     13  C   UNL     1      10.541 -21.363 -21.492  1.00  0.00    -0.000 C 
BRANCH  13  14
ATOM     14  C   UNL     1       9.414 -20.394 -21.890  1.00  0.00    -0.000 C 
BRANCH  14  15
ATOM     15  C   UNL     1       8.329 -21.069 -22.742  1.00  0.00    -0.003 C 
ATOM     16  C   UNL     1       8.735 -22.461 -23.225  1.00  0.00     0.004 C 
ENDBRANCH  14  15
ENDBRANCH  13  14
ENDBRANCH  12  13
ENDBRANCH  11  12
ENDBRANCH  10  11
ENDBRANCH   1  10
TORSDOF 12
ENDMDL
MODEL 4
REMARK VINA RESULT:    -2.227      1.184      1.791
REMARK INTER + INTRA:          -5.006
REMARK INTER:                  -4.489
REMARK INTRA:                  -0.517
REMARK UNBOUND:                -1.217
REMARK SMILES CCCCCCCCCCCCCC(=O)[O-]
REMARK SMILES IDX 8 1 9 2 10 3 11 4 12 5 13 6 14 7 15 8 16 9 7 10 6 11 5 12
REMARK SMILES IDX 4 13 3 14 2 15 1 16
REMARK H PARENT
REMARK Flexibility Score: inf
ROOT
ATOM      1  C   UNL     1       8.613 -22.278 -17.751  1.00  0.00     0.000 C 
ENDROOT
BRANCH   1   2
ATOM      2  C   UNL     1       9.701 -21.848 -18.742  1.00  0.00     0.000 C 
BRANCH   2   3
ATOM      3  C   UNL     1      10.634 -23.021 -19.080  1.00  0.00     0.000 C 
BRANCH   3   4
ATOM      4  C   UNL     1      10.948 -23.124 -20.583  1.00  0.00     0.000 C 
BRANCH   4   5
ATOM      5  C   UNL     1       9.754 -22.848 -21.520  1.00  0.00     0.006 C 
BRANCH   5   6
ATOM      6  C   UNL     1      10.027 -21.799 -22.610  1.00  0.00     0.053 C 
BRANCH   6   7
ATOM      7  C   UNL     1       9.853 -20.403 -22.096  1.00  0.00     0.041 C 
ATOM      8  O   UNL     1      10.805 -19.818 -21.515  1.00  0.00    -0.550 OA
ATOM      9  O   UNL     1       8.650 -19.736 -22.286  1.00  0.00    -0.550 OA
ENDBRANCH   6   7
ENDBRANCH   5   6
ENDBRANCH   4   5
ENDBRANCH   3   4
ENDBRANCH   2   3
ENDBRANCH   1   2
BRANCH   1  10
ATOM     10  C   UNL     1       7.459 -22.985 -18.477  1.00  0.00     0.000 C 
BRANCH  10  11
ATOM     11  C   UNL     1       6.157 -22.994 -17.657  1.00  0.00    -0.000 C 
BRANCH  11  12
ATOM     12  C   UNL     1       6.313 -22.544 -16.191  1.00  0.00    -0.000 C 
BRANCH  12  13
ATOM     13  C   UNL     1       5.649 -21.184 -15.885  1.00  0.00    -0.000 C 
BRANCH  13  14
ATOM     14  C   UNL     1       6.644 -20.170 -15.295  1.00  0.00    -0.000 C 
BRANCH  14  15
ATOM     15  C   UNL     1       8.106 -20.535 -15.594  1.00  0.00    -0.003 C 
ATOM     16  C   UNL     1       9.020 -20.356 -14.382  1.00  0.00     0.004 C 
ENDBRANCH  14  15
ENDBRANCH  13  14
ENDBRANCH  12  13
ENDBRANCH  11  12
ENDBRANCH  10  11
ENDBRANCH   1  10
TORSDOF 12
ENDMDL
MODEL 5
REMARK VINA RESULT:    -2.192      3.115      6.562
REMARK INTER + INTRA:          -4.946
REMARK INTER:                  -3.923
REMARK INTRA:                  -1.022
REMARK UNBOUND:                -1.217
REMARK SMILES CCCCCCCCCCCCCC(=O)[O-]
REMARK SMILES IDX 8 1 9 2 10 3 11 4 12 5 13 6 14 7 15 8 16 9 7 10 6 11 5 12
REMARK SMILES IDX 4 13 3 14 2 15 1 16
REMARK H PARENT
REMARK Flexibility Score: inf
ROOT
ATOM      1  C   UNL     1       8.860 -22.091 -18.334  1.00  0.00     0.000 C 
ENDROOT
BRANCH   1   2
ATOM      2  C   UNL     1       7.896 -22.859 -17.421  1.00  0.00     0.000 C 
BRANCH   2   3
ATOM      3  C   UNL     1       8.089 -22.455 -15.952  1.00  0.00     0.000 C 
BRANCH   3   4
ATOM      4  C   UNL     1       7.807 -20.963 -15.698  1.00  0.00     0.000 C 
BRANCH   4   5
ATOM      5  C   UNL     1       6.429 -20.467 -16.181  1.00  0.00     0.006 C 
BRANCH   5   6
ATOM      6  C   UNL     1       5.256 -20.851 -15.263  1.00  0.00     0.053 C 
BRANCH   6   7
ATOM      7  C   UNL     1       4.312 -21.802 -15.933  1.00  0.00     0.041 C 
ATOM      8  O   UNL     1       4.743 -22.642 -16.767  1.00  0.00    -0.550 OA
ATOM      9  O   UNL     1       2.960 -21.781 -15.613  1.00  0.00    -0.550 OA
ENDBRANCH   6   7
ENDBRANCH   5   6
ENDBRANCH   4   5
ENDBRANCH   3   4
ENDBRANCH   2   3
ENDBRANCH   1   2
BRANCH   1  10
ATOM     10  C   UNL     1      10.287 -22.646 -18.213  1.00  0.00     0.000 C 
BRANCH  10  11
ATOM     11  C   UNL     1      11.085 -22.525 -19.522  1.00  0.00    -0.000 C 
BRANCH  11  12
ATOM     12  C   UNL     1      11.007 -21.144 -20.202  1.00  0.00    -0.000 C 
BRANCH  12  13
ATOM     13  C   UNL     1      11.125 -21.201 -21.740  1.00  0.00    -0.000 C 
BRANCH  13  14
ATOM     14  C   UNL     1      10.396 -22.419 -22.335  1.00  0.00    -0.000 C 
BRANCH  14  15
ATOM     15  C   UNL     1       8.995 -22.070 -22.861  1.00  0.00    -0.003 C 
ATOM     16  C   UNL     1       7.891 -22.369 -21.847  1.00  0.00     0.004 C 
ENDBRANCH  14  15
ENDBRANCH  13  14
ENDBRANCH  12  13
ENDBRANCH  11  12
ENDBRANCH  10  11
ENDBRANCH   1  10
TORSDOF 12
ENDMDL
MODEL 6
REMARK VINA RESULT:    -2.066      3.662      6.701
REMARK INTER + INTRA:          -4.731
REMARK INTER:                  -4.104
REMARK INTRA:                  -0.628
REMARK UNBOUND:                -1.217
REMARK SMILES CCCCCCCCCCCCCC(=O)[O-]
REMARK SMILES IDX 8 1 9 2 10 3 11 4 12 5 13 6 14 7 15 8 16 9 7 10 6 11 5 12
REMARK SMILES IDX 4 13 3 14 2 15 1 16
REMARK H PARENT
REMARK Flexibility Score: inf
ROOT
ATOM      1  C   UNL     1       8.510 -21.750 -17.674  1.00  0.00     0.000 C 
ENDROOT
BRANCH   1   2
ATOM      2  C   UNL     1       8.642 -21.511 -16.165  1.00  0.00     0.000 C 
BRANCH   2   3
ATOM      3  C   UNL     1       7.406 -22.032 -15.415  1.00  0.00     0.000 C 
BRANCH   3   4
ATOM      4  C   UNL     1       6.611 -23.074 -16.221  1.00  0.00     0.000 C 
BRANCH   4   5
ATOM      5  C   UNL     1       5.324 -22.543 -16.885  1.00  0.00     0.006 C 
BRANCH   5   6
ATOM      6  C   UNL     1       4.023 -22.949 -16.172  1.00  0.00     0.053 C 
BRANCH   6   7
ATOM      7  C   UNL     1       3.320 -21.768 -15.578  1.00  0.00     0.041 C 
ATOM      8  O   UNL     1       3.956 -20.939 -14.875  1.00  0.00    -0.550 OA
ATOM      9  O   UNL     1       1.968 -21.566 -15.827  1.00  0.00    -0.550 OA
ENDBRANCH   6   7
ENDBRANCH   5   6
ENDBRANCH   4   5
ENDBRANCH   3   4
ENDBRANCH   2   3
ENDBRANCH   1   2
BRANCH   1  10
ATOM     10  C   UNL     1       9.561 -22.757 -18.164  1.00  0.00     0.000 C 
BRANCH  10  11
ATOM     11  C   UNL     1       9.692 -22.783 -19.696  1.00  0.00    -0.000 C 
BRANCH  11  12
ATOM     12  C   UNL     1       8.352 -22.781 -20.459  1.00  0.00    -0.000 C 
BRANCH  12  13
ATOM     13  C   UNL     1       8.511 -22.847 -21.993  1.00  0.00    -0.000 C 
BRANCH  13  14
ATOM     14  C   UNL     1       8.243 -21.489 -22.665  1.00  0.00    -0.000 C 
BRANCH  14  15
ATOM     15  C   UNL     1       9.257 -20.413 -22.247  1.00  0.00    -0.003 C 
ATOM     16  C   UNL     1      10.687 -20.750 -22.669  1.00  0.00     0.004 C 
ENDBRANCH  14  15
ENDBRANCH  13  14
ENDBRANCH  12  13
ENDBRANCH  11  12
ENDBRANCH  10  11
ENDBRANCH   1  10
TORSDOF 12
ENDMDL
MODEL 7
REMARK VINA RESULT:    -1.880      2.783      5.952
REMARK INTER + INTRA:          -4.415
REMARK INTER:                  -3.418
REMARK INTRA:                  -0.997
REMARK UNBOUND:                -1.217
REMARK SMILES CCCCCCCCCCCCCC(=O)[O-]
REMARK SMILES IDX 8 1 9 2 10 3 11 4 12 5 13 6 14 7 15 8 16 9 7 10 6 11 5 12
REMARK SMILES IDX 4 13 3 14 2 15 1 16
REMARK H PARENT
REMARK Flexibility Score: inf
ROOT
ATOM      1  C   UNL     1      10.047 -21.776 -19.117  1.00  0.00     0.000 C 
ENDROOT
BRANCH   1   2
ATOM      2  C   UNL     1      10.761 -22.163 -17.817  1.00  0.00     0.000 C 
BRANCH   2   3
ATOM      3  C   UNL     1      10.585 -21.074 -16.747  1.00  0.00     0.000 C 
BRANCH   3   4
ATOM      4  C   UNL     1       9.563 -21.458 -15.662  1.00  0.00     0.000 C 
BRANCH   4   5
ATOM      5  C   UNL     1       8.088 -21.202 -16.034  1.00  0.00     0.006 C 
BRANCH   5   6
ATOM      6  C   UNL     1       7.121 -22.324 -15.620  1.00  0.00     0.053 C 
BRANCH   6   7
ATOM      7  C   UNL     1       5.891 -22.345 -16.474  1.00  0.00     0.041 C 
ATOM      8  O   UNL     1       4.816 -21.846 -16.049  1.00  0.00    -0.550 OA
ATOM      9  O   UNL     1       5.941 -22.888 -17.751  1.00  0.00    -0.550 OA
ENDBRANCH   6   7
ENDBRANCH   5   6
ENDBRANCH   4   5
ENDBRANCH   3   4
ENDBRANCH   2   3
ENDBRANCH   1   2
BRANCH   1  10
ATOM     10  C   UNL     1       8.725 -22.545 -19.267  1.00  0.00     0.000 C 
BRANCH  10  11
ATOM     11  C   UNL     1       8.518 -23.101 -20.686  1.00  0.00    -0.000 C 
BRANCH  11  12
ATOM     12  C   UNL     1       7.717 -22.183 -21.629  1.00  0.00    -0.000 C 
BRANCH  12  13
ATOM     13  C   UNL     1       8.593 -21.422 -22.647  1.00  0.00    -0.000 C 
BRANCH  13  14
ATOM     14  C   UNL     1       9.851 -22.215 -23.040  1.00  0.00    -0.000 C 
BRANCH  14  15
ATOM     15  C   UNL     1      11.108 -21.335 -23.106  1.00  0.00    -0.003 C 
ATOM     16  C   UNL     1      11.125 -20.245 -22.035  1.00  0.00     0.004 C 
ENDBRANCH  14  15
ENDBRANCH  13  14
ENDBRANCH  12  13
ENDBRANCH  11  12
ENDBRANCH  10  11
ENDBRANCH   1  10
TORSDOF 12
ENDMDL
MODEL 8
REMARK VINA RESULT:    -1.810      2.532      4.819
REMARK INTER + INTRA:          -4.296
REMARK INTER:                  -3.456
REMARK INTRA:                  -0.839
REMARK UNBOUND:                -1.217
REMARK SMILES CCCCCCCCCCCCCC(=O)[O-]
REMARK SMILES IDX 8 1 9 2 10 3 11 4 12 5 13 6 14 7 15 8 16 9 7 10 6 11 5 12
REMARK SMILES IDX 4 13 3 14 2 15 1 16
REMARK H PARENT
REMARK Flexibility Score: inf
ROOT
ATOM      1  C   UNL     1       7.173 -20.349 -15.447  1.00  0.00     0.000 C 
ENDROOT
BRANCH   1   2
ATOM      2  C   UNL     1       8.310 -21.232 -14.919  1.00  0.00     0.000 C 
BRANCH   2   3
ATOM      3  C   UNL     1       9.602 -20.419 -14.742  1.00  0.00     0.000 C 
BRANCH   3   4
ATOM      4  C   UNL     1      10.608 -20.636 -15.886  1.00  0.00     0.000 C 
BRANCH   4   5
ATOM      5  C   UNL     1      10.284 -21.815 -16.827  1.00  0.00     0.006 C 
BRANCH   5   6
ATOM      6  C   UNL     1      11.125 -21.854 -18.113  1.00  0.00     0.053 C 
BRANCH   6   7
ATOM      7  C   UNL     1      10.279 -21.694 -19.339  1.00  0.00     0.041 C 
ATOM      8  O   UNL     1       9.179 -22.301 -19.434  1.00  0.00    -0.550 OA
ATOM      9  O   UNL     1      10.690 -20.851 -20.363  1.00  0.00    -0.550 OA
ENDBRANCH   6   7
ENDBRANCH   5   6
ENDBRANCH   4   5
ENDBRANCH   3   4
ENDBRANCH   2   3
ENDBRANCH   1   2
BRANCH   1  10
ATOM     10  C   UNL     1       6.695 -20.837 -16.823  1.00  0.00     0.000 C 
BRANCH  10  11
ATOM     11  C   UNL     1       6.606 -22.370 -16.912  1.00  0.00    -0.000 C 
BRANCH  11  12
ATOM     12  C   UNL     1       5.189 -22.948 -16.727  1.00  0.00    -0.000 C 
BRANCH  12  13
ATOM     13  C   UNL     1       4.196 -21.960 -16.077  1.00  0.00    -0.000 C 
BRANCH  13  14
ATOM     14  C   UNL     1       2.801 -22.580 -15.883  1.00  0.00    -0.000 C 
BRANCH  14  15
ATOM     15  C   UNL     1       1.680 -21.531 -15.901  1.00  0.00    -0.003 C 
ATOM     16  C   UNL     1       0.285 -22.154 -15.908  1.00  0.00     0.004 C 
ENDBRANCH  14  15
ENDBRANCH  13  14
ENDBRANCH  12  13
ENDBRANCH  11  12
ENDBRANCH  10  11
ENDBRANCH   1  10
TORSDOF 12
ENDMDL
MODEL 9
REMARK VINA RESULT:    -1.789      1.628      3.284
REMARK INTER + INTRA:          -4.261
REMARK INTER:                  -3.636
REMARK INTRA:                  -0.624
REMARK UNBOUND:                -1.217
REMARK SMILES CCCCCCCCCCCCCC(=O)[O-]
REMARK SMILES IDX 8 1 9 2 10 3 11 4 12 5 13 6 14 7 15 8 16 9 7 10 6 11 5 12
REMARK SMILES IDX 4 13 3 14 2 15 1 16
REMARK H PARENT
REMARK Flexibility Score: inf
ROOT
ATOM      1  C   UNL     1       8.378 -22.973 -17.537  1.00  0.00     0.000 C 
ENDROOT
BRANCH   1   2
ATOM      2  C   UNL     1       9.479 -21.961 -17.876  1.00  0.00     0.000 C 
BRANCH   2   3
ATOM      3  C   UNL     1      10.426 -22.515 -18.951  1.00  0.00     0.000 C 
BRANCH   3   4
ATOM      4  C   UNL     1      11.068 -21.413 -19.812  1.00  0.00     0.000 C 
BRANCH   4   5
ATOM      5  C   UNL     1      10.843 -21.556 -21.331  1.00  0.00     0.006 C 
BRANCH   5   6
ATOM      6  C   UNL     1       9.523 -20.954 -21.840  1.00  0.00     0.053 C 
BRANCH   6   7
ATOM      7  C   UNL     1       8.534 -22.014 -22.215  1.00  0.00     0.041 C 
ATOM      8  O   UNL     1       7.757 -22.493 -21.346  1.00  0.00    -0.550 OA
ATOM      9  O   UNL     1       8.449 -22.453 -23.530  1.00  0.00    -0.550 OA
ENDBRANCH   6   7
ENDBRANCH   5   6
ENDBRANCH   4   5
ENDBRANCH   3   4
ENDBRANCH   2   3
ENDBRANCH   1   2
BRANCH   1  10
ATOM     10  C   UNL     1       7.957 -22.852 -16.065  1.00  0.00     0.000 C 
BRANCH  10  11
ATOM     11  C   UNL     1       7.808 -21.392 -15.607  1.00  0.00    -0.000 C 
BRANCH  11  12
ATOM     12  C   UNL     1       6.579 -20.657 -16.177  1.00  0.00    -0.000 C 
BRANCH  12  13
ATOM     13  C   UNL     1       5.232 -21.193 -15.644  1.00  0.00    -0.000 C 
BRANCH  13  14
ATOM     14  C   UNL     1       4.728 -22.404 -16.448  1.00  0.00    -0.000 C 
BRANCH  14  15
ATOM     15  C   UNL     1       3.320 -22.848 -16.027  1.00  0.00    -0.003 C 
ATOM     16  C   UNL     1       2.439 -21.681 -15.581  1.00  0.00     0.004 C 
ENDBRANCH  14  15
ENDBRANCH  13  14
ENDBRANCH  12  13
ENDBRANCH  11  12
ENDBRANCH  10  11
ENDBRANCH   1  10
TORSDOF 12
ENDMDL
