MODEL 1
REMARK VINA RESULT:     0.225      0.000      0.000
REMARK INTER + INTRA:           0.238
REMARK INTER:                   0.278
REMARK INTRA:                  -0.040
REMARK UNBOUND:                -0.040
REMARK SMILES O=c1c(O)c(-c2cc(O)c(O)c(O)c2)oc2cc(O)cc(O)c12
REMARK SMILES IDX 5 1 3 2 2 3 1 4 23 5 21 6 20 7 18 8 17 9 16 10 15 11 6 12
REMARK SMILES IDX 7 13 8 14 14 15 10 16 12 17 9 18 11 20 13 22 4 24 22 26
REMARK SMILES IDX 19 28
REMARK H PARENT 9 19 11 21 13 23 4 25 22 27 19 29
REMARK Flexibility Score: inf
ROOT
ATOM      1  C   UNL     1      19.197  -3.265  15.266  1.00  0.00     0.180 A 
ATOM      2  C   UNL     1      20.535  -3.287  15.706  1.00  0.00     0.208 A 
ATOM      3  C   UNL     1      21.216  -4.513  15.743  1.00  0.00     0.238 A 
ATOM      4  O   UNL     1      22.419  -4.543  16.125  1.00  0.00    -0.285 OA
ATOM      5  C   UNL     1      20.548  -5.694  15.362  1.00  0.00     0.111 A 
ATOM      6  C   UNL     1      21.161  -6.970  15.375  1.00  0.00     0.134 A 
ATOM      7  C   UNL     1      20.425  -8.099  14.990  1.00  0.00     0.093 A 
ATOM      8  C   UNL     1      19.090  -7.980  14.593  1.00  0.00     0.123 A 
ATOM      9  C   UNL     1      18.480  -6.722  14.577  1.00  0.00     0.094 A 
ATOM     10  C   UNL     1      19.197  -5.584  14.956  1.00  0.00     0.146 A 
ATOM     11  O   UNL     1      18.594  -4.400  14.928  1.00  0.00    -0.452 OA
ENDROOT
BRANCH   1  12
ATOM     12  C   UNL     1      18.417  -2.008  15.180  1.00  0.00     0.029 A 
ATOM     13  C   UNL     1      18.937  -0.866  14.547  1.00  0.00     0.062 A 
ATOM     14  C   UNL     1      18.175   0.306  14.455  1.00  0.00     0.162 A 
ATOM     15  C   UNL     1      17.110  -1.972  15.689  1.00  0.00     0.062 A 
ATOM     16  C   UNL     1      16.879   0.342  14.986  1.00  0.00     0.200 A 
ATOM     17  C   UNL     1      16.343  -0.802  15.602  1.00  0.00     0.162 A 
BRANCH  14  18
ATOM     18  O   UNL     1      18.697   1.438  13.833  1.00  0.00    -0.504 OA
ATOM     19  H   UNL     1      18.095   2.138  13.415  1.00  0.00     0.293 HD
ENDBRANCH  14  18
BRANCH  16  20
ATOM     20  O   UNL     1      16.137   1.519  14.890  1.00  0.00    -0.502 OA
ATOM     21  H   UNL     1      16.527   2.424  15.126  1.00  0.00     0.293 HD
ENDBRANCH  16  20
BRANCH  17  22
ATOM     22  O   UNL     1      15.051  -0.772  16.124  1.00  0.00    -0.504 OA
ATOM     23  H   UNL     1      14.455  -1.592  16.113  1.00  0.00     0.293 HD
ENDBRANCH  17  22
ENDBRANCH   1  12
BRANCH   2  24
ATOM     24  O   UNL     1      21.160  -2.109  16.125  1.00  0.00    -0.502 OA
ATOM     25  H   UNL     1      21.645  -1.494  15.483  1.00  0.00     0.293 HD
ENDBRANCH   2  24
BRANCH   6  26
ATOM     26  O   UNL     1      22.492  -7.123  15.767  1.00  0.00    -0.507 OA
ATOM     27  H   UNL     1      23.249  -6.665  15.274  1.00  0.00     0.293 HD
ENDBRANCH   6  26
BRANCH   8  28
ATOM     28  O   UNL     1      18.382  -9.118  14.216  1.00  0.00    -0.508 OA
ATOM     29  H   UNL     1      18.739 -10.049  14.398  1.00  0.00     0.293 HD
ENDBRANCH   8  28
TORSDOF 7
ENDMDL
MODEL 2
REMARK VINA RESULT:     0.262     19.327     20.627
REMARK INTER + INTRA:           0.283
REMARK INTER:                   0.643
REMARK INTRA:                  -0.359
REMARK UNBOUND:                -0.040
REMARK SMILES O=c1c(O)c(-c2cc(O)c(O)c(O)c2)oc2cc(O)cc(O)c12
REMARK SMILES IDX 5 1 3 2 2 3 1 4 23 5 21 6 20 7 18 8 17 9 16 10 15 11 6 12
REMARK SMILES IDX 7 13 8 14 14 15 10 16 12 17 9 18 11 20 13 22 4 24 22 26
REMARK SMILES IDX 19 28
REMARK H PARENT 9 19 11 21 13 23 4 25 22 27 19 29
REMARK Flexibility Score: inf
ROOT
ATOM      1  C   UNL     1       7.374  -4.940  -1.347  1.00  0.00     0.180 A 
ATOM      2  C   UNL     1       7.082  -6.139  -2.026  1.00  0.00     0.208 A 
ATOM      3  C   UNL     1       6.364  -7.141  -1.354  1.00  0.00     0.238 A 
ATOM      4  O   UNL     1       6.087  -8.215  -1.955  1.00  0.00    -0.285 OA
ATOM      5  C   UNL     1       5.970  -6.938  -0.016  1.00  0.00     0.111 A 
ATOM      6  C   UNL     1       5.248  -7.898   0.733  1.00  0.00     0.134 A 
ATOM      7  C   UNL     1       4.900  -7.624   2.064  1.00  0.00     0.093 A 
ATOM      8  C   UNL     1       5.259  -6.412   2.660  1.00  0.00     0.123 A 
ATOM      9  C   UNL     1       5.971  -5.460   1.925  1.00  0.00     0.094 A 
ATOM     10  C   UNL     1       6.326  -5.713   0.596  1.00  0.00     0.146 A 
ATOM     11  O   UNL     1       6.999  -4.789  -0.081  1.00  0.00    -0.452 OA
ENDROOT
BRANCH   1  12
ATOM     12  C   UNL     1       8.110  -3.829  -1.994  1.00  0.00     0.029 A 
ATOM     13  C   UNL     1       9.512  -3.757  -1.949  1.00  0.00     0.062 A 
ATOM     14  C   UNL     1      10.192  -2.711  -2.588  1.00  0.00     0.162 A 
ATOM     15  C   UNL     1       7.398  -2.858  -2.715  1.00  0.00     0.062 A 
ATOM     16  C   UNL     1       9.473  -1.732  -3.287  1.00  0.00     0.200 A 
ATOM     17  C   UNL     1       8.071  -1.808  -3.354  1.00  0.00     0.162 A 
BRANCH  14  18
ATOM     18  O   UNL     1      11.582  -2.639  -2.535  1.00  0.00    -0.504 OA
ATOM     19  H   UNL     1      12.089  -1.861  -2.941  1.00  0.00     0.293 HD
ENDBRANCH  14  18
BRANCH  16  20
ATOM     20  O   UNL     1      10.166  -0.695  -3.911  1.00  0.00    -0.502 OA
ATOM     21  H   UNL     1      11.052  -0.843  -4.379  1.00  0.00     0.293 HD
ENDBRANCH  16  20
BRANCH  17  22
ATOM     22  O   UNL     1       7.354  -0.841  -4.056  1.00  0.00    -0.504 OA
ATOM     23  H   UNL     1       6.342  -0.860  -4.103  1.00  0.00     0.293 HD
ENDBRANCH  17  22
ENDBRANCH   1  12
BRANCH   2  24
ATOM     24  O   UNL     1       7.527  -6.336  -3.336  1.00  0.00    -0.502 OA
ATOM     25  H   UNL     1       8.490  -6.189  -3.609  1.00  0.00     0.293 HD
ENDBRANCH   2  24
BRANCH   6  26
ATOM     26  O   UNL     1       4.875  -9.119   0.168  1.00  0.00    -0.507 OA
ATOM     27  H   UNL     1       4.214  -9.737   0.622  1.00  0.00     0.293 HD
ENDBRANCH   6  26
BRANCH   8  28
ATOM     28  O   UNL     1       4.901  -6.166   3.983  1.00  0.00    -0.508 OA
ATOM     29  H   UNL     1       4.140  -6.664   4.428  1.00  0.00     0.293 HD
ENDBRANCH   8  28
TORSDOF 7
ENDMDL
MODEL 3
REMARK VINA RESULT:     0.591      1.853      3.248
REMARK INTER + INTRA:           0.690
REMARK INTER:                   0.774
REMARK INTRA:                  -0.084
REMARK UNBOUND:                -0.040
REMARK SMILES O=c1c(O)c(-c2cc(O)c(O)c(O)c2)oc2cc(O)cc(O)c12
REMARK SMILES IDX 5 1 3 2 2 3 1 4 23 5 21 6 20 7 18 8 17 9 16 10 15 11 6 12
REMARK SMILES IDX 7 13 8 14 14 15 10 16 12 17 9 18 11 20 13 22 4 24 22 26
REMARK SMILES IDX 19 28
REMARK H PARENT 9 19 11 21 13 23 4 25 22 27 19 29
REMARK Flexibility Score: inf
ROOT
ATOM      1  C   UNL     1      19.133  -4.357  14.957  1.00  0.00     0.180 A 
ATOM      2  C   UNL     1      18.413  -5.566  15.003  1.00  0.00     0.208 A 
ATOM      3  C   UNL     1      19.102  -6.753  15.299  1.00  0.00     0.238 A 
ATOM      4  O   UNL     1      18.465  -7.841  15.354  1.00  0.00    -0.285 OA
ATOM      5  C   UNL     1      20.493  -6.716  15.520  1.00  0.00     0.111 A 
ATOM      6  C   UNL     1      21.261  -7.867  15.818  1.00  0.00     0.134 A 
ATOM      7  C   UNL     1      22.644  -7.749  16.016  1.00  0.00     0.093 A 
ATOM      8  C   UNL     1      23.274  -6.505  15.923  1.00  0.00     0.123 A 
ATOM      9  C   UNL     1      22.520  -5.365  15.629  1.00  0.00     0.094 A 
ATOM     10  C   UNL     1      21.140  -5.462  15.430  1.00  0.00     0.146 A 
ATOM     11  O   UNL     1      20.448  -4.361  15.157  1.00  0.00    -0.452 OA
ENDROOT
BRANCH   1  12
ATOM     12  C   UNL     1      18.476  -3.060  14.672  1.00  0.00     0.029 A 
ATOM     13  C   UNL     1      18.602  -1.968  15.547  1.00  0.00     0.062 A 
ATOM     14  C   UNL     1      17.992  -0.742  15.248  1.00  0.00     0.162 A 
ATOM     15  C   UNL     1      17.759  -2.898  13.476  1.00  0.00     0.062 A 
ATOM     16  C   UNL     1      17.259  -0.595  14.063  1.00  0.00     0.200 A 
ATOM     17  C   UNL     1      17.145  -1.676  13.172  1.00  0.00     0.162 A 
BRANCH  14  18
ATOM     18  O   UNL     1      18.113   0.336  16.122  1.00  0.00    -0.504 OA
ATOM     19  H   UNL     1      17.889   0.250  17.107  1.00  0.00     0.293 HD
ENDBRANCH  14  18
BRANCH  16  20
ATOM     20  O   UNL     1      16.654   0.631  13.785  1.00  0.00    -0.502 OA
ATOM     21  H   UNL     1      16.137   1.149  14.485  1.00  0.00     0.293 HD
ENDBRANCH  16  20
BRANCH  17  22
ATOM     22  O   UNL     1      16.424  -1.530  11.988  1.00  0.00    -0.504 OA
ATOM     23  H   UNL     1      15.650  -2.143  11.759  1.00  0.00     0.293 HD
ENDBRANCH  17  22
ENDBRANCH   1  12
BRANCH   2  24
ATOM     24  O   UNL     1      17.043  -5.583  14.731  1.00  0.00    -0.502 OA
ATOM     25  H   UNL     1      16.476  -4.744  14.748  1.00  0.00     0.293 HD
ENDBRANCH   2  24
BRANCH   6  26
ATOM     26  O   UNL     1      20.662  -9.125  15.917  1.00  0.00    -0.507 OA
ATOM     27  H   UNL     1      21.036  -9.933  15.435  1.00  0.00     0.293 HD
ENDBRANCH   6  26
BRANCH   8  28
ATOM     28  O   UNL     1      24.649  -6.416  16.124  1.00  0.00    -0.508 OA
ATOM     29  H   UNL     1      25.209  -7.235  16.329  1.00  0.00     0.293 HD
ENDBRANCH   8  28
TORSDOF 7
ENDMDL
MODEL 4
REMARK VINA RESULT:     2.021      2.011      6.727
REMARK INTER + INTRA:           2.453
REMARK INTER:                   2.447
REMARK INTRA:                   0.006
REMARK UNBOUND:                -0.040
REMARK SMILES O=c1c(O)c(-c2cc(O)c(O)c(O)c2)oc2cc(O)cc(O)c12
REMARK SMILES IDX 5 1 3 2 2 3 1 4 23 5 21 6 20 7 18 8 17 9 16 10 15 11 6 12
REMARK SMILES IDX 7 13 8 14 14 15 10 16 12 17 9 18 11 20 13 22 4 24 22 26
REMARK SMILES IDX 19 28
REMARK H PARENT 9 19 11 21 13 23 4 25 22 27 19 29
REMARK Flexibility Score: inf
ROOT
ATOM      1  C   UNL     1      19.084  -4.000  14.654  1.00  0.00     0.180 A 
ATOM      2  C   UNL     1      19.588  -2.817  15.227  1.00  0.00     0.208 A 
ATOM      3  C   UNL     1      19.016  -1.589  14.860  1.00  0.00     0.238 A 
ATOM      4  O   UNL     1      19.453  -0.523  15.376  1.00  0.00    -0.285 OA
ATOM      5  C   UNL     1      17.971  -1.561  13.915  1.00  0.00     0.111 A 
ATOM      6  C   UNL     1      17.345  -0.366  13.488  1.00  0.00     0.134 A 
ATOM      7  C   UNL     1      16.316  -0.421  12.536  1.00  0.00     0.093 A 
ATOM      8  C   UNL     1      15.903  -1.645  12.003  1.00  0.00     0.123 A 
ATOM      9  C   UNL     1      16.517  -2.828  12.422  1.00  0.00     0.094 A 
ATOM     10  C   UNL     1      17.543  -2.795  13.371  1.00  0.00     0.146 A 
ATOM     11  O   UNL     1      18.107  -3.935  13.755  1.00  0.00    -0.452 OA
ENDROOT
BRANCH   1  12
ATOM     12  C   UNL     1      19.621  -5.336  15.005  1.00  0.00     0.029 A 
ATOM     13  C   UNL     1      21.003  -5.587  15.021  1.00  0.00     0.062 A 
ATOM     14  C   UNL     1      21.492  -6.851  15.379  1.00  0.00     0.162 A 
ATOM     15  C   UNL     1      18.735  -6.357  15.384  1.00  0.00     0.062 A 
ATOM     16  C   UNL     1      20.602  -7.872  15.735  1.00  0.00     0.200 A 
ATOM     17  C   UNL     1      19.218  -7.624  15.741  1.00  0.00     0.162 A 
BRANCH  14  18
ATOM     18  O   UNL     1      22.863  -7.098  15.388  1.00  0.00    -0.504 OA
ATOM     19  H   UNL     1      23.452  -6.797  16.156  1.00  0.00     0.293 HD
ENDBRANCH  14  18
BRANCH  16  20
ATOM     20  O   UNL     1      21.106  -9.125  16.083  1.00  0.00    -0.502 OA
ATOM     21  H   UNL     1      21.437  -9.333  17.017  1.00  0.00     0.293 HD
ENDBRANCH  16  20
BRANCH  17  22
ATOM     22  O   UNL     1      18.329  -8.635  16.102  1.00  0.00    -0.504 OA
ATOM     23  H   UNL     1      18.654  -9.516  16.482  1.00  0.00     0.293 HD
ENDBRANCH  17  22
ENDBRANCH   1  12
BRANCH   2  24
ATOM     24  O   UNL     1      20.658  -2.868  16.125  1.00  0.00    -0.502 OA
ATOM     25  H   UNL     1      21.608  -3.051  15.827  1.00  0.00     0.293 HD
ENDBRANCH   2  24
BRANCH   6  26
ATOM     26  O   UNL     1      17.735   0.873  14.000  1.00  0.00    -0.507 OA
ATOM     27  H   UNL     1      17.234   1.724  13.776  1.00  0.00     0.293 HD
ENDBRANCH   6  26
BRANCH   8  28
ATOM     28  O   UNL     1      14.879  -1.671  11.059  1.00  0.00    -0.508 OA
ATOM     29  H   UNL     1      15.060  -1.498  10.077  1.00  0.00     0.293 HD
ENDBRANCH   8  28
TORSDOF 7
ENDMDL
