MODEL 1
REMARK VINA RESULT:    -3.785      0.000      0.000
REMARK INTER + INTRA:          -5.437
REMARK INTER:                  -5.113
REMARK INTRA:                  -0.324
REMARK UNBOUND:                -0.324
REMARK SMILES CCCCCCCC(=O)[O-]
REMARK SMILES IDX 5 1 6 2 7 3 8 4 9 5 10 6 4 7 3 8 2 9 1 10
REMARK H PARENT
REMARK Flexibility Score: inf
ROOT
ATOM      1  C   UNL     1       1.427   4.185  29.161  1.00  0.00     0.000 C 
ENDROOT
BRANCH   1   2
ATOM      2  C   UNL     1       2.147   3.348  28.094  1.00  0.00     0.006 C 
BRANCH   2   3
ATOM      3  C   UNL     1       3.644   3.669  28.065  1.00  0.00     0.053 C 
BRANCH   3   4
ATOM      4  C   UNL     1       3.890   4.963  27.355  1.00  0.00     0.041 C 
ATOM      5  O   UNL     1       4.124   6.011  28.012  1.00  0.00    -0.550 OA
ATOM      6  O   UNL     1       3.811   5.021  25.969  1.00  0.00    -0.550 OA
ENDBRANCH   3   4
ENDBRANCH   2   3
ENDBRANCH   1   2
BRANCH   1   7
ATOM      7  C   UNL     1       2.086   4.075  30.546  1.00  0.00     0.000 C 
BRANCH   7   8
ATOM      8  C   UNL     1       2.424   5.445  31.152  1.00  0.00    -0.000 C 
BRANCH   8   9
ATOM      9  C   UNL     1       1.339   5.889  32.140  1.00  0.00    -0.003 C 
ATOM     10  C   UNL     1       1.447   7.382  32.443  1.00  0.00     0.004 C 
ENDBRANCH   8   9
ENDBRANCH   7   8
ENDBRANCH   1   7
TORSDOF 6
ENDMDL
MODEL 2
REMARK VINA RESULT:    -3.767      9.935     11.521
REMARK INTER + INTRA:          -5.412
REMARK INTER:                  -5.021
REMARK INTRA:                  -0.391
REMARK UNBOUND:                -0.324
REMARK SMILES CCCCCCCC(=O)[O-]
REMARK SMILES IDX 5 1 6 2 7 3 8 4 9 5 10 6 4 7 3 8 2 9 1 10
REMARK H PARENT
REMARK Flexibility Score: inf
ROOT
ATOM      1  C   UNL     1      -7.434   3.375  22.045  1.00  0.00     0.000 C 
ENDROOT
BRANCH   1   2
ATOM      2  C   UNL     1      -6.581   3.865  23.224  1.00  0.00     0.006 C 
BRANCH   2   3
ATOM      3  C   UNL     1      -5.893   2.692  23.927  1.00  0.00     0.053 C 
BRANCH   3   4
ATOM      4  C   UNL     1      -4.419   2.928  24.023  1.00  0.00     0.041 C 
ATOM      5  O   UNL     1      -3.661   2.025  24.463  1.00  0.00    -0.550 OA
ATOM      6  O   UNL     1      -3.889   4.165  23.675  1.00  0.00    -0.550 OA
ENDBRANCH   3   4
ENDBRANCH   2   3
ENDBRANCH   1   2
BRANCH   1   7
ATOM      7  C   UNL     1      -7.109   4.108  20.732  1.00  0.00     0.000 C 
BRANCH   7   8
ATOM      8  C   UNL     1      -5.737   4.796  20.763  1.00  0.00    -0.000 C 
BRANCH   8   9
ATOM      9  C   UNL     1      -4.663   3.903  20.132  1.00  0.00    -0.003 C 
ATOM     10  C   UNL     1      -3.760   4.704  19.197  1.00  0.00     0.004 C 
ENDBRANCH   8   9
ENDBRANCH   7   8
ENDBRANCH   1   7
TORSDOF 6
ENDMDL
MODEL 3
REMARK VINA RESULT:    -3.742      2.483      4.834
REMARK INTER + INTRA:          -5.379
REMARK INTER:                  -4.925
REMARK INTRA:                  -0.454
REMARK UNBOUND:                -0.324
REMARK SMILES CCCCCCCC(=O)[O-]
REMARK SMILES IDX 5 1 6 2 7 3 8 4 9 5 10 6 4 7 3 8 2 9 1 10
REMARK H PARENT
REMARK Flexibility Score: inf
ROOT
ATOM      1  C   UNL     1       4.758   3.985  28.655  1.00  0.00     0.000 C 
ENDROOT
BRANCH   1   2
ATOM      2  C   UNL     1       4.011   5.139  29.341  1.00  0.00     0.006 C 
BRANCH   2   3
ATOM      3  C   UNL     1       3.614   4.760  30.770  1.00  0.00     0.053 C 
BRANCH   3   4
ATOM      4  C   UNL     1       2.130   4.599  30.877  1.00  0.00     0.041 C 
ATOM      5  O   UNL     1       1.526   4.972  31.917  1.00  0.00    -0.550 OA
ATOM      6  O   UNL     1       1.421   3.990  29.849  1.00  0.00    -0.550 OA
ENDBRANCH   3   4
ENDBRANCH   2   3
ENDBRANCH   1   2
BRANCH   1   7
ATOM      7  C   UNL     1       3.995   3.423  27.444  1.00  0.00     0.000 C 
BRANCH   7   8
ATOM      8  C   UNL     1       3.081   4.465  26.784  1.00  0.00    -0.000 C 
BRANCH   8   9
ATOM      9  C   UNL     1       3.613   4.864  25.403  1.00  0.00    -0.003 C 
ATOM     10  C   UNL     1       4.492   6.109  25.489  1.00  0.00     0.004 C 
ENDBRANCH   8   9
ENDBRANCH   7   8
ENDBRANCH   1   7
TORSDOF 6
ENDMDL
MODEL 4
REMARK VINA RESULT:    -3.729     10.629     11.826
REMARK INTER + INTRA:          -5.361
REMARK INTER:                  -4.892
REMARK INTRA:                  -0.469
REMARK UNBOUND:                -0.324
REMARK SMILES CCCCCCCC(=O)[O-]
REMARK SMILES IDX 5 1 6 2 7 3 8 4 9 5 10 6 4 7 3 8 2 9 1 10
REMARK H PARENT
REMARK Flexibility Score: inf
ROOT
ATOM      1  C   UNL     1      -4.387   3.383  20.645  1.00  0.00     0.000 C 
ENDROOT
BRANCH   1   2
ATOM      2  C   UNL     1      -4.256   3.497  22.171  1.00  0.00     0.006 C 
BRANCH   2   3
ATOM      3  C   UNL     1      -5.481   4.187  22.776  1.00  0.00     0.053 C 
BRANCH   3   4
ATOM      4  C   UNL     1      -6.616   3.222  22.907  1.00  0.00     0.041 C 
ATOM      5  O   UNL     1      -6.538   2.260  23.715  1.00  0.00    -0.550 OA
ATOM      6  O   UNL     1      -7.740   3.355  22.101  1.00  0.00    -0.550 OA
ENDBRANCH   3   4
ENDBRANCH   2   3
ENDBRANCH   1   2
BRANCH   1   7
ATOM      7  C   UNL     1      -4.778   4.714  19.983  1.00  0.00     0.000 C 
BRANCH   7   8
ATOM      8  C   UNL     1      -3.689   5.250  19.042  1.00  0.00    -0.000 C 
BRANCH   8   9
ATOM      9  C   UNL     1      -3.147   6.594  19.541  1.00  0.00    -0.003 C 
ATOM     10  C   UNL     1      -2.268   6.410  20.775  1.00  0.00     0.004 C 
ENDBRANCH   8   9
ENDBRANCH   7   8
ENDBRANCH   1   7
TORSDOF 6
ENDMDL
MODEL 5
REMARK VINA RESULT:    -3.693      1.766      2.537
REMARK INTER + INTRA:          -5.312
REMARK INTER:                  -4.659
REMARK INTRA:                  -0.653
REMARK UNBOUND:                -0.324
REMARK SMILES CCCCCCCC(=O)[O-]
REMARK SMILES IDX 5 1 6 2 7 3 8 4 9 5 10 6 4 7 3 8 2 9 1 10
REMARK H PARENT
REMARK Flexibility Score: inf
ROOT
ATOM      1  C   UNL     1       1.999   4.112  30.291  1.00  0.00     0.000 C 
ENDROOT
BRANCH   1   2
ATOM      2  C   UNL     1       1.563   4.404  28.847  1.00  0.00     0.006 C 
BRANCH   2   3
ATOM      3  C   UNL     1       2.101   3.339  27.888  1.00  0.00     0.053 C 
BRANCH   3   4
ATOM      4  C   UNL     1       3.488   3.683  27.446  1.00  0.00     0.041 C 
ATOM      5  O   UNL     1       3.677   4.608  26.614  1.00  0.00    -0.550 OA
ATOM      6  O   UNL     1       4.570   2.946  27.915  1.00  0.00    -0.550 OA
ENDBRANCH   3   4
ENDBRANCH   2   3
ENDBRANCH   1   2
BRANCH   1   7
ATOM      7  C   UNL     1       2.889   5.220  30.877  1.00  0.00     0.000 C 
BRANCH   7   8
ATOM      8  C   UNL     1       4.376   4.835  30.901  1.00  0.00    -0.000 C 
BRANCH   8   9
ATOM      9  C   UNL     1       5.232   5.914  30.228  1.00  0.00    -0.003 C 
ATOM     10  C   UNL     1       4.379   6.825  29.349  1.00  0.00     0.004 C 
ENDBRANCH   8   9
ENDBRANCH   7   8
ENDBRANCH   1   7
TORSDOF 6
ENDMDL
MODEL 6
REMARK VINA RESULT:    -3.692      1.770      2.547
REMARK INTER + INTRA:          -5.311
REMARK INTER:                  -4.988
REMARK INTRA:                  -0.323
REMARK UNBOUND:                -0.324
REMARK SMILES CCCCCCCC(=O)[O-]
REMARK SMILES IDX 5 1 6 2 7 3 8 4 9 5 10 6 4 7 3 8 2 9 1 10
REMARK H PARENT
REMARK Flexibility Score: inf
ROOT
ATOM      1  C   UNL     1       2.573   4.461  30.886  1.00  0.00     0.000 C 
ENDROOT
BRANCH   1   2
ATOM      2  C   UNL     1       3.942   5.151  30.811  1.00  0.00     0.006 C 
BRANCH   2   3
ATOM      3  C   UNL     1       4.855   4.448  29.803  1.00  0.00     0.053 C 
BRANCH   3   4
ATOM      4  C   UNL     1       4.224   4.429  28.446  1.00  0.00     0.041 C 
ATOM      5  O   UNL     1       3.941   5.509  27.864  1.00  0.00    -0.550 OA
ATOM      6  O   UNL     1       3.900   3.218  27.847  1.00  0.00    -0.550 OA
ENDBRANCH   3   4
ENDBRANCH   2   3
ENDBRANCH   1   2
BRANCH   1   7
ATOM      7  C   UNL     1       1.574   5.219  31.777  1.00  0.00     0.000 C 
BRANCH   7   8
ATOM      8  C   UNL     1       0.725   6.226  30.988  1.00  0.00    -0.000 C 
BRANCH   8   9
ATOM      9  C   UNL     1       0.385   5.684  29.595  1.00  0.00    -0.003 C 
ATOM     10  C   UNL     1      -1.106   5.823  29.298  1.00  0.00     0.004 C 
ENDBRANCH   8   9
ENDBRANCH   7   8
ENDBRANCH   1   7
TORSDOF 6
ENDMDL
MODEL 7
REMARK VINA RESULT:    -3.690      1.624      2.132
REMARK INTER + INTRA:          -5.308
REMARK INTER:                  -4.930
REMARK INTRA:                  -0.378
REMARK UNBOUND:                -0.324
REMARK SMILES CCCCCCCC(=O)[O-]
REMARK SMILES IDX 5 1 6 2 7 3 8 4 9 5 10 6 4 7 3 8 2 9 1 10
REMARK H PARENT
REMARK Flexibility Score: inf
ROOT
ATOM      1  C   UNL     1       3.490   4.618  30.845  1.00  0.00     0.000 C 
ENDROOT
BRANCH   1   2
ATOM      2  C   UNL     1       3.907   5.216  29.493  1.00  0.00     0.006 C 
BRANCH   2   3
ATOM      3  C   UNL     1       4.455   4.132  28.562  1.00  0.00     0.053 C 
BRANCH   3   4
ATOM      4  C   UNL     1       3.449   3.784  27.511  1.00  0.00     0.041 C 
ATOM      5  O   UNL     1       2.439   3.093  27.805  1.00  0.00    -0.550 OA
ATOM      6  O   UNL     1       3.654   4.181  26.194  1.00  0.00    -0.550 OA
ENDBRANCH   3   4
ENDBRANCH   2   3
ENDBRANCH   1   2
BRANCH   1   7
ATOM      7  C   UNL     1       1.965   4.600  31.041  1.00  0.00     0.000 C 
BRANCH   7   8
ATOM      8  C   UNL     1       1.472   5.735  31.951  1.00  0.00    -0.000 C 
BRANCH   8   9
ATOM      9  C   UNL     1       0.514   6.664  31.196  1.00  0.00    -0.003 C 
ATOM     10  C   UNL     1      -0.013   5.999  29.927  1.00  0.00     0.004 C 
ENDBRANCH   8   9
ENDBRANCH   7   8
ENDBRANCH   1   7
TORSDOF 6
ENDMDL
MODEL 8
REMARK VINA RESULT:    -3.679      1.923      2.880
REMARK INTER + INTRA:          -5.293
REMARK INTER:                  -4.840
REMARK INTRA:                  -0.454
REMARK UNBOUND:                -0.324
REMARK SMILES CCCCCCCC(=O)[O-]
REMARK SMILES IDX 5 1 6 2 7 3 8 4 9 5 10 6 4 7 3 8 2 9 1 10
REMARK H PARENT
REMARK Flexibility Score: inf
ROOT
ATOM      1  C   UNL     1       4.127   4.740  28.304  1.00  0.00     0.000 C 
ENDROOT
BRANCH   1   2
ATOM      2  C   UNL     1       3.593   3.514  27.549  1.00  0.00     0.006 C 
BRANCH   2   3
ATOM      3  C   UNL     1       2.102   3.306  27.830  1.00  0.00     0.053 C 
BRANCH   3   4
ATOM      4  C   UNL     1       1.296   3.551  26.594  1.00  0.00     0.041 C 
ATOM      5  O   UNL     1       0.216   2.931  26.409  1.00  0.00    -0.550 OA
ATOM      6  O   UNL     1       1.763   4.428  25.623  1.00  0.00    -0.550 OA
ENDBRANCH   3   4
ENDBRANCH   2   3
ENDBRANCH   1   2
BRANCH   1   7
ATOM      7  C   UNL     1       5.016   4.360  29.499  1.00  0.00     0.000 C 
BRANCH   7   8
ATOM      8  C   UNL     1       4.466   4.882  30.835  1.00  0.00    -0.000 C 
BRANCH   8   9
ATOM      9  C   UNL     1       3.101   5.552  30.640  1.00  0.00    -0.003 C 
ATOM     10  C   UNL     1       1.990   4.744  31.306  1.00  0.00     0.004 C 
ENDBRANCH   8   9
ENDBRANCH   7   8
ENDBRANCH   1   7
TORSDOF 6
ENDMDL
MODEL 9
REMARK VINA RESULT:    -3.658      1.981      4.230
REMARK INTER + INTRA:          -5.265
REMARK INTER:                  -4.722
REMARK INTRA:                  -0.544
REMARK UNBOUND:                -0.324
REMARK SMILES CCCCCCCC(=O)[O-]
REMARK SMILES IDX 5 1 6 2 7 3 8 4 9 5 10 6 4 7 3 8 2 9 1 10
REMARK H PARENT
REMARK Flexibility Score: inf
ROOT
ATOM      1  C   UNL     1       1.727   4.351  28.851  1.00  0.00     0.000 C 
ENDROOT
BRANCH   1   2
ATOM      2  C   UNL     1       1.891   4.024  30.342  1.00  0.00     0.006 C 
BRANCH   2   3
ATOM      3  C   UNL     1       2.325   5.263  31.130  1.00  0.00     0.053 C 
BRANCH   3   4
ATOM      4  C   UNL     1       3.712   5.671  30.744  1.00  0.00     0.041 C 
ATOM      5  O   UNL     1       3.944   6.851  30.372  1.00  0.00    -0.550 OA
ATOM      6  O   UNL     1       4.738   4.734  30.747  1.00  0.00    -0.550 OA
ENDBRANCH   3   4
ENDBRANCH   2   3
ENDBRANCH   1   2
BRANCH   1   7
ATOM      7  C   UNL     1       2.309   3.261  27.937  1.00  0.00     0.000 C 
BRANCH   7   8
ATOM      8  C   UNL     1       3.757   3.552  27.516  1.00  0.00    -0.000 C 
BRANCH   8   9
ATOM      9  C   UNL     1       3.918   5.014  27.084  1.00  0.00    -0.003 C 
ATOM     10  C   UNL     1       3.892   5.146  25.564  1.00  0.00     0.004 C 
ENDBRANCH   8   9
ENDBRANCH   7   8
ENDBRANCH   1   7
TORSDOF 6
ENDMDL
