MODEL 1
REMARK VINA RESULT:    -4.780      0.000      0.000
REMARK INTER + INTRA:         -11.125
REMARK INTER:                  -8.134
REMARK INTRA:                  -2.991
REMARK UNBOUND:                -2.991
REMARK SMILES OC[C@@H]1O[C@H](Oc2cc(O)cc3[o+]c(-c4ccc(O)cc4)c(O[C@H]4O[C@@H](CO)[C@@H](O)[C@H](O)[C@H]4O)cc23)[C@@H](O)[C@@H](O)[C@@H]1O.[Cl-]
REMARK SMILES IDX 14 1 22 2 35 3 36 4 7 5 8 6 9 7 11 8 12 9 13 10 15 11 16 12
REMARK SMILES IDX 17 13 18 14 21 15 20 16 19 17 23 19 24 20 33 21 25 22 31 23
REMARK SMILES IDX 26 24 29 25 34 26 32 28 27 30 28 31 30 33 6 35 5 36 37 37
REMARK SMILES IDX 4 38 39 39 3 40 41 41 38 42 40 44 2 46 1 47 42 49 10 51
REMARK H PARENT 19 18 34 27 32 29 28 32 30 34 38 43 40 45 1 48 42 50 10 52
REMARK Flexibility Score: inf
ROOT
ATOM      1  C   UNL     1      14.877   1.768   4.092  1.00  0.00     0.402 A 
ATOM      2  C   UNL     1      13.479   1.643   4.071  1.00  0.00     0.229 A 
ATOM      3  C   UNL     1      12.801   2.302   3.036  1.00  0.00     0.079 A 
ATOM      4  C   UNL     1      13.480   2.624   1.867  1.00  0.00     0.126 A 
ATOM      5  C   UNL     1      12.866   2.706   0.593  1.00  0.00     0.143 A 
ATOM      6  C   UNL     1      13.594   3.246  -0.487  1.00  0.00     0.094 A 
ATOM      7  C   UNL     1      14.912   3.672  -0.293  1.00  0.00     0.128 A 
ATOM      8  C   UNL     1      15.548   3.445   0.931  1.00  0.00     0.162 A 
ATOM      9  C   UNL     1      14.851   2.820   1.986  1.00  0.00     0.368 A 
ATOM     10  O   UNL     1      15.493   2.394   3.062  1.00  0.00    -0.202 OA
ENDROOT
BRANCH   1  11
ATOM     11  C   UNL     1      15.765   1.364   5.199  1.00  0.00     0.084 A 
ATOM     12  C   UNL     1      16.652   2.292   5.777  1.00  0.00     0.022 A 
ATOM     13  C   UNL     1      17.933   1.923   6.163  1.00  0.00     0.047 A 
ATOM     14  C   UNL     1      18.305   0.586   6.193  1.00  0.00     0.115 A 
ATOM     15  C   UNL     1      16.126  -0.009   5.306  1.00  0.00     0.022 A 
ATOM     16  C   UNL     1      17.386  -0.389   5.779  1.00  0.00     0.047 A 
BRANCH  14  17
ATOM     17  O   UNL     1      19.582   0.198   6.575  1.00  0.00    -0.508 OA
ATOM     18  H   UNL     1      19.757  -0.286   7.433  1.00  0.00     0.293 HD
ENDBRANCH  14  17
ENDBRANCH   1  11
BRANCH   2  19
ATOM     19  O   UNL     1      12.750   0.869   4.990  1.00  0.00    -0.452 OA
BRANCH  19  20
ATOM     20  C   UNL     1      12.681  -0.597   5.011  1.00  0.00     0.339 C 
ATOM     21  C   UNL     1      11.474  -1.100   4.226  1.00  0.00     0.214 C 
ATOM     22  O   UNL     1      12.637  -1.125   6.302  1.00  0.00    -0.332 OA
ATOM     23  C   UNL     1      10.211  -0.469   4.834  1.00  0.00     0.180 C 
ATOM     24  C   UNL     1      11.614  -0.573   7.095  1.00  0.00     0.179 C 
ATOM     25  C   UNL     1      10.213  -0.525   6.395  1.00  0.00     0.177 C 
BRANCH  21  26
ATOM     26  O   UNL     1      11.610  -0.741   2.870  1.00  0.00    -0.384 OA
ATOM     27  H   UNL     1      10.970  -0.011   2.677  1.00  0.00     0.211 HD
ENDBRANCH  21  26
BRANCH  23  28
ATOM     28  O   UNL     1       9.077  -1.121   4.313  1.00  0.00    -0.387 OA
ATOM     29  H   UNL     1       8.756  -1.728   5.026  1.00  0.00     0.211 HD
ENDBRANCH  23  28
BRANCH  24  30
ATOM     30  C   UNL     1      12.086   0.744   7.745  1.00  0.00     0.191 C 
BRANCH  30  31
ATOM     31  O   UNL     1      11.716   0.748   9.094  1.00  0.00    -0.394 OA
ATOM     32  H   UNL     1      10.875   0.256   9.194  1.00  0.00     0.210 HD
ENDBRANCH  30  31
ENDBRANCH  24  30
BRANCH  25  33
ATOM     33  O   UNL     1       9.457   0.514   6.946  1.00  0.00    -0.387 OA
ATOM     34  H   UNL     1       9.552   0.520   7.925  1.00  0.00     0.211 HD
ENDBRANCH  25  33
ENDBRANCH  19  20
ENDBRANCH   2  19
BRANCH   5  35
ATOM     35  O   UNL     1      11.615   2.153   0.277  1.00  0.00    -0.461 OA
BRANCH  35  36
ATOM     36  C   UNL     1      10.287   2.736   0.123  1.00  0.00     0.339 C 
ATOM     37  C   UNL     1       9.204   2.419   1.179  1.00  0.00     0.214 C 
ATOM     38  O   UNL     1       9.789   2.314  -1.108  1.00  0.00    -0.332 OA
ATOM     39  C   UNL     1       9.195   0.924   1.438  1.00  0.00     0.180 C 
ATOM     40  C   UNL     1       9.641   0.889  -1.211  1.00  0.00     0.179 C 
ATOM     41  C   UNL     1       9.419   0.085   0.152  1.00  0.00     0.177 C 
BRANCH  37  42
ATOM     42  O   UNL     1       7.937   2.840   0.717  1.00  0.00    -0.384 OA
ATOM     43  H   UNL     1       7.445   1.998   0.437  1.00  0.00     0.211 HD
ENDBRANCH  37  42
BRANCH  39  44
ATOM     44  O   UNL     1       7.999   0.551   2.086  1.00  0.00    -0.387 OA
ATOM     45  H   UNL     1       7.904   1.125   2.889  1.00  0.00     0.211 HD
ENDBRANCH  39  44
BRANCH  40  46
ATOM     46  C   UNL     1      10.780   0.348  -2.084  1.00  0.00     0.191 C 
BRANCH  46  47
ATOM     47  O   UNL     1      11.549   1.415  -2.609  1.00  0.00    -0.394 OA
ATOM     48  H   UNL     1      12.365   1.026  -3.020  1.00  0.00     0.210 HD
ENDBRANCH  46  47
ENDBRANCH  40  46
BRANCH  41  49
ATOM     49  O   UNL     1      10.520  -0.792   0.410  1.00  0.00    -0.387 OA
ATOM     50  H   UNL     1      11.250  -0.504  -0.203  1.00  0.00     0.211 HD
ENDBRANCH  41  49
ENDBRANCH  35  36
ENDBRANCH   5  35
BRANCH   7  51
ATOM     51  O   UNL     1      15.600   4.327  -1.310  1.00  0.00    -0.507 OA
ATOM     52  H   UNL     1      16.600   4.380  -1.285  1.00  0.00     0.293 HD
ENDBRANCH   7  51
TORSDOF 17
ENDMDL
MODEL 2
REMARK VINA RESULT:    -4.677      1.048      2.109
REMARK INTER + INTRA:         -10.949
REMARK INTER:                  -9.081
REMARK INTRA:                  -1.868
REMARK UNBOUND:                -2.991
REMARK SMILES OC[C@@H]1O[C@H](Oc2cc(O)cc3[o+]c(-c4ccc(O)cc4)c(O[C@H]4O[C@@H](CO)[C@@H](O)[C@H](O)[C@H]4O)cc23)[C@@H](O)[C@@H](O)[C@@H]1O.[Cl-]
REMARK SMILES IDX 14 1 22 2 35 3 36 4 7 5 8 6 9 7 11 8 12 9 13 10 15 11 16 12
REMARK SMILES IDX 17 13 18 14 21 15 20 16 19 17 23 19 24 20 33 21 25 22 31 23
REMARK SMILES IDX 26 24 29 25 34 26 32 28 27 30 28 31 30 33 6 35 5 36 37 37
REMARK SMILES IDX 4 38 39 39 3 40 41 41 38 42 40 44 2 46 1 47 42 49 10 51
REMARK H PARENT 19 18 34 27 32 29 28 32 30 34 38 43 40 45 1 48 42 50 10 52
REMARK Flexibility Score: inf
ROOT
ATOM      1  C   UNL     1      14.891   1.827   3.883  1.00  0.00     0.402 A 
ATOM      2  C   UNL     1      13.498   1.664   3.819  1.00  0.00     0.229 A 
ATOM      3  C   UNL     1      12.841   2.259   2.734  1.00  0.00     0.079 A 
ATOM      4  C   UNL     1      13.553   2.549   1.576  1.00  0.00     0.126 A 
ATOM      5  C   UNL     1      12.982   2.561   0.279  1.00  0.00     0.143 A 
ATOM      6  C   UNL     1      13.735   3.073  -0.797  1.00  0.00     0.094 A 
ATOM      7  C   UNL     1      15.034   3.542  -0.577  1.00  0.00     0.128 A 
ATOM      8  C   UNL     1      15.631   3.385   0.677  1.00  0.00     0.162 A 
ATOM      9  C   UNL     1      14.913   2.787   1.734  1.00  0.00     0.368 A 
ATOM     10  O   UNL     1      15.527   2.425   2.849  1.00  0.00    -0.202 OA
ENDROOT
BRANCH   1  11
ATOM     11  C   UNL     1      15.749   1.495   5.037  1.00  0.00     0.084 A 
ATOM     12  C   UNL     1      16.494   2.498   5.685  1.00  0.00     0.022 A 
ATOM     13  C   UNL     1      17.782   2.259   6.143  1.00  0.00     0.047 A 
ATOM     14  C   UNL     1      18.293   0.970   6.174  1.00  0.00     0.115 A 
ATOM     15  C   UNL     1      16.249   0.166   5.143  1.00  0.00     0.022 A 
ATOM     16  C   UNL     1      17.512  -0.089   5.687  1.00  0.00     0.047 A 
BRANCH  14  17
ATOM     17  O   UNL     1      19.579   0.712   6.629  1.00  0.00    -0.508 OA
ATOM     18  H   UNL     1      20.346   0.561   6.003  1.00  0.00     0.293 HD
ENDBRANCH  14  17
ENDBRANCH   1  11
BRANCH   2  19
ATOM     19  O   UNL     1      12.757   0.910   4.746  1.00  0.00    -0.452 OA
BRANCH  19  20
ATOM     20  C   UNL     1      12.663  -0.555   4.781  1.00  0.00     0.339 C 
ATOM     21  C   UNL     1      11.210  -1.009   4.868  1.00  0.00     0.214 C 
ATOM     22  O   UNL     1      13.385  -1.125   5.830  1.00  0.00    -0.332 OA
ATOM     23  C   UNL     1      10.587  -0.377   6.124  1.00  0.00     0.180 C 
ATOM     24  C   UNL     1      13.061  -0.582   7.087  1.00  0.00     0.179 C 
ATOM     25  C   UNL     1      11.523  -0.486   7.370  1.00  0.00     0.177 C 
BRANCH  21  26
ATOM     26  O   UNL     1      10.518  -0.607   3.709  1.00  0.00    -0.384 OA
ATOM     27  H   UNL     1      10.021   0.223   3.917  1.00  0.00     0.211 HD
ENDBRANCH  21  26
BRANCH  23  28
ATOM     28  O   UNL     1       9.345  -0.991   6.377  1.00  0.00    -0.387 OA
ATOM     29  H   UNL     1       9.422  -1.919   6.041  1.00  0.00     0.211 HD
ENDBRANCH  23  28
BRANCH  24  30
ATOM     30  C   UNL     1      13.873   0.703   7.345  1.00  0.00     0.191 C 
BRANCH  30  31
ATOM     31  O   UNL     1      13.024   1.810   7.247  1.00  0.00    -0.394 OA
ATOM     32  H   UNL     1      13.537   2.576   6.916  1.00  0.00     0.210 HD
ENDBRANCH  30  31
ENDBRANCH  24  30
BRANCH  25  33
ATOM     33  O   UNL     1      11.284   0.547   8.281  1.00  0.00    -0.387 OA
ATOM     34  H   UNL     1      11.525   0.259   9.190  1.00  0.00     0.211 HD
ENDBRANCH  25  33
ENDBRANCH  19  20
ENDBRANCH   2  19
BRANCH   5  35
ATOM     35  O   UNL     1      11.758   1.961  -0.055  1.00  0.00    -0.461 OA
BRANCH  35  36
ATOM     36  C   UNL     1      11.095   0.745   0.405  1.00  0.00     0.339 C 
ATOM     37  C   UNL     1      10.370  -0.148  -0.628  1.00  0.00     0.214 C 
ATOM     38  O   UNL     1      10.145   1.123   1.351  1.00  0.00    -0.332 OA
ATOM     39  C   UNL     1       9.505   0.730  -1.513  1.00  0.00     0.180 C 
ATOM     40  C   UNL     1       9.126   1.990   0.830  1.00  0.00     0.179 C 
ATOM     41  C   UNL     1       8.818   1.884  -0.735  1.00  0.00     0.177 C 
BRANCH  37  42
ATOM     42  O   UNL     1       9.573  -1.107   0.034  1.00  0.00    -0.384 OA
ATOM     43  H   UNL     1       9.881  -1.109   1.001  1.00  0.00     0.211 HD
ENDBRANCH  37  42
BRANCH  39  44
ATOM     44  O   UNL     1       8.556  -0.056  -2.197  1.00  0.00    -0.387 OA
ATOM     45  H   UNL     1       7.659   0.192  -1.853  1.00  0.00     0.211 HD
ENDBRANCH  39  44
BRANCH  40  46
ATOM     46  C   UNL     1       9.409   3.416   1.321  1.00  0.00     0.191 C 
BRANCH  46  47
ATOM     47  O   UNL     1       8.278   4.243   1.112  1.00  0.00    -0.394 OA
ATOM     48  H   UNL     1       8.160   4.350   0.131  1.00  0.00     0.210 HD
ENDBRANCH  46  47
ENDBRANCH  40  46
BRANCH  41  49
ATOM     49  O   UNL     1       9.156   3.102  -1.404  1.00  0.00    -0.387 OA
ATOM     50  H   UNL     1       9.450   3.734  -0.692  1.00  0.00     0.211 HD
ENDBRANCH  41  49
ENDBRANCH  35  36
ENDBRANCH   5  35
BRANCH   7  51
ATOM     51  O   UNL     1      15.740   4.172  -1.597  1.00  0.00    -0.507 OA
ATOM     52  H   UNL     1      16.359   4.930  -1.385  1.00  0.00     0.293 HD
ENDBRANCH   7  51
TORSDOF 17
ENDMDL
MODEL 3
REMARK VINA RESULT:    -4.482      0.777      1.367
REMARK INTER + INTRA:         -10.617
REMARK INTER:                  -7.694
REMARK INTRA:                  -2.923
REMARK UNBOUND:                -2.991
REMARK SMILES OC[C@@H]1O[C@H](Oc2cc(O)cc3[o+]c(-c4ccc(O)cc4)c(O[C@H]4O[C@@H](CO)[C@@H](O)[C@H](O)[C@H]4O)cc23)[C@@H](O)[C@@H](O)[C@@H]1O.[Cl-]
REMARK SMILES IDX 14 1 22 2 35 3 36 4 7 5 8 6 9 7 11 8 12 9 13 10 15 11 16 12
REMARK SMILES IDX 17 13 18 14 21 15 20 16 19 17 23 19 24 20 33 21 25 22 31 23
REMARK SMILES IDX 26 24 29 25 34 26 32 28 27 30 28 31 30 33 6 35 5 36 37 37
REMARK SMILES IDX 4 38 39 39 3 40 41 41 38 42 40 44 2 46 1 47 42 49 10 51
REMARK H PARENT 19 18 34 27 32 29 28 32 30 34 38 43 40 45 1 48 42 50 10 52
REMARK Flexibility Score: inf
ROOT
ATOM      1  C   UNL     1      14.656   1.558   4.091  1.00  0.00     0.402 A 
ATOM      2  C   UNL     1      13.258   1.573   3.960  1.00  0.00     0.229 A 
ATOM      3  C   UNL     1      12.730   2.337   2.910  1.00  0.00     0.079 A 
ATOM      4  C   UNL     1      13.527   2.638   1.812  1.00  0.00     0.126 A 
ATOM      5  C   UNL     1      13.026   2.833   0.501  1.00  0.00     0.143 A 
ATOM      6  C   UNL     1      13.885   3.341  -0.494  1.00  0.00     0.094 A 
ATOM      7  C   UNL     1      15.218   3.626  -0.182  1.00  0.00     0.128 A 
ATOM      8  C   UNL     1      15.731   3.289   1.073  1.00  0.00     0.162 A 
ATOM      9  C   UNL     1      14.896   2.693   2.042  1.00  0.00     0.368 A 
ATOM     10  O   UNL     1      15.408   2.162   3.142  1.00  0.00    -0.202 OA
ENDROOT
BRANCH   1  11
ATOM     11  C   UNL     1      15.411   1.023   5.241  1.00  0.00     0.084 A 
ATOM     12  C   UNL     1      16.031   1.896   6.155  1.00  0.00     0.022 A 
ATOM     13  C   UNL     1      17.278   1.610   6.694  1.00  0.00     0.047 A 
ATOM     14  C   UNL     1      17.854   0.360   6.520  1.00  0.00     0.115 A 
ATOM     15  C   UNL     1      15.971  -0.281   5.130  1.00  0.00     0.022 A 
ATOM     16  C   UNL     1      17.184  -0.600   5.747  1.00  0.00     0.047 A 
BRANCH  14  17
ATOM     17  O   UNL     1      19.100   0.057   7.050  1.00  0.00    -0.508 OA
ATOM     18  H   UNL     1      19.208  -0.520   7.862  1.00  0.00     0.293 HD
ENDBRANCH  14  17
ENDBRANCH   1  11
BRANCH   2  19
ATOM     19  O   UNL     1      12.389   0.838   4.783  1.00  0.00    -0.452 OA
BRANCH  19  20
ATOM     20  C   UNL     1      12.294  -0.627   4.840  1.00  0.00     0.339 C 
ATOM     21  C   UNL     1      11.063  -1.125   4.090  1.00  0.00     0.214 C 
ATOM     22  O   UNL     1      12.268  -1.124   6.143  1.00  0.00    -0.332 OA
ATOM     23  C   UNL     1       9.824  -0.458   4.709  1.00  0.00     0.180 C 
ATOM     24  C   UNL     1      11.270  -0.536   6.943  1.00  0.00     0.179 C 
ATOM     25  C   UNL     1       9.856  -0.479   6.270  1.00  0.00     0.177 C 
BRANCH  21  26
ATOM     26  O   UNL     1      11.177  -0.800   2.724  1.00  0.00    -0.384 OA
ATOM     27  H   UNL     1      10.838  -1.563   2.194  1.00  0.00     0.211 HD
ENDBRANCH  21  26
BRANCH  23  28
ATOM     28  O   UNL     1       8.668  -1.102   4.226  1.00  0.00    -0.387 OA
ATOM     29  H   UNL     1       8.533  -1.896   4.801  1.00  0.00     0.211 HD
ENDBRANCH  23  28
BRANCH  24  30
ATOM     30  C   UNL     1      11.778   0.786   7.553  1.00  0.00     0.191 C 
BRANCH  30  31
ATOM     31  O   UNL     1      12.030   0.596   8.916  1.00  0.00    -0.394 OA
ATOM     32  H   UNL     1      11.857   1.434   9.391  1.00  0.00     0.210 HD
ENDBRANCH  30  31
ENDBRANCH  24  30
BRANCH  25  33
ATOM     33  O   UNL     1       9.130   0.585   6.812  1.00  0.00    -0.387 OA
ATOM     34  H   UNL     1       8.424   0.866   6.187  1.00  0.00     0.211 HD
ENDBRANCH  25  33
ENDBRANCH  19  20
ENDBRANCH   2  19
BRANCH   5  35
ATOM     35  O   UNL     1      11.757   2.419   0.066  1.00  0.00    -0.461 OA
BRANCH  35  36
ATOM     36  C   UNL     1      10.795   2.995  -0.868  1.00  0.00     0.339 C 
ATOM     37  C   UNL     1       9.762   4.017  -0.342  1.00  0.00     0.214 C 
ATOM     38  O   UNL     1      10.076   1.941  -1.425  1.00  0.00    -0.332 OA
ATOM     39  C   UNL     1       9.137   3.471   0.929  1.00  0.00     0.180 C 
ATOM     40  C   UNL     1       9.328   1.181  -0.463  1.00  0.00     0.179 C 
ATOM     41  C   UNL     1       8.887   1.941   0.873  1.00  0.00     0.177 C 
BRANCH  37  42
ATOM     42  O   UNL     1       8.765   4.244  -1.316  1.00  0.00    -0.384 OA
ATOM     43  H   UNL     1       8.575   3.341  -1.739  1.00  0.00     0.211 HD
ENDBRANCH  37  42
BRANCH  39  44
ATOM     44  O   UNL     1       7.948   4.169   1.222  1.00  0.00    -0.387 OA
ATOM     45  H   UNL     1       7.649   4.614   0.387  1.00  0.00     0.211 HD
ENDBRANCH  39  44
BRANCH  40  46
ATOM     46  C   UNL     1      10.061  -0.145  -0.220  1.00  0.00     0.191 C 
BRANCH  46  47
ATOM     47  O   UNL     1       9.250  -1.026   0.536  1.00  0.00    -0.394 OA
ATOM     48  H   UNL     1       8.304  -0.749   0.408  1.00  0.00     0.210 HD
ENDBRANCH  46  47
ENDBRANCH  40  46
BRANCH  41  49
ATOM     49  O   UNL     1       9.525   1.369   2.018  1.00  0.00    -0.387 OA
ATOM     50  H   UNL     1       8.905   0.667   2.356  1.00  0.00     0.211 HD
ENDBRANCH  41  49
ENDBRANCH  35  36
ENDBRANCH   5  35
BRANCH   7  51
ATOM     51  O   UNL     1      16.044   4.251  -1.112  1.00  0.00    -0.507 OA
ATOM     52  H   UNL     1      16.266   5.223  -1.012  1.00  0.00     0.293 HD
ENDBRANCH   7  51
TORSDOF 17
ENDMDL
MODEL 4
REMARK VINA RESULT:    -4.072      1.972      8.745
REMARK INTER + INTRA:          -9.920
REMARK INTER:                  -8.108
REMARK INTRA:                  -1.812
REMARK UNBOUND:                -2.991
REMARK SMILES OC[C@@H]1O[C@H](Oc2cc(O)cc3[o+]c(-c4ccc(O)cc4)c(O[C@H]4O[C@@H](CO)[C@@H](O)[C@H](O)[C@H]4O)cc23)[C@@H](O)[C@@H](O)[C@@H]1O.[Cl-]
REMARK SMILES IDX 14 1 22 2 35 3 36 4 7 5 8 6 9 7 11 8 12 9 13 10 15 11 16 12
REMARK SMILES IDX 17 13 18 14 21 15 20 16 19 17 23 19 24 20 33 21 25 22 31 23
REMARK SMILES IDX 26 24 29 25 34 26 32 28 27 30 28 31 30 33 6 35 5 36 37 37
REMARK SMILES IDX 4 38 39 39 3 40 41 41 38 42 40 44 2 46 1 47 42 49 10 51
REMARK H PARENT 19 18 34 27 32 29 28 32 30 34 38 43 40 45 1 48 42 50 10 52
REMARK Flexibility Score: inf
ROOT
ATOM      1  C   UNL     1      11.768   0.007   2.940  1.00  0.00     0.402 A 
ATOM      2  C   UNL     1      12.973   0.728   2.919  1.00  0.00     0.229 A 
ATOM      3  C   UNL     1      13.506   1.103   4.160  1.00  0.00     0.079 A 
ATOM      4  C   UNL     1      13.147   0.399   5.302  1.00  0.00     0.126 A 
ATOM      5  C   UNL     1      13.989   0.239   6.431  1.00  0.00     0.143 A 
ATOM      6  C   UNL     1      13.453  -0.306   7.615  1.00  0.00     0.094 A 
ATOM      7  C   UNL     1      12.112  -0.700   7.656  1.00  0.00     0.128 A 
ATOM      8  C   UNL     1      11.339  -0.673   6.491  1.00  0.00     0.162 A 
ATOM      9  C   UNL     1      11.900  -0.214   5.280  1.00  0.00     0.368 A 
ATOM     10  O   UNL     1      11.267  -0.392   4.131  1.00  0.00    -0.202 OA
ENDROOT
BRANCH   1  11
ATOM     11  C   UNL     1      10.915  -0.287   1.772  1.00  0.00     0.084 A 
ATOM     12  C   UNL     1      11.422  -1.025   0.686  1.00  0.00     0.022 A 
ATOM     13  C   UNL     1      11.094  -0.701  -0.623  1.00  0.00     0.047 A 
ATOM     14  C   UNL     1      10.090   0.218  -0.894  1.00  0.00     0.115 A 
ATOM     15  C   UNL     1       9.835   0.596   1.489  1.00  0.00     0.022 A 
ATOM     16  C   UNL     1       9.442   0.857   0.173  1.00  0.00     0.047 A 
BRANCH  14  17
ATOM     17  O   UNL     1       9.749   0.555  -2.196  1.00  0.00    -0.508 OA
ATOM     18  H   UNL     1      10.310   1.170  -2.752  1.00  0.00     0.293 HD
ENDBRANCH  14  17
ENDBRANCH   1  11
BRANCH   2  19
ATOM     19  O   UNL     1      13.674   1.042   1.743  1.00  0.00    -0.452 OA
BRANCH  19  20
ATOM     20  C   UNL     1      14.362   2.310   1.467  1.00  0.00     0.339 C 
ATOM     21  C   UNL     1      13.377   3.380   1.011  1.00  0.00     0.214 C 
ATOM     22  O   UNL     1      15.376   2.186   0.516  1.00  0.00    -0.332 OA
ATOM     23  C   UNL     1      12.644   2.857  -0.235  1.00  0.00     0.180 C 
ATOM     24  C   UNL     1      14.944   1.591  -0.684  1.00  0.00     0.179 C 
ATOM     25  C   UNL     1      13.619   2.195  -1.262  1.00  0.00     0.177 C 
BRANCH  21  26
ATOM     26  O   UNL     1      12.465   3.657   2.048  1.00  0.00    -0.384 OA
ATOM     27  H   UNL     1      12.741   4.499   2.488  1.00  0.00     0.211 HD
ENDBRANCH  21  26
BRANCH  23  28
ATOM     28  O   UNL     1      11.938   3.919  -0.832  1.00  0.00    -0.387 OA
ATOM     29  H   UNL     1      11.067   3.969  -0.364  1.00  0.00     0.211 HD
ENDBRANCH  23  28
BRANCH  24  30
ATOM     30  C   UNL     1      14.987   0.054  -0.569  1.00  0.00     0.191 C 
BRANCH  30  31
ATOM     31  O   UNL     1      15.249  -0.493  -1.829  1.00  0.00    -0.394 OA
ATOM     32  H   UNL     1      15.142  -1.466  -1.783  1.00  0.00     0.210 HD
ENDBRANCH  30  31
ENDBRANCH  24  30
BRANCH  25  33
ATOM     33  O   UNL     1      12.969   1.228  -2.035  1.00  0.00    -0.387 OA
ATOM     34  H   UNL     1      13.412   0.356  -1.929  1.00  0.00     0.211 HD
ENDBRANCH  25  33
ENDBRANCH  19  20
ENDBRANCH   2  19
BRANCH   5  35
ATOM     35  O   UNL     1      15.376   0.452   6.423  1.00  0.00    -0.461 OA
BRANCH  35  36
ATOM     36  C   UNL     1      16.449  -0.054   5.573  1.00  0.00     0.339 C 
ATOM     37  C   UNL     1      17.528  -0.969   6.195  1.00  0.00     0.214 C 
ATOM     38  O   UNL     1      17.111   1.050   5.040  1.00  0.00    -0.332 OA
ATOM     39  C   UNL     1      18.010  -0.346   7.492  1.00  0.00     0.180 C 
ATOM     40  C   UNL     1      17.718   1.891   6.032  1.00  0.00     0.179 C 
ATOM     41  C   UNL     1      18.128   1.200   7.414  1.00  0.00     0.177 C 
BRANCH  37  42
ATOM     42  O   UNL     1      18.608  -1.125   5.298  1.00  0.00    -0.384 OA
ATOM     43  H   UNL     1      18.215  -1.525   4.452  1.00  0.00     0.211 HD
ENDBRANCH  37  42
BRANCH  39  44
ATOM     44  O   UNL     1      19.232  -0.929   7.885  1.00  0.00    -0.387 OA
ATOM     45  H   UNL     1      19.433  -1.660   7.245  1.00  0.00     0.211 HD
ENDBRANCH  39  44
BRANCH  40  46
ATOM     46  C   UNL     1      16.857   3.150   6.190  1.00  0.00     0.191 C 
BRANCH  46  47
ATOM     47  O   UNL     1      15.672   2.851   6.906  1.00  0.00    -0.394 OA
ATOM     48  H   UNL     1      15.502   3.601   7.535  1.00  0.00     0.210 HD
ENDBRANCH  46  47
ENDBRANCH  40  46
BRANCH  41  49
ATOM     49  O   UNL     1      17.362   1.734   8.497  1.00  0.00    -0.387 OA
ATOM     50  H   UNL     1      17.021   0.949   9.006  1.00  0.00     0.211 HD
ENDBRANCH  41  49
ENDBRANCH  35  36
ENDBRANCH   5  35
BRANCH   7  51
ATOM     51  O   UNL     1      11.533  -1.115   8.851  1.00  0.00    -0.507 OA
ATOM     52  H   UNL     1      10.641  -0.754   9.128  1.00  0.00     0.293 HD
ENDBRANCH   7  51
TORSDOF 17
ENDMDL
MODEL 5
REMARK VINA RESULT:    -3.777      1.878      5.991
REMARK INTER + INTRA:          -9.417
REMARK INTER:                  -8.398
REMARK INTRA:                  -1.019
REMARK UNBOUND:                -2.991
REMARK SMILES OC[C@@H]1O[C@H](Oc2cc(O)cc3[o+]c(-c4ccc(O)cc4)c(O[C@H]4O[C@@H](CO)[C@@H](O)[C@H](O)[C@H]4O)cc23)[C@@H](O)[C@@H](O)[C@@H]1O.[Cl-]
REMARK SMILES IDX 14 1 22 2 35 3 36 4 7 5 8 6 9 7 11 8 12 9 13 10 15 11 16 12
REMARK SMILES IDX 17 13 18 14 21 15 20 16 19 17 23 19 24 20 33 21 25 22 31 23
REMARK SMILES IDX 26 24 29 25 34 26 32 28 27 30 28 31 30 33 6 35 5 36 37 37
REMARK SMILES IDX 4 38 39 39 3 40 41 41 38 42 40 44 2 46 1 47 42 49 10 51
REMARK H PARENT 19 18 34 27 32 29 28 32 30 34 38 43 40 45 1 48 42 50 10 52
REMARK Flexibility Score: inf
ROOT
ATOM      1  C   UNL     1      11.964  -0.650   5.067  1.00  0.00     0.402 A 
ATOM      2  C   UNL     1      13.228  -0.295   4.568  1.00  0.00     0.229 A 
ATOM      3  C   UNL     1      13.372  -0.265   3.174  1.00  0.00     0.079 A 
ATOM      4  C   UNL     1      12.249  -0.110   2.372  1.00  0.00     0.126 A 
ATOM      5  C   UNL     1      12.264   0.520   1.103  1.00  0.00     0.143 A 
ATOM      6  C   UNL     1      11.122   0.437   0.281  1.00  0.00     0.094 A 
ATOM      7  C   UNL     1       9.988  -0.246   0.733  1.00  0.00     0.128 A 
ATOM      8  C   UNL     1       9.939  -0.732   2.042  1.00  0.00     0.162 A 
ATOM      9  C   UNL     1      11.047  -0.568   2.900  1.00  0.00     0.368 A 
ATOM     10  O   UNL     1      10.941  -0.812   4.196  1.00  0.00    -0.202 OA
ENDROOT
BRANCH   1  11
ATOM     11  C   UNL     1      11.647  -0.969   6.472  1.00  0.00     0.084 A 
ATOM     12  C   UNL     1      10.310  -1.125   6.884  1.00  0.00     0.022 A 
ATOM     13  C   UNL     1       9.873  -0.650   8.113  1.00  0.00     0.047 A 
ATOM     14  C   UNL     1      10.782  -0.204   9.062  1.00  0.00     0.115 A 
ATOM     15  C   UNL     1      12.579  -0.583   7.477  1.00  0.00     0.022 A 
ATOM     16  C   UNL     1      12.149  -0.189   8.747  1.00  0.00     0.047 A 
BRANCH  14  17
ATOM     17  O   UNL     1      10.363   0.275  10.295  1.00  0.00    -0.508 OA
ATOM     18  H   UNL     1       9.561   0.865  10.394  1.00  0.00     0.293 HD
ENDBRANCH  14  17
ENDBRANCH   1  11
BRANCH   2  19
ATOM     19  O   UNL     1      14.315   0.068   5.382  1.00  0.00    -0.452 OA
BRANCH  19  20
ATOM     20  C   UNL     1      15.665  -0.505   5.317  1.00  0.00     0.339 C 
ATOM     21  C   UNL     1      16.380  -0.377   6.658  1.00  0.00     0.214 C 
ATOM     22  O   UNL     1      16.455   0.068   4.320  1.00  0.00    -0.332 OA
ATOM     23  C   UNL     1      16.420   1.112   7.038  1.00  0.00     0.180 C 
ATOM     24  C   UNL     1      16.521   1.471   4.401  1.00  0.00     0.179 C 
ATOM     25  C   UNL     1      16.833   2.020   5.835  1.00  0.00     0.177 C 
BRANCH  21  26
ATOM     26  O   UNL     1      15.692  -1.124   7.634  1.00  0.00    -0.384 OA
ATOM     27  H   UNL     1      14.726  -0.930   7.550  1.00  0.00     0.211 HD
ENDBRANCH  21  26
BRANCH  23  28
ATOM     28  O   UNL     1      17.305   1.285   8.119  1.00  0.00    -0.387 OA
ATOM     29  H   UNL     1      18.005   0.593   8.017  1.00  0.00     0.211 HD
ENDBRANCH  23  28
BRANCH  24  30
ATOM     30  C   UNL     1      15.313   2.109   3.685  1.00  0.00     0.191 C 
BRANCH  30  31
ATOM     31  O   UNL     1      15.639   3.418   3.314  1.00  0.00    -0.394 OA
ATOM     32  H   UNL     1      15.264   4.038   3.973  1.00  0.00     0.210 HD
ENDBRANCH  30  31
ENDBRANCH  24  30
BRANCH  25  33
ATOM     33  O   UNL     1      16.306   3.309   5.961  1.00  0.00    -0.387 OA
ATOM     34  H   UNL     1      16.086   3.673   5.074  1.00  0.00     0.211 HD
ENDBRANCH  25  33
ENDBRANCH  19  20
ENDBRANCH   2  19
BRANCH   5  35
ATOM     35  O   UNL     1      13.292   1.360   0.646  1.00  0.00    -0.461 OA
BRANCH  35  36
ATOM     36  C   UNL     1      14.230   1.258  -0.467  1.00  0.00     0.339 C 
ATOM     37  C   UNL     1      15.575   2.016  -0.382  1.00  0.00     0.214 C 
ATOM     38  O   UNL     1      13.575   1.721  -1.606  1.00  0.00    -0.332 OA
ATOM     39  C   UNL     1      15.308   3.438   0.071  1.00  0.00     0.180 C 
ATOM     40  C   UNL     1      13.169   3.096  -1.518  1.00  0.00     0.179 C 
ATOM     41  C   UNL     1      14.016   4.039  -0.544  1.00  0.00     0.177 C 
BRANCH  37  42
ATOM     42  O   UNL     1      16.211   2.018  -1.644  1.00  0.00    -0.384 OA
ATOM     43  H   UNL     1      17.200   1.885  -1.460  1.00  0.00     0.211 HD
ENDBRANCH  37  42
BRANCH  39  44
ATOM     44  O   UNL     1      16.426   4.252  -0.203  1.00  0.00    -0.387 OA
ATOM     45  H   UNL     1      17.217   3.822   0.213  1.00  0.00     0.211 HD
ENDBRANCH  39  44
BRANCH  40  46
ATOM     46  C   UNL     1      11.655   3.137  -1.276  1.00  0.00     0.191 C 
BRANCH  46  47
ATOM     47  O   UNL     1      11.145   4.427  -1.561  1.00  0.00    -0.394 OA
ATOM     48  H   UNL     1      11.442   4.673  -2.477  1.00  0.00     0.210 HD
ENDBRANCH  46  47
ENDBRANCH  40  46
BRANCH  41  49
ATOM     49  O   UNL     1      13.210   4.502   0.543  1.00  0.00    -0.387 OA
ATOM     50  H   UNL     1      13.837   4.929   1.188  1.00  0.00     0.211 HD
ENDBRANCH  41  49
ENDBRANCH  35  36
ENDBRANCH   5  35
BRANCH   7  51
ATOM     51  O   UNL     1       8.903  -0.453  -0.115  1.00  0.00    -0.507 OA
ATOM     52  H   UNL     1       8.973  -1.109  -0.868  1.00  0.00     0.293 HD
ENDBRANCH   7  51
TORSDOF 17
ENDMDL
MODEL 6
REMARK VINA RESULT:    -3.560      1.856      5.701
REMARK INTER + INTRA:          -9.048
REMARK INTER:                  -7.973
REMARK INTRA:                  -1.075
REMARK UNBOUND:                -2.991
REMARK SMILES OC[C@@H]1O[C@H](Oc2cc(O)cc3[o+]c(-c4ccc(O)cc4)c(O[C@H]4O[C@@H](CO)[C@@H](O)[C@H](O)[C@H]4O)cc23)[C@@H](O)[C@@H](O)[C@@H]1O.[Cl-]
REMARK SMILES IDX 14 1 22 2 35 3 36 4 7 5 8 6 9 7 11 8 12 9 13 10 15 11 16 12
REMARK SMILES IDX 17 13 18 14 21 15 20 16 19 17 23 19 24 20 33 21 25 22 31 23
REMARK SMILES IDX 26 24 29 25 34 26 32 28 27 30 28 31 30 33 6 35 5 36 37 37
REMARK SMILES IDX 4 38 39 39 3 40 41 41 38 42 40 44 2 46 1 47 42 49 10 51
REMARK H PARENT 19 18 34 27 32 29 28 32 30 34 38 43 40 45 1 48 42 50 10 52
REMARK Flexibility Score: inf
ROOT
ATOM      1  C   UNL     1      11.531  -0.829   5.301  1.00  0.00     0.402 A 
ATOM      2  C   UNL     1      12.758  -0.487   4.709  1.00  0.00     0.229 A 
ATOM      3  C   UNL     1      12.811  -0.505   3.309  1.00  0.00     0.079 A 
ATOM      4  C   UNL     1      11.638  -0.381   2.576  1.00  0.00     0.126 A 
ATOM      5  C   UNL     1      11.568   0.205   1.288  1.00  0.00     0.143 A 
ATOM      6  C   UNL     1      10.376   0.090   0.545  1.00  0.00     0.094 A 
ATOM      7  C   UNL     1       9.277  -0.581   1.092  1.00  0.00     0.128 A 
ATOM      8  C   UNL     1       9.316  -1.021   2.418  1.00  0.00     0.162 A 
ATOM      9  C   UNL     1      10.476  -0.824   3.196  1.00  0.00     0.368 A 
ATOM     10  O   UNL     1      10.455  -1.024   4.504  1.00  0.00    -0.202 OA
ENDROOT
BRANCH   1  11
ATOM     11  C   UNL     1      11.307  -1.101   6.733  1.00  0.00     0.084 A 
ATOM     12  C   UNL     1      10.002  -1.117   7.261  1.00  0.00     0.022 A 
ATOM     13  C   UNL     1       9.723  -0.588   8.514  1.00  0.00     0.047 A 
ATOM     14  C   UNL     1      10.750  -0.226   9.373  1.00  0.00     0.115 A 
ATOM     15  C   UNL     1      12.356  -0.800   7.648  1.00  0.00     0.022 A 
ATOM     16  C   UNL     1      12.079  -0.352   8.943  1.00  0.00     0.047 A 
BRANCH  14  17
ATOM     17  O   UNL     1      10.490   0.305  10.629  1.00  0.00    -0.508 OA
ATOM     18  H   UNL     1      11.114   0.177  11.401  1.00  0.00     0.293 HD
ENDBRANCH  14  17
ENDBRANCH   1  11
BRANCH   2  19
ATOM     19  O   UNL     1      13.893  -0.093   5.439  1.00  0.00    -0.452 OA
BRANCH  19  20
ATOM     20  C   UNL     1      15.208  -0.745   5.397  1.00  0.00     0.339 C 
ATOM     21  C   UNL     1      15.972  -0.520   6.698  1.00  0.00     0.214 C 
ATOM     22  O   UNL     1      15.995  -0.321   4.325  1.00  0.00    -0.332 OA
ATOM     23  C   UNL     1      16.104   0.996   6.920  1.00  0.00     0.180 C 
ATOM     24  C   UNL     1      16.137   1.077   4.258  1.00  0.00     0.179 C 
ATOM     25  C   UNL     1      16.524   1.751   5.618  1.00  0.00     0.177 C 
BRANCH  21  26
ATOM     26  O   UNL     1      15.278  -1.124   7.765  1.00  0.00    -0.384 OA
ATOM     27  H   UNL     1      14.975  -2.019   7.470  1.00  0.00     0.211 HD
ENDBRANCH  21  26
BRANCH  23  28
ATOM     28  O   UNL     1      17.031   1.229   7.953  1.00  0.00    -0.387 OA
ATOM     29  H   UNL     1      17.363   0.339   8.232  1.00  0.00     0.211 HD
ENDBRANCH  23  28
BRANCH  24  30
ATOM     30  C   UNL     1      14.942   1.705   3.512  1.00  0.00     0.191 C 
BRANCH  30  31
ATOM     31  O   UNL     1      15.377   2.844   2.826  1.00  0.00    -0.394 OA
ATOM     32  H   UNL     1      16.286   3.061   3.115  1.00  0.00     0.210 HD
ENDBRANCH  30  31
ENDBRANCH  24  30
BRANCH  25  33
ATOM     33  O   UNL     1      16.070   3.073   5.624  1.00  0.00    -0.387 OA
ATOM     34  H   UNL     1      15.567   3.263   4.800  1.00  0.00     0.211 HD
ENDBRANCH  25  33
ENDBRANCH  19  20
ENDBRANCH   2  19
BRANCH   5  35
ATOM     35  O   UNL     1      12.560   1.032   0.737  1.00  0.00    -0.461 OA
BRANCH  35  36
ATOM     36  C   UNL     1      12.911   2.431   0.951  1.00  0.00     0.339 C 
ATOM     37  C   UNL     1      11.930   3.529   0.480  1.00  0.00     0.214 C 
ATOM     38  O   UNL     1      14.119   2.661   0.297  1.00  0.00    -0.332 OA
ATOM     39  C   UNL     1      11.485   3.214  -0.936  1.00  0.00     0.180 C 
ATOM     40  C   UNL     1      14.056   2.452  -1.122  1.00  0.00     0.179 C 
ATOM     41  C   UNL     1      12.628   2.641  -1.816  1.00  0.00     0.177 C 
BRANCH  37  42
ATOM     42  O   UNL     1      12.558   4.793   0.523  1.00  0.00    -0.384 OA
ATOM     43  H   UNL     1      12.720   5.060  -0.443  1.00  0.00     0.211 HD
ENDBRANCH  37  42
BRANCH  39  44
ATOM     44  O   UNL     1      10.912   4.357  -1.530  1.00  0.00    -0.387 OA
ATOM     45  H   UNL     1       9.944   4.352  -1.311  1.00  0.00     0.211 HD
ENDBRANCH  39  44
BRANCH  40  46
ATOM     46  C   UNL     1      14.741   1.119  -1.445  1.00  0.00     0.191 C 
BRANCH  46  47
ATOM     47  O   UNL     1      14.772   0.907  -2.845  1.00  0.00    -0.394 OA
ATOM     48  H   UNL     1      14.292   1.662  -3.276  1.00  0.00     0.210 HD
ENDBRANCH  46  47
ENDBRANCH  40  46
BRANCH  41  49
ATOM     49  O   UNL     1      12.159   1.404  -2.360  1.00  0.00    -0.387 OA
ATOM     50  H   UNL     1      11.826   0.872  -1.586  1.00  0.00     0.211 HD
ENDBRANCH  41  49
ENDBRANCH  35  36
ENDBRANCH   5  35
BRANCH   7  51
ATOM     51  O   UNL     1       8.141  -0.820   0.324  1.00  0.00    -0.507 OA
ATOM     52  H   UNL     1       7.257  -0.443   0.607  1.00  0.00     0.293 HD
ENDBRANCH   7  51
TORSDOF 17
ENDMDL
MODEL 7
REMARK VINA RESULT:    -3.049      1.805      8.406
REMARK INTER + INTRA:          -8.179
REMARK INTER:                  -8.431
REMARK INTRA:                   0.252
REMARK UNBOUND:                -2.991
REMARK SMILES OC[C@@H]1O[C@H](Oc2cc(O)cc3[o+]c(-c4ccc(O)cc4)c(O[C@H]4O[C@@H](CO)[C@@H](O)[C@H](O)[C@H]4O)cc23)[C@@H](O)[C@@H](O)[C@@H]1O.[Cl-]
REMARK SMILES IDX 14 1 22 2 35 3 36 4 7 5 8 6 9 7 11 8 12 9 13 10 15 11 16 12
REMARK SMILES IDX 17 13 18 14 21 15 20 16 19 17 23 19 24 20 33 21 25 22 31 23
REMARK SMILES IDX 26 24 29 25 34 26 32 28 27 30 28 31 30 33 6 35 5 36 37 37
REMARK SMILES IDX 4 38 39 39 3 40 41 41 38 42 40 44 2 46 1 47 42 49 10 51
REMARK H PARENT 19 18 34 27 32 29 28 32 30 34 38 43 40 45 1 48 42 50 10 52
REMARK Flexibility Score: inf
ROOT
ATOM      1  C   UNL     1      11.048  -0.052   2.765  1.00  0.00     0.402 A 
ATOM      2  C   UNL     1      12.267   0.645   2.791  1.00  0.00     0.229 A 
ATOM      3  C   UNL     1      12.755   1.018   4.051  1.00  0.00     0.079 A 
ATOM      4  C   UNL     1      12.333   0.330   5.181  1.00  0.00     0.126 A 
ATOM      5  C   UNL     1      13.123   0.163   6.346  1.00  0.00     0.143 A 
ATOM      6  C   UNL     1      12.528  -0.363   7.510  1.00  0.00     0.094 A 
ATOM      7  C   UNL     1      11.178  -0.730   7.496  1.00  0.00     0.128 A 
ATOM      8  C   UNL     1      10.456  -0.696   6.300  1.00  0.00     0.162 A 
ATOM      9  C   UNL     1      11.076  -0.258   5.111  1.00  0.00     0.368 A 
ATOM     10  O   UNL     1      10.489  -0.432   3.937  1.00  0.00    -0.202 OA
ENDROOT
BRANCH   1  11
ATOM     11  C   UNL     1      10.240  -0.337   1.564  1.00  0.00     0.084 A 
ATOM     12  C   UNL     1      10.764  -1.125   0.522  1.00  0.00     0.022 A 
ATOM     13  C   UNL     1      10.514  -0.821  -0.809  1.00  0.00     0.047 A 
ATOM     14  C   UNL     1       9.568   0.135  -1.150  1.00  0.00     0.115 A 
ATOM     15  C   UNL     1       9.216   0.586   1.208  1.00  0.00     0.022 A 
ATOM     16  C   UNL     1       8.899   0.830  -0.132  1.00  0.00     0.047 A 
BRANCH  14  17
ATOM     17  O   UNL     1       9.306   0.452  -2.475  1.00  0.00    -0.508 OA
ATOM     18  H   UNL     1       8.381   0.426  -2.857  1.00  0.00     0.293 HD
ENDBRANCH  14  17
ENDBRANCH   1  11
BRANCH   2  19
ATOM     19  O   UNL     1      13.023   0.937   1.643  1.00  0.00    -0.452 OA
BRANCH  19  20
ATOM     20  C   UNL     1      12.498   1.058   0.277  1.00  0.00     0.339 C 
ATOM     21  C   UNL     1      13.565   0.705  -0.753  1.00  0.00     0.214 C 
ATOM     22  O   UNL     1      11.992   2.328  -0.004  1.00  0.00    -0.332 OA
ATOM     23  C   UNL     1      14.770   1.634  -0.532  1.00  0.00     0.180 C 
ATOM     24  C   UNL     1      12.907   3.363   0.264  1.00  0.00     0.179 C 
ATOM     25  C   UNL     1      14.341   3.121  -0.319  1.00  0.00     0.177 C 
BRANCH  21  26
ATOM     26  O   UNL     1      13.939  -0.645  -0.604  1.00  0.00    -0.384 OA
ATOM     27  H   UNL     1      13.882  -1.082  -1.490  1.00  0.00     0.211 HD
ENDBRANCH  21  26
BRANCH  23  28
ATOM     28  O   UNL     1      15.645   1.519  -1.629  1.00  0.00    -0.387 OA
ATOM     29  H   UNL     1      16.112   0.653  -1.520  1.00  0.00     0.211 HD
ENDBRANCH  23  28
BRANCH  24  30
ATOM     30  C   UNL     1      12.845   3.766   1.751  1.00  0.00     0.191 C 
BRANCH  30  31
ATOM     31  O   UNL     1      13.581   4.940   1.939  1.00  0.00    -0.394 OA
ATOM     32  H   UNL     1      14.444   4.851   1.485  1.00  0.00     0.210 HD
ENDBRANCH  30  31
ENDBRANCH  24  30
BRANCH  25  33
ATOM     33  O   UNL     1      15.277   3.818   0.451  1.00  0.00    -0.387 OA
ATOM     34  H   UNL     1      15.452   4.701   0.054  1.00  0.00     0.211 HD
ENDBRANCH  25  33
ENDBRANCH  19  20
ENDBRANCH   2  19
BRANCH   5  35
ATOM     35  O   UNL     1      14.514   0.348   6.395  1.00  0.00    -0.461 OA
BRANCH  35  36
ATOM     36  C   UNL     1      15.634  -0.432   5.880  1.00  0.00     0.339 C 
ATOM     37  C   UNL     1      16.904  -0.580   6.748  1.00  0.00     0.214 C 
ATOM     38  O   UNL     1      16.029   0.152   4.679  1.00  0.00    -0.332 OA
ATOM     39  C   UNL     1      17.297   0.785   7.279  1.00  0.00     0.180 C 
ATOM     40  C   UNL     1      16.486   1.506   4.820  1.00  0.00     0.179 C 
ATOM     41  C   UNL     1      17.086   1.922   6.243  1.00  0.00     0.177 C 
BRANCH  37  42
ATOM     42  O   UNL     1      17.957  -1.125   5.979  1.00  0.00    -0.384 OA
ATOM     43  H   UNL     1      17.617  -1.161   5.023  1.00  0.00     0.211 HD
ENDBRANCH  37  42
BRANCH  39  44
ATOM     44  O   UNL     1      18.628   0.762   7.742  1.00  0.00    -0.387 OA
ATOM     45  H   UNL     1      19.219   0.903   6.957  1.00  0.00     0.211 HD
ENDBRANCH  39  44
BRANCH  40  46
ATOM     46  C   UNL     1      15.387   2.442   4.302  1.00  0.00     0.191 C 
BRANCH  46  47
ATOM     47  O   UNL     1      15.623   2.778   2.947  1.00  0.00    -0.394 OA
ATOM     48  H   UNL     1      15.088   2.158   2.385  1.00  0.00     0.210 HD
ENDBRANCH  46  47
ENDBRANCH  40  46
BRANCH  41  49
ATOM     49  O   UNL     1      16.269   2.915   6.869  1.00  0.00    -0.387 OA
ATOM     50  H   UNL     1      16.768   3.211   7.678  1.00  0.00     0.211 HD
ENDBRANCH  41  49
ENDBRANCH  35  36
ENDBRANCH   5  35
BRANCH   7  51
ATOM     51  O   UNL     1      10.541  -1.125   8.668  1.00  0.00    -0.507 OA
ATOM     52  H   UNL     1       9.887  -0.511   9.114  1.00  0.00     0.293 HD
ENDBRANCH   7  51
TORSDOF 17
ENDMDL
MODEL 8
REMARK VINA RESULT:    -2.949      1.977      6.111
REMARK INTER + INTRA:          -8.009
REMARK INTER:                  -6.684
REMARK INTRA:                  -1.325
REMARK UNBOUND:                -2.991
REMARK SMILES OC[C@@H]1O[C@H](Oc2cc(O)cc3[o+]c(-c4ccc(O)cc4)c(O[C@H]4O[C@@H](CO)[C@@H](O)[C@H](O)[C@H]4O)cc23)[C@@H](O)[C@@H](O)[C@@H]1O.[Cl-]
REMARK SMILES IDX 14 1 22 2 35 3 36 4 7 5 8 6 9 7 11 8 12 9 13 10 15 11 16 12
REMARK SMILES IDX 17 13 18 14 21 15 20 16 19 17 23 19 24 20 33 21 25 22 31 23
REMARK SMILES IDX 26 24 29 25 34 26 32 28 27 30 28 31 30 33 6 35 5 36 37 37
REMARK SMILES IDX 4 38 39 39 3 40 41 41 38 42 40 44 2 46 1 47 42 49 10 51
REMARK H PARENT 19 18 34 27 32 29 28 32 30 34 38 43 40 45 1 48 42 50 10 52
REMARK Flexibility Score: inf
ROOT
ATOM      1  C   UNL     1      11.744   0.498   3.790  1.00  0.00     0.402 A 
ATOM      2  C   UNL     1      11.653   1.027   2.492  1.00  0.00     0.229 A 
ATOM      3  C   UNL     1      12.618   1.976   2.128  1.00  0.00     0.079 A 
ATOM      4  C   UNL     1      13.832   2.013   2.801  1.00  0.00     0.126 A 
ATOM      5  C   UNL     1      15.051   2.435   2.213  1.00  0.00     0.143 A 
ATOM      6  C   UNL     1      16.177   2.638   3.036  1.00  0.00     0.094 A 
ATOM      7  C   UNL     1      16.084   2.403   4.412  1.00  0.00     0.128 A 
ATOM      8  C   UNL     1      14.920   1.847   4.950  1.00  0.00     0.162 A 
ATOM      9  C   UNL     1      13.822   1.555   4.113  1.00  0.00     0.368 A 
ATOM     10  O   UNL     1      12.809   0.827   4.556  1.00  0.00    -0.202 OA
ENDROOT
BRANCH   1  11
ATOM     11  C   UNL     1      10.720  -0.325   4.462  1.00  0.00     0.084 A 
ATOM     12  C   UNL     1       9.351  -0.081   4.242  1.00  0.00     0.022 A 
ATOM     13  C   UNL     1       8.426  -0.171   5.273  1.00  0.00     0.047 A 
ATOM     14  C   UNL     1       8.786  -0.713   6.499  1.00  0.00     0.115 A 
ATOM     15  C   UNL     1      11.062  -0.951   5.694  1.00  0.00     0.022 A 
ATOM     16  C   UNL     1      10.111  -1.125   6.704  1.00  0.00     0.047 A 
BRANCH  14  17
ATOM     17  O   UNL     1       7.875  -0.810   7.542  1.00  0.00    -0.508 OA
ATOM     18  H   UNL     1       7.606  -1.691   7.934  1.00  0.00     0.293 HD
ENDBRANCH  14  17
ENDBRANCH   1  11
BRANCH   2  19
ATOM     19  O   UNL     1      10.691   0.624   1.551  1.00  0.00    -0.452 OA
BRANCH  19  20
ATOM     20  C   UNL     1      10.346  -0.763   1.216  1.00  0.00     0.339 C 
ATOM     21  C   UNL     1      10.671  -1.073  -0.241  1.00  0.00     0.214 C 
ATOM     22  O   UNL     1       9.007  -1.069   1.461  1.00  0.00    -0.332 OA
ATOM     23  C   UNL     1       9.904  -0.076  -1.125  1.00  0.00     0.180 C 
ATOM     24  C   UNL     1       8.111  -0.178   0.842  1.00  0.00     0.179 C 
ATOM     25  C   UNL     1       8.420   0.100  -0.669  1.00  0.00     0.177 C 
BRANCH  21  26
ATOM     26  O   UNL     1      12.060  -0.961  -0.450  1.00  0.00    -0.384 OA
ATOM     27  H   UNL     1      12.482  -1.818  -0.191  1.00  0.00     0.211 HD
ENDBRANCH  21  26
BRANCH  23  28
ATOM     28  O   UNL     1       9.966  -0.508  -2.463  1.00  0.00    -0.387 OA
ATOM     29  H   UNL     1       9.492  -1.376  -2.496  1.00  0.00     0.211 HD
ENDBRANCH  23  28
BRANCH  24  30
ATOM     30  C   UNL     1       7.894   1.069   1.724  1.00  0.00     0.191 C 
BRANCH  30  31
ATOM     31  O   UNL     1       8.594   2.148   1.173  1.00  0.00    -0.394 OA
ATOM     32  H   UNL     1       8.143   2.432   0.351  1.00  0.00     0.210 HD
ENDBRANCH  30  31
ENDBRANCH  24  30
BRANCH  25  33
ATOM     33  O   UNL     1       7.923   1.359  -1.018  1.00  0.00    -0.387 OA
ATOM     34  H   UNL     1       8.308   2.050  -0.433  1.00  0.00     0.211 HD
ENDBRANCH  25  33
ENDBRANCH  19  20
ENDBRANCH   2  19
BRANCH   5  35
ATOM     35  O   UNL     1      15.273   2.531   0.830  1.00  0.00    -0.461 OA
BRANCH  35  36
ATOM     36  C   UNL     1      14.993   3.580  -0.145  1.00  0.00     0.339 C 
ATOM     37  C   UNL     1      13.713   3.477  -1.007  1.00  0.00     0.214 C 
ATOM     38  O   UNL     1      16.071   3.627  -1.025  1.00  0.00    -0.332 OA
ATOM     39  C   UNL     1      13.611   2.071  -1.567  1.00  0.00     0.180 C 
ATOM     40  C   UNL     1      16.270   2.408  -1.758  1.00  0.00     0.179 C 
ATOM     41  C   UNL     1      14.985   1.485  -1.987  1.00  0.00     0.177 C 
BRANCH  37  42
ATOM     42  O   UNL     1      13.761   4.418  -2.059  1.00  0.00    -0.384 OA
ATOM     43  H   UNL     1      12.800   4.703  -2.225  1.00  0.00     0.211 HD
ENDBRANCH  37  42
BRANCH  39  44
ATOM     44  O   UNL     1      12.697   2.042  -2.640  1.00  0.00    -0.387 OA
ATOM     45  H   UNL     1      11.882   1.574  -2.323  1.00  0.00     0.211 HD
ENDBRANCH  39  44
BRANCH  40  46
ATOM     46  C   UNL     1      17.474   1.674  -1.156  1.00  0.00     0.191 C 
BRANCH  46  47
ATOM     47  O   UNL     1      18.068   0.825  -2.122  1.00  0.00    -0.394 OA
ATOM     48  H   UNL     1      19.053   0.931  -2.053  1.00  0.00     0.210 HD
ENDBRANCH  46  47
ENDBRANCH  40  46
BRANCH  41  49
ATOM     49  O   UNL     1      15.132   0.233  -1.312  1.00  0.00    -0.387 OA
ATOM     50  H   UNL     1      15.013  -0.470  -2.007  1.00  0.00     0.211 HD
ENDBRANCH  41  49
ENDBRANCH  35  36
ENDBRANCH   5  35
BRANCH   7  51
ATOM     51  O   UNL     1      17.143   2.724   5.256  1.00  0.00    -0.507 OA
ATOM     52  H   UNL     1      17.394   3.683   5.402  1.00  0.00     0.293 HD
ENDBRANCH   7  51
TORSDOF 17
ENDMDL
MODEL 9
REMARK VINA RESULT:    -2.749      2.144      8.384
REMARK INTER + INTRA:          -7.669
REMARK INTER:                  -8.046
REMARK INTRA:                   0.377
REMARK UNBOUND:                -2.991
REMARK SMILES OC[C@@H]1O[C@H](Oc2cc(O)cc3[o+]c(-c4ccc(O)cc4)c(O[C@H]4O[C@@H](CO)[C@@H](O)[C@H](O)[C@H]4O)cc23)[C@@H](O)[C@@H](O)[C@@H]1O.[Cl-]
REMARK SMILES IDX 14 1 22 2 35 3 36 4 7 5 8 6 9 7 11 8 12 9 13 10 15 11 16 12
REMARK SMILES IDX 17 13 18 14 21 15 20 16 19 17 23 19 24 20 33 21 25 22 31 23
REMARK SMILES IDX 26 24 29 25 34 26 32 28 27 30 28 31 30 33 6 35 5 36 37 37
REMARK SMILES IDX 4 38 39 39 3 40 41 41 38 42 40 44 2 46 1 47 42 49 10 51
REMARK H PARENT 19 18 34 27 32 29 28 32 30 34 38 43 40 45 1 48 42 50 10 52
REMARK Flexibility Score: inf
ROOT
ATOM      1  C   UNL     1      10.208   2.703   0.223  1.00  0.00     0.402 A 
ATOM      2  C   UNL     1      11.571   2.598   0.544  1.00  0.00     0.229 A 
ATOM      3  C   UNL     1      11.888   1.984   1.763  1.00  0.00     0.079 A 
ATOM      4  C   UNL     1      10.975   1.119   2.353  1.00  0.00     0.126 A 
ATOM      5  C   UNL     1      11.340   0.023   3.174  1.00  0.00     0.143 A 
ATOM      6  C   UNL     1      10.338  -0.660   3.893  1.00  0.00     0.094 A 
ATOM      7  C   UNL     1       9.002  -0.262   3.773  1.00  0.00     0.128 A 
ATOM      8  C   UNL     1       8.645   0.722   2.847  1.00  0.00     0.162 A 
ATOM      9  C   UNL     1       9.635   1.343   2.057  1.00  0.00     0.368 A 
ATOM     10  O   UNL     1       9.300   2.103   1.026  1.00  0.00    -0.202 OA
ENDROOT
BRANCH   1  11
ATOM     11  C   UNL     1       9.637   3.505  -0.876  1.00  0.00     0.084 A 
ATOM     12  C   UNL     1      10.474   4.275  -1.706  1.00  0.00     0.022 A 
ATOM     13  C   UNL     1      10.092   5.534  -2.149  1.00  0.00     0.047 A 
ATOM     14  C   UNL     1       8.791   5.982  -1.968  1.00  0.00     0.115 A 
ATOM     15  C   UNL     1       8.286   3.938  -0.763  1.00  0.00     0.022 A 
ATOM     16  C   UNL     1       7.875   5.168  -1.286  1.00  0.00     0.047 A 
BRANCH  14  17
ATOM     17  O   UNL     1       8.391   7.238  -2.402  1.00  0.00    -0.508 OA
ATOM     18  H   UNL     1       7.821   7.840  -1.842  1.00  0.00     0.293 HD
ENDBRANCH  14  17
ENDBRANCH   1  11
BRANCH   2  19
ATOM     19  O   UNL     1      12.607   3.029  -0.302  1.00  0.00    -0.452 OA
BRANCH  19  20
ATOM     20  C   UNL     1      12.687   2.793  -1.749  1.00  0.00     0.339 C 
ATOM     21  C   UNL     1      12.911   1.316  -2.052  1.00  0.00     0.214 C 
ATOM     22  O   UNL     1      13.685   3.544  -2.372  1.00  0.00    -0.332 OA
ATOM     23  C   UNL     1      14.199   0.871  -1.340  1.00  0.00     0.180 C 
ATOM     24  C   UNL     1      14.951   3.387  -1.779  1.00  0.00     0.179 C 
ATOM     25  C   UNL     1      15.362   1.897  -1.522  1.00  0.00     0.177 C 
BRANCH  21  26
ATOM     26  O   UNL     1      11.805   0.568  -1.602  1.00  0.00    -0.384 OA
ATOM     27  H   UNL     1      11.189   0.436  -2.365  1.00  0.00     0.211 HD
ENDBRANCH  21  26
BRANCH  23  28
ATOM     28  O   UNL     1      14.573  -0.398  -1.821  1.00  0.00    -0.387 OA
ATOM     29  H   UNL     1      14.167  -1.058  -1.205  1.00  0.00     0.211 HD
ENDBRANCH  23  28
BRANCH  24  30
ATOM     30  C   UNL     1      15.106   4.343  -0.578  1.00  0.00     0.191 C 
BRANCH  30  31
ATOM     31  O   UNL     1      16.466   4.537  -0.318  1.00  0.00    -0.394 OA
ATOM     32  H   UNL     1      16.990   4.094  -1.017  1.00  0.00     0.210 HD
ENDBRANCH  30  31
ENDBRANCH  24  30
BRANCH  25  33
ATOM     33  O   UNL     1      16.264   1.844  -0.456  1.00  0.00    -0.387 OA
ATOM     34  H   UNL     1      16.250   2.692   0.043  1.00  0.00     0.211 HD
ENDBRANCH  25  33
ENDBRANCH  19  20
ENDBRANCH   2  19
BRANCH   5  35
ATOM     35  O   UNL     1      12.624  -0.541   3.220  1.00  0.00    -0.461 OA
BRANCH  35  36
ATOM     36  C   UNL     1      13.409  -1.125   4.303  1.00  0.00     0.339 C 
ATOM     37  C   UNL     1      13.145  -0.660   5.753  1.00  0.00     0.214 C 
ATOM     38  O   UNL     1      14.750  -0.864   4.031  1.00  0.00    -0.332 OA
ATOM     39  C   UNL     1      13.091   0.856   5.779  1.00  0.00     0.180 C 
ATOM     40  C   UNL     1      15.067   0.535   3.985  1.00  0.00     0.179 C 
ATOM     41  C   UNL     1      14.133   1.516   4.836  1.00  0.00     0.177 C 
BRANCH  37  42
ATOM     42  O   UNL     1      14.170  -1.125   6.606  1.00  0.00    -0.384 OA
ATOM     43  H   UNL     1      13.723  -1.755   7.265  1.00  0.00     0.211 HD
ENDBRANCH  37  42
BRANCH  39  44
ATOM     44  O   UNL     1      13.236   1.324   7.101  1.00  0.00    -0.387 OA
ATOM     45  H   UNL     1      14.170   1.643   7.203  1.00  0.00     0.211 HD
ENDBRANCH  39  44
BRANCH  40  46
ATOM     46  C   UNL     1      15.237   0.944   2.517  1.00  0.00     0.191 C 
BRANCH  46  47
ATOM     47  O   UNL     1      15.498   2.333   2.419  1.00  0.00    -0.394 OA
ATOM     48  H   UNL     1      16.468   2.446   2.237  1.00  0.00     0.210 HD
ENDBRANCH  46  47
ENDBRANCH  40  46
BRANCH  41  49
ATOM     49  O   UNL     1      13.416   2.407   3.977  1.00  0.00    -0.387 OA
ATOM     50  H   UNL     1      12.498   2.030   3.895  1.00  0.00     0.211 HD
ENDBRANCH  41  49
ENDBRANCH  35  36
ENDBRANCH   5  35
BRANCH   7  51
ATOM     51  O   UNL     1       8.019  -0.836   4.575  1.00  0.00    -0.507 OA
ATOM     52  H   UNL     1       7.703  -0.361   5.397  1.00  0.00     0.293 HD
ENDBRANCH   7  51
TORSDOF 17
ENDMDL
