MODEL 1
REMARK VINA RESULT:    -0.615      0.000      0.000
REMARK INTER + INTRA:          -2.589
REMARK INTER:                  -1.335
REMARK INTRA:                  -1.254
REMARK UNBOUND:                -1.254
REMARK SMILES CCCCCCCCCCCCCCCCCCCCCC(=O)[O-]
REMARK SMILES IDX 12 1 11 2 10 3 9 4 8 5 7 6 6 7 5 8 4 9 3 10 2 11 1 12 13 13
REMARK SMILES IDX 14 14 15 15 16 16 17 17 18 18 19 19 20 20 21 21 22 22 23 23
REMARK SMILES IDX 24 24
REMARK H PARENT
REMARK Flexibility Score: inf
ROOT
ATOM      1  C   UNL     1       4.547   8.000   4.262  1.00  0.00     0.000 C 
ENDROOT
BRANCH   1   2
ATOM      2  C   UNL     1       3.255   8.786   3.987  1.00  0.00     0.000 C 
BRANCH   2   3
ATOM      3  C   UNL     1       2.474   9.034   5.286  1.00  0.00     0.000 C 
BRANCH   3   4
ATOM      4  C   UNL     1       1.334  10.056   5.112  1.00  0.00    -0.000 C 
BRANCH   4   5
ATOM      5  C   UNL     1      -0.091   9.460   5.121  1.00  0.00    -0.000 C 
BRANCH   5   6
ATOM      6  C   UNL     1      -0.840   9.541   3.779  1.00  0.00    -0.000 C 
BRANCH   6   7
ATOM      7  C   UNL     1       0.036   9.288   2.538  1.00  0.00    -0.000 C 
BRANCH   7   8
ATOM      8  C   UNL     1       0.070   7.809   2.099  1.00  0.00    -0.000 C 
BRANCH   8   9
ATOM      9  C   UNL     1      -0.767   6.901   3.017  1.00  0.00    -0.000 C 
BRANCH   9  10
ATOM     10  C   UNL     1      -0.716   5.425   2.591  1.00  0.00    -0.000 C 
BRANCH  10  11
ATOM     11  C   UNL     1      -0.733   4.464   3.788  1.00  0.00    -0.003 C 
ATOM     12  C   UNL     1       0.447   4.724   4.720  1.00  0.00     0.004 C 
ENDBRANCH  10  11
ENDBRANCH   9  10
ENDBRANCH   8   9
ENDBRANCH   7   8
ENDBRANCH   6   7
ENDBRANCH   5   6
ENDBRANCH   4   5
ENDBRANCH   3   4
ENDBRANCH   2   3
ENDBRANCH   1   2
BRANCH   1  13
ATOM     13  C   UNL     1       5.629   8.242   3.198  1.00  0.00     0.000 C 
BRANCH  13  14
ATOM     14  C   UNL     1       6.157   6.939   2.579  1.00  0.00     0.000 C 
BRANCH  14  15
ATOM     15  C   UNL     1       5.106   5.826   2.651  1.00  0.00     0.000 C 
BRANCH  15  16
ATOM     16  C   UNL     1       5.570   4.583   1.876  1.00  0.00     0.000 C 
BRANCH  16  17
ATOM     17  C   UNL     1       5.542   3.303   2.738  1.00  0.00     0.000 C 
BRANCH  17  18
ATOM     18  C   UNL     1       6.229   2.096   2.073  1.00  0.00     0.000 C 
BRANCH  18  19
ATOM     19  C   UNL     1       7.758   2.224   2.032  1.00  0.00     0.000 C 
BRANCH  19  20
ATOM     20  C   UNL     1       8.428   0.844   2.009  1.00  0.00     0.006 C 
BRANCH  20  21
ATOM     21  C   UNL     1       9.948   0.976   1.875  1.00  0.00     0.053 C 
BRANCH  21  22
ATOM     22  C   UNL     1      10.622  -0.342   2.110  1.00  0.00     0.041 C 
ATOM     23  O   UNL     1      11.877  -0.432   2.032  1.00  0.00    -0.550 OA
ATOM     24  O   UNL     1       9.870  -1.465   2.427  1.00  0.00    -0.550 OA
ENDBRANCH  21  22
ENDBRANCH  20  21
ENDBRANCH  19  20
ENDBRANCH  18  19
ENDBRANCH  17  18
ENDBRANCH  16  17
ENDBRANCH  15  16
ENDBRANCH  14  15
ENDBRANCH  13  14
ENDBRANCH   1  13
TORSDOF 20
ENDMDL
MODEL 2
REMARK VINA RESULT:     0.315      3.739      9.179
REMARK INTER + INTRA:          -0.571
REMARK INTER:                   0.737
REMARK INTRA:                  -1.308
REMARK UNBOUND:                -1.254
REMARK SMILES CCCCCCCCCCCCCCCCCCCCCC(=O)[O-]
REMARK SMILES IDX 12 1 11 2 10 3 9 4 8 5 7 6 6 7 5 8 4 9 3 10 2 11 1 12 13 13
REMARK SMILES IDX 14 14 15 15 16 16 17 17 18 18 19 19 20 20 21 21 22 22 23 23
REMARK SMILES IDX 24 24
REMARK H PARENT
REMARK Flexibility Score: inf
ROOT
ATOM      1  C   UNL     1       4.673   7.720   1.932  1.00  0.00     0.000 C 
ENDROOT
BRANCH   1   2
ATOM      2  C   UNL     1       6.094   7.717   2.518  1.00  0.00     0.000 C 
BRANCH   2   3
ATOM      3  C   UNL     1       6.586   6.283   2.762  1.00  0.00     0.000 C 
BRANCH   3   4
ATOM      4  C   UNL     1       5.580   5.217   2.287  1.00  0.00    -0.000 C 
BRANCH   4   5
ATOM      5  C   UNL     1       4.941   4.368   3.408  1.00  0.00    -0.000 C 
BRANCH   5   6
ATOM      6  C   UNL     1       4.921   2.851   3.148  1.00  0.00    -0.000 C 
BRANCH   6   7
ATOM      7  C   UNL     1       5.676   2.406   1.881  1.00  0.00    -0.000 C 
BRANCH   7   8
ATOM      8  C   UNL     1       7.211   2.470   2.026  1.00  0.00    -0.000 C 
BRANCH   8   9
ATOM      9  C   UNL     1       7.814   1.140   2.511  1.00  0.00    -0.000 C 
BRANCH   9  10
ATOM     10  C   UNL     1       9.184   0.849   1.877  1.00  0.00    -0.000 C 
BRANCH  10  11
ATOM     11  C   UNL     1      10.054  -0.070   2.746  1.00  0.00    -0.003 C 
ATOM     12  C   UNL     1      11.030  -0.874   1.891  1.00  0.00     0.004 C 
ENDBRANCH  10  11
ENDBRANCH   9  10
ENDBRANCH   8   9
ENDBRANCH   7   8
ENDBRANCH   6   7
ENDBRANCH   5   6
ENDBRANCH   4   5
ENDBRANCH   3   4
ENDBRANCH   2   3
ENDBRANCH   1   2
BRANCH   1  13
ATOM     13  C   UNL     1       3.635   8.325   2.891  1.00  0.00     0.000 C 
BRANCH  13  14
ATOM     14  C   UNL     1       4.134   9.607   3.576  1.00  0.00     0.000 C 
BRANCH  14  15
ATOM     15  C   UNL     1       3.182  10.042   4.696  1.00  0.00     0.000 C 
BRANCH  15  16
ATOM     16  C   UNL     1       2.603   8.821   5.429  1.00  0.00     0.000 C 
BRANCH  16  17
ATOM     17  C   UNL     1       1.118   8.576   5.087  1.00  0.00     0.000 C 
BRANCH  17  18
ATOM     18  C   UNL     1       0.515   9.642   4.154  1.00  0.00     0.000 C 
BRANCH  18  19
ATOM     19  C   UNL     1      -0.588   9.085   3.242  1.00  0.00     0.000 C 
BRANCH  19  20
ATOM     20  C   UNL     1      -0.014   8.094   2.222  1.00  0.00     0.006 C 
BRANCH  20  21
ATOM     21  C   UNL     1      -0.980   6.928   1.989  1.00  0.00     0.053 C 
BRANCH  21  22
ATOM     22  C   UNL     1      -0.514   5.696   2.702  1.00  0.00     0.041 C 
ATOM     23  O   UNL     1      -0.183   4.672   2.045  1.00  0.00    -0.550 OA
ATOM     24  O   UNL     1      -0.432   5.679   4.088  1.00  0.00    -0.550 OA
ENDBRANCH  21  22
ENDBRANCH  20  21
ENDBRANCH  19  20
ENDBRANCH  18  19
ENDBRANCH  17  18
ENDBRANCH  16  17
ENDBRANCH  15  16
ENDBRANCH  14  15
ENDBRANCH  13  14
ENDBRANCH   1  13
TORSDOF 20
ENDMDL
MODEL 3
REMARK VINA RESULT:     0.679      3.554      9.836
REMARK INTER + INTRA:           0.217
REMARK INTER:                   1.028
REMARK INTRA:                  -0.811
REMARK UNBOUND:                -1.254
REMARK SMILES CCCCCCCCCCCCCCCCCCCCCC(=O)[O-]
REMARK SMILES IDX 12 1 11 2 10 3 9 4 8 5 7 6 6 7 5 8 4 9 3 10 2 11 1 12 13 13
REMARK SMILES IDX 14 14 15 15 16 16 17 17 18 18 19 19 20 20 21 21 22 22 23 23
REMARK SMILES IDX 24 24
REMARK H PARENT
REMARK Flexibility Score: inf
ROOT
ATOM      1  C   UNL     1       5.507   7.674   3.984  1.00  0.00     0.000 C 
ENDROOT
BRANCH   1   2
ATOM      2  C   UNL     1       5.616   6.618   2.873  1.00  0.00     0.000 C 
BRANCH   2   3
ATOM      3  C   UNL     1       5.572   5.198   3.457  1.00  0.00     0.000 C 
BRANCH   3   4
ATOM      4  C   UNL     1       5.470   4.108   2.372  1.00  0.00    -0.000 C 
BRANCH   4   5
ATOM      5  C   UNL     1       5.673   2.662   2.871  1.00  0.00    -0.000 C 
BRANCH   5   6
ATOM      6  C   UNL     1       6.439   1.739   1.905  1.00  0.00    -0.000 C 
BRANCH   6   7
ATOM      7  C   UNL     1       7.972   1.847   1.994  1.00  0.00    -0.000 C 
BRANCH   7   8
ATOM      8  C   UNL     1       8.617   0.751   2.869  1.00  0.00    -0.000 C 
BRANCH   8   9
ATOM      9  C   UNL     1      10.023   0.358   2.382  1.00  0.00    -0.000 C 
BRANCH   9  10
ATOM     10  C   UNL     1      10.567  -0.889   3.098  1.00  0.00    -0.000 C 
BRANCH  10  11
ATOM     11  C   UNL     1      12.038  -1.170   2.760  1.00  0.00    -0.003 C 
ATOM     12  C   UNL     1      12.665   0.003   2.012  1.00  0.00     0.004 C 
ENDBRANCH  10  11
ENDBRANCH   9  10
ENDBRANCH   8   9
ENDBRANCH   7   8
ENDBRANCH   6   7
ENDBRANCH   5   6
ENDBRANCH   4   5
ENDBRANCH   3   4
ENDBRANCH   2   3
ENDBRANCH   1   2
BRANCH   1  13
ATOM     13  C   UNL     1       4.128   8.351   4.027  1.00  0.00     0.000 C 
BRANCH  13  14
ATOM     14  C   UNL     1       3.987   9.341   5.194  1.00  0.00     0.000 C 
BRANCH  14  15
ATOM     15  C   UNL     1       2.514   9.582   5.541  1.00  0.00     0.000 C 
BRANCH  15  16
ATOM     16  C   UNL     1       1.596   9.075   4.417  1.00  0.00     0.000 C 
BRANCH  16  17
ATOM     17  C   UNL     1       0.105   9.356   4.700  1.00  0.00     0.000 C 
BRANCH  17  18
ATOM     18  C   UNL     1      -0.729   9.602   3.428  1.00  0.00     0.000 C 
BRANCH  18  19
ATOM     19  C   UNL     1      -0.208   8.826   2.210  1.00  0.00     0.000 C 
BRANCH  19  20
ATOM     20  C   UNL     1      -0.586   7.342   2.298  1.00  0.00     0.006 C 
BRANCH  20  21
ATOM     21  C   UNL     1       0.622   6.493   2.704  1.00  0.00     0.053 C 
BRANCH  21  22
ATOM     22  C   UNL     1       0.206   5.366   3.600  1.00  0.00     0.041 C 
ATOM     23  O   UNL     1      -0.979   5.301   4.025  1.00  0.00    -0.550 OA
ATOM     24  O   UNL     1       1.119   4.383   3.957  1.00  0.00    -0.550 OA
ENDBRANCH  21  22
ENDBRANCH  20  21
ENDBRANCH  19  20
ENDBRANCH  18  19
ENDBRANCH  17  18
ENDBRANCH  16  17
ENDBRANCH  15  16
ENDBRANCH  14  15
ENDBRANCH  13  14
ENDBRANCH   1  13
TORSDOF 20
ENDMDL
MODEL 4
REMARK VINA RESULT:     1.256      2.386      5.053
REMARK INTER + INTRA:           1.471
REMARK INTER:                   0.261
REMARK INTRA:                   1.210
REMARK UNBOUND:                -1.254
REMARK SMILES CCCCCCCCCCCCCCCCCCCCCC(=O)[O-]
REMARK SMILES IDX 12 1 11 2 10 3 9 4 8 5 7 6 6 7 5 8 4 9 3 10 2 11 1 12 13 13
REMARK SMILES IDX 14 14 15 15 16 16 17 17 18 18 19 19 20 20 21 21 22 22 23 23
REMARK SMILES IDX 24 24
REMARK H PARENT
REMARK Flexibility Score: inf
ROOT
ATOM      1  C   UNL     1      -0.121   7.322   4.030  1.00  0.00     0.000 C 
ENDROOT
BRANCH   1   2
ATOM      2  C   UNL     1      -0.826   8.367   4.909  1.00  0.00     0.000 C 
BRANCH   2   3
ATOM      3  C   UNL     1      -0.670   9.777   4.320  1.00  0.00     0.000 C 
BRANCH   3   4
ATOM      4  C   UNL     1      -1.015   9.840   2.820  1.00  0.00    -0.000 C 
BRANCH   4   5
ATOM      5  C   UNL     1       0.188  10.050   1.876  1.00  0.00    -0.000 C 
BRANCH   5   6
ATOM      6  C   UNL     1       1.474   9.307   2.282  1.00  0.00    -0.000 C 
BRANCH   6   7
ATOM      7  C   UNL     1       2.768  10.125   2.113  1.00  0.00    -0.000 C 
BRANCH   7   8
ATOM      8  C   UNL     1       4.027   9.401   2.637  1.00  0.00    -0.000 C 
BRANCH   8   9
ATOM      9  C   UNL     1       4.497   9.944   3.997  1.00  0.00    -0.000 C 
BRANCH   9  10
ATOM     10  C   UNL     1       4.001   9.090   5.176  1.00  0.00    -0.000 C 
BRANCH  10  11
ATOM     11  C   UNL     1       2.471   8.974   5.219  1.00  0.00    -0.003 C 
ATOM     12  C   UNL     1       1.904   9.627   6.477  1.00  0.00     0.004 C 
ENDBRANCH  10  11
ENDBRANCH   9  10
ENDBRANCH   8   9
ENDBRANCH   7   8
ENDBRANCH   6   7
ENDBRANCH   5   6
ENDBRANCH   4   5
ENDBRANCH   3   4
ENDBRANCH   2   3
ENDBRANCH   1   2
BRANCH   1  13
ATOM     13  C   UNL     1      -1.107   6.388   3.310  1.00  0.00     0.000 C 
BRANCH  13  14
ATOM     14  C   UNL     1      -0.868   4.906   3.633  1.00  0.00     0.000 C 
BRANCH  14  15
ATOM     15  C   UNL     1       0.615   4.541   3.494  1.00  0.00     0.000 C 
BRANCH  15  16
ATOM     16  C   UNL     1       1.493   5.493   4.322  1.00  0.00     0.000 C 
BRANCH  16  17
ATOM     17  C   UNL     1       2.506   6.268   3.453  1.00  0.00     0.000 C 
BRANCH  17  18
ATOM     18  C   UNL     1       3.963   5.807   3.643  1.00  0.00     0.000 C 
BRANCH  18  19
ATOM     19  C   UNL     1       4.786   5.870   2.348  1.00  0.00     0.000 C 
BRANCH  19  20
ATOM     20  C   UNL     1       5.868   4.784   2.327  1.00  0.00     0.006 C 
BRANCH  20  21
ATOM     21  C   UNL     1       5.287   3.441   1.876  1.00  0.00     0.053 C 
BRANCH  21  22
ATOM     22  C   UNL     1       5.821   2.318   2.713  1.00  0.00     0.041 C 
ATOM     23  O   UNL     1       5.247   2.005   3.792  1.00  0.00    -0.550 OA
ATOM     24  O   UNL     1       6.941   1.610   2.301  1.00  0.00    -0.550 OA
ENDBRANCH  21  22
ENDBRANCH  20  21
ENDBRANCH  19  20
ENDBRANCH  18  19
ENDBRANCH  17  18
ENDBRANCH  16  17
ENDBRANCH  15  16
ENDBRANCH  14  15
ENDBRANCH  13  14
ENDBRANCH   1  13
TORSDOF 20
ENDMDL
MODEL 5
REMARK VINA RESULT:     1.343      3.532      9.458
REMARK INTER + INTRA:           1.659
REMARK INTER:                   2.734
REMARK INTRA:                  -1.076
REMARK UNBOUND:                -1.254
REMARK SMILES CCCCCCCCCCCCCCCCCCCCCC(=O)[O-]
REMARK SMILES IDX 12 1 11 2 10 3 9 4 8 5 7 6 6 7 5 8 4 9 3 10 2 11 1 12 13 13
REMARK SMILES IDX 14 14 15 15 16 16 17 17 18 18 19 19 20 20 21 21 22 22 23 23
REMARK SMILES IDX 24 24
REMARK H PARENT
REMARK Flexibility Score: inf
ROOT
ATOM      1  C   UNL     1       4.932   6.866   1.902  1.00  0.00     0.000 C 
ENDROOT
BRANCH   1   2
ATOM      2  C   UNL     1       6.229   7.267   2.624  1.00  0.00     0.000 C 
BRANCH   2   3
ATOM      3  C   UNL     1       7.015   6.026   3.072  1.00  0.00     0.000 C 
BRANCH   3   4
ATOM      4  C   UNL     1       6.689   4.775   2.234  1.00  0.00    -0.000 C 
BRANCH   4   5
ATOM      5  C   UNL     1       5.696   3.788   2.883  1.00  0.00    -0.000 C 
BRANCH   5   6
ATOM      6  C   UNL     1       5.806   2.333   2.393  1.00  0.00    -0.000 C 
BRANCH   6   7
ATOM      7  C   UNL     1       7.201   1.933   1.877  1.00  0.00    -0.000 C 
BRANCH   7   8
ATOM      8  C   UNL     1       8.137   1.400   2.982  1.00  0.00    -0.000 C 
BRANCH   8   9
ATOM      9  C   UNL     1       8.873   0.116   2.563  1.00  0.00    -0.000 C 
BRANCH   9  10
ATOM     10  C   UNL     1      10.305   0.390   2.074  1.00  0.00    -0.000 C 
BRANCH  10  11
ATOM     11  C   UNL     1      11.203  -0.853   2.148  1.00  0.00    -0.003 C 
ATOM     12  C   UNL     1      12.678  -0.473   2.051  1.00  0.00     0.004 C 
ENDBRANCH  10  11
ENDBRANCH   9  10
ENDBRANCH   8   9
ENDBRANCH   7   8
ENDBRANCH   6   7
ENDBRANCH   5   6
ENDBRANCH   4   5
ENDBRANCH   3   4
ENDBRANCH   2   3
ENDBRANCH   1   2
BRANCH   1  13
ATOM     13  C   UNL     1       3.709   7.658   2.393  1.00  0.00     0.000 C 
BRANCH  13  14
ATOM     14  C   UNL     1       4.035   9.129   2.694  1.00  0.00     0.000 C 
BRANCH  14  15
ATOM     15  C   UNL     1       2.781   9.895   3.133  1.00  0.00     0.000 C 
BRANCH  15  16
ATOM     16  C   UNL     1       2.273   9.382   4.490  1.00  0.00     0.000 C 
BRANCH  16  17
ATOM     17  C   UNL     1       1.025   8.484   4.352  1.00  0.00     0.000 C 
BRANCH  17  18
ATOM     18  C   UNL     1       0.419   8.482   2.936  1.00  0.00     0.000 C 
BRANCH  18  19
ATOM     19  C   UNL     1      -0.874   7.660   2.839  1.00  0.00     0.000 C 
BRANCH  19  20
ATOM     20  C   UNL     1      -0.592   6.248   2.309  1.00  0.00     0.006 C 
BRANCH  20  21
ATOM     21  C   UNL     1      -1.125   5.185   3.274  1.00  0.00     0.053 C 
BRANCH  21  22
ATOM     22  C   UNL     1      -0.080   4.803   4.278  1.00  0.00     0.041 C 
ATOM     23  O   UNL     1       1.130   5.089   4.071  1.00  0.00    -0.550 OA
ATOM     24  O   UNL     1      -0.441   4.145   5.447  1.00  0.00    -0.550 OA
ENDBRANCH  21  22
ENDBRANCH  20  21
ENDBRANCH  19  20
ENDBRANCH  18  19
ENDBRANCH  17  18
ENDBRANCH  16  17
ENDBRANCH  15  16
ENDBRANCH  14  15
ENDBRANCH  13  14
ENDBRANCH   1  13
TORSDOF 20
ENDMDL
MODEL 6
REMARK VINA RESULT:     1.451      4.768      8.504
REMARK INTER + INTRA:           1.893
REMARK INTER:                   1.282
REMARK INTRA:                   0.611
REMARK UNBOUND:                -1.254
REMARK SMILES CCCCCCCCCCCCCCCCCCCCCC(=O)[O-]
REMARK SMILES IDX 12 1 11 2 10 3 9 4 8 5 7 6 6 7 5 8 4 9 3 10 2 11 1 12 13 13
REMARK SMILES IDX 14 14 15 15 16 16 17 17 18 18 19 19 20 20 21 21 22 22 23 23
REMARK SMILES IDX 24 24
REMARK H PARENT
REMARK Flexibility Score: inf
ROOT
ATOM      1  C   UNL     1       2.766   7.348   5.316  1.00  0.00     0.000 C 
ENDROOT
BRANCH   1   2
ATOM      2  C   UNL     1       2.809   8.859   5.039  1.00  0.00     0.000 C 
BRANCH   2   3
ATOM      3  C   UNL     1       4.172   9.275   4.466  1.00  0.00     0.000 C 
BRANCH   3   4
ATOM      4  C   UNL     1       4.059   9.944   3.083  1.00  0.00    -0.000 C 
BRANCH   4   5
ATOM      5  C   UNL     1       4.918   9.305   1.970  1.00  0.00    -0.000 C 
BRANCH   5   6
ATOM      6  C   UNL     1       6.398   9.729   1.963  1.00  0.00    -0.000 C 
BRANCH   6   7
ATOM      7  C   UNL     1       7.390   8.603   2.305  1.00  0.00    -0.000 C 
BRANCH   7   8
ATOM      8  C   UNL     1       6.885   7.198   1.914  1.00  0.00    -0.000 C 
BRANCH   8   9
ATOM      9  C   UNL     1       6.623   6.303   3.138  1.00  0.00    -0.000 C 
BRANCH   9  10
ATOM     10  C   UNL     1       5.201   5.718   3.147  1.00  0.00    -0.000 C 
BRANCH  10  11
ATOM     11  C   UNL     1       4.952   4.752   1.981  1.00  0.00    -0.003 C 
ATOM     12  C   UNL     1       5.960   3.606   1.990  1.00  0.00     0.004 C 
ENDBRANCH  10  11
ENDBRANCH   9  10
ENDBRANCH   8   9
ENDBRANCH   7   8
ENDBRANCH   6   7
ENDBRANCH   5   6
ENDBRANCH   4   5
ENDBRANCH   3   4
ENDBRANCH   2   3
ENDBRANCH   1   2
BRANCH   1  13
ATOM     13  C   UNL     1       1.334   6.812   5.471  1.00  0.00     0.000 C 
BRANCH  13  14
ATOM     14  C   UNL     1       1.172   5.382   4.934  1.00  0.00     0.000 C 
BRANCH  14  15
ATOM     15  C   UNL     1      -0.199   5.188   4.276  1.00  0.00     0.000 C 
BRANCH  15  16
ATOM     16  C   UNL     1      -0.048   4.708   2.824  1.00  0.00     0.000 C 
BRANCH  16  17
ATOM     17  C   UNL     1      -1.097   5.334   1.882  1.00  0.00     0.000 C 
BRANCH  17  18
ATOM     18  C   UNL     1      -1.125   6.873   1.925  1.00  0.00     0.000 C 
BRANCH  18  19
ATOM     19  C   UNL     1       0.178   7.482   2.462  1.00  0.00     0.000 C 
BRANCH  19  20
ATOM     20  C   UNL     1       0.347   8.931   1.989  1.00  0.00     0.006 C 
BRANCH  20  21
ATOM     21  C   UNL     1      -0.500   9.885   2.836  1.00  0.00     0.053 C 
BRANCH  21  22
ATOM     22  C   UNL     1      -0.055   9.868   4.267  1.00  0.00     0.041 C 
ATOM     23  O   UNL     1       1.152  10.087   4.557  1.00  0.00    -0.550 OA
ATOM     24  O   UNL     1      -0.972   9.623   5.281  1.00  0.00    -0.550 OA
ENDBRANCH  21  22
ENDBRANCH  20  21
ENDBRANCH  19  20
ENDBRANCH  18  19
ENDBRANCH  17  18
ENDBRANCH  16  17
ENDBRANCH  15  16
ENDBRANCH  14  15
ENDBRANCH  13  14
ENDBRANCH   1  13
TORSDOF 20
ENDMDL
MODEL 7
REMARK VINA RESULT:     1.507      3.688      5.576
REMARK INTER + INTRA:           2.014
REMARK INTER:                   3.406
REMARK INTRA:                  -1.392
REMARK UNBOUND:                -1.254
REMARK SMILES CCCCCCCCCCCCCCCCCCCCCC(=O)[O-]
REMARK SMILES IDX 12 1 11 2 10 3 9 4 8 5 7 6 6 7 5 8 4 9 3 10 2 11 1 12 13 13
REMARK SMILES IDX 14 14 15 15 16 16 17 17 18 18 19 19 20 20 21 21 22 22 23 23
REMARK SMILES IDX 24 24
REMARK H PARENT
REMARK Flexibility Score: inf
ROOT
ATOM      1  C   UNL     1       0.060   7.323   3.942  1.00  0.00     0.000 C 
ENDROOT
BRANCH   1   2
ATOM      2  C   UNL     1      -0.319   8.337   5.033  1.00  0.00     0.000 C 
BRANCH   2   3
ATOM      3  C   UNL     1      -0.360   9.764   4.468  1.00  0.00     0.000 C 
BRANCH   3   4
ATOM      4  C   UNL     1      -1.095   9.852   3.117  1.00  0.00    -0.000 C 
BRANCH   4   5
ATOM      5  C   UNL     1      -0.192  10.103   1.891  1.00  0.00    -0.000 C 
BRANCH   5   6
ATOM      6  C   UNL     1       1.137   9.325   1.888  1.00  0.00    -0.000 C 
BRANCH   6   7
ATOM      7  C   UNL     1       2.324  10.080   2.516  1.00  0.00    -0.000 C 
BRANCH   7   8
ATOM      8  C   UNL     1       3.674   9.352   2.347  1.00  0.00    -0.000 C 
BRANCH   8   9
ATOM      9  C   UNL     1       4.766   9.911   3.276  1.00  0.00    -0.000 C 
BRANCH   9  10
ATOM     10  C   UNL     1       4.456   9.670   4.762  1.00  0.00    -0.000 C 
BRANCH  10  11
ATOM     11  C   UNL     1       3.603   8.414   4.992  1.00  0.00    -0.003 C 
ATOM     12  C   UNL     1       2.657   8.600   6.175  1.00  0.00     0.004 C 
ENDBRANCH  10  11
ENDBRANCH   9  10
ENDBRANCH   8   9
ENDBRANCH   7   8
ENDBRANCH   6   7
ENDBRANCH   5   6
ENDBRANCH   4   5
ENDBRANCH   3   4
ENDBRANCH   2   3
ENDBRANCH   1   2
BRANCH   1  13
ATOM     13  C   UNL     1      -1.125   6.443   3.510  1.00  0.00     0.000 C 
BRANCH  13  14
ATOM     14  C   UNL     1      -0.692   5.039   3.062  1.00  0.00     0.000 C 
BRANCH  14  15
ATOM     15  C   UNL     1       0.469   5.109   2.063  1.00  0.00     0.000 C 
BRANCH  15  16
ATOM     16  C   UNL     1       1.821   5.023   2.788  1.00  0.00     0.000 C 
BRANCH  16  17
ATOM     17  C   UNL     1       2.835   6.067   2.273  1.00  0.00     0.000 C 
BRANCH  17  18
ATOM     18  C   UNL     1       4.240   5.489   2.018  1.00  0.00     0.000 C 
BRANCH  18  19
ATOM     19  C   UNL     1       5.289   6.003   3.015  1.00  0.00     0.000 C 
BRANCH  19  20
ATOM     20  C   UNL     1       6.580   6.413   2.296  1.00  0.00     0.006 C 
BRANCH  20  21
ATOM     21  C   UNL     1       7.337   7.477   3.097  1.00  0.00     0.053 C 
BRANCH  21  22
ATOM     22  C   UNL     1       8.736   7.637   2.584  1.00  0.00     0.041 C 
ATOM     23  O   UNL     1       9.411   6.622   2.263  1.00  0.00    -0.550 OA
ATOM     24  O   UNL     1       9.291   8.902   2.449  1.00  0.00    -0.550 OA
ENDBRANCH  21  22
ENDBRANCH  20  21
ENDBRANCH  19  20
ENDBRANCH  18  19
ENDBRANCH  17  18
ENDBRANCH  16  17
ENDBRANCH  15  16
ENDBRANCH  14  15
ENDBRANCH  13  14
ENDBRANCH   1  13
TORSDOF 20
ENDMDL
MODEL 8
REMARK VINA RESULT:     1.660      1.185      1.794
REMARK INTER + INTRA:           2.346
REMARK INTER:                   1.083
REMARK INTRA:                   1.263
REMARK UNBOUND:                -1.254
REMARK SMILES CCCCCCCCCCCCCCCCCCCCCC(=O)[O-]
REMARK SMILES IDX 12 1 11 2 10 3 9 4 8 5 7 6 6 7 5 8 4 9 3 10 2 11 1 12 13 13
REMARK SMILES IDX 14 14 15 15 16 16 17 17 18 18 19 19 20 20 21 21 22 22 23 23
REMARK SMILES IDX 24 24
REMARK H PARENT
REMARK Flexibility Score: inf
ROOT
ATOM      1  C   UNL     1       4.840   8.058   4.217  1.00  0.00     0.000 C 
ENDROOT
BRANCH   1   2
ATOM      2  C   UNL     1       4.008   8.811   5.266  1.00  0.00     0.000 C 
BRANCH   2   3
ATOM      3  C   UNL     1       3.251   9.986   4.629  1.00  0.00     0.000 C 
BRANCH   3   4
ATOM      4  C   UNL     1       2.521   9.594   3.331  1.00  0.00    -0.000 C 
BRANCH   4   5
ATOM      5  C   UNL     1       1.015   9.931   3.295  1.00  0.00    -0.000 C 
BRANCH   5   6
ATOM      6  C   UNL     1       0.182   9.097   2.305  1.00  0.00    -0.000 C 
BRANCH   6   7
ATOM      7  C   UNL     1      -0.346   7.766   2.872  1.00  0.00    -0.000 C 
BRANCH   7   8
ATOM      8  C   UNL     1      -0.098   6.560   1.942  1.00  0.00    -0.000 C 
BRANCH   8   9
ATOM      9  C   UNL     1       0.540   5.369   2.678  1.00  0.00    -0.000 C 
BRANCH   9  10
ATOM     10  C   UNL     1       0.879   5.694   4.142  1.00  0.00    -0.000 C 
BRANCH  10  11
ATOM     11  C   UNL     1       0.119   4.807   5.137  1.00  0.00    -0.003 C 
ATOM     12  C   UNL     1      -1.054   4.101   4.461  1.00  0.00     0.004 C 
ENDBRANCH  10  11
ENDBRANCH   9  10
ENDBRANCH   8   9
ENDBRANCH   7   8
ENDBRANCH   6   7
ENDBRANCH   5   6
ENDBRANCH   4   5
ENDBRANCH   3   4
ENDBRANCH   2   3
ENDBRANCH   1   2
BRANCH   1  13
ATOM     13  C   UNL     1       4.438   8.408   2.775  1.00  0.00     0.000 C 
BRANCH  13  14
ATOM     14  C   UNL     1       3.426   7.416   2.182  1.00  0.00     0.000 C 
BRANCH  14  15
ATOM     15  C   UNL     1       4.076   6.054   1.915  1.00  0.00     0.000 C 
BRANCH  15  16
ATOM     16  C   UNL     1       5.588   6.105   2.189  1.00  0.00     0.000 C 
BRANCH  16  17
ATOM     17  C   UNL     1       6.270   4.734   1.997  1.00  0.00     0.000 C 
BRANCH  17  18
ATOM     18  C   UNL     1       5.408   3.545   2.462  1.00  0.00     0.000 C 
BRANCH  18  19
ATOM     19  C   UNL     1       5.946   2.190   1.979  1.00  0.00     0.000 C 
BRANCH  19  20
ATOM     20  C   UNL     1       7.476   2.208   1.875  1.00  0.00     0.006 C 
BRANCH  20  21
ATOM     21  C   UNL     1       8.102   1.204   2.848  1.00  0.00     0.053 C 
BRANCH  21  22
ATOM     22  C   UNL     1       9.493   0.845   2.423  1.00  0.00     0.041 C 
ATOM     23  O   UNL     1      10.242   1.718   1.905  1.00  0.00    -0.550 OA
ATOM     24  O   UNL     1       9.970  -0.446   2.609  1.00  0.00    -0.550 OA
ENDBRANCH  21  22
ENDBRANCH  20  21
ENDBRANCH  19  20
ENDBRANCH  18  19
ENDBRANCH  17  18
ENDBRANCH  16  17
ENDBRANCH  15  16
ENDBRANCH  14  15
ENDBRANCH  13  14
ENDBRANCH   1  13
TORSDOF 20
ENDMDL
MODEL 9
REMARK VINA RESULT:     1.897      3.226      4.803
REMARK INTER + INTRA:           2.860
REMARK INTER:                  -2.362
REMARK INTRA:                   5.223
REMARK UNBOUND:                -1.254
REMARK SMILES CCCCCCCCCCCCCCCCCCCCCC(=O)[O-]
REMARK SMILES IDX 12 1 11 2 10 3 9 4 8 5 7 6 6 7 5 8 4 9 3 10 2 11 1 12 13 13
REMARK SMILES IDX 14 14 15 15 16 16 17 17 18 18 19 19 20 20 21 21 22 22 23 23
REMARK SMILES IDX 24 24
REMARK H PARENT
REMARK Flexibility Score: inf
ROOT
ATOM      1  C   UNL     1       1.448  10.125   4.914  1.00  0.00     0.000 C 
ENDROOT
BRANCH   1   2
ATOM      2  C   UNL     1       0.287   9.822   5.874  1.00  0.00     0.000 C 
BRANCH   2   3
ATOM      3  C   UNL     1      -0.974   9.409   5.101  1.00  0.00     0.000 C 
BRANCH   3   4
ATOM      4  C   UNL     1      -0.997   9.952   3.660  1.00  0.00    -0.000 C 
BRANCH   4   5
ATOM      5  C   UNL     1       0.388  10.125   2.999  1.00  0.00    -0.000 C 
BRANCH   5   6
ATOM      6  C   UNL     1       0.902   8.894   2.230  1.00  0.00    -0.000 C 
BRANCH   6   7
ATOM      7  C   UNL     1      -0.182   7.860   1.875  1.00  0.00    -0.000 C 
BRANCH   7   8
ATOM      8  C   UNL     1      -1.092   7.489   3.065  1.00  0.00    -0.000 C 
BRANCH   8   9
ATOM      9  C   UNL     1      -1.050   5.986   3.394  1.00  0.00    -0.000 C 
BRANCH   9  10
ATOM     10  C   UNL     1       0.372   5.490   3.705  1.00  0.00    -0.000 C 
BRANCH  10  11
ATOM     11  C   UNL     1       0.379   4.202   4.540  1.00  0.00    -0.003 C 
ATOM     12  C   UNL     1      -1.040   3.763   4.888  1.00  0.00     0.004 C 
ENDBRANCH  10  11
ENDBRANCH   9  10
ENDBRANCH   8   9
ENDBRANCH   7   8
ENDBRANCH   6   7
ENDBRANCH   5   6
ENDBRANCH   4   5
ENDBRANCH   3   4
ENDBRANCH   2   3
ENDBRANCH   1   2
BRANCH   1  13
ATOM     13  C   UNL     1       2.808   9.661   5.460  1.00  0.00     0.000 C 
BRANCH  13  14
ATOM     14  C   UNL     1       2.970   8.133   5.433  1.00  0.00     0.000 C 
BRANCH  14  15
ATOM     15  C   UNL     1       4.014   7.705   4.395  1.00  0.00     0.000 C 
BRANCH  15  16
ATOM     16  C   UNL     1       3.965   8.618   3.160  1.00  0.00     0.000 C 
BRANCH  16  17
ATOM     17  C   UNL     1       4.873   9.857   3.304  1.00  0.00     0.000 C 
BRANCH  17  18
ATOM     18  C   UNL     1       6.041   9.887   2.300  1.00  0.00     0.000 C 
BRANCH  18  19
ATOM     19  C   UNL     1       6.791   8.550   2.213  1.00  0.00     0.000 C 
BRANCH  19  20
ATOM     20  C   UNL     1       5.817   7.380   2.033  1.00  0.00     0.006 C 
BRANCH  20  21
ATOM     21  C   UNL     1       6.520   6.040   2.272  1.00  0.00     0.053 C 
BRANCH  21  22
ATOM     22  C   UNL     1       5.524   4.958   2.558  1.00  0.00     0.041 C 
ATOM     23  O   UNL     1       4.457   5.227   3.173  1.00  0.00    -0.550 OA
ATOM     24  O   UNL     1       5.766   3.657   2.138  1.00  0.00    -0.550 OA
ENDBRANCH  21  22
ENDBRANCH  20  21
ENDBRANCH  19  20
ENDBRANCH  18  19
ENDBRANCH  17  18
ENDBRANCH  16  17
ENDBRANCH  15  16
ENDBRANCH  14  15
ENDBRANCH  13  14
ENDBRANCH   1  13
TORSDOF 20
ENDMDL
