MODEL 1
REMARK VINA RESULT:    -3.612      0.000      0.000
REMARK INTER + INTRA:          -5.341
REMARK INTER:                  -5.090
REMARK INTRA:                  -0.251
REMARK UNBOUND:                -0.251
REMARK SMILES CCCCCCCCC(=O)[O-]
REMARK SMILES IDX 6 1 7 2 8 3 9 4 10 5 11 6 5 7 4 8 3 9 2 10 1 11
REMARK H PARENT
REMARK Flexibility Score: inf
ROOT
ATOM      1  C   UNL     1     -21.166 -18.947   0.909  1.00  0.00     0.000 C 
ENDROOT
BRANCH   1   2
ATOM      2  C   UNL     1     -20.891 -19.995  -0.177  1.00  0.00     0.006 C 
BRANCH   2   3
ATOM      3  C   UNL     1     -22.199 -20.564  -0.734  1.00  0.00     0.053 C 
BRANCH   3   4
ATOM      4  C   UNL     1     -22.467 -21.920  -0.161  1.00  0.00     0.041 C 
ATOM      5  O   UNL     1     -22.537 -22.925  -0.918  1.00  0.00    -0.550 OA
ATOM      6  O   UNL     1     -22.690 -22.068   1.202  1.00  0.00    -0.550 OA
ENDBRANCH   3   4
ENDBRANCH   2   3
ENDBRANCH   1   2
BRANCH   1   7
ATOM      7  C   UNL     1     -19.859 -18.334   1.426  1.00  0.00     0.000 C 
BRANCH   7   8
ATOM      8  C   UNL     1     -18.888 -19.424   1.895  1.00  0.00    -0.000 C 
BRANCH   8   9
ATOM      9  C   UNL     1     -17.442 -18.916   1.882  1.00  0.00    -0.000 C 
BRANCH   9  10
ATOM     10  C   UNL     1     -16.449 -20.077   2.012  1.00  0.00    -0.003 C 
ATOM     11  C   UNL     1     -15.785 -20.084   3.385  1.00  0.00     0.004 C 
ENDBRANCH   9  10
ENDBRANCH   8   9
ENDBRANCH   7   8
ENDBRANCH   1   7
TORSDOF 7
ENDMDL
MODEL 2
REMARK VINA RESULT:    -3.582      3.593      5.961
REMARK INTER + INTRA:          -5.299
REMARK INTER:                  -4.955
REMARK INTRA:                  -0.344
REMARK UNBOUND:                -0.251
REMARK SMILES CCCCCCCCC(=O)[O-]
REMARK SMILES IDX 6 1 7 2 8 3 9 4 10 5 11 6 5 7 4 8 3 9 2 10 1 11
REMARK H PARENT
REMARK Flexibility Score: inf
ROOT
ATOM      1  C   UNL     1     -19.505 -20.704   2.917  1.00  0.00     0.000 C 
ENDROOT
BRANCH   1   2
ATOM      2  C   UNL     1     -18.215 -21.434   3.308  1.00  0.00     0.006 C 
BRANCH   2   3
ATOM      3  C   UNL     1     -17.211 -20.471   3.947  1.00  0.00     0.053 C 
BRANCH   3   4
ATOM      4  C   UNL     1     -16.092 -20.176   2.999  1.00  0.00     0.041 C 
ATOM      5  O   UNL     1     -14.902 -20.151   3.411  1.00  0.00    -0.550 OA
ATOM      6  O   UNL     1     -16.366 -19.877   1.670  1.00  0.00    -0.550 OA
ENDBRANCH   3   4
ENDBRANCH   2   3
ENDBRANCH   1   2
BRANCH   1   7
ATOM      7  C   UNL     1     -20.668 -21.690   2.752  1.00  0.00     0.000 C 
BRANCH   7   8
ATOM      8  C   UNL     1     -21.502 -21.355   1.510  1.00  0.00    -0.000 C 
BRANCH   8   9
ATOM      9  C   UNL     1     -21.013 -20.059   0.852  1.00  0.00    -0.000 C 
BRANCH   9  10
ATOM     10  C   UNL     1     -21.317 -20.056  -0.650  1.00  0.00    -0.003 C 
ATOM     11  C   UNL     1     -21.886 -21.398  -1.101  1.00  0.00     0.004 C 
ENDBRANCH   9  10
ENDBRANCH   8   9
ENDBRANCH   7   8
ENDBRANCH   1   7
TORSDOF 7
ENDMDL
MODEL 3
REMARK VINA RESULT:    -3.520      5.803      6.625
REMARK INTER + INTRA:          -5.212
REMARK INTER:                  -4.988
REMARK INTRA:                  -0.224
REMARK UNBOUND:                -0.251
REMARK SMILES CCCCCCCCC(=O)[O-]
REMARK SMILES IDX 6 1 7 2 8 3 9 4 10 5 11 6 5 7 4 8 3 9 2 10 1 11
REMARK H PARENT
REMARK Flexibility Score: inf
ROOT
ATOM      1  C   UNL     1     -18.093 -15.034  -0.199  1.00  0.00     0.000 C 
ENDROOT
BRANCH   1   2
ATOM      2  C   UNL     1     -16.904 -14.455  -0.974  1.00  0.00     0.006 C 
BRANCH   2   3
ATOM      3  C   UNL     1     -17.036 -14.738  -2.473  1.00  0.00     0.053 C 
BRANCH   3   4
ATOM      4  C   UNL     1     -18.028 -13.808  -3.097  1.00  0.00     0.041 C 
ATOM      5  O   UNL     1     -18.790 -14.217  -4.013  1.00  0.00    -0.550 OA
ATOM      6  O   UNL     1     -18.077 -12.477  -2.704  1.00  0.00    -0.550 OA
ENDBRANCH   3   4
ENDBRANCH   2   3
ENDBRANCH   1   2
BRANCH   1   7
ATOM      7  C   UNL     1     -17.639 -15.636   1.137  1.00  0.00     0.000 C 
BRANCH   7   8
ATOM      8  C   UNL     1     -18.458 -16.884   1.484  1.00  0.00    -0.000 C 
BRANCH   8   9
ATOM      9  C   UNL     1     -17.648 -17.848   2.360  1.00  0.00    -0.000 C 
BRANCH   9  10
ATOM     10  C   UNL     1     -17.482 -19.208   1.673  1.00  0.00    -0.003 C 
ATOM     11  C   UNL     1     -16.384 -20.032   2.339  1.00  0.00     0.004 C 
ENDBRANCH   9  10
ENDBRANCH   8   9
ENDBRANCH   7   8
ENDBRANCH   1   7
TORSDOF 7
ENDMDL
MODEL 4
REMARK VINA RESULT:    -3.479      1.337      1.825
REMARK INTER + INTRA:          -5.154
REMARK INTER:                  -4.716
REMARK INTRA:                  -0.439
REMARK UNBOUND:                -0.251
REMARK SMILES CCCCCCCCC(=O)[O-]
REMARK SMILES IDX 6 1 7 2 8 3 9 4 10 5 11 6 5 7 4 8 3 9 2 10 1 11
REMARK H PARENT
REMARK Flexibility Score: inf
ROOT
ATOM      1  C   UNL     1     -19.383 -19.413   1.762  1.00  0.00     0.000 C 
ENDROOT
BRANCH   1   2
ATOM      2  C   UNL     1     -20.577 -19.481   0.803  1.00  0.00     0.006 C 
BRANCH   2   3
ATOM      3  C   UNL     1     -21.359 -20.784   0.992  1.00  0.00     0.053 C 
BRANCH   3   4
ATOM      4  C   UNL     1     -21.789 -21.334  -0.331  1.00  0.00     0.041 C 
ATOM      5  O   UNL     1     -21.549 -20.696  -1.391  1.00  0.00    -0.550 OA
ATOM      6  O   UNL     1     -22.500 -22.526  -0.392  1.00  0.00    -0.550 OA
ENDBRANCH   3   4
ENDBRANCH   2   3
ENDBRANCH   1   2
BRANCH   1   7
ATOM      7  C   UNL     1     -19.430 -20.557   2.782  1.00  0.00     0.000 C 
BRANCH   7   8
ATOM      8  C   UNL     1     -18.018 -21.025   3.150  1.00  0.00    -0.000 C 
BRANCH   8   9
ATOM      9  C   UNL     1     -16.958 -20.259   2.349  1.00  0.00    -0.000 C 
BRANCH   9  10
ATOM     10  C   UNL     1     -15.660 -20.114   3.151  1.00  0.00    -0.003 C 
ATOM     11  C   UNL     1     -15.944 -19.694   4.590  1.00  0.00     0.004 C 
ENDBRANCH   9  10
ENDBRANCH   8   9
ENDBRANCH   7   8
ENDBRANCH   1   7
TORSDOF 7
ENDMDL
MODEL 5
REMARK VINA RESULT:    -3.364      3.509      6.045
REMARK INTER + INTRA:          -4.992
REMARK INTER:                  -4.675
REMARK INTRA:                  -0.316
REMARK UNBOUND:                -0.251
REMARK SMILES CCCCCCCCC(=O)[O-]
REMARK SMILES IDX 6 1 7 2 8 3 9 4 10 5 11 6 5 7 4 8 3 9 2 10 1 11
REMARK H PARENT
REMARK Flexibility Score: inf
ROOT
ATOM      1  C   UNL     1     -17.632 -18.372   2.232  1.00  0.00     0.000 C 
ENDROOT
BRANCH   1   2
ATOM      2  C   UNL     1     -17.297 -19.853   2.029  1.00  0.00     0.006 C 
BRANCH   2   3
ATOM      3  C   UNL     1     -15.917 -20.188   2.605  1.00  0.00     0.053 C 
BRANCH   3   4
ATOM      4  C   UNL     1     -15.922 -20.045   4.094  1.00  0.00     0.041 C 
ATOM      5  O   UNL     1     -16.761 -20.678   4.789  1.00  0.00    -0.550 OA
ATOM      6  O   UNL     1     -15.034 -19.174   4.712  1.00  0.00    -0.550 OA
ENDBRANCH   3   4
ENDBRANCH   2   3
ENDBRANCH   1   2
BRANCH   1   7
ATOM      7  C   UNL     1     -19.048 -18.055   1.736  1.00  0.00     0.000 C 
BRANCH   7   8
ATOM      8  C   UNL     1     -19.806 -19.339   1.380  1.00  0.00    -0.000 C 
BRANCH   8   9
ATOM      9  C   UNL     1     -21.080 -19.024   0.586  1.00  0.00    -0.000 C 
BRANCH   9  10
ATOM     10  C   UNL     1     -21.767 -20.311   0.115  1.00  0.00    -0.003 C 
ATOM     11  C   UNL     1     -21.482 -20.581  -1.360  1.00  0.00     0.004 C 
ENDBRANCH   9  10
ENDBRANCH   8   9
ENDBRANCH   7   8
ENDBRANCH   1   7
TORSDOF 7
ENDMDL
MODEL 6
REMARK VINA RESULT:    -3.334      8.391      9.255
REMARK INTER + INTRA:          -4.950
REMARK INTER:                  -4.645
REMARK INTRA:                  -0.305
REMARK UNBOUND:                -0.251
REMARK SMILES CCCCCCCCC(=O)[O-]
REMARK SMILES IDX 6 1 7 2 8 3 9 4 10 5 11 6 5 7 4 8 3 9 2 10 1 11
REMARK H PARENT
REMARK Flexibility Score: inf
ROOT
ATOM      1  C   UNL     1     -15.936 -11.894  -0.903  1.00  0.00     0.000 C 
ENDROOT
BRANCH   1   2
ATOM      2  C   UNL     1     -16.464 -12.066  -2.332  1.00  0.00     0.006 C 
BRANCH   2   3
ATOM      3  C   UNL     1     -17.854 -12.708  -2.331  1.00  0.00     0.053 C 
BRANCH   3   4
ATOM      4  C   UNL     1     -17.830 -14.010  -3.067  1.00  0.00     0.041 C 
ATOM      5  O   UNL     1     -16.924 -14.853  -2.833  1.00  0.00    -0.550 OA
ATOM      6  O   UNL     1     -18.779 -14.273  -4.047  1.00  0.00    -0.550 OA
ENDBRANCH   3   4
ENDBRANCH   2   3
ENDBRANCH   1   2
BRANCH   1   7
ATOM      7  C   UNL     1     -15.328 -10.500  -0.704  1.00  0.00     0.000 C 
BRANCH   7   8
ATOM      8  C   UNL     1     -13.893 -10.597  -0.172  1.00  0.00    -0.000 C 
BRANCH   8   9
ATOM      9  C   UNL     1     -13.737 -11.792   0.775  1.00  0.00    -0.000 C 
BRANCH   9  10
ATOM     10  C   UNL     1     -12.300 -12.327   0.755  1.00  0.00    -0.003 C 
ATOM     11  C   UNL     1     -12.263 -13.821   1.065  1.00  0.00     0.004 C 
ENDBRANCH   9  10
ENDBRANCH   8   9
ENDBRANCH   7   8
ENDBRANCH   1   7
TORSDOF 7
ENDMDL
MODEL 7
REMARK VINA RESULT:    -3.328      7.314      8.063
REMARK INTER + INTRA:          -4.941
REMARK INTER:                  -4.625
REMARK INTRA:                  -0.316
REMARK UNBOUND:                -0.251
REMARK SMILES CCCCCCCCC(=O)[O-]
REMARK SMILES IDX 6 1 7 2 8 3 9 4 10 5 11 6 5 7 4 8 3 9 2 10 1 11
REMARK H PARENT
REMARK Flexibility Score: inf
ROOT
ATOM      1  C   UNL     1     -17.572 -14.814  -0.641  1.00  0.00     0.000 C 
ENDROOT
BRANCH   1   2
ATOM      2  C   UNL     1     -16.857 -14.178  -1.839  1.00  0.00     0.006 C 
BRANCH   2   3
ATOM      3  C   UNL     1     -17.649 -14.398  -3.131  1.00  0.00     0.053 C 
BRANCH   3   4
ATOM      4  C   UNL     1     -18.684 -13.331  -3.300  1.00  0.00     0.041 C 
ATOM      5  O   UNL     1     -19.833 -13.624  -3.726  1.00  0.00    -0.550 OA
ATOM      6  O   UNL     1     -18.366 -12.004  -3.036  1.00  0.00    -0.550 OA
ENDBRANCH   3   4
ENDBRANCH   2   3
ENDBRANCH   1   2
BRANCH   1   7
ATOM      7  C   UNL     1     -16.854 -14.476   0.671  1.00  0.00     0.000 C 
BRANCH   7   8
ATOM      8  C   UNL     1     -15.819 -13.365   0.462  1.00  0.00    -0.000 C 
BRANCH   8   9
ATOM      9  C   UNL     1     -14.734 -13.411   1.544  1.00  0.00    -0.000 C 
BRANCH   9  10
ATOM     10  C   UNL     1     -13.401 -12.874   1.011  1.00  0.00    -0.003 C 
ATOM     11  C   UNL     1     -12.298 -13.921   1.126  1.00  0.00     0.004 C 
ENDBRANCH   9  10
ENDBRANCH   8   9
ENDBRANCH   7   8
ENDBRANCH   1   7
TORSDOF 7
ENDMDL
MODEL 8
REMARK VINA RESULT:    -3.272      4.421      5.893
REMARK INTER + INTRA:          -4.862
REMARK INTER:                  -4.584
REMARK INTRA:                  -0.279
REMARK UNBOUND:                -0.251
REMARK SMILES CCCCCCCCC(=O)[O-]
REMARK SMILES IDX 6 1 7 2 8 3 9 4 10 5 11 6 5 7 4 8 3 9 2 10 1 11
REMARK H PARENT
REMARK Flexibility Score: inf
ROOT
ATOM      1  C   UNL     1     -17.893 -17.686   2.383  1.00  0.00     0.000 C 
ENDROOT
BRANCH   1   2
ATOM      2  C   UNL     1     -18.053 -19.142   1.930  1.00  0.00     0.006 C 
BRANCH   2   3
ATOM      3  C   UNL     1     -16.689 -19.816   1.757  1.00  0.00     0.053 C 
BRANCH   3   4
ATOM      4  C   UNL     1     -16.110 -20.178   3.088  1.00  0.00     0.041 C 
ATOM      5  O   UNL     1     -14.863 -20.156   3.264  1.00  0.00    -0.550 OA
ATOM      6  O   UNL     1     -16.944 -20.589   4.121  1.00  0.00    -0.550 OA
ENDBRANCH   3   4
ENDBRANCH   2   3
ENDBRANCH   1   2
BRANCH   1   7
ATOM      7  C   UNL     1     -18.491 -16.720   1.353  1.00  0.00     0.000 C 
BRANCH   7   8
ATOM      8  C   UNL     1     -17.582 -15.503   1.148  1.00  0.00    -0.000 C 
BRANCH   8   9
ATOM      9  C   UNL     1     -17.641 -15.010  -0.302  1.00  0.00    -0.000 C 
BRANCH   9  10
ATOM     10  C   UNL     1     -16.682 -13.835  -0.524  1.00  0.00    -0.003 C 
ATOM     11  C   UNL     1     -15.620 -13.776   0.570  1.00  0.00     0.004 C 
ENDBRANCH   9  10
ENDBRANCH   8   9
ENDBRANCH   7   8
ENDBRANCH   1   7
TORSDOF 7
ENDMDL
MODEL 9
REMARK VINA RESULT:    -3.203      8.423      9.181
REMARK INTER + INTRA:          -4.764
REMARK INTER:                  -4.180
REMARK INTRA:                  -0.584
REMARK UNBOUND:                -0.251
REMARK SMILES CCCCCCCCC(=O)[O-]
REMARK SMILES IDX 6 1 7 2 8 3 9 4 10 5 11 6 5 7 4 8 3 9 2 10 1 11
REMARK H PARENT
REMARK Flexibility Score: inf
ROOT
ATOM      1  C   UNL     1     -19.440 -13.237  -2.982  1.00  0.00     0.000 C 
ENDROOT
BRANCH   1   2
ATOM      2  C   UNL     1     -19.097 -11.792  -3.360  1.00  0.00     0.006 C 
BRANCH   2   3
ATOM      3  C   UNL     1     -20.347 -11.029  -3.808  1.00  0.00     0.053 C 
BRANCH   3   4
ATOM      4  C   UNL     1     -20.826 -11.539  -5.130  1.00  0.00     0.041 C 
ATOM      5  O   UNL     1     -22.059 -11.658  -5.354  1.00  0.00    -0.550 OA
ATOM      6  O   UNL     1     -19.909 -11.932  -6.098  1.00  0.00    -0.550 OA
ENDBRANCH   3   4
ENDBRANCH   2   3
ENDBRANCH   1   2
BRANCH   1   7
ATOM      7  C   UNL     1     -18.399 -14.215  -3.543  1.00  0.00     0.000 C 
BRANCH   7   8
ATOM      8  C   UNL     1     -17.089 -14.135  -2.752  1.00  0.00    -0.000 C 
BRANCH   8   9
ATOM      9  C   UNL     1     -17.249 -14.752  -1.357  1.00  0.00    -0.000 C 
BRANCH   9  10
ATOM     10  C   UNL     1     -16.771 -13.784  -0.269  1.00  0.00    -0.003 C 
ATOM     11  C   UNL     1     -16.397 -12.428  -0.861  1.00  0.00     0.004 C 
ENDBRANCH   9  10
ENDBRANCH   8   9
ENDBRANCH   7   8
ENDBRANCH   1   7
TORSDOF 7
ENDMDL
