MODEL 1
REMARK VINA RESULT:    -4.406      0.000      0.000
REMARK INTER + INTRA:          -5.679
REMARK INTER:                  -5.436
REMARK INTRA:                  -0.242
REMARK UNBOUND:                -0.242
REMARK SMILES CCCCC=CC(C)=O
REMARK SMILES IDX 4 1 3 2 2 3 1 4 5 5 6 6 7 7 9 8 8 9
REMARK H PARENT
REMARK Flexibility Score: inf
ROOT
ATOM      1  C   UNL     1     -12.846 -16.215  32.366  1.00  0.00     0.027 C 
ENDROOT
BRANCH   1   2
ATOM      2  C   UNL     1     -13.930 -15.496  31.548  1.00  0.00     0.004 C 
BRANCH   2   3
ATOM      3  C   UNL     1     -14.938 -14.759  32.442  1.00  0.00    -0.003 C 
ATOM      4  C   UNL     1     -15.832 -15.743  33.189  1.00  0.00     0.004 C 
ENDBRANCH   2   3
ENDBRANCH   1   2
BRANCH   1   5
ATOM      5  C   UNL     1     -12.435 -17.522  31.747  1.00  0.00    -0.023 C 
ATOM      6  C   UNL     1     -13.241 -18.590  31.768  1.00  0.00     0.042 C 
BRANCH   6   7
ATOM      7  C   UNL     1     -12.879 -19.892  31.174  1.00  0.00     0.152 C 
ATOM      8  O   UNL     1     -12.396 -20.783  31.923  1.00  0.00    -0.295 OA
ATOM      9  C   UNL     1     -13.063 -20.191  29.717  1.00  0.00     0.093 C 
ENDBRANCH   6   7
ENDBRANCH   1   5
TORSDOF 4
ENDMDL
MODEL 2
REMARK VINA RESULT:    -4.369      3.557      3.774
REMARK INTER + INTRA:          -5.633
REMARK INTER:                  -5.479
REMARK INTRA:                  -0.154
REMARK UNBOUND:                -0.242
REMARK SMILES CCCCC=CC(C)=O
REMARK SMILES IDX 4 1 3 2 2 3 1 4 5 5 6 6 7 7 9 8 8 9
REMARK H PARENT
REMARK Flexibility Score: inf
ROOT
ATOM      1  C   UNL     1     -12.267 -16.236  30.921  1.00  0.00     0.027 C 
ENDROOT
BRANCH   1   2
ATOM      2  C   UNL     1     -13.553 -16.390  31.746  1.00  0.00     0.004 C 
BRANCH   2   3
ATOM      3  C   UNL     1     -14.412 -15.118  31.724  1.00  0.00    -0.003 C 
ATOM      4  C   UNL     1     -15.482 -15.157  32.810  1.00  0.00     0.004 C 
ENDBRANCH   2   3
ENDBRANCH   1   2
BRANCH   1   5
ATOM      5  C   UNL     1     -12.398 -16.825  29.543  1.00  0.00    -0.023 C 
ATOM      6  C   UNL     1     -12.485 -16.048  28.457  1.00  0.00     0.042 C 
BRANCH   6   7
ATOM      7  C   UNL     1     -12.617 -16.581  27.086  1.00  0.00     0.152 C 
ATOM      8  O   UNL     1     -13.726 -16.469  26.499  1.00  0.00    -0.295 OA
ATOM      9  C   UNL     1     -11.481 -17.250  26.371  1.00  0.00     0.093 C 
ENDBRANCH   6   7
ENDBRANCH   1   5
TORSDOF 4
ENDMDL
MODEL 3
REMARK VINA RESULT:    -4.317      2.101      4.920
REMARK INTER + INTRA:          -5.569
REMARK INTER:                  -5.373
REMARK INTRA:                  -0.196
REMARK UNBOUND:                -0.242
REMARK SMILES CCCCC=CC(C)=O
REMARK SMILES IDX 4 1 3 2 2 3 1 4 5 5 6 6 7 7 9 8 8 9
REMARK H PARENT
REMARK Flexibility Score: inf
ROOT
ATOM      1  C   UNL     1     -12.772 -19.304  31.915  1.00  0.00     0.027 C 
ENDROOT
BRANCH   1   2
ATOM      2  C   UNL     1     -12.870 -20.361  30.806  1.00  0.00     0.004 C 
BRANCH   2   3
ATOM      3  C   UNL     1     -12.903 -19.732  29.406  1.00  0.00    -0.003 C 
ATOM      4  C   UNL     1     -14.085 -20.255  28.596  1.00  0.00     0.004 C 
ENDBRANCH   2   3
ENDBRANCH   1   2
BRANCH   1   5
ATOM      5  C   UNL     1     -13.235 -17.949  31.456  1.00  0.00    -0.023 C 
ATOM      6  C   UNL     1     -13.612 -17.006  32.328  1.00  0.00     0.042 C 
BRANCH   6   7
ATOM      7  C   UNL     1     -14.076 -15.664  31.923  1.00  0.00     0.152 C 
ATOM      8  O   UNL     1     -13.870 -15.286  30.739  1.00  0.00    -0.295 OA
ATOM      9  C   UNL     1     -14.780 -14.737  32.869  1.00  0.00     0.093 C 
ENDBRANCH   6   7
ENDBRANCH   1   5
TORSDOF 4
ENDMDL
MODEL 4
REMARK VINA RESULT:    -4.306      3.473      4.540
REMARK INTER + INTRA:          -5.555
REMARK INTER:                  -5.356
REMARK INTRA:                  -0.199
REMARK UNBOUND:                -0.242
REMARK SMILES CCCCC=CC(C)=O
REMARK SMILES IDX 4 1 3 2 2 3 1 4 5 5 6 6 7 7 9 8 8 9
REMARK H PARENT
REMARK Flexibility Score: inf
ROOT
ATOM      1  C   UNL     1     -12.779 -16.763  31.043  1.00  0.00     0.027 C 
ENDROOT
BRANCH   1   2
ATOM      2  C   UNL     1     -13.127 -17.915  31.997  1.00  0.00     0.004 C 
BRANCH   2   3
ATOM      3  C   UNL     1     -13.196 -19.267  31.274  1.00  0.00    -0.003 C 
ATOM      4  C   UNL     1     -12.253 -20.282  31.912  1.00  0.00     0.004 C 
ENDBRANCH   2   3
ENDBRANCH   1   2
BRANCH   1   5
ATOM      5  C   UNL     1     -12.875 -17.170  29.598  1.00  0.00    -0.023 C 
ATOM      6  C   UNL     1     -12.475 -16.354  28.614  1.00  0.00     0.042 C 
BRANCH   6   7
ATOM      7  C   UNL     1     -12.551 -16.709  27.184  1.00  0.00     0.152 C 
ATOM      8  O   UNL     1     -13.631 -16.504  26.567  1.00  0.00    -0.295 OA
ATOM      9  C   UNL     1     -11.394 -17.306  26.440  1.00  0.00     0.093 C 
ENDBRANCH   6   7
ENDBRANCH   1   5
TORSDOF 4
ENDMDL
MODEL 5
REMARK VINA RESULT:    -4.303      3.247      4.955
REMARK INTER + INTRA:          -5.551
REMARK INTER:                  -5.346
REMARK INTRA:                  -0.206
REMARK UNBOUND:                -0.242
REMARK SMILES CCCCC=CC(C)=O
REMARK SMILES IDX 4 1 3 2 2 3 1 4 5 5 6 6 7 7 9 8 8 9
REMARK H PARENT
REMARK Flexibility Score: inf
ROOT
ATOM      1  C   UNL     1     -11.722 -15.930  28.635  1.00  0.00     0.027 C 
ENDROOT
BRANCH   1   2
ATOM      2  C   UNL     1     -12.939 -15.915  27.698  1.00  0.00     0.004 C 
BRANCH   2   3
ATOM      3  C   UNL     1     -12.673 -16.672  26.389  1.00  0.00    -0.003 C 
ATOM      4  C   UNL     1     -11.308 -17.353  26.415  1.00  0.00     0.004 C 
ENDBRANCH   2   3
ENDBRANCH   1   2
BRANCH   1   5
ATOM      5  C   UNL     1     -12.098 -16.259  30.054  1.00  0.00    -0.023 C 
ATOM      6  C   UNL     1     -13.307 -15.959  30.544  1.00  0.00     0.042 C 
BRANCH   6   7
ATOM      7  C   UNL     1     -13.718 -16.261  31.930  1.00  0.00     0.152 C 
ATOM      8  O   UNL     1     -13.306 -17.325  32.464  1.00  0.00    -0.295 OA
ATOM      9  C   UNL     1     -14.607 -15.349  32.721  1.00  0.00     0.093 C 
ENDBRANCH   6   7
ENDBRANCH   1   5
TORSDOF 4
ENDMDL
MODEL 6
REMARK VINA RESULT:    -4.299      3.047      4.083
REMARK INTER + INTRA:          -5.547
REMARK INTER:                  -5.297
REMARK INTRA:                  -0.250
REMARK UNBOUND:                -0.242
REMARK SMILES CCCCC=CC(C)=O
REMARK SMILES IDX 4 1 3 2 2 3 1 4 5 5 6 6 7 7 9 8 8 9
REMARK H PARENT
REMARK Flexibility Score: inf
ROOT
ATOM      1  C   UNL     1     -12.222 -15.807  28.968  1.00  0.00     0.027 C 
ENDROOT
BRANCH   1   2
ATOM      2  C   UNL     1     -13.234 -15.508  27.852  1.00  0.00     0.004 C 
BRANCH   2   3
ATOM      3  C   UNL     1     -13.238 -16.593  26.767  1.00  0.00    -0.003 C 
ATOM      4  C   UNL     1     -11.818 -17.004  26.393  1.00  0.00     0.004 C 
ENDBRANCH   2   3
ENDBRANCH   1   2
BRANCH   1   5
ATOM      5  C   UNL     1     -12.830 -16.591  30.097  1.00  0.00    -0.023 C 
ATOM      6  C   UNL     1     -12.414 -17.829  30.392  1.00  0.00     0.042 C 
BRANCH   6   7
ATOM      7  C   UNL     1     -12.983 -18.637  31.489  1.00  0.00     0.152 C 
ATOM      8  O   UNL     1     -13.668 -18.057  32.373  1.00  0.00    -0.295 OA
ATOM      9  C   UNL     1     -12.774 -20.118  31.589  1.00  0.00     0.093 C 
ENDBRANCH   6   7
ENDBRANCH   1   5
TORSDOF 4
ENDMDL
MODEL 7
REMARK VINA RESULT:    -4.121      3.127      4.195
REMARK INTER + INTRA:          -5.327
REMARK INTER:                  -5.123
REMARK INTRA:                  -0.204
REMARK UNBOUND:                -0.242
REMARK SMILES CCCCC=CC(C)=O
REMARK SMILES IDX 4 1 3 2 2 3 1 4 5 5 6 6 7 7 9 8 8 9
REMARK H PARENT
REMARK Flexibility Score: inf
ROOT
ATOM      1  C   UNL     1     -12.812 -19.800  30.182  1.00  0.00     0.027 C 
ENDROOT
BRANCH   1   2
ATOM      2  C   UNL     1     -13.235 -19.314  31.577  1.00  0.00     0.004 C 
BRANCH   2   3
ATOM      3  C   UNL     1     -12.539 -18.003  31.970  1.00  0.00    -0.003 C 
ATOM      4  C   UNL     1     -13.553 -16.884  32.182  1.00  0.00     0.004 C 
ENDBRANCH   2   3
ENDBRANCH   1   2
BRANCH   1   5
ATOM      5  C   UNL     1     -11.961 -18.792  29.460  1.00  0.00    -0.023 C 
ATOM      6  C   UNL     1     -12.399 -18.167  28.360  1.00  0.00     0.042 C 
BRANCH   6   7
ATOM      7  C   UNL     1     -11.598 -17.174  27.618  1.00  0.00     0.152 C 
ATOM      8  O   UNL     1     -11.146 -16.176  28.240  1.00  0.00    -0.295 OA
ATOM      9  C   UNL     1     -11.305 -17.309  26.154  1.00  0.00     0.093 C 
ENDBRANCH   6   7
ENDBRANCH   1   5
TORSDOF 4
ENDMDL
MODEL 8
REMARK VINA RESULT:    -4.006      3.796      4.332
REMARK INTER + INTRA:          -5.185
REMARK INTER:                  -4.937
REMARK INTRA:                  -0.248
REMARK UNBOUND:                -0.242
REMARK SMILES CCCCC=CC(C)=O
REMARK SMILES IDX 4 1 3 2 2 3 1 4 5 5 6 6 7 7 9 8 8 9
REMARK H PARENT
REMARK Flexibility Score: inf
ROOT
ATOM      1  C   UNL     1     -10.260 -15.868  30.404  1.00  0.00     0.027 C 
ENDROOT
BRANCH   1   2
ATOM      2  C   UNL     1     -11.053 -16.326  31.637  1.00  0.00     0.004 C 
BRANCH   2   3
ATOM      3  C   UNL     1     -12.569 -16.284  31.400  1.00  0.00    -0.003 C 
ATOM      4  C   UNL     1     -13.246 -17.541  31.937  1.00  0.00     0.004 C 
ENDBRANCH   2   3
ENDBRANCH   1   2
BRANCH   1   5
ATOM      5  C   UNL     1     -11.088 -15.897  29.149  1.00  0.00    -0.023 C 
ATOM      6  C   UNL     1     -10.963 -16.882  28.251  1.00  0.00     0.042 C 
BRANCH   6   7
ATOM      7  C   UNL     1     -11.752 -16.950  27.005  1.00  0.00     0.152 C 
ATOM      8  O   UNL     1     -11.186 -17.348  25.953  1.00  0.00    -0.295 OA
ATOM      9  C   UNL     1     -13.199 -16.561  26.948  1.00  0.00     0.093 C 
ENDBRANCH   6   7
ENDBRANCH   1   5
TORSDOF 4
ENDMDL
MODEL 9
REMARK VINA RESULT:    -3.995      3.389      3.893
REMARK INTER + INTRA:          -5.171
REMARK INTER:                  -4.909
REMARK INTRA:                  -0.262
REMARK UNBOUND:                -0.242
REMARK SMILES CCCCC=CC(C)=O
REMARK SMILES IDX 4 1 3 2 2 3 1 4 5 5 6 6 7 7 9 8 8 9
REMARK H PARENT
REMARK Flexibility Score: inf
ROOT
ATOM      1  C   UNL     1     -11.655 -16.728  27.661  1.00  0.00     0.027 C 
ENDROOT
BRANCH   1   2
ATOM      2  C   UNL     1     -11.569 -15.672  28.773  1.00  0.00     0.004 C 
BRANCH   2   3
ATOM      3  C   UNL     1     -10.170 -15.604  29.401  1.00  0.00    -0.003 C 
ATOM      4  C   UNL     1     -10.217 -15.932  30.889  1.00  0.00     0.004 C 
ENDBRANCH   2   3
ENDBRANCH   1   2
BRANCH   1   5
ATOM      5  C   UNL     1     -12.570 -17.866  28.021  1.00  0.00    -0.023 C 
ATOM      6  C   UNL     1     -12.407 -18.561  29.153  1.00  0.00     0.042 C 
BRANCH   6   7
ATOM      7  C   UNL     1     -13.279 -19.686  29.546  1.00  0.00     0.152 C 
ATOM      8  O   UNL     1     -13.313 -20.028  30.758  1.00  0.00    -0.295 OA
ATOM      9  C   UNL     1     -14.122 -20.435  28.557  1.00  0.00     0.093 C 
ENDBRANCH   6   7
ENDBRANCH   1   5
TORSDOF 4
ENDMDL
