MODEL 1
REMARK VINA RESULT:    -1.333      0.000      0.000
REMARK INTER + INTRA:          -1.485
REMARK INTER:                  -1.449
REMARK INTRA:                  -0.036
REMARK UNBOUND:                -0.036
REMARK SMILES O=C([O-])c1ccc(O)cc1
REMARK SMILES IDX 4 1 5 2 10 3 6 4 9 5 7 6 2 7 1 8 3 9 8 10
REMARK H PARENT 8 11
REMARK Flexibility Score: inf
ROOT
ATOM      1  C   UNL     1      10.907   1.853  18.546  1.00  0.00    -0.003 A 
ATOM      2  C   UNL     1      11.334   1.715  17.214  1.00  0.00     0.014 A 
ATOM      3  C   UNL     1       9.959   0.948  19.057  1.00  0.00     0.014 A 
ATOM      4  C   UNL     1      10.823   0.691  16.409  1.00  0.00     0.047 A 
ATOM      5  C   UNL     1       9.450  -0.074  18.249  1.00  0.00     0.047 A 
ATOM      6  C   UNL     1       9.881  -0.205  16.923  1.00  0.00     0.115 A 
ENDROOT
BRANCH   1   7
ATOM      7  C   UNL     1      11.450   2.938  19.395  1.00  0.00     0.071 C 
ATOM      8  O   UNL     1      11.176   2.986  20.624  1.00  0.00    -0.545 OA
ATOM      9  O   UNL     1      12.271   3.916  18.848  1.00  0.00    -0.545 OA
ENDBRANCH   1   7
BRANCH   6  10
ATOM     10  O   UNL     1       9.381  -1.219  16.110  1.00  0.00    -0.508 OA
ATOM     11  H   UNL     1       9.667  -2.184  16.232  1.00  0.00     0.293 HD
ENDBRANCH   6  10
TORSDOF 2
ENDMDL
MODEL 2
REMARK VINA RESULT:    -1.313      0.027      1.532
REMARK INTER + INTRA:          -1.464
REMARK INTER:                  -1.429
REMARK INTRA:                  -0.036
REMARK UNBOUND:                -0.036
REMARK SMILES O=C([O-])c1ccc(O)cc1
REMARK SMILES IDX 4 1 5 2 10 3 6 4 9 5 7 6 2 7 1 8 3 9 8 10
REMARK H PARENT 8 11
REMARK Flexibility Score: inf
ROOT
ATOM      1  C   UNL     1      10.902   1.849  18.527  1.00  0.00    -0.003 A 
ATOM      2  C   UNL     1       9.945   0.949  19.028  1.00  0.00     0.014 A 
ATOM      3  C   UNL     1      11.341   1.710  17.198  1.00  0.00     0.014 A 
ATOM      4  C   UNL     1       9.438  -0.069  18.215  1.00  0.00     0.047 A 
ATOM      5  C   UNL     1      10.831   0.690  16.387  1.00  0.00     0.047 A 
ATOM      6  C   UNL     1       9.878  -0.202  16.895  1.00  0.00     0.115 A 
ENDROOT
BRANCH   1   7
ATOM      7  C   UNL     1      11.438   2.925  19.390  1.00  0.00     0.071 C 
ATOM      8  O   UNL     1      11.141   2.973  20.613  1.00  0.00    -0.545 OA
ATOM      9  O   UNL     1      12.280   3.898  18.863  1.00  0.00    -0.545 OA
ENDBRANCH   1   7
BRANCH   6  10
ATOM     10  O   UNL     1       9.362  -1.221  16.097  1.00  0.00    -0.508 OA
ATOM     11  H   UNL     1       9.927  -1.676  15.390  1.00  0.00     0.293 HD
ENDBRANCH   6  10
TORSDOF 2
ENDMDL
MODEL 3
REMARK VINA RESULT:    -1.304      0.020      1.532
REMARK INTER + INTRA:          -1.455
REMARK INTER:                  -1.419
REMARK INTRA:                  -0.036
REMARK UNBOUND:                -0.036
REMARK SMILES O=C([O-])c1ccc(O)cc1
REMARK SMILES IDX 4 1 5 2 10 3 6 4 9 5 7 6 2 7 1 8 3 9 8 10
REMARK H PARENT 8 11
REMARK Flexibility Score: inf
ROOT
ATOM      1  C   UNL     1      10.914   1.859  18.535  1.00  0.00    -0.003 A 
ATOM      2  C   UNL     1       9.952   0.965  19.038  1.00  0.00     0.014 A 
ATOM      3  C   UNL     1      11.354   1.712  17.207  1.00  0.00     0.014 A 
ATOM      4  C   UNL     1       9.440  -0.053  18.228  1.00  0.00     0.047 A 
ATOM      5  C   UNL     1      10.839   0.692  16.400  1.00  0.00     0.047 A 
ATOM      6  C   UNL     1       9.881  -0.193  16.909  1.00  0.00     0.115 A 
ENDROOT
BRANCH   1   7
ATOM      7  C   UNL     1      11.455   2.935  19.395  1.00  0.00     0.071 C 
ATOM      8  O   UNL     1      11.173   2.977  20.622  1.00  0.00    -0.545 OA
ATOM      9  O   UNL     1      12.284   3.914  18.860  1.00  0.00    -0.545 OA
ENDBRANCH   1   7
BRANCH   6  10
ATOM     10  O   UNL     1       9.361  -1.212  16.114  1.00  0.00    -0.508 OA
ATOM     11  H   UNL     1       8.650  -1.028  15.417  1.00  0.00     0.293 HD
ENDBRANCH   6  10
TORSDOF 2
ENDMDL
MODEL 4
REMARK VINA RESULT:    -0.651      0.990      4.119
REMARK INTER + INTRA:          -0.744
REMARK INTER:                  -0.709
REMARK INTRA:                  -0.035
REMARK UNBOUND:                -0.036
REMARK SMILES O=C([O-])c1ccc(O)cc1
REMARK SMILES IDX 4 1 5 2 10 3 6 4 9 5 7 6 2 7 1 8 3 9 8 10
REMARK H PARENT 8 11
REMARK Flexibility Score: inf
ROOT
ATOM      1  C   UNL     1      10.517   0.643  17.154  1.00  0.00    -0.003 A 
ATOM      2  C   UNL     1      11.361   1.748  16.942  1.00  0.00     0.014 A 
ATOM      3  C   UNL     1       9.923   0.470  18.418  1.00  0.00     0.014 A 
ATOM      4  C   UNL     1      11.605   2.660  17.974  1.00  0.00     0.047 A 
ATOM      5  C   UNL     1      10.170   1.384  19.447  1.00  0.00     0.047 A 
ATOM      6  C   UNL     1      11.012   2.482  19.227  1.00  0.00     0.115 A 
ENDROOT
BRANCH   1   7
ATOM      7  C   UNL     1      10.261  -0.322  16.062  1.00  0.00     0.071 C 
ATOM      8  O   UNL     1       9.308  -1.141  16.142  1.00  0.00    -0.545 OA
ATOM      9  O   UNL     1      11.068  -0.335  14.930  1.00  0.00    -0.545 OA
ENDBRANCH   1   7
BRANCH   6  10
ATOM     10  O   UNL     1      11.264   3.400  20.244  1.00  0.00    -0.508 OA
ATOM     11  H   UNL     1      12.145   3.896  20.302  1.00  0.00     0.293 HD
ENDBRANCH   6  10
TORSDOF 2
ENDMDL
MODEL 5
REMARK VINA RESULT:    -0.605      0.986      4.385
REMARK INTER + INTRA:          -0.694
REMARK INTER:                  -0.658
REMARK INTRA:                  -0.035
REMARK UNBOUND:                -0.036
REMARK SMILES O=C([O-])c1ccc(O)cc1
REMARK SMILES IDX 4 1 5 2 10 3 6 4 9 5 7 6 2 7 1 8 3 9 8 10
REMARK H PARENT 8 11
REMARK Flexibility Score: inf
ROOT
ATOM      1  C   UNL     1      10.528   0.649  17.163  1.00  0.00    -0.003 A 
ATOM      2  C   UNL     1       9.926   0.480  18.423  1.00  0.00     0.014 A 
ATOM      3  C   UNL     1      11.388   1.743  16.958  1.00  0.00     0.014 A 
ATOM      4  C   UNL     1      10.180   1.388  19.455  1.00  0.00     0.047 A 
ATOM      5  C   UNL     1      11.639   2.650  17.993  1.00  0.00     0.047 A 
ATOM      6  C   UNL     1      11.036   2.474  19.245  1.00  0.00     0.115 A 
ENDROOT
BRANCH   1   7
ATOM      7  C   UNL     1      10.257  -0.313  16.071  1.00  0.00     0.071 C 
ATOM      8  O   UNL     1       9.295  -1.121  16.155  1.00  0.00    -0.545 OA
ATOM      9  O   UNL     1      11.061  -0.336  14.937  1.00  0.00    -0.545 OA
ENDBRANCH   1   7
BRANCH   6  10
ATOM     10  O   UNL     1      11.279   3.369  20.284  1.00  0.00    -0.508 OA
ATOM     11  H   UNL     1      10.530   3.899  20.712  1.00  0.00     0.293 HD
ENDBRANCH   6  10
TORSDOF 2
ENDMDL
