MODEL 1
REMARK VINA RESULT:     8.651      0.000      0.000
REMARK INTER + INTRA:          18.470
REMARK INTER:                  19.778
REMARK INTRA:                  -1.308
REMARK UNBOUND:                -1.308
REMARK SMILES CCCCCCCCCCCCCCCCCCCCCCCC(=O)[O-]
REMARK SMILES IDX 13 1 14 2 15 3 16 4 17 5 18 6 19 7 20 8 21 9 22 10 23 11
REMARK SMILES IDX 24 12 25 13 26 14 12 15 11 16 10 17 9 18 8 19 7 20 6 21 5 22
REMARK SMILES IDX 4 23 3 24 2 25 1 26
REMARK H PARENT
REMARK Flexibility Score: inf
ROOT
ATOM      1  C   UNL     1      14.610   9.885  22.515  1.00  0.00     0.000 C 
ENDROOT
BRANCH   1   2
ATOM      2  C   UNL     1      14.691   8.509  23.209  1.00  0.00     0.000 C 
BRANCH   2   3
ATOM      3  C   UNL     1      13.454   7.638  22.928  1.00  0.00     0.000 C 
BRANCH   3   4
ATOM      4  C   UNL     1      13.822   6.199  22.533  1.00  0.00     0.000 C 
BRANCH   4   5
ATOM      5  C   UNL     1      13.108   5.145  23.400  1.00  0.00     0.000 C 
BRANCH   5   6
ATOM      6  C   UNL     1      13.806   3.775  23.365  1.00  0.00     0.000 C 
BRANCH   6   7
ATOM      7  C   UNL     1      13.252   2.804  24.423  1.00  0.00     0.000 C 
BRANCH   7   8
ATOM      8  C   UNL     1      14.356   2.160  25.281  1.00  0.00     0.000 C 
BRANCH   8   9
ATOM      9  C   UNL     1      15.417   3.136  25.820  1.00  0.00     0.000 C 
BRANCH   9  10
ATOM     10  C   UNL     1      16.815   2.887  25.228  1.00  0.00     0.006 C 
BRANCH  10  11
ATOM     11  C   UNL     1      17.897   2.799  26.313  1.00  0.00     0.053 C 
BRANCH  11  12
ATOM     12  C   UNL     1      19.057   1.957  25.872  1.00  0.00     0.041 C 
ATOM     13  O   UNL     1      19.015   0.704  25.993  1.00  0.00    -0.550 OA
ATOM     14  O   UNL     1      20.195   2.560  25.352  1.00  0.00    -0.550 OA
ENDBRANCH  11  12
ENDBRANCH  10  11
ENDBRANCH   9  10
ENDBRANCH   8   9
ENDBRANCH   7   8
ENDBRANCH   6   7
ENDBRANCH   5   6
ENDBRANCH   4   5
ENDBRANCH   3   4
ENDBRANCH   2   3
ENDBRANCH   1   2
BRANCH   1  15
ATOM     15  C   UNL     1      14.536  11.071  23.492  1.00  0.00     0.000 C 
BRANCH  15  16
ATOM     16  C   UNL     1      13.173  11.784  23.462  1.00  0.00     0.000 C 
BRANCH  16  17
ATOM     17  C   UNL     1      12.421  11.569  22.139  1.00  0.00     0.000 C 
BRANCH  17  18
ATOM     18  C   UNL     1      11.084  12.331  22.087  1.00  0.00    -0.000 C 
BRANCH  18  19
ATOM     19  C   UNL     1      11.245  13.823  22.430  1.00  0.00    -0.000 C 
BRANCH  19  20
ATOM     20  C   UNL     1      11.357  14.706  21.175  1.00  0.00    -0.000 C 
BRANCH  20  21
ATOM     21  C   UNL     1      10.877  16.148  21.416  1.00  0.00    -0.000 C 
BRANCH  21  22
ATOM     22  C   UNL     1      11.987  17.156  21.775  1.00  0.00    -0.000 C 
BRANCH  22  23
ATOM     23  C   UNL     1      11.725  17.998  23.041  1.00  0.00    -0.000 C 
BRANCH  23  24
ATOM     24  C   UNL     1      12.306  17.412  24.341  1.00  0.00    -0.000 C 
BRANCH  24  25
ATOM     25  C   UNL     1      11.389  16.360  24.981  1.00  0.00    -0.003 C 
ATOM     26  C   UNL     1      11.896  15.956  26.363  1.00  0.00     0.004 C 
ENDBRANCH  24  25
ENDBRANCH  23  24
ENDBRANCH  22  23
ENDBRANCH  21  22
ENDBRANCH  20  21
ENDBRANCH  19  20
ENDBRANCH  18  19
ENDBRANCH  17  18
ENDBRANCH  16  17
ENDBRANCH  15  16
ENDBRANCH   1  15
TORSDOF 22
ENDMDL
MODEL 2
REMARK VINA RESULT:     9.495      0.851      1.906
REMARK INTER + INTRA:          20.398
REMARK INTER:                  21.693
REMARK INTRA:                  -1.295
REMARK UNBOUND:                -1.308
REMARK SMILES CCCCCCCCCCCCCCCCCCCCCCCC(=O)[O-]
REMARK SMILES IDX 13 1 14 2 15 3 16 4 17 5 18 6 19 7 20 8 21 9 22 10 23 11
REMARK SMILES IDX 24 12 25 13 26 14 12 15 11 16 10 17 9 18 8 19 7 20 6 21 5 22
REMARK SMILES IDX 4 23 3 24 2 25 1 26
REMARK H PARENT
REMARK Flexibility Score: inf
ROOT
ATOM      1  C   UNL     1      14.179   9.864  22.385  1.00  0.00     0.000 C 
ENDROOT
BRANCH   1   2
ATOM      2  C   UNL     1      14.841   8.643  23.056  1.00  0.00     0.000 C 
BRANCH   2   3
ATOM      3  C   UNL     1      13.807   7.629  23.575  1.00  0.00     0.000 C 
BRANCH   3   4
ATOM      4  C   UNL     1      13.937   6.253  22.901  1.00  0.00     0.000 C 
BRANCH   4   5
ATOM      5  C   UNL     1      12.939   5.222  23.461  1.00  0.00     0.000 C 
BRANCH   5   6
ATOM      6  C   UNL     1      13.446   3.776  23.334  1.00  0.00     0.000 C 
BRANCH   6   7
ATOM      7  C   UNL     1      13.385   3.011  24.669  1.00  0.00     0.000 C 
BRANCH   7   8
ATOM      8  C   UNL     1      14.662   2.199  24.953  1.00  0.00     0.000 C 
BRANCH   8   9
ATOM      9  C   UNL     1      15.981   2.969  24.761  1.00  0.00     0.000 C 
BRANCH   9  10
ATOM     10  C   UNL     1      17.033   2.631  25.832  1.00  0.00     0.006 C 
BRANCH  10  11
ATOM     11  C   UNL     1      18.040   1.580  25.345  1.00  0.00     0.053 C 
BRANCH  11  12
ATOM     12  C   UNL     1      19.311   1.621  26.139  1.00  0.00     0.041 C 
ATOM     13  O   UNL     1      19.321   1.243  27.341  1.00  0.00    -0.550 OA
ATOM     14  O   UNL     1      20.477   2.103  25.559  1.00  0.00    -0.550 OA
ENDBRANCH  11  12
ENDBRANCH  10  11
ENDBRANCH   9  10
ENDBRANCH   8   9
ENDBRANCH   7   8
ENDBRANCH   6   7
ENDBRANCH   5   6
ENDBRANCH   4   5
ENDBRANCH   3   4
ENDBRANCH   2   3
ENDBRANCH   1   2
BRANCH   1  15
ATOM     15  C   UNL     1      14.511  11.204  23.066  1.00  0.00     0.000 C 
BRANCH  15  16
ATOM     16  C   UNL     1      13.276  12.104  23.244  1.00  0.00     0.000 C 
BRANCH  16  17
ATOM     17  C   UNL     1      12.219  11.885  22.149  1.00  0.00     0.000 C 
BRANCH  17  18
ATOM     18  C   UNL     1      10.895  12.611  22.451  1.00  0.00    -0.000 C 
BRANCH  18  19
ATOM     19  C   UNL     1      11.116  14.003  23.069  1.00  0.00    -0.000 C 
BRANCH  19  20
ATOM     20  C   UNL     1      10.877  14.017  24.589  1.00  0.00    -0.000 C 
BRANCH  20  21
ATOM     21  C   UNL     1      11.846  14.950  25.336  1.00  0.00    -0.000 C 
BRANCH  21  22
ATOM     22  C   UNL     1      11.269  16.332  25.706  1.00  0.00    -0.000 C 
BRANCH  22  23
ATOM     23  C   UNL     1      12.210  17.526  25.445  1.00  0.00    -0.000 C 
BRANCH  23  24
ATOM     24  C   UNL     1      12.395  17.894  23.962  1.00  0.00    -0.000 C 
BRANCH  24  25
ATOM     25  C   UNL     1      11.060  18.074  23.223  1.00  0.00    -0.003 C 
ATOM     26  C   UNL     1      11.206  17.751  21.739  1.00  0.00     0.004 C 
ENDBRANCH  24  25
ENDBRANCH  23  24
ENDBRANCH  22  23
ENDBRANCH  21  22
ENDBRANCH  20  21
ENDBRANCH  19  20
ENDBRANCH  18  19
ENDBRANCH  17  18
ENDBRANCH  16  17
ENDBRANCH  15  16
ENDBRANCH   1  15
TORSDOF 22
ENDMDL
MODEL 3
REMARK VINA RESULT:     9.620      1.006      2.180
REMARK INTER + INTRA:          20.684
REMARK INTER:                  21.854
REMARK INTRA:                  -1.170
REMARK UNBOUND:                -1.308
REMARK SMILES CCCCCCCCCCCCCCCCCCCCCCCC(=O)[O-]
REMARK SMILES IDX 13 1 14 2 15 3 16 4 17 5 18 6 19 7 20 8 21 9 22 10 23 11
REMARK SMILES IDX 24 12 25 13 26 14 12 15 11 16 10 17 9 18 8 19 7 20 6 21 5 22
REMARK SMILES IDX 4 23 3 24 2 25 1 26
REMARK H PARENT
REMARK Flexibility Score: inf
ROOT
ATOM      1  C   UNL     1      14.316   9.712  22.665  1.00  0.00     0.000 C 
ENDROOT
BRANCH   1   2
ATOM      2  C   UNL     1      14.712   8.401  23.378  1.00  0.00     0.000 C 
BRANCH   2   3
ATOM      3  C   UNL     1      13.531   7.422  23.499  1.00  0.00     0.000 C 
BRANCH   3   4
ATOM      4  C   UNL     1      13.753   6.127  22.702  1.00  0.00     0.000 C 
BRANCH   4   5
ATOM      5  C   UNL     1      12.875   4.965  23.202  1.00  0.00     0.000 C 
BRANCH   5   6
ATOM      6  C   UNL     1      13.585   3.604  23.115  1.00  0.00     0.000 C 
BRANCH   6   7
ATOM      7  C   UNL     1      12.990   2.565  24.082  1.00  0.00     0.000 C 
BRANCH   7   8
ATOM      8  C   UNL     1      13.975   2.138  25.186  1.00  0.00     0.000 C 
BRANCH   8   9
ATOM      9  C   UNL     1      15.196   3.058  25.361  1.00  0.00     0.000 C 
BRANCH   9  10
ATOM     10  C   UNL     1      16.534   2.312  25.215  1.00  0.00     0.006 C 
BRANCH  10  11
ATOM     11  C   UNL     1      17.689   3.052  25.904  1.00  0.00     0.053 C 
BRANCH  11  12
ATOM     12  C   UNL     1      18.916   2.195  26.002  1.00  0.00     0.041 C 
ATOM     13  O   UNL     1      19.970   2.524  25.396  1.00  0.00    -0.550 OA
ATOM     14  O   UNL     1      18.885   1.019  26.740  1.00  0.00    -0.550 OA
ENDBRANCH  11  12
ENDBRANCH  10  11
ENDBRANCH   9  10
ENDBRANCH   8   9
ENDBRANCH   7   8
ENDBRANCH   6   7
ENDBRANCH   5   6
ENDBRANCH   4   5
ENDBRANCH   3   4
ENDBRANCH   2   3
ENDBRANCH   1   2
BRANCH   1  15
ATOM     15  C   UNL     1      14.432  10.963  23.554  1.00  0.00     0.000 C 
BRANCH  15  16
ATOM     16  C   UNL     1      13.313  11.985  23.292  1.00  0.00     0.000 C 
BRANCH  16  17
ATOM     17  C   UNL     1      12.510  11.672  22.019  1.00  0.00     0.000 C 
BRANCH  17  18
ATOM     18  C   UNL     1      11.059  12.182  22.094  1.00  0.00    -0.000 C 
BRANCH  18  19
ATOM     19  C   UNL     1      10.971  13.717  22.019  1.00  0.00    -0.000 C 
BRANCH  19  20
ATOM     20  C   UNL     1      11.113  14.382  23.400  1.00  0.00    -0.000 C 
BRANCH  20  21
ATOM     21  C   UNL     1      11.816  15.750  23.333  1.00  0.00    -0.000 C 
BRANCH  21  22
ATOM     22  C   UNL     1      10.876  16.961  23.170  1.00  0.00    -0.000 C 
BRANCH  22  23
ATOM     23  C   UNL     1      11.291  17.971  22.080  1.00  0.00    -0.000 C 
BRANCH  23  24
ATOM     24  C   UNL     1      10.981  17.532  20.637  1.00  0.00    -0.000 C 
BRANCH  24  25
ATOM     25  C   UNL     1      12.065  16.618  20.048  1.00  0.00    -0.003 C 
ATOM     26  C   UNL     1      11.508  15.770  18.907  1.00  0.00     0.004 C 
ENDBRANCH  24  25
ENDBRANCH  23  24
ENDBRANCH  22  23
ENDBRANCH  21  22
ENDBRANCH  20  21
ENDBRANCH  19  20
ENDBRANCH  18  19
ENDBRANCH  17  18
ENDBRANCH  16  17
ENDBRANCH  15  16
ENDBRANCH   1  15
TORSDOF 22
ENDMDL
MODEL 4
REMARK VINA RESULT:     9.752      2.700      6.468
REMARK INTER + INTRA:          20.986
REMARK INTER:                  22.240
REMARK INTRA:                  -1.255
REMARK UNBOUND:                -1.308
REMARK SMILES CCCCCCCCCCCCCCCCCCCCCCCC(=O)[O-]
REMARK SMILES IDX 13 1 14 2 15 3 16 4 17 5 18 6 19 7 20 8 21 9 22 10 23 11
REMARK SMILES IDX 24 12 25 13 26 14 12 15 11 16 10 17 9 18 8 19 7 20 6 21 5 22
REMARK SMILES IDX 4 23 3 24 2 25 1 26
REMARK H PARENT
REMARK Flexibility Score: inf
ROOT
ATOM      1  C   UNL     1      14.125   2.406  25.391  1.00  0.00     0.000 C 
ENDROOT
BRANCH   1   2
ATOM      2  C   UNL     1      15.049   3.612  25.665  1.00  0.00     0.000 C 
BRANCH   2   3
ATOM      3  C   UNL     1      16.390   3.190  26.290  1.00  0.00     0.000 C 
BRANCH   3   4
ATOM      4  C   UNL     1      17.422   2.754  25.238  1.00  0.00     0.000 C 
BRANCH   4   5
ATOM      5  C   UNL     1      17.743   1.249  25.309  1.00  0.00     0.000 C 
BRANCH   5   6
ATOM      6  C   UNL     1      19.141   0.913  24.765  1.00  0.00     0.000 C 
BRANCH   6   7
ATOM      7  C   UNL     1      20.260   1.663  25.508  1.00  0.00     0.000 C 
BRANCH   7   8
ATOM      8  C   UNL     1      20.583   1.050  26.883  1.00  0.00     0.000 C 
BRANCH   8   9
ATOM      9  C   UNL     1      19.372   0.862  27.814  1.00  0.00     0.000 C 
BRANCH   9  10
ATOM     10  C   UNL     1      19.507   1.639  29.135  1.00  0.00     0.006 C 
BRANCH  10  11
ATOM     11  C   UNL     1      18.958   3.068  29.027  1.00  0.00     0.053 C 
BRANCH  11  12
ATOM     12  C   UNL     1      18.693   3.664  30.378  1.00  0.00     0.041 C 
ATOM     13  O   UNL     1      19.526   3.513  31.312  1.00  0.00    -0.550 OA
ATOM     14  O   UNL     1      17.516   4.362  30.611  1.00  0.00    -0.550 OA
ENDBRANCH  11  12
ENDBRANCH  10  11
ENDBRANCH   9  10
ENDBRANCH   8   9
ENDBRANCH   7   8
ENDBRANCH   6   7
ENDBRANCH   5   6
ENDBRANCH   4   5
ENDBRANCH   3   4
ENDBRANCH   2   3
ENDBRANCH   1   2
BRANCH   1  15
ATOM     15  C   UNL     1      13.230   2.578  24.151  1.00  0.00     0.000 C 
BRANCH  15  16
ATOM     16  C   UNL     1      13.815   3.563  23.125  1.00  0.00     0.000 C 
BRANCH  16  17
ATOM     17  C   UNL     1      12.831   4.684  22.752  1.00  0.00     0.000 C 
BRANCH  17  18
ATOM     18  C   UNL     1      13.170   6.021  23.437  1.00  0.00    -0.000 C 
BRANCH  18  19
ATOM     19  C   UNL     1      14.104   6.898  22.584  1.00  0.00    -0.000 C 
BRANCH  19  20
ATOM     20  C   UNL     1      13.793   8.398  22.724  1.00  0.00    -0.000 C 
BRANCH  20  21
ATOM     21  C   UNL     1      15.003   9.215  23.213  1.00  0.00    -0.000 C 
BRANCH  21  22
ATOM     22  C   UNL     1      14.950  10.721  22.887  1.00  0.00    -0.000 C 
BRANCH  22  23
ATOM     23  C   UNL     1      13.637  11.431  23.278  1.00  0.00    -0.000 C 
BRANCH  23  24
ATOM     24  C   UNL     1      12.690  11.735  22.103  1.00  0.00    -0.000 C 
BRANCH  24  25
ATOM     25  C   UNL     1      11.448  12.529  22.531  1.00  0.00    -0.003 C 
ATOM     26  C   UNL     1      11.235  13.744  21.632  1.00  0.00     0.004 C 
ENDBRANCH  24  25
ENDBRANCH  23  24
ENDBRANCH  22  23
ENDBRANCH  21  22
ENDBRANCH  20  21
ENDBRANCH  19  20
ENDBRANCH  18  19
ENDBRANCH  17  18
ENDBRANCH  16  17
ENDBRANCH  15  16
ENDBRANCH   1  15
TORSDOF 22
ENDMDL
MODEL 5
REMARK VINA RESULT:    10.606      4.599     12.075
REMARK INTER + INTRA:          22.937
REMARK INTER:                  24.222
REMARK INTRA:                  -1.284
REMARK UNBOUND:                -1.308
REMARK SMILES CCCCCCCCCCCCCCCCCCCCCCCC(=O)[O-]
REMARK SMILES IDX 13 1 14 2 15 3 16 4 17 5 18 6 19 7 20 8 21 9 22 10 23 11
REMARK SMILES IDX 24 12 25 13 26 14 12 15 11 16 10 17 9 18 8 19 7 20 6 21 5 22
REMARK SMILES IDX 4 23 3 24 2 25 1 26
REMARK H PARENT
REMARK Flexibility Score: inf
ROOT
ATOM      1  C   UNL     1      13.994   2.305  25.542  1.00  0.00     0.000 C 
ENDROOT
BRANCH   1   2
ATOM      2  C   UNL     1      13.069   2.341  24.307  1.00  0.00     0.000 C 
BRANCH   2   3
ATOM      3  C   UNL     1      13.648   3.199  23.169  1.00  0.00     0.000 C 
BRANCH   3   4
ATOM      4  C   UNL     1      12.830   4.476  22.915  1.00  0.00     0.000 C 
BRANCH   4   5
ATOM      5  C   UNL     1      13.711   5.733  22.797  1.00  0.00     0.000 C 
BRANCH   5   6
ATOM      6  C   UNL     1      13.167   6.919  23.610  1.00  0.00     0.000 C 
BRANCH   6   7
ATOM      7  C   UNL     1      14.219   8.022  23.820  1.00  0.00     0.000 C 
BRANCH   7   8
ATOM      8  C   UNL     1      14.199   9.089  22.710  1.00  0.00     0.000 C 
BRANCH   8   9
ATOM      9  C   UNL     1      14.744  10.468  23.120  1.00  0.00     0.000 C 
BRANCH   9  10
ATOM     10  C   UNL     1      14.006  11.632  22.435  1.00  0.00     0.006 C 
BRANCH  10  11
ATOM     11  C   UNL     1      12.702  11.998  23.158  1.00  0.00     0.053 C 
BRANCH  11  12
ATOM     12  C   UNL     1      11.607  12.332  22.190  1.00  0.00     0.041 C 
ATOM     13  O   UNL     1      11.329  13.535  21.936  1.00  0.00    -0.550 OA
ATOM     14  O   UNL     1      10.875  11.316  21.591  1.00  0.00    -0.550 OA
ENDBRANCH  11  12
ENDBRANCH  10  11
ENDBRANCH   9  10
ENDBRANCH   8   9
ENDBRANCH   7   8
ENDBRANCH   6   7
ENDBRANCH   5   6
ENDBRANCH   4   5
ENDBRANCH   3   4
ENDBRANCH   2   3
ENDBRANCH   1   2
BRANCH   1  15
ATOM     15  C   UNL     1      14.948   3.508  25.641  1.00  0.00     0.000 C 
BRANCH  15  16
ATOM     16  C   UNL     1      16.343   3.120  26.160  1.00  0.00     0.000 C 
BRANCH  16  17
ATOM     17  C   UNL     1      17.310   2.731  25.029  1.00  0.00     0.000 C 
BRANCH  17  18
ATOM     18  C   UNL     1      17.817   1.283  25.155  1.00  0.00    -0.000 C 
BRANCH  18  19
ATOM     19  C   UNL     1      19.328   1.165  24.894  1.00  0.00    -0.000 C 
BRANCH  19  20
ATOM     20  C   UNL     1      20.160   1.284  26.183  1.00  0.00    -0.000 C 
BRANCH  20  21
ATOM     21  C   UNL     1      19.302   1.612  27.418  1.00  0.00    -0.000 C 
BRANCH  21  22
ATOM     22  C   UNL     1      19.826   1.039  28.750  1.00  0.00    -0.000 C 
BRANCH  22  23
ATOM     23  C   UNL     1      19.713   1.987  29.962  1.00  0.00    -0.000 C 
BRANCH  23  24
ATOM     24  C   UNL     1      19.005   3.324  29.674  1.00  0.00    -0.000 C 
BRANCH  24  25
ATOM     25  C   UNL     1      18.364   3.939  30.927  1.00  0.00    -0.003 C 
ATOM     26  C   UNL     1      17.088   4.700  30.574  1.00  0.00     0.004 C 
ENDBRANCH  24  25
ENDBRANCH  23  24
ENDBRANCH  22  23
ENDBRANCH  21  22
ENDBRANCH  20  21
ENDBRANCH  19  20
ENDBRANCH  18  19
ENDBRANCH  17  18
ENDBRANCH  16  17
ENDBRANCH  15  16
ENDBRANCH   1  15
TORSDOF 22
ENDMDL
MODEL 6
REMARK VINA RESULT:    10.689      4.997     11.728
REMARK INTER + INTRA:          23.127
REMARK INTER:                  24.523
REMARK INTRA:                  -1.396
REMARK UNBOUND:                -1.308
REMARK SMILES CCCCCCCCCCCCCCCCCCCCCCCC(=O)[O-]
REMARK SMILES IDX 13 1 14 2 15 3 16 4 17 5 18 6 19 7 20 8 21 9 22 10 23 11
REMARK SMILES IDX 24 12 25 13 26 14 12 15 11 16 10 17 9 18 8 19 7 20 6 21 5 22
REMARK SMILES IDX 4 23 3 24 2 25 1 26
REMARK H PARENT
REMARK Flexibility Score: inf
ROOT
ATOM      1  C   UNL     1      16.575   3.325  26.245  1.00  0.00     0.000 C 
ENDROOT
BRANCH   1   2
ATOM      2  C   UNL     1      15.078   3.599  25.989  1.00  0.00     0.000 C 
BRANCH   2   3
ATOM      3  C   UNL     1      14.274   2.303  25.784  1.00  0.00     0.000 C 
BRANCH   3   4
ATOM      4  C   UNL     1      13.235   2.424  24.657  1.00  0.00     0.000 C 
BRANCH   4   5
ATOM      5  C   UNL     1      13.805   3.098  23.395  1.00  0.00     0.000 C 
BRANCH   5   6
ATOM      6  C   UNL     1      12.840   4.126  22.784  1.00  0.00     0.000 C 
BRANCH   6   7
ATOM      7  C   UNL     1      12.995   5.525  23.407  1.00  0.00     0.000 C 
BRANCH   7   8
ATOM      8  C   UNL     1      13.766   6.503  22.501  1.00  0.00     0.000 C 
BRANCH   8   9
ATOM      9  C   UNL     1      13.832   7.953  23.012  1.00  0.00     0.000 C 
BRANCH   9  10
ATOM     10  C   UNL     1      14.817   8.825  22.213  1.00  0.00     0.006 C 
BRANCH  10  11
ATOM     11  C   UNL     1      15.667   9.721  23.124  1.00  0.00     0.053 C 
BRANCH  11  12
ATOM     12  C   UNL     1      15.214  11.150  23.075  1.00  0.00     0.041 C 
ATOM     13  O   UNL     1      14.041  11.431  22.711  1.00  0.00    -0.550 OA
ATOM     14  O   UNL     1      16.096  12.170  23.404  1.00  0.00    -0.550 OA
ENDBRANCH  11  12
ENDBRANCH  10  11
ENDBRANCH   9  10
ENDBRANCH   8   9
ENDBRANCH   7   8
ENDBRANCH   6   7
ENDBRANCH   5   6
ENDBRANCH   4   5
ENDBRANCH   3   4
ENDBRANCH   2   3
ENDBRANCH   1   2
BRANCH   1  15
ATOM     15  C   UNL     1      17.328   2.786  25.017  1.00  0.00     0.000 C 
BRANCH  15  16
ATOM     16  C   UNL     1      17.644   1.284  25.123  1.00  0.00     0.000 C 
BRANCH  16  17
ATOM     17  C   UNL     1      19.041   0.933  24.586  1.00  0.00     0.000 C 
BRANCH  17  18
ATOM     18  C   UNL     1      20.139   1.859  25.142  1.00  0.00    -0.000 C 
BRANCH  18  19
ATOM     19  C   UNL     1      21.325   1.075  25.730  1.00  0.00    -0.000 C 
BRANCH  19  20
ATOM     20  C   UNL     1      21.057   0.591  27.166  1.00  0.00    -0.000 C 
BRANCH  20  21
ATOM     21  C   UNL     1      19.617   0.872  27.630  1.00  0.00    -0.000 C 
BRANCH  21  22
ATOM     22  C   UNL     1      19.490   1.447  29.056  1.00  0.00    -0.000 C 
BRANCH  22  23
ATOM     23  C   UNL     1      18.954   2.891  29.135  1.00  0.00    -0.000 C 
BRANCH  23  24
ATOM     24  C   UNL     1      19.177   3.591  30.488  1.00  0.00    -0.000 C 
BRANCH  24  25
ATOM     25  C   UNL     1      17.902   4.251  31.033  1.00  0.00    -0.003 C 
ATOM     26  C   UNL     1      16.951   4.629  29.899  1.00  0.00     0.004 C 
ENDBRANCH  24  25
ENDBRANCH  23  24
ENDBRANCH  22  23
ENDBRANCH  21  22
ENDBRANCH  20  21
ENDBRANCH  19  20
ENDBRANCH  18  19
ENDBRANCH  17  18
ENDBRANCH  16  17
ENDBRANCH  15  16
ENDBRANCH   1  15
TORSDOF 22
ENDMDL
MODEL 7
REMARK VINA RESULT:    10.952      3.910      7.952
REMARK INTER + INTRA:          23.729
REMARK INTER:                  25.415
REMARK INTRA:                  -1.686
REMARK UNBOUND:                -1.308
REMARK SMILES CCCCCCCCCCCCCCCCCCCCCCCC(=O)[O-]
REMARK SMILES IDX 13 1 14 2 15 3 16 4 17 5 18 6 19 7 20 8 21 9 22 10 23 11
REMARK SMILES IDX 24 12 25 13 26 14 12 15 11 16 10 17 9 18 8 19 7 20 6 21 5 22
REMARK SMILES IDX 4 23 3 24 2 25 1 26
REMARK H PARENT
REMARK Flexibility Score: inf
ROOT
ATOM      1  C   UNL     1      15.513   4.008  27.480  1.00  0.00     0.000 C 
ENDROOT
BRANCH   1   2
ATOM      2  C   UNL     1      16.220   5.037  28.389  1.00  0.00     0.000 C 
BRANCH   2   3
ATOM      3  C   UNL     1      15.734   4.960  29.847  1.00  0.00     0.000 C 
BRANCH   3   4
ATOM      4  C   UNL     1      16.858   4.584  30.825  1.00  0.00     0.000 C 
BRANCH   4   5
ATOM      5  C   UNL     1      18.248   4.590  30.163  1.00  0.00     0.000 C 
BRANCH   5   6
ATOM      6  C   UNL     1      19.192   3.529  30.752  1.00  0.00     0.000 C 
BRANCH   6   7
ATOM      7  C   UNL     1      19.249   2.251  29.896  1.00  0.00     0.000 C 
BRANCH   7   8
ATOM      8  C   UNL     1      19.105   2.532  28.389  1.00  0.00     0.000 C 
BRANCH   8   9
ATOM      9  C   UNL     1      19.209   1.293  27.481  1.00  0.00     0.000 C 
BRANCH   9  10
ATOM     10  C   UNL     1      18.519   1.489  26.120  1.00  0.00     0.006 C 
BRANCH  10  11
ATOM     11  C   UNL     1      19.438   1.127  24.946  1.00  0.00     0.053 C 
BRANCH  11  12
ATOM     12  C   UNL     1      20.846   0.880  25.400  1.00  0.00     0.041 C 
ATOM     13  O   UNL     1      21.662   1.836  25.485  1.00  0.00    -0.550 OA
ATOM     14  O   UNL     1      21.263  -0.410  25.703  1.00  0.00    -0.550 OA
ENDBRANCH  11  12
ENDBRANCH  10  11
ENDBRANCH   9  10
ENDBRANCH   8   9
ENDBRANCH   7   8
ENDBRANCH   6   7
ENDBRANCH   5   6
ENDBRANCH   4   5
ENDBRANCH   3   4
ENDBRANCH   2   3
ENDBRANCH   1   2
BRANCH   1  15
ATOM     15  C   UNL     1      16.151   3.867  26.087  1.00  0.00     0.000 C 
BRANCH  15  16
ATOM     16  C   UNL     1      15.513   2.746  25.250  1.00  0.00     0.000 C 
BRANCH  16  17
ATOM     17  C   UNL     1      14.046   2.485  25.629  1.00  0.00     0.000 C 
BRANCH  17  18
ATOM     18  C   UNL     1      13.109   2.491  24.408  1.00  0.00    -0.000 C 
BRANCH  18  19
ATOM     19  C   UNL     1      13.733   3.199  23.192  1.00  0.00    -0.000 C 
BRANCH  19  20
ATOM     20  C   UNL     1      12.898   4.401  22.718  1.00  0.00    -0.000 C 
BRANCH  20  21
ATOM     21  C   UNL     1      13.179   5.679  23.529  1.00  0.00    -0.000 C 
BRANCH  21  22
ATOM     22  C   UNL     1      13.726   6.866  22.710  1.00  0.00    -0.000 C 
BRANCH  22  23
ATOM     23  C   UNL     1      14.261   8.047  23.545  1.00  0.00    -0.000 C 
BRANCH  23  24
ATOM     24  C   UNL     1      14.938   9.163  22.729  1.00  0.00    -0.000 C 
BRANCH  24  25
ATOM     25  C   UNL     1      14.618  10.567  23.262  1.00  0.00    -0.003 C 
ATOM     26  C   UNL     1      15.813  11.503  23.098  1.00  0.00     0.004 C 
ENDBRANCH  24  25
ENDBRANCH  23  24
ENDBRANCH  22  23
ENDBRANCH  21  22
ENDBRANCH  20  21
ENDBRANCH  19  20
ENDBRANCH  18  19
ENDBRANCH  17  18
ENDBRANCH  16  17
ENDBRANCH  15  16
ENDBRANCH   1  15
TORSDOF 22
ENDMDL
MODEL 8
REMARK VINA RESULT:    11.066      1.708      3.286
REMARK INTER + INTRA:          23.991
REMARK INTER:                  24.236
REMARK INTRA:                  -0.245
REMARK UNBOUND:                -1.308
REMARK SMILES CCCCCCCCCCCCCCCCCCCCCCCC(=O)[O-]
REMARK SMILES IDX 13 1 14 2 15 3 16 4 17 5 18 6 19 7 20 8 21 9 22 10 23 11
REMARK SMILES IDX 24 12 25 13 26 14 12 15 11 16 10 17 9 18 8 19 7 20 6 21 5 22
REMARK SMILES IDX 4 23 3 24 2 25 1 26
REMARK H PARENT
REMARK Flexibility Score: inf
ROOT
ATOM      1  C   UNL     1      13.998   6.406  22.995  1.00  0.00     0.000 C 
ENDROOT
BRANCH   1   2
ATOM      2  C   UNL     1      12.913   5.401  22.556  1.00  0.00     0.000 C 
BRANCH   2   3
ATOM      3  C   UNL     1      13.150   3.995  23.133  1.00  0.00     0.000 C 
BRANCH   3   4
ATOM      4  C   UNL     1      13.878   4.026  24.487  1.00  0.00     0.000 C 
BRANCH   4   5
ATOM      5  C   UNL     1      13.727   2.711  25.273  1.00  0.00     0.000 C 
BRANCH   5   6
ATOM      6  C   UNL     1      15.022   1.883  25.302  1.00  0.00     0.000 C 
BRANCH   6   7
ATOM      7  C   UNL     1      16.266   2.721  24.958  1.00  0.00     0.000 C 
BRANCH   7   8
ATOM      8  C   UNL     1      17.491   2.355  25.815  1.00  0.00     0.000 C 
BRANCH   8   9
ATOM      9  C   UNL     1      18.207   1.054  25.408  1.00  0.00     0.000 C 
BRANCH   9  10
ATOM     10  C   UNL     1      19.740   1.172  25.464  1.00  0.00     0.006 C 
BRANCH  10  11
ATOM     11  C   UNL     1      20.214   2.022  26.651  1.00  0.00     0.053 C 
BRANCH  11  12
ATOM     12  C   UNL     1      19.516   1.637  27.921  1.00  0.00     0.041 C 
ATOM     13  O   UNL     1      19.493   0.434  28.294  1.00  0.00    -0.550 OA
ATOM     14  O   UNL     1      18.866   2.605  28.677  1.00  0.00    -0.550 OA
ENDBRANCH  11  12
ENDBRANCH  10  11
ENDBRANCH   9  10
ENDBRANCH   8   9
ENDBRANCH   7   8
ENDBRANCH   6   7
ENDBRANCH   5   6
ENDBRANCH   4   5
ENDBRANCH   3   4
ENDBRANCH   2   3
ENDBRANCH   1   2
BRANCH   1  15
ATOM     15  C   UNL     1      13.501   7.859  23.084  1.00  0.00     0.000 C 
BRANCH  15  16
ATOM     16  C   UNL     1      14.427   8.851  22.360  1.00  0.00     0.000 C 
BRANCH  16  17
ATOM     17  C   UNL     1      14.844  10.033  23.251  1.00  0.00     0.000 C 
BRANCH  17  18
ATOM     18  C   UNL     1      14.235  11.368  22.787  1.00  0.00    -0.000 C 
BRANCH  18  19
ATOM     19  C   UNL     1      12.712  11.280  22.582  1.00  0.00    -0.000 C 
BRANCH  19  20
ATOM     20  C   UNL     1      12.014  12.639  22.767  1.00  0.00    -0.000 C 
BRANCH  20  21
ATOM     21  C   UNL     1      11.322  13.134  21.484  1.00  0.00    -0.000 C 
BRANCH  21  22
ATOM     22  C   UNL     1      10.881  14.611  21.507  1.00  0.00    -0.000 C 
BRANCH  22  23
ATOM     23  C   UNL     1      11.550  15.512  20.450  1.00  0.00    -0.000 C 
BRANCH  23  24
ATOM     24  C   UNL     1      11.005  16.951  20.385  1.00  0.00    -0.000 C 
BRANCH  24  25
ATOM     25  C   UNL     1      11.202  17.721  21.699  1.00  0.00    -0.003 C 
ATOM     26  C   UNL     1      12.675  17.758  22.098  1.00  0.00     0.004 C 
ENDBRANCH  24  25
ENDBRANCH  23  24
ENDBRANCH  22  23
ENDBRANCH  21  22
ENDBRANCH  20  21
ENDBRANCH  19  20
ENDBRANCH  18  19
ENDBRANCH  17  18
ENDBRANCH  16  17
ENDBRANCH  15  16
ENDBRANCH   1  15
TORSDOF 22
ENDMDL
MODEL 9
REMARK VINA RESULT:    11.103      3.736      7.761
REMARK INTER + INTRA:          24.075
REMARK INTER:                  24.793
REMARK INTRA:                  -0.718
REMARK UNBOUND:                -1.308
REMARK SMILES CCCCCCCCCCCCCCCCCCCCCCCC(=O)[O-]
REMARK SMILES IDX 13 1 14 2 15 3 16 4 17 5 18 6 19 7 20 8 21 9 22 10 23 11
REMARK SMILES IDX 24 12 25 13 26 14 12 15 11 16 10 17 9 18 8 19 7 20 6 21 5 22
REMARK SMILES IDX 4 23 3 24 2 25 1 26
REMARK H PARENT
REMARK Flexibility Score: inf
ROOT
ATOM      1  C   UNL     1      16.168   3.200  26.145  1.00  0.00     0.000 C 
ENDROOT
BRANCH   1   2
ATOM      2  C   UNL     1      17.045   2.730  24.965  1.00  0.00     0.000 C 
BRANCH   2   3
ATOM      3  C   UNL     1      17.530   1.280  25.139  1.00  0.00     0.000 C 
BRANCH   3   4
ATOM      4  C   UNL     1      18.931   1.051  24.550  1.00  0.00     0.000 C 
BRANCH   4   5
ATOM      5  C   UNL     1      19.997   1.967  25.181  1.00  0.00     0.000 C 
BRANCH   5   6
ATOM      6  C   UNL     1      21.177   1.183  25.778  1.00  0.00     0.000 C 
BRANCH   6   7
ATOM      7  C   UNL     1      20.832   0.537  27.131  1.00  0.00     0.000 C 
BRANCH   7   8
ATOM      8  C   UNL     1      19.380   0.802  27.569  1.00  0.00     0.000 C 
BRANCH   8   9
ATOM      9  C   UNL     1      19.123   2.196  28.169  1.00  0.00     0.000 C 
BRANCH   9  10
ATOM     10  C   UNL     1      19.447   2.271  29.671  1.00  0.00     0.006 C 
BRANCH  10  11
ATOM     11  C   UNL     1      19.396   3.709  30.205  1.00  0.00     0.053 C 
BRANCH  11  12
ATOM     12  C   UNL     1      17.992   4.136  30.514  1.00  0.00     0.041 C 
ATOM     13  O   UNL     1      17.528   3.998  31.677  1.00  0.00    -0.550 OA
ATOM     14  O   UNL     1      17.189   4.661  29.510  1.00  0.00    -0.550 OA
ENDBRANCH  11  12
ENDBRANCH  10  11
ENDBRANCH   9  10
ENDBRANCH   8   9
ENDBRANCH   7   8
ENDBRANCH   6   7
ENDBRANCH   5   6
ENDBRANCH   4   5
ENDBRANCH   3   4
ENDBRANCH   2   3
ENDBRANCH   1   2
BRANCH   1  15
ATOM     15  C   UNL     1      14.721   3.539  25.748  1.00  0.00     0.000 C 
BRANCH  15  16
ATOM     16  C   UNL     1      13.905   2.296  25.354  1.00  0.00     0.000 C 
BRANCH  16  17
ATOM     17  C   UNL     1      13.186   2.461  24.005  1.00  0.00     0.000 C 
BRANCH  17  18
ATOM     18  C   UNL     1      13.795   3.584  23.144  1.00  0.00    -0.000 C 
BRANCH  18  19
ATOM     19  C   UNL     1      12.771   4.678  22.796  1.00  0.00    -0.000 C 
BRANCH  19  20
ATOM     20  C   UNL     1      13.393   6.085  22.784  1.00  0.00    -0.000 C 
BRANCH  20  21
ATOM     21  C   UNL     1      13.659   6.632  24.198  1.00  0.00    -0.000 C 
BRANCH  21  22
ATOM     22  C   UNL     1      14.037   8.126  24.261  1.00  0.00    -0.000 C 
BRANCH  22  23
ATOM     23  C   UNL     1      14.586   8.719  22.947  1.00  0.00    -0.000 C 
BRANCH  23  24
ATOM     24  C   UNL     1      15.840   9.598  23.108  1.00  0.00    -0.000 C 
BRANCH  24  25
ATOM     25  C   UNL     1      15.523  11.100  23.066  1.00  0.00    -0.003 C 
ATOM     26  C   UNL     1      14.025  11.349  23.220  1.00  0.00     0.004 C 
ENDBRANCH  24  25
ENDBRANCH  23  24
ENDBRANCH  22  23
ENDBRANCH  21  22
ENDBRANCH  20  21
ENDBRANCH  19  20
ENDBRANCH  18  19
ENDBRANCH  17  18
ENDBRANCH  16  17
ENDBRANCH  15  16
ENDBRANCH   1  15
TORSDOF 22
ENDMDL
