MODEL 1
REMARK VINA RESULT:    -5.072      0.000      0.000
REMARK INTER + INTRA:          -5.593
REMARK INTER:                  -5.517
REMARK INTRA:                  -0.076
REMARK UNBOUND:                -0.076
REMARK SMILES CCc1cccc(O)c1
REMARK SMILES IDX 3 1 9 2 7 3 6 4 5 5 4 6 2 7 1 8 8 9
REMARK H PARENT 8 10
REMARK Flexibility Score: inf
ROOT
ATOM      1  C   UNL     1     116.610  52.215  -2.015  1.00  0.00    -0.045 A 
ATOM      2  C   UNL     1     117.311  53.418  -2.201  1.00  0.00     0.049 A 
ATOM      3  C   UNL     1     118.186  53.567  -3.283  1.00  0.00     0.115 A 
ATOM      4  C   UNL     1     118.359  52.512  -4.189  1.00  0.00     0.046 A 
ATOM      5  C   UNL     1     117.654  51.318  -4.016  1.00  0.00     0.004 A 
ATOM      6  C   UNL     1     116.779  51.169  -2.937  1.00  0.00     0.004 A 
ENDROOT
BRANCH   1   7
ATOM      7  C   UNL     1     115.643  52.068  -0.870  1.00  0.00     0.032 C 
ATOM      8  C   UNL     1     114.840  50.779  -1.003  1.00  0.00     0.009 C 
ENDBRANCH   1   7
BRANCH   3   9
ATOM      9  O   UNL     1     118.878  54.765  -3.447  1.00  0.00    -0.508 OA
ATOM     10  H   UNL     1     119.888  54.806  -3.381  1.00  0.00     0.293 HD
ENDBRANCH   3   9
TORSDOF 2
ENDMDL
MODEL 2
REMARK VINA RESULT:    -4.922      2.095      3.795
REMARK INTER + INTRA:          -5.430
REMARK INTER:                  -5.378
REMARK INTRA:                  -0.051
REMARK UNBOUND:                -0.076
REMARK SMILES CCc1cccc(O)c1
REMARK SMILES IDX 3 1 9 2 7 3 6 4 5 5 4 6 2 7 1 8 8 9
REMARK H PARENT 8 10
REMARK Flexibility Score: inf
ROOT
ATOM      1  C   UNL     1     116.876  51.720  -2.594  1.00  0.00    -0.045 A 
ATOM      2  C   UNL     1     116.324  52.505  -1.568  1.00  0.00     0.049 A 
ATOM      3  C   UNL     1     115.285  52.005  -0.775  1.00  0.00     0.115 A 
ATOM      4  C   UNL     1     114.797  50.710  -1.003  1.00  0.00     0.046 A 
ATOM      5  C   UNL     1     115.351  49.921  -2.014  1.00  0.00     0.004 A 
ATOM      6  C   UNL     1     116.390  50.419  -2.804  1.00  0.00     0.004 A 
ENDROOT
BRANCH   1   7
ATOM      7  C   UNL     1     118.017  52.247  -3.423  1.00  0.00     0.032 C 
ATOM      8  C   UNL     1     118.373  53.672  -3.009  1.00  0.00     0.009 C 
ENDBRANCH   1   7
BRANCH   3   9
ATOM      9  O   UNL     1     114.746  52.799   0.233  1.00  0.00    -0.508 OA
ATOM     10  H   UNL     1     115.318  53.155   0.990  1.00  0.00     0.293 HD
ENDBRANCH   3   9
TORSDOF 2
ENDMDL
MODEL 3
REMARK VINA RESULT:    -4.809      1.603      2.271
REMARK INTER + INTRA:          -5.306
REMARK INTER:                  -5.256
REMARK INTRA:                  -0.051
REMARK UNBOUND:                -0.076
REMARK SMILES CCc1cccc(O)c1
REMARK SMILES IDX 3 1 9 2 7 3 6 4 5 5 4 6 2 7 1 8 8 9
REMARK H PARENT 8 10
REMARK Flexibility Score: inf
ROOT
ATOM      1  C   UNL     1     116.451  52.002  -2.009  1.00  0.00    -0.045 A 
ATOM      2  C   UNL     1     116.773  51.040  -2.981  1.00  0.00     0.049 A 
ATOM      3  C   UNL     1     117.635  51.362  -4.035  1.00  0.00     0.115 A 
ATOM      4  C   UNL     1     118.185  52.649  -4.118  1.00  0.00     0.046 A 
ATOM      5  C   UNL     1     117.878  53.605  -3.147  1.00  0.00     0.004 A 
ATOM      6  C   UNL     1     117.019  53.284  -2.093  1.00  0.00     0.004 A 
ENDROOT
BRANCH   1   7
ATOM      7  C   UNL     1     115.551  51.645  -0.856  1.00  0.00     0.032 C 
ATOM      8  C   UNL     1     114.820  50.334  -1.128  1.00  0.00     0.009 C 
ENDBRANCH   1   7
BRANCH   3   9
ATOM      9  O   UNL     1     117.939  50.397  -4.993  1.00  0.00    -0.508 OA
ATOM     10  H   UNL     1     117.395  49.547  -5.079  1.00  0.00     0.293 HD
ENDBRANCH   3   9
TORSDOF 2
ENDMDL
MODEL 4
REMARK VINA RESULT:    -4.488      2.236      4.190
REMARK INTER + INTRA:          -4.957
REMARK INTER:                  -4.887
REMARK INTRA:                  -0.071
REMARK UNBOUND:                -0.076
REMARK SMILES CCc1cccc(O)c1
REMARK SMILES IDX 3 1 9 2 7 3 6 4 5 5 4 6 2 7 1 8 8 9
REMARK H PARENT 8 10
REMARK Flexibility Score: inf
ROOT
ATOM      1  C   UNL     1     117.801  52.018  -3.943  1.00  0.00    -0.045 A 
ATOM      2  C   UNL     1     117.034  50.917  -3.527  1.00  0.00     0.049 A 
ATOM      3  C   UNL     1     116.290  50.979  -2.343  1.00  0.00     0.115 A 
ATOM      4  C   UNL     1     116.304  52.150  -1.572  1.00  0.00     0.046 A 
ATOM      5  C   UNL     1     117.055  53.253  -1.988  1.00  0.00     0.004 A 
ATOM      6  C   UNL     1     117.796  53.192  -3.171  1.00  0.00     0.004 A 
ENDROOT
BRANCH   1   7
ATOM      7  C   UNL     1     118.573  51.961  -5.233  1.00  0.00     0.032 C 
ATOM      8  C   UNL     1     118.406  53.257  -6.021  1.00  0.00     0.009 C 
ENDBRANCH   1   7
BRANCH   3   9
ATOM      9  O   UNL     1     115.541  49.875  -1.943  1.00  0.00    -0.508 OA
ATOM     10  H   UNL     1     115.589  49.518  -0.996  1.00  0.00     0.293 HD
ENDBRANCH   3   9
TORSDOF 2
ENDMDL
MODEL 5
REMARK VINA RESULT:    -4.245      2.171      3.731
REMARK INTER + INTRA:          -4.693
REMARK INTER:                  -4.617
REMARK INTRA:                  -0.076
REMARK UNBOUND:                -0.076
REMARK SMILES CCc1cccc(O)c1
REMARK SMILES IDX 3 1 9 2 7 3 6 4 5 5 4 6 2 7 1 8 8 9
REMARK H PARENT 8 10
REMARK Flexibility Score: inf
ROOT
ATOM      1  C   UNL     1     117.694  52.758  -2.251  1.00  0.00    -0.045 A 
ATOM      2  C   UNL     1     117.843  52.878  -0.859  1.00  0.00     0.049 A 
ATOM      3  C   UNL     1     117.089  52.076   0.005  1.00  0.00     0.115 A 
ATOM      4  C   UNL     1     116.185  51.143  -0.522  1.00  0.00     0.046 A 
ATOM      5  C   UNL     1     116.042  51.010  -1.906  1.00  0.00     0.004 A 
ATOM      6  C   UNL     1     116.796  51.810  -2.769  1.00  0.00     0.004 A 
ENDROOT
BRANCH   1   7
ATOM      7  C   UNL     1     118.530  53.598  -3.179  1.00  0.00     0.032 C 
ATOM      8  C   UNL     1     118.314  53.178  -4.630  1.00  0.00     0.009 C 
ENDBRANCH   1   7
BRANCH   3   9
ATOM      9  O   UNL     1     117.245  52.213   1.382  1.00  0.00    -0.508 OA
ATOM     10  H   UNL     1     118.008  52.750   1.777  1.00  0.00     0.293 HD
ENDBRANCH   3   9
TORSDOF 2
ENDMDL
MODEL 6
REMARK VINA RESULT:    -4.241      0.948      3.098
REMARK INTER + INTRA:          -4.689
REMARK INTER:                  -4.638
REMARK INTRA:                  -0.052
REMARK UNBOUND:                -0.076
REMARK SMILES CCc1cccc(O)c1
REMARK SMILES IDX 3 1 9 2 7 3 6 4 5 5 4 6 2 7 1 8 8 9
REMARK H PARENT 8 10
REMARK Flexibility Score: inf
ROOT
ATOM      1  C   UNL     1     117.427  51.336  -3.987  1.00  0.00    -0.045 A 
ATOM      2  C   UNL     1     118.165  52.515  -4.187  1.00  0.00     0.049 A 
ATOM      3  C   UNL     1     118.103  53.556  -3.253  1.00  0.00     0.115 A 
ATOM      4  C   UNL     1     117.307  53.418  -2.107  1.00  0.00     0.046 A 
ATOM      5  C   UNL     1     116.581  52.242  -1.897  1.00  0.00     0.004 A 
ATOM      6  C   UNL     1     116.643  51.202  -2.829  1.00  0.00     0.004 A 
ENDROOT
BRANCH   1   7
ATOM      7  C   UNL     1     117.521  50.205  -4.975  1.00  0.00     0.032 C 
ATOM      8  C   UNL     1     118.795  50.318  -5.806  1.00  0.00     0.009 C 
ENDBRANCH   1   7
BRANCH   3   9
ATOM      9  O   UNL     1     118.836  54.719  -3.471  1.00  0.00    -0.508 OA
ATOM     10  H   UNL     1     118.397  55.565  -3.815  1.00  0.00     0.293 HD
ENDBRANCH   3   9
TORSDOF 2
ENDMDL
MODEL 7
REMARK VINA RESULT:    -4.054      1.875      2.383
REMARK INTER + INTRA:          -4.485
REMARK INTER:                  -4.435
REMARK INTRA:                  -0.050
REMARK UNBOUND:                -0.076
REMARK SMILES CCc1cccc(O)c1
REMARK SMILES IDX 3 1 9 2 7 3 6 4 5 5 4 6 2 7 1 8 8 9
REMARK H PARENT 8 10
REMARK Flexibility Score: inf
ROOT
ATOM      1  C   UNL     1     117.207  52.030  -0.331  1.00  0.00    -0.045 A 
ATOM      2  C   UNL     1     118.060  52.837  -1.102  1.00  0.00     0.049 A 
ATOM      3  C   UNL     1     118.017  52.780  -2.500  1.00  0.00     0.115 A 
ATOM      4  C   UNL     1     117.112  51.916  -3.134  1.00  0.00     0.046 A 
ATOM      5  C   UNL     1     116.252  51.121  -2.371  1.00  0.00     0.004 A 
ATOM      6  C   UNL     1     116.294  51.180  -0.976  1.00  0.00     0.004 A 
ENDROOT
BRANCH   1   7
ATOM      7  C   UNL     1     117.231  52.119   1.171  1.00  0.00     0.032 C 
ATOM      8  C   UNL     1     118.516  52.785   1.653  1.00  0.00     0.009 C 
ENDBRANCH   1   7
BRANCH   3   9
ATOM      9  O   UNL     1     118.875  53.582  -3.248  1.00  0.00    -0.508 OA
ATOM     10  H   UNL     1     119.570  54.171  -2.804  1.00  0.00     0.293 HD
ENDBRANCH   3   9
TORSDOF 2
ENDMDL
MODEL 8
REMARK VINA RESULT:    -3.968      2.438      4.002
REMARK INTER + INTRA:          -4.391
REMARK INTER:                  -4.338
REMARK INTRA:                  -0.053
REMARK UNBOUND:                -0.076
REMARK SMILES CCc1cccc(O)c1
REMARK SMILES IDX 3 1 9 2 7 3 6 4 5 5 4 6 2 7 1 8 8 9
REMARK H PARENT 8 10
REMARK Flexibility Score: inf
ROOT
ATOM      1  C   UNL     1     117.451  52.046  -2.105  1.00  0.00    -0.045 A 
ATOM      2  C   UNL     1     116.168  52.411  -1.665  1.00  0.00     0.049 A 
ATOM      3  C   UNL     1     115.857  52.400  -0.301  1.00  0.00     0.115 A 
ATOM      4  C   UNL     1     116.835  52.029   0.633  1.00  0.00     0.046 A 
ATOM      5  C   UNL     1     118.117  51.678   0.202  1.00  0.00     0.004 A 
ATOM      6  C   UNL     1     118.428  51.691  -1.160  1.00  0.00     0.004 A 
ENDROOT
BRANCH   1   7
ATOM      7  C   UNL     1     117.794  52.091  -3.570  1.00  0.00     0.032 C 
ATOM      8  C   UNL     1     118.273  53.483  -3.970  1.00  0.00     0.009 C 
ENDBRANCH   1   7
BRANCH   3   9
ATOM      9  O   UNL     1     114.578  52.758   0.116  1.00  0.00    -0.508 OA
ATOM     10  H   UNL     1     114.313  52.735   1.094  1.00  0.00     0.293 HD
ENDBRANCH   3   9
TORSDOF 2
ENDMDL
MODEL 9
REMARK VINA RESULT:    -3.783      2.227      2.773
REMARK INTER + INTRA:          -4.191
REMARK INTER:                  -4.136
REMARK INTRA:                  -0.055
REMARK UNBOUND:                -0.076
REMARK SMILES CCc1cccc(O)c1
REMARK SMILES IDX 3 1 9 2 7 3 6 4 5 5 4 6 2 7 1 8 8 9
REMARK H PARENT 8 10
REMARK Flexibility Score: inf
ROOT
ATOM      1  C   UNL     1     117.681  52.055  -1.098  1.00  0.00    -0.045 A 
ATOM      2  C   UNL     1     118.502  51.132  -1.768  1.00  0.00     0.049 A 
ATOM      3  C   UNL     1     118.917  51.377  -3.082  1.00  0.00     0.115 A 
ATOM      4  C   UNL     1     118.518  52.554  -3.730  1.00  0.00     0.046 A 
ATOM      5  C   UNL     1     117.713  53.482  -3.063  1.00  0.00     0.004 A 
ATOM      6  C   UNL     1     117.299  53.238  -1.751  1.00  0.00     0.004 A 
ENDROOT
BRANCH   1   7
ATOM      7  C   UNL     1     117.264  51.805   0.327  1.00  0.00     0.032 C 
ATOM      8  C   UNL     1     118.215  52.498   1.297  1.00  0.00     0.009 C 
ENDBRANCH   1   7
BRANCH   3   9
ATOM      9  O   UNL     1     119.724  50.448  -3.732  1.00  0.00    -0.508 OA
ATOM     10  H   UNL     1     120.734  50.532  -3.732  1.00  0.00     0.293 HD
ENDBRANCH   3   9
TORSDOF 2
ENDMDL
