MODEL 1
REMARK VINA RESULT:    -3.239      0.000      0.000
REMARK INTER + INTRA:          -3.770
REMARK INTER:                  -3.712
REMARK INTRA:                  -0.058
REMARK UNBOUND:                -0.058
REMARK SMILES CC(C)[C@H]([NH3+])C(=O)[O-]
REMARK SMILES IDX 4 1 5 2 6 6 7 7 8 8 2 9 1 10 3 11
REMARK H PARENT 5 3 5 4 5 5
REMARK Flexibility Score: inf
ROOT
ATOM      1  C   UNL     1       3.466   8.587  46.711  1.00  0.00     0.230 C 
ENDROOT
BRANCH   1   2
ATOM      2  N   UNL     1       2.757   7.750  45.731  1.00  0.00    -0.350 N 
ATOM      3  H   UNL     1       1.914   7.327  46.182  1.00  0.00     0.345 HD
ATOM      4  H   UNL     1       2.449   8.307  44.903  1.00  0.00     0.345 HD
ATOM      5  H   UNL     1       3.378   6.971  45.410  1.00  0.00     0.345 HD
ENDBRANCH   1   2
BRANCH   1   6
ATOM      6  C   UNL     1       3.502   7.919  48.064  1.00  0.00     0.099 C 
ATOM      7  O   UNL     1       2.841   8.383  49.031  1.00  0.00    -0.544 OA
ATOM      8  O   UNL     1       4.294   6.794  48.258  1.00  0.00    -0.544 OA
ENDBRANCH   1   6
BRANCH   1   9
ATOM      9  C   UNL     1       2.882  10.031  46.767  1.00  0.00     0.047 C 
ATOM     10  C   UNL     1       1.628  10.161  45.888  1.00  0.00     0.014 C 
ATOM     11  C   UNL     1       3.899  11.125  46.398  1.00  0.00     0.014 C 
ENDBRANCH   1   9
TORSDOF 3
ENDMDL
MODEL 2
REMARK VINA RESULT:    -3.179     10.418     10.957
REMARK INTER + INTRA:          -3.702
REMARK INTER:                  -3.708
REMARK INTRA:                   0.007
REMARK UNBOUND:                -0.058
REMARK SMILES CC(C)[C@H]([NH3+])C(=O)[O-]
REMARK SMILES IDX 4 1 5 2 6 6 7 7 8 8 2 9 1 10 3 11
REMARK H PARENT 5 3 5 4 5 5
REMARK Flexibility Score: inf
ROOT
ATOM      1  C   UNL     1      -0.529  -1.102  45.233  1.00  0.00     0.230 C 
ENDROOT
BRANCH   1   2
ATOM      2  N   UNL     1      -1.356  -0.552  46.319  1.00  0.00    -0.350 N 
ATOM      3  H   UNL     1      -1.780   0.352  46.008  1.00  0.00     0.345 HD
ATOM      4  H   UNL     1      -2.125  -1.208  46.584  1.00  0.00     0.345 HD
ATOM      5  H   UNL     1      -0.762  -0.360  47.158  1.00  0.00     0.345 HD
ENDBRANCH   1   2
BRANCH   1   6
ATOM      6  C   UNL     1      -0.047  -2.492  45.576  1.00  0.00     0.099 C 
ATOM      7  O   UNL     1      -0.006  -2.884  46.772  1.00  0.00    -0.544 OA
ATOM      8  O   UNL     1       0.385  -3.341  44.564  1.00  0.00    -0.544 OA
ENDBRANCH   1   6
BRANCH   1   9
ATOM      9  C   UNL     1       0.634  -0.139  44.848  1.00  0.00     0.047 C 
ATOM     10  C   UNL     1       0.765  -0.004  43.323  1.00  0.00     0.014 C 
ATOM     11  C   UNL     1       1.990  -0.532  45.460  1.00  0.00     0.014 C 
ENDBRANCH   1   9
TORSDOF 3
ENDMDL
MODEL 3
REMARK VINA RESULT:    -3.165     10.864     11.653
REMARK INTER + INTRA:          -3.686
REMARK INTER:                  -3.640
REMARK INTRA:                  -0.046
REMARK UNBOUND:                -0.058
REMARK SMILES CC(C)[C@H]([NH3+])C(=O)[O-]
REMARK SMILES IDX 4 1 5 2 6 6 7 7 8 8 2 9 1 10 3 11
REMARK H PARENT 5 3 5 4 5 5
REMARK Flexibility Score: inf
ROOT
ATOM      1  C   UNL     1       1.266  -1.621  43.587  1.00  0.00     0.230 C 
ENDROOT
BRANCH   1   2
ATOM      2  N   UNL     1       0.193  -0.904  42.880  1.00  0.00    -0.350 N 
ATOM      3  H   UNL     1       0.529  -0.625  41.930  1.00  0.00     0.345 HD
ATOM      4  H   UNL     1      -0.658  -1.501  42.770  1.00  0.00     0.345 HD
ATOM      5  H   UNL     1      -0.061  -0.035  43.402  1.00  0.00     0.345 HD
ENDBRANCH   1   2
BRANCH   1   6
ATOM      6  C   UNL     1       1.214  -3.100  43.286  1.00  0.00     0.099 C 
ATOM      7  O   UNL     1       1.959  -3.606  42.404  1.00  0.00    -0.544 OA
ATOM      8  O   UNL     1       0.315  -3.911  43.967  1.00  0.00    -0.544 OA
ENDBRANCH   1   6
BRANCH   1   9
ATOM      9  C   UNL     1       1.255  -1.317  45.115  1.00  0.00     0.047 C 
ATOM     10  C   UNL     1      -0.069  -0.665  45.545  1.00  0.00     0.014 C 
ATOM     11  C   UNL     1       2.442  -0.457  45.584  1.00  0.00     0.014 C 
ENDBRANCH   1   9
TORSDOF 3
ENDMDL
MODEL 4
REMARK VINA RESULT:    -3.056     10.578     11.468
REMARK INTER + INTRA:          -3.561
REMARK INTER:                  -3.503
REMARK INTRA:                  -0.057
REMARK UNBOUND:                -0.058
REMARK SMILES CC(C)[C@H]([NH3+])C(=O)[O-]
REMARK SMILES IDX 4 1 5 2 6 6 7 7 8 8 2 9 1 10 3 11
REMARK H PARENT 5 3 5 4 5 5
REMARK Flexibility Score: inf
ROOT
ATOM      1  C   UNL     1      -0.549  -1.772  45.582  1.00  0.00     0.230 C 
ENDROOT
BRANCH   1   2
ATOM      2  N   UNL     1      -1.201  -0.515  45.983  1.00  0.00    -0.350 N 
ATOM      3  H   UNL     1      -2.236  -0.658  46.022  1.00  0.00     0.345 HD
ATOM      4  H   UNL     1      -0.873  -0.198  46.923  1.00  0.00     0.345 HD
ATOM      5  H   UNL     1      -1.002   0.231  45.279  1.00  0.00     0.345 HD
ENDBRANCH   1   2
BRANCH   1   6
ATOM      6  C   UNL     1      -0.653  -2.805  46.678  1.00  0.00     0.099 C 
ATOM      7  O   UNL     1      -1.752  -3.029  47.253  1.00  0.00    -0.544 OA
ATOM      8  O   UNL     1       0.481  -3.500  47.081  1.00  0.00    -0.544 OA
ENDBRANCH   1   6
BRANCH   1   9
ATOM      9  C   UNL     1       0.918  -1.537  45.113  1.00  0.00     0.047 C 
ATOM     10  C   UNL     1       1.323  -0.062  45.259  1.00  0.00     0.014 C 
ATOM     11  C   UNL     1       1.193  -2.019  43.677  1.00  0.00     0.014 C 
ENDBRANCH   1   9
TORSDOF 3
ENDMDL
MODEL 5
REMARK VINA RESULT:    -3.027     10.272     10.930
REMARK INTER + INTRA:          -3.528
REMARK INTER:                  -3.508
REMARK INTRA:                  -0.020
REMARK UNBOUND:                -0.058
REMARK SMILES CC(C)[C@H]([NH3+])C(=O)[O-]
REMARK SMILES IDX 4 1 5 2 6 6 7 7 8 8 2 9 1 10 3 11
REMARK H PARENT 5 3 5 4 5 5
REMARK Flexibility Score: inf
ROOT
ATOM      1  C   UNL     1       0.334  -1.849  45.559  1.00  0.00     0.230 C 
ENDROOT
BRANCH   1   2
ATOM      2  N   UNL     1       0.219  -2.701  44.365  1.00  0.00    -0.350 N 
ATOM      3  H   UNL     1      -0.331  -3.559  44.601  1.00  0.00     0.345 HD
ATOM      4  H   UNL     1      -0.263  -2.201  43.583  1.00  0.00     0.345 HD
ATOM      5  H   UNL     1       1.169  -3.001  44.047  1.00  0.00     0.345 HD
ENDBRANCH   1   2
BRANCH   1   6
ATOM      6  C   UNL     1      -1.003  -1.705  46.246  1.00  0.00     0.099 C 
ATOM      7  O   UNL     1      -1.399  -2.566  47.077  1.00  0.00    -0.544 OA
ATOM      8  O   UNL     1      -1.823  -0.625  45.941  1.00  0.00    -0.544 OA
ENDBRANCH   1   6
BRANCH   1   9
ATOM      9  C   UNL     1       0.992  -0.476  45.227  1.00  0.00     0.047 C 
ATOM     10  C   UNL     1       0.773  -0.092  43.756  1.00  0.00     0.014 C 
ATOM     11  C   UNL     1       2.490  -0.408  45.573  1.00  0.00     0.014 C 
ENDBRANCH   1   9
TORSDOF 3
ENDMDL
MODEL 6
REMARK VINA RESULT:    -2.990     15.973     16.750
REMARK INTER + INTRA:          -3.486
REMARK INTER:                  -3.431
REMARK INTRA:                  -0.054
REMARK UNBOUND:                -0.058
REMARK SMILES CC(C)[C@H]([NH3+])C(=O)[O-]
REMARK SMILES IDX 4 1 5 2 6 6 7 7 8 8 2 9 1 10 3 11
REMARK H PARENT 5 3 5 4 5 5
REMARK Flexibility Score: inf
ROOT
ATOM      1  C   UNL     1      -0.427  -4.596  56.957  1.00  0.00     0.230 C 
ENDROOT
BRANCH   1   2
ATOM      2  N   UNL     1       0.230  -5.289  58.076  1.00  0.00    -0.350 N 
ATOM      3  H   UNL     1      -0.497  -5.681  58.717  1.00  0.00     0.345 HD
ATOM      4  H   UNL     1       0.835  -6.072  57.739  1.00  0.00     0.345 HD
ATOM      5  H   UNL     1       0.813  -4.614  58.622  1.00  0.00     0.345 HD
ENDBRANCH   1   2
BRANCH   1   6
ATOM      6  C   UNL     1      -0.166  -5.312  55.654  1.00  0.00     0.099 C 
ATOM      7  O   UNL     1      -0.147  -4.682  54.563  1.00  0.00    -0.544 OA
ATOM      8  O   UNL     1       0.027  -6.688  55.649  1.00  0.00    -0.544 OA
ENDBRANCH   1   6
BRANCH   1   9
ATOM      9  C   UNL     1      -0.038  -3.087  56.903  1.00  0.00     0.047 C 
ATOM     10  C   UNL     1       0.974  -2.732  58.003  1.00  0.00     0.014 C 
ATOM     11  C   UNL     1      -1.245  -2.135  56.970  1.00  0.00     0.014 C 
ENDBRANCH   1   9
TORSDOF 3
ENDMDL
MODEL 7
REMARK VINA RESULT:    -2.984     10.680     11.516
REMARK INTER + INTRA:          -3.479
REMARK INTER:                  -3.414
REMARK INTRA:                  -0.065
REMARK UNBOUND:                -0.058
REMARK SMILES CC(C)[C@H]([NH3+])C(=O)[O-]
REMARK SMILES IDX 4 1 5 2 6 6 7 7 8 8 2 9 1 10 3 11
REMARK H PARENT 5 3 5 4 5 5
REMARK Flexibility Score: inf
ROOT
ATOM      1  C   UNL     1       0.828  -2.101  44.680  1.00  0.00     0.230 C 
ENDROOT
BRANCH   1   2
ATOM      2  N   UNL     1      -0.160  -3.167  44.904  1.00  0.00    -0.350 N 
ATOM      3  H   UNL     1      -1.124  -2.769  44.830  1.00  0.00     0.345 HD
ATOM      4  H   UNL     1      -0.061  -3.934  44.200  1.00  0.00     0.345 HD
ATOM      5  H   UNL     1      -0.046  -3.564  45.864  1.00  0.00     0.345 HD
ENDBRANCH   1   2
BRANCH   1   6
ATOM      6  C   UNL     1       0.317  -0.777  45.196  1.00  0.00     0.099 C 
ATOM      7  O   UNL     1       1.096   0.201  45.350  1.00  0.00    -0.544 OA
ATOM      8  O   UNL     1      -1.024  -0.640  45.533  1.00  0.00    -0.544 OA
ENDBRANCH   1   6
BRANCH   1   9
ATOM      9  C   UNL     1       1.278  -2.033  43.189  1.00  0.00     0.047 C 
ATOM     10  C   UNL     1       0.213  -1.353  42.315  1.00  0.00     0.014 C 
ATOM     11  C   UNL     1       1.652  -3.401  42.593  1.00  0.00     0.014 C 
ENDBRANCH   1   9
TORSDOF 3
ENDMDL
MODEL 8
REMARK VINA RESULT:    -2.954     11.192     12.097
REMARK INTER + INTRA:          -3.444
REMARK INTER:                  -3.395
REMARK INTRA:                  -0.049
REMARK UNBOUND:                -0.058
REMARK SMILES CC(C)[C@H]([NH3+])C(=O)[O-]
REMARK SMILES IDX 4 1 5 2 6 6 7 7 8 8 2 9 1 10 3 11
REMARK H PARENT 5 3 5 4 5 5
REMARK Flexibility Score: inf
ROOT
ATOM      1  C   UNL     1       0.539  -2.430  43.669  1.00  0.00     0.230 C 
ENDROOT
BRANCH   1   2
ATOM      2  N   UNL     1       0.296  -3.615  44.505  1.00  0.00    -0.350 N 
ATOM      3  H   UNL     1      -0.315  -3.352  45.313  1.00  0.00     0.345 HD
ATOM      4  H   UNL     1      -0.177  -4.375  43.964  1.00  0.00     0.345 HD
ATOM      5  H   UNL     1       1.200  -3.976  44.887  1.00  0.00     0.345 HD
ENDBRANCH   1   2
BRANCH   1   6
ATOM      6  C   UNL     1       1.220  -2.815  42.377  1.00  0.00     0.099 C 
ATOM      7  O   UNL     1       2.109  -3.708  42.356  1.00  0.00    -0.544 OA
ATOM      8  O   UNL     1       0.887  -2.158  41.199  1.00  0.00    -0.544 OA
ENDBRANCH   1   6
BRANCH   1   9
ATOM      9  C   UNL     1       1.309  -1.321  44.448  1.00  0.00     0.047 C 
ATOM     10  C   UNL     1       1.182  -1.516  45.967  1.00  0.00     0.014 C 
ATOM     11  C   UNL     1       0.890   0.109  44.064  1.00  0.00     0.014 C 
ENDBRANCH   1   9
TORSDOF 3
ENDMDL
MODEL 9
REMARK VINA RESULT:    -2.897     10.694     11.291
REMARK INTER + INTRA:          -3.379
REMARK INTER:                  -3.371
REMARK INTRA:                  -0.008
REMARK UNBOUND:                -0.058
REMARK SMILES CC(C)[C@H]([NH3+])C(=O)[O-]
REMARK SMILES IDX 4 1 5 2 6 6 7 7 8 8 2 9 1 10 3 11
REMARK H PARENT 5 3 5 4 5 5
REMARK Flexibility Score: inf
ROOT
ATOM      1  C   UNL     1       0.032  -1.647  45.128  1.00  0.00     0.230 C 
ENDROOT
BRANCH   1   2
ATOM      2  N   UNL     1       0.432  -2.477  46.274  1.00  0.00    -0.350 N 
ATOM      3  H   UNL     1      -0.318  -3.179  46.474  1.00  0.00     0.345 HD
ATOM      4  H   UNL     1       1.324  -2.988  46.084  1.00  0.00     0.345 HD
ATOM      5  H   UNL     1       0.551  -1.880  47.124  1.00  0.00     0.345 HD
ENDBRANCH   1   2
BRANCH   1   6
ATOM      6  C   UNL     1       0.088  -2.441  43.844  1.00  0.00     0.099 C 
ATOM      7  O   UNL     1      -0.924  -2.539  43.100  1.00  0.00    -0.544 OA
ATOM      8  O   UNL     1       1.261  -3.096  43.489  1.00  0.00    -0.544 OA
ENDBRANCH   1   6
BRANCH   1   9
ATOM      9  C   UNL     1       0.855  -0.326  45.055  1.00  0.00     0.047 C 
ATOM     10  C   UNL     1       0.778   0.304  43.656  1.00  0.00     0.014 C 
ATOM     11  C   UNL     1       2.326  -0.490  45.479  1.00  0.00     0.014 C 
ENDBRANCH   1   9
TORSDOF 3
ENDMDL
