MODEL 1
REMARK VINA RESULT:    -4.318      0.000      0.000
REMARK INTER + INTRA:          -7.258
REMARK INTER:                  -5.833
REMARK INTRA:                  -1.425
REMARK UNBOUND:                -1.425
REMARK SMILES CC(=O)CCC=C(C)CCC=C(C)C
REMARK SMILES IDX 7 1 6 2 8 3 9 4 10 5 11 6 13 7 12 8 14 9 5 10 4 11 2 12 3 13
REMARK SMILES IDX 1 14
REMARK H PARENT
REMARK Flexibility Score: inf
ROOT
ATOM      1  C   UNL     1       7.283 -16.036  22.931  1.00  0.00    -0.077 C 
ATOM      2  C   UNL     1       6.856 -16.892  23.888  1.00  0.00    -0.028 C 
ATOM      3  C   UNL     1       7.305 -16.419  21.470  1.00  0.00     0.039 C 
ENDROOT
BRANCH   1   4
ATOM      4  C   UNL     1       7.766 -14.662  23.338  1.00  0.00     0.034 C 
BRANCH   4   5
ATOM      5  C   UNL     1       8.704 -14.748  24.547  1.00  0.00     0.032 C 
BRANCH   5   6
ATOM      6  C   UNL     1      10.063 -15.259  24.135  1.00  0.00    -0.028 C 
ATOM      7  C   UNL     1      10.172 -16.939  25.988  1.00  0.00     0.039 C 
ATOM      8  C   UNL     1      10.717 -16.268  24.753  1.00  0.00    -0.080 C 
ATOM      9  C   UNL     1      12.064 -16.712  24.241  1.00  0.00     0.039 C 
ENDBRANCH   5   6
ENDBRANCH   4   5
ENDBRANCH   1   4
BRANCH   2  10
ATOM     10  C   UNL     1       6.316 -18.274  23.619  1.00  0.00     0.035 C 
BRANCH  10  11
ATOM     11  C   UNL     1       7.321 -19.345  24.057  1.00  0.00     0.079 C 
BRANCH  11  12
ATOM     12  C   UNL     1       8.217 -19.735  22.910  1.00  0.00     0.130 C 
ATOM     13  O   UNL     1       7.789 -20.479  22.041  1.00  0.00    -0.300 OA
ATOM     14  C   UNL     1       9.629 -19.239  22.817  1.00  0.00     0.087 C 
ENDBRANCH  11  12
ENDBRANCH  10  11
ENDBRANCH   2  10
TORSDOF 6
ENDMDL
MODEL 2
REMARK VINA RESULT:    -4.227      2.018      3.631
REMARK INTER + INTRA:          -7.134
REMARK INTER:                  -6.087
REMARK INTRA:                  -1.048
REMARK UNBOUND:                -1.425
REMARK SMILES CC(=O)CCC=C(C)CCC=C(C)C
REMARK SMILES IDX 7 1 6 2 8 3 9 4 10 5 11 6 13 7 12 8 14 9 5 10 4 11 2 12 3 13
REMARK SMILES IDX 1 14
REMARK H PARENT
REMARK Flexibility Score: inf
ROOT
ATOM      1  C   UNL     1       7.748 -19.506  23.739  1.00  0.00    -0.077 C 
ATOM      2  C   UNL     1       6.772 -20.031  22.964  1.00  0.00    -0.028 C 
ATOM      3  C   UNL     1       9.113 -19.171  23.185  1.00  0.00     0.039 C 
ENDROOT
BRANCH   1   4
ATOM      4  C   UNL     1       7.470 -19.262  25.206  1.00  0.00     0.034 C 
BRANCH   4   5
ATOM      5  C   UNL     1       6.725 -17.939  25.408  1.00  0.00     0.032 C 
BRANCH   5   6
ATOM      6  C   UNL     1       7.691 -16.780  25.449  1.00  0.00    -0.028 C 
ATOM      7  C   UNL     1       6.984 -15.904  23.212  1.00  0.00     0.039 C 
ATOM      8  C   UNL     1       7.791 -15.839  24.484  1.00  0.00    -0.080 C 
ATOM      9  C   UNL     1       8.779 -14.710  24.639  1.00  0.00     0.039 C 
ENDBRANCH   5   6
ENDBRANCH   4   5
ENDBRANCH   1   4
BRANCH   2  10
ATOM     10  C   UNL     1       6.901 -20.290  21.484  1.00  0.00     0.035 C 
BRANCH  10  11
ATOM     11  C   UNL     1       7.319 -21.741  21.221  1.00  0.00     0.079 C 
BRANCH  11  12
ATOM     12  C   UNL     1       8.581 -21.791  20.400  1.00  0.00     0.130 C 
ATOM     13  O   UNL     1       8.540 -21.491  19.217  1.00  0.00    -0.300 OA
ATOM     14  C   UNL     1       9.888 -22.213  21.002  1.00  0.00     0.087 C 
ENDBRANCH  11  12
ENDBRANCH  10  11
ENDBRANCH   2  10
TORSDOF 6
ENDMDL
MODEL 3
REMARK VINA RESULT:    -4.220      3.528      5.902
REMARK INTER + INTRA:          -7.125
REMARK INTER:                  -6.506
REMARK INTRA:                  -0.619
REMARK UNBOUND:                -1.425
REMARK SMILES CC(=O)CCC=C(C)CCC=C(C)C
REMARK SMILES IDX 7 1 6 2 8 3 9 4 10 5 11 6 13 7 12 8 14 9 5 10 4 11 2 12 3 13
REMARK SMILES IDX 1 14
REMARK H PARENT
REMARK Flexibility Score: inf
ROOT
ATOM      1  C   UNL     1       6.973 -18.541  24.959  1.00  0.00    -0.077 C 
ATOM      2  C   UNL     1       7.644 -17.850  25.908  1.00  0.00    -0.028 C 
ATOM      3  C   UNL     1       6.362 -17.860  23.757  1.00  0.00     0.039 C 
ENDROOT
BRANCH   1   4
ATOM      4  C   UNL     1       6.816 -20.038  25.114  1.00  0.00     0.034 C 
BRANCH   4   5
ATOM      5  C   UNL     1       6.933 -20.450  26.585  1.00  0.00     0.032 C 
BRANCH   5   6
ATOM      6  C   UNL     1       6.382 -21.839  26.798  1.00  0.00    -0.028 C 
ATOM      7  C   UNL     1       8.142 -22.456  28.469  1.00  0.00     0.039 C 
ATOM      8  C   UNL     1       6.895 -22.737  27.669  1.00  0.00    -0.080 C 
ATOM      9  C   UNL     1       6.248 -24.091  27.817  1.00  0.00     0.039 C 
ENDBRANCH   5   6
ENDBRANCH   4   5
ENDBRANCH   1   4
BRANCH   2  10
ATOM     10  C   UNL     1       7.904 -16.365  25.861  1.00  0.00     0.035 C 
BRANCH  10  11
ATOM     11  C   UNL     1       9.337 -16.078  25.402  1.00  0.00     0.079 C 
BRANCH  11  12
ATOM     12  C   UNL     1       9.343 -15.107  24.250  1.00  0.00     0.130 C 
ATOM     13  O   UNL     1      10.408 -14.747  23.773  1.00  0.00    -0.300 OA
ATOM     14  C   UNL     1       8.067 -14.560  23.682  1.00  0.00     0.087 C 
ENDBRANCH  11  12
ENDBRANCH  10  11
ENDBRANCH   2  10
TORSDOF 6
ENDMDL
MODEL 4
REMARK VINA RESULT:    -4.196      2.060      4.445
REMARK INTER + INTRA:          -7.093
REMARK INTER:                  -5.904
REMARK INTRA:                  -1.188
REMARK UNBOUND:                -1.425
REMARK SMILES CC(=O)CCC=C(C)CCC=C(C)C
REMARK SMILES IDX 7 1 6 2 8 3 9 4 10 5 11 6 13 7 12 8 14 9 5 10 4 11 2 12 3 13
REMARK SMILES IDX 1 14
REMARK H PARENT
REMARK Flexibility Score: inf
ROOT
ATOM      1  C   UNL     1       6.786 -17.047  24.095  1.00  0.00    -0.077 C 
ATOM      2  C   UNL     1       7.490 -17.048  25.250  1.00  0.00    -0.028 C 
ATOM      3  C   UNL     1       6.728 -15.834  23.196  1.00  0.00     0.039 C 
ENDROOT
BRANCH   1   4
ATOM      4  C   UNL     1       6.021 -18.291  23.701  1.00  0.00     0.034 C 
BRANCH   4   5
ATOM      5  C   UNL     1       6.841 -19.552  23.995  1.00  0.00     0.032 C 
BRANCH   5   6
ATOM      6  C   UNL     1       7.363 -20.162  22.718  1.00  0.00    -0.028 C 
ATOM      7  C   UNL     1       9.643 -19.163  22.982  1.00  0.00     0.039 C 
ATOM      8  C   UNL     1       8.631 -20.025  22.270  1.00  0.00    -0.080 C 
ATOM      9  C   UNL     1       9.051 -20.699  20.989  1.00  0.00     0.039 C 
ENDBRANCH   5   6
ENDBRANCH   4   5
ENDBRANCH   1   4
BRANCH   2  10
ATOM     10  C   UNL     1       8.323 -15.892  25.744  1.00  0.00     0.035 C 
BRANCH  10  11
ATOM     11  C   UNL     1       9.817 -16.175  25.549  1.00  0.00     0.079 C 
BRANCH  11  12
ATOM     12  C   UNL     1      10.344 -15.443  24.342  1.00  0.00     0.130 C 
ATOM     13  O   UNL     1       9.772 -14.437  23.952  1.00  0.00    -0.300 OA
ATOM     14  C   UNL     1      11.551 -15.932  23.598  1.00  0.00     0.087 C 
ENDBRANCH  11  12
ENDBRANCH  10  11
ENDBRANCH   2  10
TORSDOF 6
ENDMDL
MODEL 5
REMARK VINA RESULT:    -4.164      2.305      5.122
REMARK INTER + INTRA:          -7.049
REMARK INTER:                  -6.177
REMARK INTRA:                  -0.872
REMARK UNBOUND:                -1.425
REMARK SMILES CC(=O)CCC=C(C)CCC=C(C)C
REMARK SMILES IDX 7 1 6 2 8 3 9 4 10 5 11 6 13 7 12 8 14 9 5 10 4 11 2 12 3 13
REMARK SMILES IDX 1 14
REMARK H PARENT
REMARK Flexibility Score: inf
ROOT
ATOM      1  C   UNL     1       7.118 -18.417  24.533  1.00  0.00    -0.077 C 
ATOM      2  C   UNL     1       8.113 -18.083  25.385  1.00  0.00    -0.028 C 
ATOM      3  C   UNL     1       6.164 -17.387  23.976  1.00  0.00     0.039 C 
ENDROOT
BRANCH   1   4
ATOM      4  C   UNL     1       6.945 -19.868  24.138  1.00  0.00     0.034 C 
BRANCH   4   5
ATOM      5  C   UNL     1       6.165 -19.987  22.824  1.00  0.00     0.032 C 
BRANCH   5   6
ATOM      6  C   UNL     1       7.030 -20.580  21.740  1.00  0.00    -0.028 C 
ATOM      7  C   UNL     1       7.416 -18.375  20.618  1.00  0.00     0.039 C 
ATOM      8  C   UNL     1       7.628 -19.861  20.764  1.00  0.00    -0.080 C 
ATOM      9  C   UNL     1       8.492 -20.558  19.743  1.00  0.00     0.039 C 
ENDBRANCH   5   6
ENDBRANCH   4   5
ENDBRANCH   1   4
BRANCH   2  10
ATOM     10  C   UNL     1       8.420 -16.676  25.832  1.00  0.00     0.035 C 
BRANCH  10  11
ATOM     11  C   UNL     1       9.933 -16.439  25.885  1.00  0.00     0.079 C 
BRANCH  11  12
ATOM     12  C   UNL     1      10.416 -15.796  24.611  1.00  0.00     0.130 C 
ATOM     13  O   UNL     1      11.479 -16.149  24.125  1.00  0.00    -0.300 OA
ATOM     14  C   UNL     1       9.623 -14.720  23.930  1.00  0.00     0.087 C 
ENDBRANCH  11  12
ENDBRANCH  10  11
ENDBRANCH   2  10
TORSDOF 6
ENDMDL
MODEL 6
REMARK VINA RESULT:    -4.160      2.590      5.363
REMARK INTER + INTRA:          -7.044
REMARK INTER:                  -5.930
REMARK INTRA:                  -1.114
REMARK UNBOUND:                -1.425
REMARK SMILES CC(=O)CCC=C(C)CCC=C(C)C
REMARK SMILES IDX 7 1 6 2 8 3 9 4 10 5 11 6 13 7 12 8 14 9 5 10 4 11 2 12 3 13
REMARK SMILES IDX 1 14
REMARK H PARENT
REMARK Flexibility Score: inf
ROOT
ATOM      1  C   UNL     1       7.427 -18.594  23.007  1.00  0.00    -0.077 C 
ATOM      2  C   UNL     1       7.191 -17.470  22.294  1.00  0.00    -0.028 C 
ATOM      3  C   UNL     1       8.674 -18.762  23.844  1.00  0.00     0.039 C 
ENDROOT
BRANCH   1   4
ATOM      4  C   UNL     1       6.421 -19.723  22.952  1.00  0.00     0.034 C 
BRANCH   4   5
ATOM      5  C   UNL     1       6.493 -20.454  21.607  1.00  0.00     0.032 C 
BRANCH   5   6
ATOM      6  C   UNL     1       7.637 -21.438  21.593  1.00  0.00    -0.028 C 
ATOM      7  C   UNL     1       9.011 -20.063  20.013  1.00  0.00     0.039 C 
ATOM      8  C   UNL     1       8.789 -21.256  20.909  1.00  0.00    -0.080 C 
ATOM      9  C   UNL     1       9.877 -22.297  20.985  1.00  0.00     0.039 C 
ENDBRANCH   5   6
ENDBRANCH   4   5
ENDBRANCH   1   4
BRANCH   2  10
ATOM     10  C   UNL     1       8.089 -16.258  22.287  1.00  0.00     0.035 C 
BRANCH  10  11
ATOM     11  C   UNL     1       7.643 -15.243  23.344  1.00  0.00     0.079 C 
BRANCH  11  12
ATOM     12  C   UNL     1       8.733 -15.019  24.360  1.00  0.00     0.130 C 
ATOM     13  O   UNL     1       9.761 -14.453  24.022  1.00  0.00    -0.300 OA
ATOM     14  C   UNL     1       8.589 -15.487  25.778  1.00  0.00     0.087 C 
ENDBRANCH  11  12
ENDBRANCH  10  11
ENDBRANCH   2  10
TORSDOF 6
ENDMDL
MODEL 7
REMARK VINA RESULT:    -4.157      1.928      3.809
REMARK INTER + INTRA:          -7.040
REMARK INTER:                  -5.516
REMARK INTRA:                  -1.524
REMARK UNBOUND:                -1.425
REMARK SMILES CC(=O)CCC=C(C)CCC=C(C)C
REMARK SMILES IDX 7 1 6 2 8 3 9 4 10 5 11 6 13 7 12 8 14 9 5 10 4 11 2 12 3 13
REMARK SMILES IDX 1 14
REMARK H PARENT
REMARK Flexibility Score: inf
ROOT
ATOM      1  C   UNL     1       9.128 -15.110  24.114  1.00  0.00    -0.077 C 
ATOM      2  C   UNL     1       8.953 -15.721  25.308  1.00  0.00    -0.028 C 
ATOM      3  C   UNL     1      10.482 -15.033  23.448  1.00  0.00     0.039 C 
ENDROOT
BRANCH   1   4
ATOM      4  C   UNL     1       7.937 -14.473  23.433  1.00  0.00     0.034 C 
BRANCH   4   5
ATOM      5  C   UNL     1       6.813 -15.495  23.229  1.00  0.00     0.032 C 
BRANCH   5   6
ATOM      6  C   UNL     1       7.224 -16.551  22.234  1.00  0.00    -0.028 C 
ATOM      7  C   UNL     1       6.790 -18.441  23.817  1.00  0.00     0.039 C 
ATOM      8  C   UNL     1       7.183 -17.881  22.474  1.00  0.00    -0.080 C 
ATOM      9  C   UNL     1       7.597 -18.850  21.395  1.00  0.00     0.039 C 
ENDBRANCH   5   6
ENDBRANCH   4   5
ENDBRANCH   1   4
BRANCH   2  10
ATOM     10  C   UNL     1      10.043 -16.425  26.076  1.00  0.00     0.035 C 
BRANCH  10  11
ATOM     11  C   UNL     1       9.867 -17.945  26.000  1.00  0.00     0.079 C 
BRANCH  11  12
ATOM     12  C   UNL     1      10.894 -18.555  25.082  1.00  0.00     0.130 C 
ATOM     13  O   UNL     1      11.996 -18.843  25.520  1.00  0.00    -0.300 OA
ATOM     14  C   UNL     1      10.596 -18.805  23.633  1.00  0.00     0.087 C 
ENDBRANCH  11  12
ENDBRANCH  10  11
ENDBRANCH   2  10
TORSDOF 6
ENDMDL
MODEL 8
REMARK VINA RESULT:    -4.091      2.107      4.538
REMARK INTER + INTRA:          -6.952
REMARK INTER:                  -5.950
REMARK INTRA:                  -1.002
REMARK UNBOUND:                -1.425
REMARK SMILES CC(=O)CCC=C(C)CCC=C(C)C
REMARK SMILES IDX 7 1 6 2 8 3 9 4 10 5 11 6 13 7 12 8 14 9 5 10 4 11 2 12 3 13
REMARK SMILES IDX 1 14
REMARK H PARENT
REMARK Flexibility Score: inf
ROOT
ATOM      1  C   UNL     1       7.086 -17.152  22.544  1.00  0.00    -0.077 C 
ATOM      2  C   UNL     1       7.113 -16.270  23.570  1.00  0.00    -0.028 C 
ATOM      3  C   UNL     1       7.736 -16.849  21.215  1.00  0.00     0.039 C 
ENDROOT
BRANCH   1   4
ATOM      4  C   UNL     1       6.372 -18.472  22.730  1.00  0.00     0.034 C 
BRANCH   4   5
ATOM      5  C   UNL     1       7.352 -19.567  23.165  1.00  0.00     0.032 C 
BRANCH   5   6
ATOM      6  C   UNL     1       6.822 -20.315  24.363  1.00  0.00    -0.028 C 
ATOM      7  C   UNL     1       8.035 -18.866  26.007  1.00  0.00     0.039 C 
ATOM      8  C   UNL     1       7.092 -19.987  25.647  1.00  0.00    -0.080 C 
ATOM      9  C   UNL     1       6.488 -20.793  26.769  1.00  0.00     0.039 C 
ENDBRANCH   5   6
ENDBRANCH   4   5
ENDBRANCH   1   4
BRANCH   2  10
ATOM     10  C   UNL     1       7.817 -14.937  23.533  1.00  0.00     0.035 C 
BRANCH  10  11
ATOM     11  C   UNL     1       8.683 -14.745  24.783  1.00  0.00     0.079 C 
BRANCH  11  12
ATOM     12  C   UNL     1       9.994 -15.474  24.640  1.00  0.00     0.130 C 
ATOM     13  O   UNL     1      10.388 -16.184  25.552  1.00  0.00    -0.300 OA
ATOM     14  C   UNL     1      10.833 -15.338  23.405  1.00  0.00     0.087 C 
ENDBRANCH  11  12
ENDBRANCH  10  11
ENDBRANCH   2  10
TORSDOF 6
ENDMDL
MODEL 9
REMARK VINA RESULT:    -4.049      2.467      4.705
REMARK INTER + INTRA:          -6.894
REMARK INTER:                  -5.648
REMARK INTRA:                  -1.246
REMARK UNBOUND:                -1.425
REMARK SMILES CC(=O)CCC=C(C)CCC=C(C)C
REMARK SMILES IDX 7 1 6 2 8 3 9 4 10 5 11 6 13 7 12 8 14 9 5 10 4 11 2 12 3 13
REMARK SMILES IDX 1 14
REMARK H PARENT
REMARK Flexibility Score: inf
ROOT
ATOM      1  C   UNL     1       8.365 -17.064  25.653  1.00  0.00    -0.077 C 
ATOM      2  C   UNL     1       9.557 -17.697  25.564  1.00  0.00    -0.028 C 
ATOM      3  C   UNL     1       8.266 -15.575  25.884  1.00  0.00     0.039 C 
ENDROOT
BRANCH   1   4
ATOM      4  C   UNL     1       7.093 -17.875  25.533  1.00  0.00     0.034 C 
BRANCH   4   5
ATOM      5  C   UNL     1       6.243 -17.386  24.355  1.00  0.00     0.032 C 
BRANCH   5   6
ATOM      6  C   UNL     1       6.981 -17.566  23.051  1.00  0.00    -0.028 C 
ATOM      7  C   UNL     1       6.835 -15.141  22.448  1.00  0.00     0.039 C 
ATOM      8  C   UNL     1       7.285 -16.559  22.203  1.00  0.00    -0.080 C 
ATOM      9  C   UNL     1       8.048 -16.852  20.935  1.00  0.00     0.039 C 
ENDBRANCH   5   6
ENDBRANCH   4   5
ENDBRANCH   1   4
BRANCH   2  10
ATOM     10  C   UNL     1      10.897 -17.008  25.630  1.00  0.00     0.035 C 
BRANCH  10  11
ATOM     11  C   UNL     1      11.670 -17.194  24.320  1.00  0.00     0.079 C 
BRANCH  11  12
ATOM     12  C   UNL     1      11.852 -15.874  23.617  1.00  0.00     0.130 C 
ATOM     13  O   UNL     1      12.975 -15.508  23.309  1.00  0.00    -0.300 OA
ATOM     14  C   UNL     1      10.683 -14.991  23.296  1.00  0.00     0.087 C 
ENDBRANCH  11  12
ENDBRANCH  10  11
ENDBRANCH   2  10
TORSDOF 6
ENDMDL
