MODEL 1
REMARK VINA RESULT:    -6.314      0.000      0.000
REMARK INTER + INTRA:         -10.834
REMARK INTER:                  -9.637
REMARK INTRA:                  -1.198
REMARK UNBOUND:                -1.198
REMARK SMILES COc1cc(C=CC(=O)CC(=O)C=Cc2ccc(O)c(OC)c2)ccc1O
REMARK SMILES IDX 10 1 8 2 9 3 7 4 6 5 5 6 3 7 26 8 4 9 25 10 24 11 2 12 1 13
REMARK SMILES IDX 27 14 11 16 12 17 13 18 14 19 15 20 23 21 16 22 20 23 17 24
REMARK SMILES IDX 18 25 21 26 22 27 19 28
REMARK H PARENT 27 15 19 29
REMARK Flexibility Score: inf
ROOT
ATOM      1  C   UNL     1      15.253   2.235  -1.742  1.00  0.00     0.160 C 
ENDROOT
BRANCH   1   2
ATOM      2  C   UNL     1      15.554   2.918  -0.429  1.00  0.00     0.163 C 
ATOM      3  O   UNL     1      15.941   4.119  -0.428  1.00  0.00    -0.294 OA
BRANCH   2   4
ATOM      4  C   UNL     1      15.377   2.243   0.873  1.00  0.00     0.048 C 
ATOM      5  C   UNL     1      14.998   2.885   1.989  1.00  0.00     0.012 C 
BRANCH   5   6
ATOM      6  C   UNL     1      14.827   2.211   3.300  1.00  0.00    -0.022 A 
ATOM      7  C   UNL     1      15.551   1.714   5.587  1.00  0.00     0.161 A 
ATOM      8  C   UNL     1      14.441   0.864   5.743  1.00  0.00     0.157 A 
ATOM      9  C   UNL     1      15.741   2.381   4.359  1.00  0.00     0.058 A 
ATOM     10  C   UNL     1      13.546   0.681   4.686  1.00  0.00     0.051 A 
ATOM     11  C   UNL     1      13.739   1.343   3.473  1.00  0.00     0.012 A 
BRANCH   7  12
ATOM     12  O   UNL     1      16.440   1.868   6.662  1.00  0.00    -0.493 OA
ATOM     13  C   UNL     1      17.596   1.064   6.878  1.00  0.00     0.278 C 
ENDBRANCH   7  12
BRANCH   8  14
ATOM     14  O   UNL     1      14.214   0.187   6.941  1.00  0.00    -0.504 OA
ATOM     15  H   UNL     1      13.311   0.191   7.400  1.00  0.00     0.293 HD
ENDBRANCH   8  14
ENDBRANCH   5   6
ENDBRANCH   2   4
ENDBRANCH   1   2
BRANCH   1  16
ATOM     16  C   UNL     1      13.773   2.052  -1.958  1.00  0.00     0.163 C 
ATOM     17  O   UNL     1      13.371   0.994  -2.513  1.00  0.00    -0.294 OA
BRANCH  16  18
ATOM     18  C   UNL     1      12.765   3.047  -1.530  1.00  0.00     0.048 C 
ATOM     19  C   UNL     1      11.915   2.849  -0.509  1.00  0.00     0.012 C 
BRANCH  19  20
ATOM     20  C   UNL     1      10.907   3.846  -0.076  1.00  0.00    -0.022 A 
ATOM     21  C   UNL     1       9.926   4.360  -0.949  1.00  0.00     0.058 A 
ATOM     22  C   UNL     1      10.908   4.261   1.264  1.00  0.00     0.012 A 
ATOM     23  C   UNL     1       8.979   5.298  -0.492  1.00  0.00     0.161 A 
ATOM     24  C   UNL     1       9.972   5.190   1.721  1.00  0.00     0.051 A 
ATOM     25  C   UNL     1       9.011   5.712   0.847  1.00  0.00     0.157 A 
BRANCH  23  26
ATOM     26  O   UNL     1       7.992   5.837  -1.333  1.00  0.00    -0.493 OA
ATOM     27  C   UNL     1       8.251   6.725  -2.416  1.00  0.00     0.278 C 
ENDBRANCH  23  26
BRANCH  25  28
ATOM     28  O   UNL     1       8.078   6.643   1.303  1.00  0.00    -0.504 OA
ATOM     29  H   UNL     1       7.668   7.330   0.681  1.00  0.00     0.293 HD
ENDBRANCH  25  28
ENDBRANCH  19  20
ENDBRANCH  16  18
ENDBRANCH   1  16
TORSDOF 10
ENDMDL
MODEL 2
REMARK VINA RESULT:    -5.773      2.215      3.171
REMARK INTER + INTRA:         -10.008
REMARK INTER:                  -9.053
REMARK INTRA:                  -0.954
REMARK UNBOUND:                -1.198
REMARK SMILES COc1cc(C=CC(=O)CC(=O)C=Cc2ccc(O)c(OC)c2)ccc1O
REMARK SMILES IDX 10 1 8 2 9 3 7 4 6 5 5 6 3 7 26 8 4 9 25 10 24 11 2 12 1 13
REMARK SMILES IDX 27 14 11 16 12 17 13 18 14 19 15 20 23 21 16 22 20 23 17 24
REMARK SMILES IDX 18 25 21 26 22 27 19 28
REMARK H PARENT 27 15 19 29
REMARK Flexibility Score: inf
ROOT
ATOM      1  C   UNL     1      15.677   3.682  -0.140  1.00  0.00     0.160 C 
ENDROOT
BRANCH   1   2
ATOM      2  C   UNL     1      14.915   3.783   1.161  1.00  0.00     0.163 C 
ATOM      3  O   UNL     1      13.905   4.535   1.232  1.00  0.00    -0.294 OA
BRANCH   2   4
ATOM      4  C   UNL     1      15.285   2.999   2.357  1.00  0.00     0.048 C 
ATOM      5  C   UNL     1      14.429   2.193   3.003  1.00  0.00     0.012 C 
BRANCH   5   6
ATOM      6  C   UNL     1      14.795   1.411   4.209  1.00  0.00    -0.022 A 
ATOM      7  C   UNL     1      16.231   0.965   6.144  1.00  0.00     0.161 A 
ATOM      8  C   UNL     1      15.436  -0.152   6.463  1.00  0.00     0.157 A 
ATOM      9  C   UNL     1      15.907   1.739   5.011  1.00  0.00     0.058 A 
ATOM     10  C   UNL     1      14.345  -0.487   5.658  1.00  0.00     0.051 A 
ATOM     11  C   UNL     1      14.030   0.283   4.537  1.00  0.00     0.012 A 
BRANCH   7  12
ATOM     12  O   UNL     1      17.329   1.269   6.964  1.00  0.00    -0.493 OA
ATOM     13  C   UNL     1      18.672   0.879   6.696  1.00  0.00     0.278 C 
ENDBRANCH   7  12
BRANCH   8  14
ATOM     14  O   UNL     1      15.719  -0.943   7.576  1.00  0.00    -0.504 OA
ATOM     15  H   UNL     1      15.694  -0.576   8.520  1.00  0.00     0.293 HD
ENDBRANCH   8  14
ENDBRANCH   5   6
ENDBRANCH   2   4
ENDBRANCH   1   2
BRANCH   1  16
ATOM     16  C   UNL     1      15.415   2.378  -0.849  1.00  0.00     0.163 C 
ATOM     17  O   UNL     1      16.371   1.813  -1.445  1.00  0.00    -0.294 OA
BRANCH  16  18
ATOM     18  C   UNL     1      14.091   1.717  -0.862  1.00  0.00     0.048 C 
ATOM     19  C   UNL     1      12.977   2.300  -1.335  1.00  0.00     0.012 C 
BRANCH  19  20
ATOM     20  C   UNL     1      11.650   1.639  -1.351  1.00  0.00    -0.022 A 
ATOM     21  C   UNL     1      10.458   2.325  -1.040  1.00  0.00     0.058 A 
ATOM     22  C   UNL     1      11.578   0.290  -1.730  1.00  0.00     0.012 A 
ATOM     23  C   UNL     1       9.216   1.660  -1.079  1.00  0.00     0.161 A 
ATOM     24  C   UNL     1      10.349  -0.372  -1.769  1.00  0.00     0.051 A 
ATOM     25  C   UNL     1       9.170   0.307  -1.442  1.00  0.00     0.157 A 
BRANCH  23  26
ATOM     26  O   UNL     1       8.009   2.309  -0.770  1.00  0.00    -0.493 OA
ATOM     27  C   UNL     1       7.916   3.599  -0.176  1.00  0.00     0.278 C 
ENDBRANCH  23  26
BRANCH  25  28
ATOM     28  O   UNL     1       7.944  -0.356  -1.479  1.00  0.00    -0.504 OA
ATOM     29  H   UNL     1       7.883  -1.346  -1.683  1.00  0.00     0.293 HD
ENDBRANCH  25  28
ENDBRANCH  19  20
ENDBRANCH  16  18
ENDBRANCH   1  16
TORSDOF 10
ENDMDL
MODEL 3
REMARK VINA RESULT:    -5.609      2.314      7.220
REMARK INTER + INTRA:          -9.758
REMARK INTER:                  -8.567
REMARK INTRA:                  -1.191
REMARK UNBOUND:                -1.198
REMARK SMILES COc1cc(C=CC(=O)CC(=O)C=Cc2ccc(O)c(OC)c2)ccc1O
REMARK SMILES IDX 10 1 8 2 9 3 7 4 6 5 5 6 3 7 26 8 4 9 25 10 24 11 2 12 1 13
REMARK SMILES IDX 27 14 11 16 12 17 13 18 14 19 15 20 23 21 16 22 20 23 17 24
REMARK SMILES IDX 18 25 21 26 22 27 19 28
REMARK H PARENT 27 15 19 29
REMARK Flexibility Score: inf
ROOT
ATOM      1  C   UNL     1       9.032   2.298  -0.491  1.00  0.00     0.160 C 
ENDROOT
BRANCH   1   2
ATOM      2  C   UNL     1       9.861   1.308  -1.273  1.00  0.00     0.163 C 
ATOM      3  O   UNL     1       9.300   0.310  -1.804  1.00  0.00    -0.294 OA
BRANCH   2   4
ATOM      4  C   UNL     1      11.313   1.480  -1.479  1.00  0.00     0.048 C 
ATOM      5  C   UNL     1      12.188   0.463  -1.439  1.00  0.00     0.012 C 
BRANCH   5   6
ATOM      6  C   UNL     1      13.649   0.635  -1.636  1.00  0.00    -0.022 A 
ATOM      7  C   UNL     1      15.763   1.805  -1.233  1.00  0.00     0.161 A 
ATOM      8  C   UNL     1      16.414   0.905  -2.096  1.00  0.00     0.157 A 
ATOM      9  C   UNL     1      14.377   1.667  -1.012  1.00  0.00     0.058 A 
ATOM     10  C   UNL     1      15.688  -0.107  -2.729  1.00  0.00     0.051 A 
ATOM     11  C   UNL     1      14.317  -0.239  -2.506  1.00  0.00     0.012 A 
BRANCH   7  12
ATOM     12  O   UNL     1      16.517   2.820  -0.623  1.00  0.00    -0.493 OA
ATOM     13  C   UNL     1      15.980   4.050  -0.144  1.00  0.00     0.278 C 
ENDBRANCH   7  12
BRANCH   8  14
ATOM     14  O   UNL     1      17.784   1.003  -2.341  1.00  0.00    -0.504 OA
ATOM     15  H   UNL     1      18.400   1.550  -1.750  1.00  0.00     0.293 HD
ENDBRANCH   8  14
ENDBRANCH   5   6
ENDBRANCH   2   4
ENDBRANCH   1   2
BRANCH   1  16
ATOM     16  C   UNL     1       9.782   2.854   0.693  1.00  0.00     0.163 C 
ATOM     17  O   UNL     1       9.538   4.034   1.061  1.00  0.00    -0.294 OA
BRANCH  16  18
ATOM     18  C   UNL     1      10.780   2.071   1.456  1.00  0.00     0.048 C 
ATOM     19  C   UNL     1      12.041   2.482   1.666  1.00  0.00     0.012 C 
BRANCH  19  20
ATOM     20  C   UNL     1      13.041   1.702   2.433  1.00  0.00    -0.022 A 
ATOM     21  C   UNL     1      14.064   2.314   3.186  1.00  0.00     0.058 A 
ATOM     22  C   UNL     1      12.938   0.302   2.439  1.00  0.00     0.012 A 
ATOM     23  C   UNL     1      14.987   1.533   3.910  1.00  0.00     0.161 A 
ATOM     24  C   UNL     1      13.850  -0.474   3.154  1.00  0.00     0.051 A 
ATOM     25  C   UNL     1      14.876   0.136   3.886  1.00  0.00     0.157 A 
BRANCH  23  26
ATOM     26  O   UNL     1      16.023   2.106   4.666  1.00  0.00    -0.493 OA
ATOM     27  C   UNL     1      16.022   2.210   6.087  1.00  0.00     0.278 C 
ENDBRANCH  23  26
BRANCH  25  28
ATOM     28  O   UNL     1      15.789  -0.641   4.598  1.00  0.00    -0.504 OA
ATOM     29  H   UNL     1      15.597  -0.950   5.544  1.00  0.00     0.293 HD
ENDBRANCH  25  28
ENDBRANCH  19  20
ENDBRANCH  16  18
ENDBRANCH   1  16
TORSDOF 10
ENDMDL
MODEL 4
REMARK VINA RESULT:    -5.569      3.269      7.810
REMARK INTER + INTRA:          -9.696
REMARK INTER:                  -8.586
REMARK INTRA:                  -1.111
REMARK UNBOUND:                -1.198
REMARK SMILES COc1cc(C=CC(=O)CC(=O)C=Cc2ccc(O)c(OC)c2)ccc1O
REMARK SMILES IDX 10 1 8 2 9 3 7 4 6 5 5 6 3 7 26 8 4 9 25 10 24 11 2 12 1 13
REMARK SMILES IDX 27 14 11 16 12 17 13 18 14 19 15 20 23 21 16 22 20 23 17 24
REMARK SMILES IDX 18 25 21 26 22 27 19 28
REMARK H PARENT 27 15 19 29
REMARK Flexibility Score: inf
ROOT
ATOM      1  C   UNL     1      16.664   0.285   5.540  1.00  0.00     0.160 C 
ENDROOT
BRANCH   1   2
ATOM      2  C   UNL     1      16.078   1.674   5.458  1.00  0.00     0.163 C 
ATOM      3  O   UNL     1      16.022   2.387   6.497  1.00  0.00    -0.294 OA
BRANCH   2   4
ATOM      4  C   UNL     1      15.595   2.256   4.189  1.00  0.00     0.048 C 
ATOM      5  C   UNL     1      15.008   1.532   3.224  1.00  0.00     0.012 C 
BRANCH   5   6
ATOM      6  C   UNL     1      14.530   2.112   1.944  1.00  0.00    -0.022 A 
ATOM      7  C   UNL     1      13.114   2.070  -0.054  1.00  0.00     0.161 A 
ATOM      8  C   UNL     1      13.711   3.267  -0.490  1.00  0.00     0.157 A 
ATOM      9  C   UNL     1      13.534   1.494   1.163  1.00  0.00     0.058 A 
ATOM     10  C   UNL     1      14.712   3.868   0.275  1.00  0.00     0.051 A 
ATOM     11  C   UNL     1      15.124   3.294   1.479  1.00  0.00     0.012 A 
BRANCH   7  12
ATOM     12  O   UNL     1      12.120   1.481  -0.852  1.00  0.00    -0.493 OA
ATOM     13  C   UNL     1      12.353   0.450  -1.807  1.00  0.00     0.278 C 
ENDBRANCH   7  12
BRANCH   8  14
ATOM     14  O   UNL     1      13.324   3.871  -1.686  1.00  0.00    -0.504 OA
ATOM     15  H   UNL     1      13.860   3.770  -2.540  1.00  0.00     0.293 HD
ENDBRANCH   8  14
ENDBRANCH   5   6
ENDBRANCH   2   4
ENDBRANCH   1   2
BRANCH   1  16
ATOM     16  C   UNL     1      15.931  -0.581   6.533  1.00  0.00     0.163 C 
ATOM     17  O   UNL     1      16.589  -1.125   7.460  1.00  0.00    -0.294 OA
BRANCH  16  18
ATOM     18  C   UNL     1      14.469  -0.806   6.483  1.00  0.00     0.048 C 
ATOM     19  C   UNL     1      13.590  -0.136   7.246  1.00  0.00     0.012 C 
BRANCH  19  20
ATOM     20  C   UNL     1      12.125  -0.357   7.196  1.00  0.00    -0.022 A 
ATOM     21  C   UNL     1      11.416  -0.461   5.982  1.00  0.00     0.058 A 
ATOM     22  C   UNL     1      11.428  -0.508   8.404  1.00  0.00     0.012 A 
ATOM     23  C   UNL     1      10.024  -0.683   5.980  1.00  0.00     0.161 A 
ATOM     24  C   UNL     1      10.050  -0.727   8.407  1.00  0.00     0.051 A 
ATOM     25  C   UNL     1       9.346  -0.812   7.201  1.00  0.00     0.157 A 
BRANCH  23  26
ATOM     26  O   UNL     1       9.283  -0.787   4.792  1.00  0.00    -0.493 OA
ATOM     27  C   UNL     1       9.752  -0.380   3.510  1.00  0.00     0.278 C 
ENDBRANCH  23  26
BRANCH  25  28
ATOM     28  O   UNL     1       7.968  -1.029   7.204  1.00  0.00    -0.504 OA
ATOM     29  H   UNL     1       7.358  -0.550   7.856  1.00  0.00     0.293 HD
ENDBRANCH  25  28
ENDBRANCH  19  20
ENDBRANCH  16  18
ENDBRANCH   1  16
TORSDOF 10
ENDMDL
MODEL 5
REMARK VINA RESULT:    -5.532      2.472      5.636
REMARK INTER + INTRA:          -9.639
REMARK INTER:                  -8.387
REMARK INTRA:                  -1.253
REMARK UNBOUND:                -1.198
REMARK SMILES COc1cc(C=CC(=O)CC(=O)C=Cc2ccc(O)c(OC)c2)ccc1O
REMARK SMILES IDX 10 1 8 2 9 3 7 4 6 5 5 6 3 7 26 8 4 9 25 10 24 11 2 12 1 13
REMARK SMILES IDX 27 14 11 16 12 17 13 18 14 19 15 20 23 21 16 22 20 23 17 24
REMARK SMILES IDX 18 25 21 26 22 27 19 28
REMARK H PARENT 27 15 19 29
REMARK Flexibility Score: inf
ROOT
ATOM      1  C   UNL     1       9.009   1.785  -0.778  1.00  0.00     0.160 C 
ENDROOT
BRANCH   1   2
ATOM      2  C   UNL     1       9.632   2.375   0.465  1.00  0.00     0.163 C 
ATOM      3  O   UNL     1       9.238   3.498   0.883  1.00  0.00    -0.294 OA
BRANCH   2   4
ATOM      4  C   UNL     1      10.668   1.667   1.243  1.00  0.00     0.048 C 
ATOM      5  C   UNL     1      11.839   2.223   1.587  1.00  0.00     0.012 C 
BRANCH   5   6
ATOM      6  C   UNL     1      12.886   1.511   2.362  1.00  0.00    -0.022 A 
ATOM      7  C   UNL     1      14.886   1.481   3.777  1.00  0.00     0.161 A 
ATOM      8  C   UNL     1      14.853   0.074   3.776  1.00  0.00     0.157 A 
ATOM      9  C   UNL     1      13.901   2.193   3.061  1.00  0.00     0.058 A 
ATOM     10  C   UNL     1      13.858  -0.601   3.067  1.00  0.00     0.051 A 
ATOM     11  C   UNL     1      12.885   0.109   2.360  1.00  0.00     0.012 A 
BRANCH   7  12
ATOM     12  O   UNL     1      15.906   2.132   4.487  1.00  0.00    -0.493 OA
ATOM     13  C   UNL     1      15.968   2.230   5.908  1.00  0.00     0.278 C 
ENDBRANCH   7  12
BRANCH   8  14
ATOM     14  O   UNL     1      15.806  -0.669   4.472  1.00  0.00    -0.504 OA
ATOM     15  H   UNL     1      16.179  -1.540   4.113  1.00  0.00     0.293 HD
ENDBRANCH   8  14
ENDBRANCH   5   6
ENDBRANCH   2   4
ENDBRANCH   1   2
BRANCH   1  16
ATOM     16  C   UNL     1       9.977   0.912  -1.535  1.00  0.00     0.163 C 
ATOM     17  O   UNL     1       9.541  -0.133  -2.088  1.00  0.00    -0.294 OA
BRANCH  16  18
ATOM     18  C   UNL     1      11.415   1.235  -1.678  1.00  0.00     0.048 C 
ATOM     19  C   UNL     1      12.389   0.312  -1.633  1.00  0.00     0.012 C 
BRANCH  19  20
ATOM     20  C   UNL     1      13.829   0.633  -1.779  1.00  0.00    -0.022 A 
ATOM     21  C   UNL     1      14.427   1.741  -1.144  1.00  0.00     0.058 A 
ATOM     22  C   UNL     1      14.632  -0.224  -2.547  1.00  0.00     0.012 A 
ATOM     23  C   UNL     1      15.803   2.003  -1.301  1.00  0.00     0.161 A 
ATOM     24  C   UNL     1      15.995   0.032  -2.705  1.00  0.00     0.051 A 
ATOM     25  C   UNL     1      16.581   1.143  -2.088  1.00  0.00     0.157 A 
BRANCH  23  26
ATOM     26  O   UNL     1      16.431   3.100  -0.689  1.00  0.00    -0.493 OA
ATOM     27  C   UNL     1      15.747   4.136   0.009  1.00  0.00     0.278 C 
ENDBRANCH  23  26
BRANCH  25  28
ATOM     28  O   UNL     1      17.943   1.400  -2.249  1.00  0.00    -0.504 OA
ATOM     29  H   UNL     1      18.298   2.345  -2.328  1.00  0.00     0.293 HD
ENDBRANCH  25  28
ENDBRANCH  19  20
ENDBRANCH  16  18
ENDBRANCH   1  16
TORSDOF 10
ENDMDL
MODEL 6
REMARK VINA RESULT:    -5.401      2.369      3.667
REMARK INTER + INTRA:          -9.441
REMARK INTER:                  -8.355
REMARK INTRA:                  -1.087
REMARK UNBOUND:                -1.198
REMARK SMILES COc1cc(C=CC(=O)CC(=O)C=Cc2ccc(O)c(OC)c2)ccc1O
REMARK SMILES IDX 10 1 8 2 9 3 7 4 6 5 5 6 3 7 26 8 4 9 25 10 24 11 2 12 1 13
REMARK SMILES IDX 27 14 11 16 12 17 13 18 14 19 15 20 23 21 16 22 20 23 17 24
REMARK SMILES IDX 18 25 21 26 22 27 19 28
REMARK H PARENT 27 15 19 29
REMARK Flexibility Score: inf
ROOT
ATOM      1  C   UNL     1      15.547   4.024  -0.147  1.00  0.00     0.160 C 
ENDROOT
BRANCH   1   2
ATOM      2  C   UNL     1      14.717   4.034   1.116  1.00  0.00     0.163 C 
ATOM      3  O   UNL     1      13.689   4.763   1.177  1.00  0.00    -0.294 OA
BRANCH   2   4
ATOM      4  C   UNL     1      15.040   3.187   2.281  1.00  0.00     0.048 C 
ATOM      5  C   UNL     1      14.149   2.378   2.874  1.00  0.00     0.012 C 
BRANCH   5   6
ATOM      6  C   UNL     1      14.469   1.532   4.050  1.00  0.00    -0.022 A 
ATOM      7  C   UNL     1      13.858  -0.103   5.769  1.00  0.00     0.161 A 
ATOM      8  C   UNL     1      15.155  -0.011   6.304  1.00  0.00     0.157 A 
ATOM      9  C   UNL     1      13.520   0.677   4.644  1.00  0.00     0.058 A 
ATOM     10  C   UNL     1      16.090   0.851   5.727  1.00  0.00     0.051 A 
ATOM     11  C   UNL     1      15.750   1.621   4.614  1.00  0.00     0.012 A 
BRANCH   7  12
ATOM     12  O   UNL     1      12.935  -0.969   6.379  1.00  0.00    -0.493 OA
ATOM     13  C   UNL     1      11.682  -0.564   6.922  1.00  0.00     0.278 C 
ENDBRANCH   7  12
BRANCH   8  14
ATOM     14  O   UNL     1      15.532  -0.766   7.414  1.00  0.00    -0.504 OA
ATOM     15  H   UNL     1      15.633  -1.774   7.373  1.00  0.00     0.293 HD
ENDBRANCH   8  14
ENDBRANCH   5   6
ENDBRANCH   2   4
ENDBRANCH   1   2
BRANCH   1  16
ATOM     16  C   UNL     1      15.168   2.889  -1.064  1.00  0.00     0.163 C 
ATOM     17  O   UNL     1      16.087   2.260  -1.654  1.00  0.00    -0.294 OA
BRANCH  16  18
ATOM     18  C   UNL     1      13.769   2.465  -1.288  1.00  0.00     0.048 C 
ATOM     19  C   UNL     1      13.217   1.392  -0.699  1.00  0.00     0.012 C 
BRANCH  19  20
ATOM     20  C   UNL     1      11.814   0.966  -0.919  1.00  0.00    -0.022 A 
ATOM     21  C   UNL     1      10.714   1.794  -0.614  1.00  0.00     0.058 A 
ATOM     22  C   UNL     1      11.578  -0.294  -1.490  1.00  0.00     0.012 A 
ATOM     23  C   UNL     1       9.396   1.354  -0.850  1.00  0.00     0.161 A 
ATOM     24  C   UNL     1      10.274  -0.734  -1.726  1.00  0.00     0.051 A 
ATOM     25  C   UNL     1       9.184   0.083  -1.404  1.00  0.00     0.157 A 
BRANCH  23  26
ATOM     26  O   UNL     1       8.276   2.147  -0.554  1.00  0.00    -0.493 OA
ATOM     27  C   UNL     1       8.252   3.569  -0.631  1.00  0.00     0.278 C 
ENDBRANCH  23  26
BRANCH  25  28
ATOM     28  O   UNL     1       7.882  -0.358  -1.637  1.00  0.00    -0.504 OA
ATOM     29  H   UNL     1       7.119  -0.107  -1.020  1.00  0.00     0.293 HD
ENDBRANCH  25  28
ENDBRANCH  19  20
ENDBRANCH  16  18
ENDBRANCH   1  16
TORSDOF 10
ENDMDL
MODEL 7
REMARK VINA RESULT:    -5.360      3.023      6.332
REMARK INTER + INTRA:          -9.377
REMARK INTER:                  -8.182
REMARK INTRA:                  -1.195
REMARK UNBOUND:                -1.198
REMARK SMILES COc1cc(C=CC(=O)CC(=O)C=Cc2ccc(O)c(OC)c2)ccc1O
REMARK SMILES IDX 10 1 8 2 9 3 7 4 6 5 5 6 3 7 26 8 4 9 25 10 24 11 2 12 1 13
REMARK SMILES IDX 27 14 11 16 12 17 13 18 14 19 15 20 23 21 16 22 20 23 17 24
REMARK SMILES IDX 18 25 21 26 22 27 19 28
REMARK H PARENT 27 15 19 29
REMARK Flexibility Score: inf
ROOT
ATOM      1  C   UNL     1      16.770   0.506   5.527  1.00  0.00     0.160 C 
ENDROOT
BRANCH   1   2
ATOM      2  C   UNL     1      16.022  -0.464   6.411  1.00  0.00     0.163 C 
ATOM      3  O   UNL     1      16.652  -1.125   7.280  1.00  0.00    -0.294 OA
BRANCH   2   4
ATOM      4  C   UNL     1      14.558  -0.646   6.324  1.00  0.00     0.048 C 
ATOM      5  C   UNL     1      13.709  -0.242   7.280  1.00  0.00     0.012 C 
BRANCH   5   6
ATOM      6  C   UNL     1      12.239  -0.431   7.200  1.00  0.00    -0.022 A 
ATOM      7  C   UNL     1      10.139  -0.551   5.944  1.00  0.00     0.161 A 
ATOM      8  C   UNL     1       9.443  -0.766   7.147  1.00  0.00     0.157 A 
ATOM      9  C   UNL     1      11.538  -0.379   5.979  1.00  0.00     0.058 A 
ATOM     10  C   UNL     1      10.136  -0.799   8.360  1.00  0.00     0.051 A 
ATOM     11  C   UNL     1      11.521  -0.627   8.388  1.00  0.00     0.012 A 
BRANCH   7  12
ATOM     12  O   UNL     1       9.414  -0.510   4.742  1.00  0.00    -0.493 OA
ATOM     13  C   UNL     1       9.992  -0.323   3.454  1.00  0.00     0.278 C 
ENDBRANCH   7  12
BRANCH   8  14
ATOM     14  O   UNL     1       8.060  -0.944   7.158  1.00  0.00    -0.504 OA
ATOM     15  H   UNL     1       7.454  -0.504   6.476  1.00  0.00     0.293 HD
ENDBRANCH   8  14
ENDBRANCH   5   6
ENDBRANCH   2   4
ENDBRANCH   1   2
BRANCH   1  16
ATOM     16  C   UNL     1      16.091   1.850   5.460  1.00  0.00     0.163 C 
ATOM     17  O   UNL     1      16.014   2.539   6.512  1.00  0.00    -0.294 OA
BRANCH  16  18
ATOM     18  C   UNL     1      15.527   2.409   4.211  1.00  0.00     0.048 C 
ATOM     19  C   UNL     1      14.997   1.655   3.235  1.00  0.00     0.012 C 
BRANCH  19  20
ATOM     20  C   UNL     1      14.429   2.213   1.984  1.00  0.00    -0.022 A 
ATOM     21  C   UNL     1      13.063   2.539   1.852  1.00  0.00     0.058 A 
ATOM     22  C   UNL     1      15.294   2.461   0.908  1.00  0.00     0.012 A 
ATOM     23  C   UNL     1      12.567   3.078   0.648  1.00  0.00     0.161 A 
ATOM     24  C   UNL     1      14.807   2.994  -0.286  1.00  0.00     0.051 A 
ATOM     25  C   UNL     1      13.448   3.299  -0.421  1.00  0.00     0.157 A 
BRANCH  23  26
ATOM     26  O   UNL     1      11.214   3.409   0.477  1.00  0.00    -0.493 OA
ATOM     27  C   UNL     1      10.125   2.569   0.844  1.00  0.00     0.278 C 
ENDBRANCH  23  26
BRANCH  25  28
ATOM     28  O   UNL     1      12.961   3.830  -1.615  1.00  0.00    -0.504 OA
ATOM     29  H   UNL     1      12.161   3.426  -2.088  1.00  0.00     0.293 HD
ENDBRANCH  25  28
ENDBRANCH  19  20
ENDBRANCH  16  18
ENDBRANCH   1  16
TORSDOF 10
ENDMDL
MODEL 8
REMARK VINA RESULT:    -5.283      2.063      7.063
REMARK INTER + INTRA:          -9.260
REMARK INTER:                  -7.900
REMARK INTRA:                  -1.360
REMARK UNBOUND:                -1.198
REMARK SMILES COc1cc(C=CC(=O)CC(=O)C=Cc2ccc(O)c(OC)c2)ccc1O
REMARK SMILES IDX 10 1 8 2 9 3 7 4 6 5 5 6 3 7 26 8 4 9 25 10 24 11 2 12 1 13
REMARK SMILES IDX 27 14 11 16 12 17 13 18 14 19 15 20 23 21 16 22 20 23 17 24
REMARK SMILES IDX 18 25 21 26 22 27 19 28
REMARK H PARENT 27 15 19 29
REMARK Flexibility Score: inf
ROOT
ATOM      1  C   UNL     1      13.870  -0.243   5.879  1.00  0.00     0.160 C 
ENDROOT
BRANCH   1   2
ATOM      2  C   UNL     1      12.658  -0.602   5.053  1.00  0.00     0.163 C 
ATOM      3  O   UNL     1      11.644  -1.093   5.620  1.00  0.00    -0.294 OA
BRANCH   2   4
ATOM      4  C   UNL     1      12.594  -0.364   3.596  1.00  0.00     0.048 C 
ATOM      5  C   UNL     1      11.558   0.238   2.993  1.00  0.00     0.012 C 
BRANCH   5   6
ATOM      6  C   UNL     1      11.488   0.471   1.529  1.00  0.00    -0.022 A 
ATOM      7  C   UNL     1      10.937   1.852  -0.418  1.00  0.00     0.161 A 
ATOM      8  C   UNL     1      11.359   0.810  -1.264  1.00  0.00     0.157 A 
ATOM      9  C   UNL     1      11.000   1.673   0.980  1.00  0.00     0.058 A 
ATOM     10  C   UNL     1      11.825  -0.388  -0.718  1.00  0.00     0.051 A 
ATOM     11  C   UNL     1      11.884  -0.560   0.665  1.00  0.00     0.012 A 
BRANCH   7  12
ATOM     12  O   UNL     1      10.461   3.040  -0.994  1.00  0.00    -0.493 OA
ATOM     13  C   UNL     1      10.261   4.261  -0.287  1.00  0.00     0.278 C 
ENDBRANCH   7  12
BRANCH   8  14
ATOM     14  O   UNL     1      11.316   0.947  -2.651  1.00  0.00    -0.504 OA
ATOM     15  H   UNL     1      11.455   0.161  -3.275  1.00  0.00     0.293 HD
ENDBRANCH   8  14
ENDBRANCH   5   6
ENDBRANCH   2   4
ENDBRANCH   1   2
BRANCH   1  16
ATOM     16  C   UNL     1      14.367   1.149   5.579  1.00  0.00     0.163 C 
ATOM     17  O   UNL     1      14.997   1.770   6.477  1.00  0.00    -0.294 OA
BRANCH  16  18
ATOM     18  C   UNL     1      14.167   1.813   4.272  1.00  0.00     0.048 C 
ATOM     19  C   UNL     1      15.027   1.703   3.247  1.00  0.00     0.012 C 
BRANCH  19  20
ATOM     20  C   UNL     1      14.828   2.365   1.935  1.00  0.00    -0.022 A 
ATOM     21  C   UNL     1      14.960   1.677   0.712  1.00  0.00     0.058 A 
ATOM     22  C   UNL     1      14.457   3.718   1.917  1.00  0.00     0.012 A 
ATOM     23  C   UNL     1      14.751   2.343  -0.513  1.00  0.00     0.161 A 
ATOM     24  C   UNL     1      14.249   4.381   0.707  1.00  0.00     0.051 A 
ATOM     25  C   UNL     1      14.398   3.700  -0.507  1.00  0.00     0.157 A 
BRANCH  23  26
ATOM     26  O   UNL     1      14.879   1.693  -1.751  1.00  0.00    -0.493 OA
ATOM     27  C   UNL     1      15.236   0.324  -1.910  1.00  0.00     0.278 C 
ENDBRANCH  23  26
BRANCH  25  28
ATOM     28  O   UNL     1      14.193   4.364  -1.716  1.00  0.00    -0.504 OA
ATOM     29  H   UNL     1      14.310   5.367  -1.796  1.00  0.00     0.293 HD
ENDBRANCH  25  28
ENDBRANCH  19  20
ENDBRANCH  16  18
ENDBRANCH   1  16
TORSDOF 10
ENDMDL
MODEL 9
REMARK VINA RESULT:    -5.194     14.493     18.861
REMARK INTER + INTRA:          -9.124
REMARK INTER:                  -8.232
REMARK INTRA:                  -0.892
REMARK UNBOUND:                -1.198
REMARK SMILES COc1cc(C=CC(=O)CC(=O)C=Cc2ccc(O)c(OC)c2)ccc1O
REMARK SMILES IDX 10 1 8 2 9 3 7 4 6 5 5 6 3 7 26 8 4 9 25 10 24 11 2 12 1 13
REMARK SMILES IDX 27 14 11 16 12 17 13 18 14 19 15 20 23 21 16 22 20 23 17 24
REMARK SMILES IDX 18 25 21 26 22 27 19 28
REMARK H PARENT 27 15 19 29
REMARK Flexibility Score: inf
ROOT
ATOM      1  C   UNL     1      27.741  12.448  10.980  1.00  0.00     0.160 C 
ENDROOT
BRANCH   1   2
ATOM      2  C   UNL     1      27.626  13.946  10.817  1.00  0.00     0.163 C 
ATOM      3  O   UNL     1      28.125  14.706  11.691  1.00  0.00    -0.294 OA
BRANCH   2   4
ATOM      4  C   UNL     1      26.978  14.565   9.643  1.00  0.00     0.048 C 
ATOM      5  C   UNL     1      27.492  14.511   8.405  1.00  0.00     0.012 C 
BRANCH   5   6
ATOM      6  C   UNL     1      26.848  15.141   7.225  1.00  0.00    -0.022 A 
ATOM      7  C   UNL     1      24.990  15.381   5.647  1.00  0.00     0.161 A 
ATOM      8  C   UNL     1      25.719  16.365   4.954  1.00  0.00     0.157 A 
ATOM      9  C   UNL     1      25.564  14.769   6.780  1.00  0.00     0.058 A 
ATOM     10  C   UNL     1      26.999  16.720   5.385  1.00  0.00     0.051 A 
ATOM     11  C   UNL     1      27.563  16.110   6.507  1.00  0.00     0.012 A 
BRANCH   7  12
ATOM     12  O   UNL     1      23.711  15.036   5.182  1.00  0.00    -0.493 OA
ATOM     13  C   UNL     1      22.911  13.985   5.718  1.00  0.00     0.278 C 
ENDBRANCH   7  12
BRANCH   8  14
ATOM     14  O   UNL     1      25.188  16.998   3.830  1.00  0.00    -0.504 OA
ATOM     15  H   UNL     1      24.395  17.627   3.889  1.00  0.00     0.293 HD
ENDBRANCH   8  14
ENDBRANCH   5   6
ENDBRANCH   2   4
ENDBRANCH   1   2
BRANCH   1  16
ATOM     16  C   UNL     1      26.490  11.733  10.536  1.00  0.00     0.163 C 
ATOM     17  O   UNL     1      25.417  11.955  11.158  1.00  0.00    -0.294 OA
BRANCH  16  18
ATOM     18  C   UNL     1      26.459  10.797   9.390  1.00  0.00     0.048 C 
ATOM     19  C   UNL     1      26.083   9.512   9.494  1.00  0.00     0.012 C 
BRANCH  19  20
ATOM     20  C   UNL     1      26.047   8.573   8.347  1.00  0.00    -0.022 A 
ATOM     21  C   UNL     1      26.916   7.467   8.247  1.00  0.00     0.058 A 
ATOM     22  C   UNL     1      25.085   8.774   7.346  1.00  0.00     0.012 A 
ATOM     23  C   UNL     1      26.840   6.593   7.144  1.00  0.00     0.161 A 
ATOM     24  C   UNL     1      25.007   7.911   6.252  1.00  0.00     0.051 A 
ATOM     25  C   UNL     1      25.883   6.824   6.146  1.00  0.00     0.157 A 
BRANCH  23  26
ATOM     26  O   UNL     1      27.692   5.485   7.006  1.00  0.00    -0.493 OA
ATOM     27  C   UNL     1      27.723   4.375   7.898  1.00  0.00     0.278 C 
ENDBRANCH  23  26
BRANCH  25  28
ATOM     28  O   UNL     1      25.806   5.963   5.052  1.00  0.00    -0.504 OA
ATOM     29  H   UNL     1      24.915   5.682   4.660  1.00  0.00     0.293 HD
ENDBRANCH  25  28
ENDBRANCH  19  20
ENDBRANCH  16  18
ENDBRANCH   1  16
TORSDOF 10
ENDMDL
