MODEL 1
REMARK VINA RESULT:    -4.652      0.000      0.000
REMARK INTER + INTRA:          -5.089
REMARK INTER:                  -5.060
REMARK INTRA:                  -0.029
REMARK UNBOUND:                -0.029
REMARK SMILES O=C([O-])c1ccc(O)cc1
REMARK SMILES IDX 4 1 5 2 10 3 6 4 9 5 7 6 2 7 1 8 3 9 8 10
REMARK H PARENT 8 11
REMARK Flexibility Score: inf
ROOT
ATOM      1  C   UNL     1     -21.472  -2.447  18.780  1.00  0.00    -0.003 A 
ATOM      2  C   UNL     1     -21.737  -1.633  19.897  1.00  0.00     0.014 A 
ATOM      3  C   UNL     1     -20.999  -3.755  18.986  1.00  0.00     0.014 A 
ATOM      4  C   UNL     1     -21.533  -2.121  21.192  1.00  0.00     0.047 A 
ATOM      5  C   UNL     1     -20.797  -4.239  20.283  1.00  0.00     0.047 A 
ATOM      6  C   UNL     1     -21.062  -3.425  21.387  1.00  0.00     0.115 A 
ENDROOT
BRANCH   1   7
ATOM      7  C   UNL     1     -21.686  -1.938  17.408  1.00  0.00     0.071 C 
ATOM      8  O   UNL     1     -20.743  -1.927  16.573  1.00  0.00    -0.545 OA
ATOM      9  O   UNL     1     -22.934  -1.463  17.019  1.00  0.00    -0.545 OA
ENDBRANCH   1   7
BRANCH   6  10
ATOM     10  O   UNL     1     -20.855  -3.921  22.673  1.00  0.00    -0.508 OA
ATOM     11  H   UNL     1     -20.036  -3.666  23.213  1.00  0.00     0.293 HD
ENDBRANCH   6  10
TORSDOF 2
ENDMDL
MODEL 2
REMARK VINA RESULT:    -4.576      2.032      3.862
REMARK INTER + INTRA:          -5.007
REMARK INTER:                  -4.979
REMARK INTRA:                  -0.028
REMARK UNBOUND:                -0.029
REMARK SMILES O=C([O-])c1ccc(O)cc1
REMARK SMILES IDX 4 1 5 2 10 3 6 4 9 5 7 6 2 7 1 8 3 9 8 10
REMARK H PARENT 8 11
REMARK Flexibility Score: inf
ROOT
ATOM      1  C   UNL     1     -21.030  -2.261  20.314  1.00  0.00    -0.003 A 
ATOM      2  C   UNL     1     -21.565  -2.050  19.030  1.00  0.00     0.014 A 
ATOM      3  C   UNL     1     -19.843  -3.005  20.445  1.00  0.00     0.014 A 
ATOM      4  C   UNL     1     -20.924  -2.572  17.902  1.00  0.00     0.047 A 
ATOM      5  C   UNL     1     -19.206  -3.526  19.314  1.00  0.00     0.047 A 
ATOM      6  C   UNL     1     -19.743  -3.311  18.042  1.00  0.00     0.115 A 
ENDROOT
BRANCH   1   7
ATOM      7  C   UNL     1     -21.702  -1.711  21.511  1.00  0.00     0.071 C 
ATOM      8  O   UNL     1     -21.691  -0.473  21.741  1.00  0.00    -0.545 OA
ATOM      9  O   UNL     1     -22.358  -2.555  22.401  1.00  0.00    -0.545 OA
ENDBRANCH   1   7
BRANCH   6  10
ATOM     10  O   UNL     1     -19.096  -3.837  16.925  1.00  0.00    -0.508 OA
ATOM     11  H   UNL     1     -18.085  -3.878  16.870  1.00  0.00     0.293 HD
ENDBRANCH   6  10
TORSDOF 2
ENDMDL
MODEL 3
REMARK VINA RESULT:    -4.463     17.096     18.519
REMARK INTER + INTRA:          -4.883
REMARK INTER:                  -4.853
REMARK INTRA:                  -0.030
REMARK UNBOUND:                -0.029
REMARK SMILES O=C([O-])c1ccc(O)cc1
REMARK SMILES IDX 4 1 5 2 10 3 6 4 9 5 7 6 2 7 1 8 3 9 8 10
REMARK H PARENT 8 11
REMARK Flexibility Score: inf
ROOT
ATOM      1  C   UNL     1      -7.787  -5.866   7.645  1.00  0.00    -0.003 A 
ATOM      2  C   UNL     1      -9.138  -6.010   8.009  1.00  0.00     0.014 A 
ATOM      3  C   UNL     1      -7.457  -5.030   6.564  1.00  0.00     0.014 A 
ATOM      4  C   UNL     1     -10.136  -5.330   7.305  1.00  0.00     0.047 A 
ATOM      5  C   UNL     1      -8.458  -4.351   5.862  1.00  0.00     0.047 A 
ATOM      6  C   UNL     1      -9.798  -4.499   6.229  1.00  0.00     0.115 A 
ENDROOT
BRANCH   1   7
ATOM      7  C   UNL     1      -6.725  -6.582   8.386  1.00  0.00     0.071 C 
ATOM      8  O   UNL     1      -5.746  -5.955   8.870  1.00  0.00    -0.545 OA
ATOM      9  O   UNL     1      -6.794  -7.960   8.560  1.00  0.00    -0.545 OA
ENDBRANCH   1   7
BRANCH   6  10
ATOM     10  O   UNL     1     -10.785  -3.817   5.520  1.00  0.00    -0.508 OA
ATOM     11  H   UNL     1     -10.785  -3.791   4.507  1.00  0.00     0.293 HD
ENDBRANCH   6  10
TORSDOF 2
ENDMDL
MODEL 4
REMARK VINA RESULT:    -4.441      1.857      2.804
REMARK INTER + INTRA:          -4.860
REMARK INTER:                  -4.824
REMARK INTRA:                  -0.035
REMARK UNBOUND:                -0.029
REMARK SMILES O=C([O-])c1ccc(O)cc1
REMARK SMILES IDX 4 1 5 2 10 3 6 4 9 5 7 6 2 7 1 8 3 9 8 10
REMARK H PARENT 8 11
REMARK Flexibility Score: inf
ROOT
ATOM      1  C   UNL     1     -20.644  -3.257  19.786  1.00  0.00    -0.003 A 
ATOM      2  C   UNL     1     -20.775  -3.959  20.998  1.00  0.00     0.014 A 
ATOM      3  C   UNL     1     -21.138  -1.942  19.703  1.00  0.00     0.014 A 
ATOM      4  C   UNL     1     -21.386  -3.358  22.102  1.00  0.00     0.047 A 
ATOM      5  C   UNL     1     -21.749  -1.344  20.810  1.00  0.00     0.047 A 
ATOM      6  C   UNL     1     -21.875  -2.048  22.010  1.00  0.00     0.115 A 
ENDROOT
BRANCH   1   7
ATOM      7  C   UNL     1     -19.998  -3.887  18.615  1.00  0.00     0.071 C 
ATOM      8  O   UNL     1     -20.143  -3.400  17.462  1.00  0.00    -0.545 OA
ATOM      9  O   UNL     1     -19.219  -5.028  18.769  1.00  0.00    -0.545 OA
ENDBRANCH   1   7
BRANCH   6  10
ATOM     10  O   UNL     1     -22.487  -1.439  23.104  1.00  0.00    -0.508 OA
ATOM     11  H   UNL     1     -22.939  -0.535  23.022  1.00  0.00     0.293 HD
ENDBRANCH   6  10
TORSDOF 2
ENDMDL
MODEL 5
REMARK VINA RESULT:    -4.439     17.081     18.518
REMARK INTER + INTRA:          -4.858
REMARK INTER:                  -4.828
REMARK INTRA:                  -0.030
REMARK UNBOUND:                -0.029
REMARK SMILES O=C([O-])c1ccc(O)cc1
REMARK SMILES IDX 4 1 5 2 10 3 6 4 9 5 7 6 2 7 1 8 3 9 8 10
REMARK H PARENT 8 11
REMARK Flexibility Score: inf
ROOT
ATOM      1  C   UNL     1      -7.758  -5.854   7.678  1.00  0.00    -0.003 A 
ATOM      2  C   UNL     1      -7.430  -5.042   6.577  1.00  0.00     0.014 A 
ATOM      3  C   UNL     1      -9.107  -5.980   8.055  1.00  0.00     0.014 A 
ATOM      4  C   UNL     1      -8.433  -4.373   5.868  1.00  0.00     0.047 A 
ATOM      5  C   UNL     1     -10.107  -5.308   7.345  1.00  0.00     0.047 A 
ATOM      6  C   UNL     1      -9.774  -4.504   6.251  1.00  0.00     0.115 A 
ENDROOT
BRANCH   1   7
ATOM      7  C   UNL     1      -6.702  -6.565   8.432  1.00  0.00     0.071 C 
ATOM      8  O   UNL     1      -5.694  -5.947   8.862  1.00  0.00    -0.545 OA
ATOM      9  O   UNL     1      -6.810  -7.930   8.676  1.00  0.00    -0.545 OA
ENDBRANCH   1   7
BRANCH   6  10
ATOM     10  O   UNL     1     -10.781  -3.840   5.553  1.00  0.00    -0.508 OA
ATOM     11  H   UNL     1     -11.056  -2.895   5.793  1.00  0.00     0.293 HD
ENDBRANCH   6  10
TORSDOF 2
ENDMDL
MODEL 6
REMARK VINA RESULT:    -4.434      2.022      2.990
REMARK INTER + INTRA:          -4.852
REMARK INTER:                  -4.816
REMARK INTRA:                  -0.036
REMARK UNBOUND:                -0.029
REMARK SMILES O=C([O-])c1ccc(O)cc1
REMARK SMILES IDX 4 1 5 2 10 3 6 4 9 5 7 6 2 7 1 8 3 9 8 10
REMARK H PARENT 8 11
REMARK Flexibility Score: inf
ROOT
ATOM      1  C   UNL     1     -21.106  -3.046  20.345  1.00  0.00    -0.003 A 
ATOM      2  C   UNL     1     -21.373  -1.735  19.913  1.00  0.00     0.014 A 
ATOM      3  C   UNL     1     -21.201  -3.346  21.716  1.00  0.00     0.014 A 
ATOM      4  C   UNL     1     -21.729  -0.745  20.834  1.00  0.00     0.047 A 
ATOM      5  C   UNL     1     -21.557  -2.353  22.635  1.00  0.00     0.047 A 
ATOM      6  C   UNL     1     -21.822  -1.052  22.198  1.00  0.00     0.115 A 
ENDROOT
BRANCH   1   7
ATOM      7  C   UNL     1     -20.730  -4.099  19.376  1.00  0.00     0.071 C 
ATOM      8  O   UNL     1     -20.636  -5.301  19.738  1.00  0.00    -0.545 OA
ATOM      9  O   UNL     1     -20.476  -3.774  18.048  1.00  0.00    -0.545 OA
ENDBRANCH   1   7
BRANCH   6  10
ATOM     10  O   UNL     1     -22.175  -0.073  23.125  1.00  0.00    -0.508 OA
ATOM     11  H   UNL     1     -23.016   0.480  23.015  1.00  0.00     0.293 HD
ENDBRANCH   6  10
TORSDOF 2
ENDMDL
MODEL 7
REMARK VINA RESULT:    -4.238     16.770     18.426
REMARK INTER + INTRA:          -4.639
REMARK INTER:                  -4.611
REMARK INTRA:                  -0.028
REMARK UNBOUND:                -0.029
REMARK SMILES O=C([O-])c1ccc(O)cc1
REMARK SMILES IDX 4 1 5 2 10 3 6 4 9 5 7 6 2 7 1 8 3 9 8 10
REMARK H PARENT 8 11
REMARK Flexibility Score: inf
ROOT
ATOM      1  C   UNL     1      -8.383  -4.565   7.961  1.00  0.00    -0.003 A 
ATOM      2  C   UNL     1      -7.318  -3.659   7.804  1.00  0.00     0.014 A 
ATOM      3  C   UNL     1      -9.153  -4.914   6.837  1.00  0.00     0.014 A 
ATOM      4  C   UNL     1      -7.030  -3.117   6.548  1.00  0.00     0.047 A 
ATOM      5  C   UNL     1      -8.862  -4.369   5.582  1.00  0.00     0.047 A 
ATOM      6  C   UNL     1      -7.802  -3.471   5.434  1.00  0.00     0.115 A 
ENDROOT
BRANCH   1   7
ATOM      7  C   UNL     1      -8.693  -5.143   9.287  1.00  0.00     0.071 C 
ATOM      8  O   UNL     1      -9.740  -4.811   9.903  1.00  0.00    -0.545 OA
ATOM      9  O   UNL     1      -7.831  -6.064   9.873  1.00  0.00    -0.545 OA
ENDBRANCH   1   7
BRANCH   6  10
ATOM     10  O   UNL     1      -7.524  -2.936   4.177  1.00  0.00    -0.508 OA
ATOM     11  H   UNL     1      -8.034  -3.230   3.353  1.00  0.00     0.293 HD
ENDBRANCH   6  10
TORSDOF 2
ENDMDL
MODEL 8
REMARK VINA RESULT:    -4.210      2.006      2.739
REMARK INTER + INTRA:          -4.608
REMARK INTER:                  -4.578
REMARK INTRA:                  -0.030
REMARK UNBOUND:                -0.029
REMARK SMILES O=C([O-])c1ccc(O)cc1
REMARK SMILES IDX 4 1 5 2 10 3 6 4 9 5 7 6 2 7 1 8 3 9 8 10
REMARK H PARENT 8 11
REMARK Flexibility Score: inf
ROOT
ATOM      1  C   UNL     1     -21.558  -2.014  18.124  1.00  0.00    -0.003 A 
ATOM      2  C   UNL     1     -20.617  -2.456  17.177  1.00  0.00     0.014 A 
ATOM      3  C   UNL     1     -21.312  -2.243  19.489  1.00  0.00     0.014 A 
ATOM      4  C   UNL     1     -19.453  -3.112  17.589  1.00  0.00     0.047 A 
ATOM      5  C   UNL     1     -20.147  -2.900  19.898  1.00  0.00     0.047 A 
ATOM      6  C   UNL     1     -19.216  -3.336  18.951  1.00  0.00     0.115 A 
ENDROOT
BRANCH   1   7
ATOM      7  C   UNL     1     -22.791  -1.318  17.694  1.00  0.00     0.071 C 
ATOM      8  O   UNL     1     -23.137  -0.233  18.234  1.00  0.00    -0.545 OA
ATOM      9  O   UNL     1     -23.586  -1.851  16.685  1.00  0.00    -0.545 OA
ENDBRANCH   1   7
BRANCH   6  10
ATOM     10  O   UNL     1     -18.060  -3.990  19.374  1.00  0.00    -0.508 OA
ATOM     11  H   UNL     1     -17.229  -3.476  19.642  1.00  0.00     0.293 HD
ENDBRANCH   6  10
TORSDOF 2
ENDMDL
MODEL 9
REMARK VINA RESULT:    -4.179      1.993      2.755
REMARK INTER + INTRA:          -4.575
REMARK INTER:                  -4.545
REMARK INTRA:                  -0.030
REMARK UNBOUND:                -0.029
REMARK SMILES O=C([O-])c1ccc(O)cc1
REMARK SMILES IDX 4 1 5 2 10 3 6 4 9 5 7 6 2 7 1 8 3 9 8 10
REMARK H PARENT 8 11
REMARK Flexibility Score: inf
ROOT
ATOM      1  C   UNL     1     -19.836  -3.043  18.144  1.00  0.00    -0.003 A 
ATOM      2  C   UNL     1     -19.310  -3.371  19.406  1.00  0.00     0.014 A 
ATOM      3  C   UNL     1     -21.059  -2.352  18.073  1.00  0.00     0.014 A 
ATOM      4  C   UNL     1     -19.993  -3.014  20.573  1.00  0.00     0.047 A 
ATOM      5  C   UNL     1     -21.740  -1.997  19.242  1.00  0.00     0.047 A 
ATOM      6  C   UNL     1     -21.211  -2.326  20.493  1.00  0.00     0.115 A 
ENDROOT
BRANCH   1   7
ATOM      7  C   UNL     1     -19.118  -3.417  16.906  1.00  0.00     0.071 C 
ATOM      8  O   UNL     1     -18.884  -2.558  16.015  1.00  0.00    -0.545 OA
ATOM      9  O   UNL     1     -18.688  -4.725  16.709  1.00  0.00    -0.545 OA
ENDBRANCH   1   7
BRANCH   6  10
ATOM     10  O   UNL     1     -21.901  -1.966  21.649  1.00  0.00    -0.508 OA
ATOM     11  H   UNL     1     -22.847  -2.286  21.821  1.00  0.00     0.293 HD
ENDBRANCH   6  10
TORSDOF 2
ENDMDL
