MODEL 1
REMARK VINA RESULT:    -4.411      0.000      0.000
REMARK INTER + INTRA:         -12.716
REMARK INTER:                  -9.568
REMARK INTRA:                  -3.147
REMARK UNBOUND:                -3.147
REMARK SMILES CCCCCCCCCCCCCCCCCCCCCC(=O)[O-]
REMARK SMILES IDX 12 1 11 2 10 3 9 4 8 5 7 6 6 7 5 8 4 9 3 10 2 11 1 12 13 13
REMARK SMILES IDX 14 14 15 15 16 16 17 17 18 18 19 19 20 20 21 21 22 22 23 23
REMARK SMILES IDX 24 24
REMARK H PARENT
REMARK Flexibility Score: inf
ROOT
ATOM      1  C   UNL     1      47.096   3.905  21.411  1.00  0.00     0.000 C 
ENDROOT
BRANCH   1   2
ATOM      2  C   UNL     1      47.119   2.495  20.791  1.00  0.00     0.000 C 
BRANCH   2   3
ATOM      3  C   UNL     1      46.892   1.337  21.780  1.00  0.00     0.000 C 
BRANCH   3   4
ATOM      4  C   UNL     1      47.616   0.045  21.367  1.00  0.00    -0.000 C 
BRANCH   4   5
ATOM      5  C   UNL     1      48.771  -0.311  22.318  1.00  0.00    -0.000 C 
BRANCH   5   6
ATOM      6  C   UNL     1      49.014   0.777  23.380  1.00  0.00    -0.000 C 
BRANCH   6   7
ATOM      7  C   UNL     1      50.509   1.070  23.603  1.00  0.00    -0.000 C 
BRANCH   7   8
ATOM      8  C   UNL     1      51.372   1.055  22.328  1.00  0.00    -0.000 C 
BRANCH   8   9
ATOM      9  C   UNL     1      51.487   2.441  21.670  1.00  0.00    -0.000 C 
BRANCH   9  10
ATOM     10  C   UNL     1      51.084   2.425  20.186  1.00  0.00    -0.000 C 
BRANCH  10  11
ATOM     11  C   UNL     1      52.195   2.954  19.268  1.00  0.00    -0.003 C 
ATOM     12  C   UNL     1      53.574   2.691  19.866  1.00  0.00     0.004 C 
ENDBRANCH  10  11
ENDBRANCH   9  10
ENDBRANCH   8   9
ENDBRANCH   7   8
ENDBRANCH   6   7
ENDBRANCH   5   6
ENDBRANCH   4   5
ENDBRANCH   3   4
ENDBRANCH   2   3
ENDBRANCH   1   2
BRANCH   1  13
ATOM     13  C   UNL     1      48.472   4.353  21.930  1.00  0.00     0.000 C 
BRANCH  13  14
ATOM     14  C   UNL     1      48.546   4.417  23.467  1.00  0.00     0.000 C 
BRANCH  14  15
ATOM     15  C   UNL     1      49.910   4.830  24.051  1.00  0.00     0.000 C 
BRANCH  15  16
ATOM     16  C   UNL     1      49.839   6.108  24.902  1.00  0.00     0.000 C 
BRANCH  16  17
ATOM     17  C   UNL     1      50.339   7.355  24.152  1.00  0.00     0.000 C 
BRANCH  17  18
ATOM     18  C   UNL     1      49.269   8.427  23.862  1.00  0.00     0.000 C 
BRANCH  18  19
ATOM     19  C   UNL     1      48.572   8.304  22.495  1.00  0.00     0.000 C 
BRANCH  19  20
ATOM     20  C   UNL     1      49.512   7.793  21.389  1.00  0.00     0.006 C 
BRANCH  20  21
ATOM     21  C   UNL     1      49.158   8.376  20.015  1.00  0.00     0.053 C 
BRANCH  21  22
ATOM     22  C   UNL     1      50.267   8.179  19.026  1.00  0.00     0.041 C 
ATOM     23  O   UNL     1      50.093   8.462  17.813  1.00  0.00    -0.550 OA
ATOM     24  O   UNL     1      51.485   7.657  19.444  1.00  0.00    -0.550 OA
ENDBRANCH  21  22
ENDBRANCH  20  21
ENDBRANCH  19  20
ENDBRANCH  18  19
ENDBRANCH  17  18
ENDBRANCH  16  17
ENDBRANCH  15  16
ENDBRANCH  14  15
ENDBRANCH  13  14
ENDBRANCH   1  13
TORSDOF 20
ENDMDL
MODEL 2
REMARK VINA RESULT:    -4.349      3.092      6.189
REMARK INTER + INTRA:         -12.581
REMARK INTER:                  -8.868
REMARK INTRA:                  -3.713
REMARK UNBOUND:                -3.147
REMARK SMILES CCCCCCCCCCCCCCCCCCCCCC(=O)[O-]
REMARK SMILES IDX 12 1 11 2 10 3 9 4 8 5 7 6 6 7 5 8 4 9 3 10 2 11 1 12 13 13
REMARK SMILES IDX 14 14 15 15 16 16 17 17 18 18 19 19 20 20 21 21 22 22 23 23
REMARK SMILES IDX 24 24
REMARK H PARENT
REMARK Flexibility Score: inf
ROOT
ATOM      1  C   UNL     1      47.991   0.085  21.021  1.00  0.00     0.000 C 
ENDROOT
BRANCH   1   2
ATOM      2  C   UNL     1      46.951   1.203  21.225  1.00  0.00     0.000 C 
BRANCH   2   3
ATOM      3  C   UNL     1      46.825   2.205  20.062  1.00  0.00     0.000 C 
BRANCH   3   4
ATOM      4  C   UNL     1      46.083   3.492  20.457  1.00  0.00    -0.000 C 
BRANCH   4   5
ATOM      5  C   UNL     1      44.570   3.403  20.192  1.00  0.00    -0.000 C 
BRANCH   5   6
ATOM      6  C   UNL     1      43.736   3.983  21.348  1.00  0.00    -0.000 C 
BRANCH   6   7
ATOM      7  C   UNL     1      43.226   2.902  22.318  1.00  0.00    -0.000 C 
BRANCH   7   8
ATOM      8  C   UNL     1      43.257   1.466  21.766  1.00  0.00    -0.000 C 
BRANCH   8   9
ATOM      9  C   UNL     1      43.126   0.400  22.867  1.00  0.00    -0.000 C 
BRANCH   9  10
ATOM     10  C   UNL     1      44.454  -0.319  23.153  1.00  0.00    -0.000 C 
BRANCH  10  11
ATOM     11  C   UNL     1      45.210   0.289  24.344  1.00  0.00    -0.003 C 
ATOM     12  C   UNL     1      45.994  -0.779  25.100  1.00  0.00     0.004 C 
ENDBRANCH  10  11
ENDBRANCH   9  10
ENDBRANCH   8   9
ENDBRANCH   7   8
ENDBRANCH   6   7
ENDBRANCH   5   6
ENDBRANCH   4   5
ENDBRANCH   3   4
ENDBRANCH   2   3
ENDBRANCH   1   2
BRANCH   1  13
ATOM     13  C   UNL     1      48.371  -0.626  22.331  1.00  0.00     0.000 C 
BRANCH  13  14
ATOM     14  C   UNL     1      49.885  -0.610  22.609  1.00  0.00     0.000 C 
BRANCH  14  15
ATOM     15  C   UNL     1      50.353   0.388  23.686  1.00  0.00     0.000 C 
BRANCH  15  16
ATOM     16  C   UNL     1      49.205   1.229  24.268  1.00  0.00     0.000 C 
BRANCH  16  17
ATOM     17  C   UNL     1      49.362   2.733  23.983  1.00  0.00     0.000 C 
BRANCH  17  18
ATOM     18  C   UNL     1      50.373   3.095  22.876  1.00  0.00     0.000 C 
BRANCH  18  19
ATOM     19  C   UNL     1      49.767   3.765  21.629  1.00  0.00     0.000 C 
BRANCH  19  20
ATOM     20  C   UNL     1      50.435   3.305  20.321  1.00  0.00     0.006 C 
BRANCH  20  21
ATOM     21  C   UNL     1      51.353   2.095  20.535  1.00  0.00     0.053 C 
BRANCH  21  22
ATOM     22  C   UNL     1      52.603   2.194  19.714  1.00  0.00     0.041 C 
ATOM     23  O   UNL     1      53.032   3.318  19.344  1.00  0.00    -0.550 OA
ATOM     24  O   UNL     1      53.280   1.041  19.338  1.00  0.00    -0.550 OA
ENDBRANCH  21  22
ENDBRANCH  20  21
ENDBRANCH  19  20
ENDBRANCH  18  19
ENDBRANCH  17  18
ENDBRANCH  16  17
ENDBRANCH  15  16
ENDBRANCH  14  15
ENDBRANCH  13  14
ENDBRANCH   1  13
TORSDOF 20
ENDMDL
MODEL 3
REMARK VINA RESULT:    -4.296      3.099      5.986
REMARK INTER + INTRA:         -12.466
REMARK INTER:                  -9.790
REMARK INTRA:                  -2.676
REMARK UNBOUND:                -3.147
REMARK SMILES CCCCCCCCCCCCCCCCCCCCCC(=O)[O-]
REMARK SMILES IDX 12 1 11 2 10 3 9 4 8 5 7 6 6 7 5 8 4 9 3 10 2 11 1 12 13 13
REMARK SMILES IDX 14 14 15 15 16 16 17 17 18 18 19 19 20 20 21 21 22 22 23 23
REMARK SMILES IDX 24 24
REMARK H PARENT
REMARK Flexibility Score: inf
ROOT
ATOM      1  C   UNL     1      48.884   8.760  18.939  1.00  0.00     0.000 C 
ENDROOT
BRANCH   1   2
ATOM      2  C   UNL     1      50.414   8.833  19.104  1.00  0.00     0.000 C 
BRANCH   2   3
ATOM      3  C   UNL     1      51.111   7.488  19.381  1.00  0.00     0.000 C 
BRANCH   3   4
ATOM      4  C   UNL     1      51.515   6.746  18.096  1.00  0.00    -0.000 C 
BRANCH   4   5
ATOM      5  C   UNL     1      52.396   5.518  18.379  1.00  0.00    -0.000 C 
BRANCH   5   6
ATOM      6  C   UNL     1      51.585   4.326  18.918  1.00  0.00    -0.000 C 
BRANCH   6   7
ATOM      7  C   UNL     1      52.445   3.069  19.139  1.00  0.00    -0.000 C 
BRANCH   7   8
ATOM      8  C   UNL     1      51.877   2.062  20.154  1.00  0.00    -0.000 C 
BRANCH   8   9
ATOM      9  C   UNL     1      50.907   2.710  21.157  1.00  0.00    -0.000 C 
BRANCH   9  10
ATOM     10  C   UNL     1      50.009   1.679  21.860  1.00  0.00    -0.000 C 
BRANCH  10  11
ATOM     11  C   UNL     1      48.534   2.105  21.890  1.00  0.00    -0.003 C 
ATOM     12  C   UNL     1      47.974   2.244  20.477  1.00  0.00     0.004 C 
ENDBRANCH  10  11
ENDBRANCH   9  10
ENDBRANCH   8   9
ENDBRANCH   7   8
ENDBRANCH   6   7
ENDBRANCH   5   6
ENDBRANCH   4   5
ENDBRANCH   3   4
ENDBRANCH   2   3
ENDBRANCH   1   2
BRANCH   1  13
ATOM     13  C   UNL     1      48.147   9.887  19.682  1.00  0.00     0.000 C 
BRANCH  13  14
ATOM     14  C   UNL     1      47.239   9.371  20.813  1.00  0.00     0.000 C 
BRANCH  14  15
ATOM     15  C   UNL     1      47.899   8.388  21.799  1.00  0.00     0.000 C 
BRANCH  15  16
ATOM     16  C   UNL     1      47.127   7.066  21.940  1.00  0.00     0.000 C 
BRANCH  16  17
ATOM     17  C   UNL     1      48.027   5.827  21.781  1.00  0.00     0.000 C 
BRANCH  17  18
ATOM     18  C   UNL     1      49.463   5.979  22.325  1.00  0.00     0.000 C 
BRANCH  18  19
ATOM     19  C   UNL     1      49.752   5.219  23.632  1.00  0.00     0.000 C 
BRANCH  19  20
ATOM     20  C   UNL     1      50.268   6.137  24.754  1.00  0.00     0.006 C 
BRANCH  20  21
ATOM     21  C   UNL     1      49.157   6.528  25.737  1.00  0.00     0.053 C 
BRANCH  21  22
ATOM     22  C   UNL     1      49.546   6.243  27.156  1.00  0.00     0.041 C 
ATOM     23  O   UNL     1      49.971   5.105  27.482  1.00  0.00    -0.550 OA
ATOM     24  O   UNL     1      49.413   7.232  28.124  1.00  0.00    -0.550 OA
ENDBRANCH  21  22
ENDBRANCH  20  21
ENDBRANCH  19  20
ENDBRANCH  18  19
ENDBRANCH  17  18
ENDBRANCH  16  17
ENDBRANCH  15  16
ENDBRANCH  14  15
ENDBRANCH  13  14
ENDBRANCH   1  13
TORSDOF 20
ENDMDL
MODEL 4
REMARK VINA RESULT:    -4.295      2.001      6.180
REMARK INTER + INTRA:         -12.465
REMARK INTER:                  -9.130
REMARK INTRA:                  -3.334
REMARK UNBOUND:                -3.147
REMARK SMILES CCCCCCCCCCCCCCCCCCCCCC(=O)[O-]
REMARK SMILES IDX 12 1 11 2 10 3 9 4 8 5 7 6 6 7 5 8 4 9 3 10 2 11 1 12 13 13
REMARK SMILES IDX 14 14 15 15 16 16 17 17 18 18 19 19 20 20 21 21 22 22 23 23
REMARK SMILES IDX 24 24
REMARK H PARENT
REMARK Flexibility Score: inf
ROOT
ATOM      1  C   UNL     1      49.771   4.879  24.689  1.00  0.00     0.000 C 
ENDROOT
BRANCH   1   2
ATOM      2  C   UNL     1      50.451   6.087  25.361  1.00  0.00     0.000 C 
BRANCH   2   3
ATOM      3  C   UNL     1      49.590   7.361  25.451  1.00  0.00     0.000 C 
BRANCH   3   4
ATOM      4  C   UNL     1      49.855   8.347  24.301  1.00  0.00    -0.000 C 
BRANCH   4   5
ATOM      5  C   UNL     1      48.794   8.255  23.192  1.00  0.00    -0.000 C 
BRANCH   5   6
ATOM      6  C   UNL     1      49.407   7.937  21.817  1.00  0.00    -0.000 C 
BRANCH   6   7
ATOM      7  C   UNL     1      49.103   6.503  21.345  1.00  0.00    -0.000 C 
BRANCH   7   8
ATOM      8  C   UNL     1      47.824   5.882  21.935  1.00  0.00    -0.000 C 
BRANCH   8   9
ATOM      9  C   UNL     1      47.568   4.452  21.430  1.00  0.00    -0.000 C 
BRANCH   9  10
ATOM     10  C   UNL     1      48.854   3.614  21.352  1.00  0.00    -0.000 C 
BRANCH  10  11
ATOM     11  C   UNL     1      48.643   2.275  20.631  1.00  0.00    -0.003 C 
ATOM     12  C   UNL     1      47.169   2.055  20.302  1.00  0.00     0.004 C 
ENDBRANCH  10  11
ENDBRANCH   9  10
ENDBRANCH   8   9
ENDBRANCH   7   8
ENDBRANCH   6   7
ENDBRANCH   5   6
ENDBRANCH   4   5
ENDBRANCH   3   4
ENDBRANCH   2   3
ENDBRANCH   1   2
BRANCH   1  13
ATOM     13  C   UNL     1      48.571   4.345  25.489  1.00  0.00     0.000 C 
BRANCH  13  14
ATOM     14  C   UNL     1      48.987   3.499  26.706  1.00  0.00     0.000 C 
BRANCH  14  15
ATOM     15  C   UNL     1      49.097   1.982  26.457  1.00  0.00     0.000 C 
BRANCH  15  16
ATOM     16  C   UNL     1      48.174   1.489  25.331  1.00  0.00     0.000 C 
BRANCH  16  17
ATOM     17  C   UNL     1      48.948   0.976  24.103  1.00  0.00     0.000 C 
BRANCH  17  18
ATOM     18  C   UNL     1      50.450   1.328  24.074  1.00  0.00     0.000 C 
BRANCH  18  19
ATOM     19  C   UNL     1      51.230   0.774  22.868  1.00  0.00     0.000 C 
BRANCH  19  20
ATOM     20  C   UNL     1      52.003   1.863  22.106  1.00  0.00     0.006 C 
BRANCH  20  21
ATOM     21  C   UNL     1      52.384   1.417  20.688  1.00  0.00     0.053 C 
BRANCH  21  22
ATOM     22  C   UNL     1      52.732   2.583  19.814  1.00  0.00     0.041 C 
ATOM     23  O   UNL     1      53.905   3.039  19.801  1.00  0.00    -0.550 OA
ATOM     24  O   UNL     1      51.752   3.182  19.032  1.00  0.00    -0.550 OA
ENDBRANCH  21  22
ENDBRANCH  20  21
ENDBRANCH  19  20
ENDBRANCH  18  19
ENDBRANCH  17  18
ENDBRANCH  16  17
ENDBRANCH  15  16
ENDBRANCH  14  15
ENDBRANCH  13  14
ENDBRANCH   1  13
TORSDOF 20
ENDMDL
MODEL 5
REMARK VINA RESULT:    -4.276      2.574      5.282
REMARK INTER + INTRA:         -12.423
REMARK INTER:                  -9.258
REMARK INTRA:                  -3.165
REMARK UNBOUND:                -3.147
REMARK SMILES CCCCCCCCCCCCCCCCCCCCCC(=O)[O-]
REMARK SMILES IDX 12 1 11 2 10 3 9 4 8 5 7 6 6 7 5 8 4 9 3 10 2 11 1 12 13 13
REMARK SMILES IDX 14 14 15 15 16 16 17 17 18 18 19 19 20 20 21 21 22 22 23 23
REMARK SMILES IDX 24 24
REMARK H PARENT
REMARK Flexibility Score: inf
ROOT
ATOM      1  C   UNL     1      52.671   3.775  19.112  1.00  0.00     0.000 C 
ENDROOT
BRANCH   1   2
ATOM      2  C   UNL     1      51.974   2.465  19.525  1.00  0.00     0.000 C 
BRANCH   2   3
ATOM      3  C   UNL     1      50.643   2.637  20.281  1.00  0.00     0.000 C 
BRANCH   3   4
ATOM      4  C   UNL     1      50.814   2.606  21.809  1.00  0.00    -0.000 C 
BRANCH   4   5
ATOM      5  C   UNL     1      49.965   3.677  22.516  1.00  0.00    -0.000 C 
BRANCH   5   6
ATOM      6  C   UNL     1      49.231   4.595  21.523  1.00  0.00    -0.000 C 
BRANCH   6   7
ATOM      7  C   UNL     1      47.822   4.987  22.001  1.00  0.00    -0.000 C 
BRANCH   7   8
ATOM      8  C   UNL     1      46.685   4.646  21.021  1.00  0.00    -0.000 C 
BRANCH   8   9
ATOM      9  C   UNL     1      46.204   3.190  21.147  1.00  0.00    -0.000 C 
BRANCH   9  10
ATOM     10  C   UNL     1      46.667   2.312  19.974  1.00  0.00    -0.000 C 
BRANCH  10  11
ATOM     11  C   UNL     1      47.320   1.002  20.439  1.00  0.00    -0.003 C 
ATOM     12  C   UNL     1      47.467   0.971  21.958  1.00  0.00     0.004 C 
ENDBRANCH  10  11
ENDBRANCH   9  10
ENDBRANCH   8   9
ENDBRANCH   7   8
ENDBRANCH   6   7
ENDBRANCH   5   6
ENDBRANCH   4   5
ENDBRANCH   3   4
ENDBRANCH   2   3
ENDBRANCH   1   2
BRANCH   1  13
ATOM     13  C   UNL     1      51.724   4.763  18.410  1.00  0.00     0.000 C 
BRANCH  13  14
ATOM     14  C   UNL     1      52.065   6.235  18.703  1.00  0.00     0.000 C 
BRANCH  14  15
ATOM     15  C   UNL     1      51.029   7.267  18.217  1.00  0.00     0.000 C 
BRANCH  15  16
ATOM     16  C   UNL     1      50.772   8.389  19.236  1.00  0.00     0.000 C 
BRANCH  16  17
ATOM     17  C   UNL     1      49.603   8.076  20.188  1.00  0.00     0.000 C 
BRANCH  17  18
ATOM     18  C   UNL     1      48.356   8.969  20.020  1.00  0.00     0.000 C 
BRANCH  18  19
ATOM     19  C   UNL     1      47.009   8.226  20.052  1.00  0.00     0.000 C 
BRANCH  19  20
ATOM     20  C   UNL     1      45.980   8.894  20.981  1.00  0.00     0.006 C 
BRANCH  20  21
ATOM     21  C   UNL     1      45.316   7.886  21.927  1.00  0.00     0.053 C 
BRANCH  21  22
ATOM     22  C   UNL     1      45.888   7.961  23.310  1.00  0.00     0.041 C 
ATOM     23  O   UNL     1      45.150   7.783  24.313  1.00  0.00    -0.550 OA
ATOM     24  O   UNL     1      47.235   8.252  23.489  1.00  0.00    -0.550 OA
ENDBRANCH  21  22
ENDBRANCH  20  21
ENDBRANCH  19  20
ENDBRANCH  18  19
ENDBRANCH  17  18
ENDBRANCH  16  17
ENDBRANCH  15  16
ENDBRANCH  14  15
ENDBRANCH  13  14
ENDBRANCH   1  13
TORSDOF 20
ENDMDL
MODEL 6
REMARK VINA RESULT:    -4.257      2.830      6.849
REMARK INTER + INTRA:         -12.382
REMARK INTER:                  -9.487
REMARK INTRA:                  -2.895
REMARK UNBOUND:                -3.147
REMARK SMILES CCCCCCCCCCCCCCCCCCCCCC(=O)[O-]
REMARK SMILES IDX 12 1 11 2 10 3 9 4 8 5 7 6 6 7 5 8 4 9 3 10 2 11 1 12 13 13
REMARK SMILES IDX 14 14 15 15 16 16 17 17 18 18 19 19 20 20 21 21 22 22 23 23
REMARK SMILES IDX 24 24
REMARK H PARENT
REMARK Flexibility Score: inf
ROOT
ATOM      1  C   UNL     1      47.479   7.693  27.876  1.00  0.00     0.000 C 
ENDROOT
BRANCH   1   2
ATOM      2  C   UNL     1      46.517   7.904  26.691  1.00  0.00     0.000 C 
BRANCH   2   3
ATOM      3  C   UNL     1      47.167   8.439  25.402  1.00  0.00     0.000 C 
BRANCH   3   4
ATOM      4  C   UNL     1      46.871   9.927  25.154  1.00  0.00    -0.000 C 
BRANCH   4   5
ATOM      5  C   UNL     1      47.518  10.447  23.859  1.00  0.00    -0.000 C 
BRANCH   5   6
ATOM      6  C   UNL     1      47.603   9.363  22.769  1.00  0.00    -0.000 C 
BRANCH   6   7
ATOM      7  C   UNL     1      47.032   9.828  21.417  1.00  0.00    -0.000 C 
BRANCH   7   8
ATOM      8  C   UNL     1      46.669   8.695  20.441  1.00  0.00    -0.000 C 
BRANCH   8   9
ATOM      9  C   UNL     1      47.851   8.273  19.551  1.00  0.00    -0.000 C 
BRANCH   9  10
ATOM     10  C   UNL     1      48.854   9.415  19.321  1.00  0.00    -0.000 C 
BRANCH  10  11
ATOM     11  C   UNL     1      50.261   8.904  18.977  1.00  0.00    -0.003 C 
ATOM     12  C   UNL     1      50.651   7.729  19.870  1.00  0.00     0.004 C 
ENDBRANCH  10  11
ENDBRANCH   9  10
ENDBRANCH   8   9
ENDBRANCH   7   8
ENDBRANCH   6   7
ENDBRANCH   5   6
ENDBRANCH   4   5
ENDBRANCH   3   4
ENDBRANCH   2   3
ENDBRANCH   1   2
BRANCH   1  13
ATOM     13  C   UNL     1      48.945   7.541  27.438  1.00  0.00     0.000 C 
BRANCH  13  14
ATOM     14  C   UNL     1      49.407   6.074  27.377  1.00  0.00     0.000 C 
BRANCH  14  15
ATOM     15  C   UNL     1      49.457   5.450  25.970  1.00  0.00     0.000 C 
BRANCH  15  16
ATOM     16  C   UNL     1      50.432   6.170  25.025  1.00  0.00     0.000 C 
BRANCH  16  17
ATOM     17  C   UNL     1      49.784   6.571  23.687  1.00  0.00     0.000 C 
BRANCH  17  18
ATOM     18  C   UNL     1      48.566   5.725  23.263  1.00  0.00     0.000 C 
BRANCH  18  19
ATOM     19  C   UNL     1      48.565   5.269  21.793  1.00  0.00     0.000 C 
BRANCH  19  20
ATOM     20  C   UNL     1      49.770   4.379  21.444  1.00  0.00     0.006 C 
BRANCH  20  21
ATOM     21  C   UNL     1      49.976   3.255  22.468  1.00  0.00     0.053 C 
BRANCH  21  22
ATOM     22  C   UNL     1      51.168   2.411  22.135  1.00  0.00     0.041 C 
ATOM     23  O   UNL     1      51.612   1.582  22.970  1.00  0.00    -0.550 OA
ATOM     24  O   UNL     1      51.804   2.561  20.908  1.00  0.00    -0.550 OA
ENDBRANCH  21  22
ENDBRANCH  20  21
ENDBRANCH  19  20
ENDBRANCH  18  19
ENDBRANCH  17  18
ENDBRANCH  16  17
ENDBRANCH  15  16
ENDBRANCH  14  15
ENDBRANCH  13  14
ENDBRANCH   1  13
TORSDOF 20
ENDMDL
MODEL 7
REMARK VINA RESULT:    -4.210      4.056      6.563
REMARK INTER + INTRA:         -12.279
REMARK INTER:                  -9.275
REMARK INTRA:                  -3.004
REMARK UNBOUND:                -3.147
REMARK SMILES CCCCCCCCCCCCCCCCCCCCCC(=O)[O-]
REMARK SMILES IDX 12 1 11 2 10 3 9 4 8 5 7 6 6 7 5 8 4 9 3 10 2 11 1 12 13 13
REMARK SMILES IDX 14 14 15 15 16 16 17 17 18 18 19 19 20 20 21 21 22 22 23 23
REMARK SMILES IDX 24 24
REMARK H PARENT
REMARK Flexibility Score: inf
ROOT
ATOM      1  C   UNL     1      45.731  11.096  23.749  1.00  0.00     0.000 C 
ENDROOT
BRANCH   1   2
ATOM      2  C   UNL     1      45.409   9.693  24.297  1.00  0.00     0.000 C 
BRANCH   2   3
ATOM      3  C   UNL     1      45.914   9.412  25.725  1.00  0.00     0.000 C 
BRANCH   3   4
ATOM      4  C   UNL     1      45.045   8.392  26.478  1.00  0.00    -0.000 C 
BRANCH   4   5
ATOM      5  C   UNL     1      45.884   7.393  27.292  1.00  0.00    -0.000 C 
BRANCH   5   6
ATOM      6  C   UNL     1      47.360   7.815  27.398  1.00  0.00    -0.000 C 
BRANCH   6   7
ATOM      7  C   UNL     1      48.248   6.730  28.034  1.00  0.00    -0.000 C 
BRANCH   7   8
ATOM      8  C   UNL     1      49.111   5.931  27.041  1.00  0.00    -0.000 C 
BRANCH   8   9
ATOM      9  C   UNL     1      48.723   6.186  25.574  1.00  0.00    -0.000 C 
BRANCH   9  10
ATOM     10  C   UNL     1      49.948   6.323  24.656  1.00  0.00    -0.000 C 
BRANCH  10  11
ATOM     11  C   UNL     1      50.443   7.773  24.544  1.00  0.00    -0.003 C 
ATOM     12  C   UNL     1      49.285   8.728  24.269  1.00  0.00     0.004 C 
ENDBRANCH  10  11
ENDBRANCH   9  10
ENDBRANCH   8   9
ENDBRANCH   7   8
ENDBRANCH   6   7
ENDBRANCH   5   6
ENDBRANCH   4   5
ENDBRANCH   3   4
ENDBRANCH   2   3
ENDBRANCH   1   2
BRANCH   1  13
ATOM     13  C   UNL     1      46.984  11.120  22.859  1.00  0.00     0.000 C 
BRANCH  13  14
ATOM     14  C   UNL     1      46.672  11.440  21.385  1.00  0.00     0.000 C 
BRANCH  14  15
ATOM     15  C   UNL     1      46.966  10.310  20.381  1.00  0.00     0.000 C 
BRANCH  15  16
ATOM     16  C   UNL     1      46.257   8.992  20.733  1.00  0.00     0.000 C 
BRANCH  16  17
ATOM     17  C   UNL     1      47.026   7.750  20.246  1.00  0.00     0.000 C 
BRANCH  17  18
ATOM     18  C   UNL     1      47.734   6.936  21.348  1.00  0.00     0.000 C 
BRANCH  18  19
ATOM     19  C   UNL     1      49.230   6.667  21.106  1.00  0.00     0.000 C 
BRANCH  19  20
ATOM     20  C   UNL     1      50.008   7.935  20.713  1.00  0.00     0.006 C 
BRANCH  20  21
ATOM     21  C   UNL     1      50.690   7.794  19.346  1.00  0.00     0.053 C 
BRANCH  21  22
ATOM     22  C   UNL     1      50.095   8.723  18.331  1.00  0.00     0.041 C 
ATOM     23  O   UNL     1      49.762   8.293  17.196  1.00  0.00    -0.550 OA
ATOM     24  O   UNL     1      49.934  10.070  18.632  1.00  0.00    -0.550 OA
ENDBRANCH  21  22
ENDBRANCH  20  21
ENDBRANCH  19  20
ENDBRANCH  18  19
ENDBRANCH  17  18
ENDBRANCH  16  17
ENDBRANCH  15  16
ENDBRANCH  14  15
ENDBRANCH  13  14
ENDBRANCH   1  13
TORSDOF 20
ENDMDL
MODEL 8
REMARK VINA RESULT:    -4.173      2.137      5.391
REMARK INTER + INTRA:         -12.200
REMARK INTER:                  -8.483
REMARK INTRA:                  -3.717
REMARK UNBOUND:                -3.147
REMARK SMILES CCCCCCCCCCCCCCCCCCCCCC(=O)[O-]
REMARK SMILES IDX 12 1 11 2 10 3 9 4 8 5 7 6 6 7 5 8 4 9 3 10 2 11 1 12 13 13
REMARK SMILES IDX 14 14 15 15 16 16 17 17 18 18 19 19 20 20 21 21 22 22 23 23
REMARK SMILES IDX 24 24
REMARK H PARENT
REMARK Flexibility Score: inf
ROOT
ATOM      1  C   UNL     1      46.884   2.527  20.254  1.00  0.00     0.000 C 
ENDROOT
BRANCH   1   2
ATOM      2  C   UNL     1      45.447   3.080  20.309  1.00  0.00     0.000 C 
BRANCH   2   3
ATOM      3  C   UNL     1      45.237   4.275  21.256  1.00  0.00     0.000 C 
BRANCH   3   4
ATOM      4  C   UNL     1      46.368   4.431  22.286  1.00  0.00    -0.000 C 
BRANCH   4   5
ATOM      5  C   UNL     1      45.868   4.289  23.734  1.00  0.00    -0.000 C 
BRANCH   5   6
ATOM      6  C   UNL     1      46.282   5.479  24.617  1.00  0.00    -0.000 C 
BRANCH   6   7
ATOM      7  C   UNL     1      47.529   5.185  25.470  1.00  0.00    -0.000 C 
BRANCH   7   8
ATOM      8  C   UNL     1      48.406   6.411  25.783  1.00  0.00    -0.000 C 
BRANCH   8   9
ATOM      9  C   UNL     1      49.893   6.177  25.467  1.00  0.00    -0.000 C 
BRANCH   9  10
ATOM     10  C   UNL     1      50.406   7.085  24.338  1.00  0.00    -0.000 C 
BRANCH  10  11
ATOM     11  C   UNL     1      49.272   7.828  23.617  1.00  0.00    -0.003 C 
ATOM     12  C   UNL     1      49.302   7.551  22.116  1.00  0.00     0.004 C 
ENDBRANCH  10  11
ENDBRANCH   9  10
ENDBRANCH   8   9
ENDBRANCH   7   8
ENDBRANCH   6   7
ENDBRANCH   5   6
ENDBRANCH   4   5
ENDBRANCH   3   4
ENDBRANCH   2   3
ENDBRANCH   1   2
BRANCH   1  13
ATOM     13  C   UNL     1      46.933   0.992  20.170  1.00  0.00     0.000 C 
BRANCH  13  14
ATOM     14  C   UNL     1      47.739   0.351  21.316  1.00  0.00     0.000 C 
BRANCH  14  15
ATOM     15  C   UNL     1      47.613   1.044  22.686  1.00  0.00     0.000 C 
BRANCH  15  16
ATOM     16  C   UNL     1      48.960   1.194  23.411  1.00  0.00     0.000 C 
BRANCH  16  17
ATOM     17  C   UNL     1      49.268   2.650  23.807  1.00  0.00     0.000 C 
BRANCH  17  18
ATOM     18  C   UNL     1      50.367   3.343  22.975  1.00  0.00     0.000 C 
BRANCH  18  19
ATOM     19  C   UNL     1      49.896   3.948  21.641  1.00  0.00     0.000 C 
BRANCH  19  20
ATOM     20  C   UNL     1      50.236   3.061  20.430  1.00  0.00     0.006 C 
BRANCH  20  21
ATOM     21  C   UNL     1      51.444   2.155  20.698  1.00  0.00     0.053 C 
BRANCH  21  22
ATOM     22  C   UNL     1      52.540   2.380  19.702  1.00  0.00     0.041 C 
ATOM     23  O   UNL     1      53.368   1.466  19.452  1.00  0.00    -0.550 OA
ATOM     24  O   UNL     1      52.660   3.611  19.068  1.00  0.00    -0.550 OA
ENDBRANCH  21  22
ENDBRANCH  20  21
ENDBRANCH  19  20
ENDBRANCH  18  19
ENDBRANCH  17  18
ENDBRANCH  16  17
ENDBRANCH  15  16
ENDBRANCH  14  15
ENDBRANCH  13  14
ENDBRANCH   1  13
TORSDOF 20
ENDMDL
MODEL 9
REMARK VINA RESULT:    -4.153      3.477      6.052
REMARK INTER + INTRA:         -12.156
REMARK INTER:                  -8.118
REMARK INTRA:                  -4.038
REMARK UNBOUND:                -3.147
REMARK SMILES CCCCCCCCCCCCCCCCCCCCCC(=O)[O-]
REMARK SMILES IDX 12 1 11 2 10 3 9 4 8 5 7 6 6 7 5 8 4 9 3 10 2 11 1 12 13 13
REMARK SMILES IDX 14 14 15 15 16 16 17 17 18 18 19 19 20 20 21 21 22 22 23 23
REMARK SMILES IDX 24 24
REMARK H PARENT
REMARK Flexibility Score: inf
ROOT
ATOM      1  C   UNL     1      46.719   3.221  21.002  1.00  0.00     0.000 C 
ENDROOT
BRANCH   1   2
ATOM      2  C   UNL     1      46.819   2.146  19.903  1.00  0.00     0.000 C 
BRANCH   2   3
ATOM      3  C   UNL     1      47.137   0.724  20.399  1.00  0.00     0.000 C 
BRANCH   3   4
ATOM      4  C   UNL     1      47.825   0.708  21.774  1.00  0.00    -0.000 C 
BRANCH   4   5
ATOM      5  C   UNL     1      48.783  -0.484  21.938  1.00  0.00    -0.000 C 
BRANCH   5   6
ATOM      6  C   UNL     1      49.944  -0.176  22.900  1.00  0.00    -0.000 C 
BRANCH   6   7
ATOM      7  C   UNL     1      51.279   0.056  22.170  1.00  0.00    -0.000 C 
BRANCH   7   8
ATOM      8  C   UNL     1      51.712   1.529  22.060  1.00  0.00    -0.000 C 
BRANCH   8   9
ATOM      9  C   UNL     1      51.046   2.260  20.882  1.00  0.00    -0.000 C 
BRANCH   9  10
ATOM     10  C   UNL     1      50.284   3.520  21.323  1.00  0.00    -0.000 C 
BRANCH  10  11
ATOM     11  C   UNL     1      50.006   3.543  22.833  1.00  0.00    -0.003 C 
ATOM     12  C   UNL     1      49.159   4.752  23.217  1.00  0.00     0.004 C 
ENDBRANCH  10  11
ENDBRANCH   9  10
ENDBRANCH   8   9
ENDBRANCH   7   8
ENDBRANCH   6   7
ENDBRANCH   5   6
ENDBRANCH   4   5
ENDBRANCH   3   4
ENDBRANCH   2   3
ENDBRANCH   1   2
BRANCH   1  13
ATOM     13  C   UNL     1      45.474   4.112  20.858  1.00  0.00     0.000 C 
BRANCH  13  14
ATOM     14  C   UNL     1      44.246   3.351  20.324  1.00  0.00     0.000 C 
BRANCH  14  15
ATOM     15  C   UNL     1      43.399   2.626  21.388  1.00  0.00     0.000 C 
BRANCH  15  16
ATOM     16  C   UNL     1      43.312   1.108  21.157  1.00  0.00     0.000 C 
BRANCH  16  17
ATOM     17  C   UNL     1      43.198   0.309  22.468  1.00  0.00     0.000 C 
BRANCH  17  18
ATOM     18  C   UNL     1      44.524   0.086  23.224  1.00  0.00     0.000 C 
BRANCH  18  19
ATOM     19  C   UNL     1      44.699   0.926  24.502  1.00  0.00     0.000 C 
BRANCH  19  20
ATOM     20  C   UNL     1      45.854   1.938  24.398  1.00  0.00     0.006 C 
BRANCH  20  21
ATOM     21  C   UNL     1      45.365   3.387  24.517  1.00  0.00     0.053 C 
BRANCH  21  22
ATOM     22  C   UNL     1      46.198   4.177  25.480  1.00  0.00     0.041 C 
ATOM     23  O   UNL     1      47.080   3.607  26.172  1.00  0.00    -0.550 OA
ATOM     24  O   UNL     1      45.979   5.542  25.630  1.00  0.00    -0.550 OA
ENDBRANCH  21  22
ENDBRANCH  20  21
ENDBRANCH  19  20
ENDBRANCH  18  19
ENDBRANCH  17  18
ENDBRANCH  16  17
ENDBRANCH  15  16
ENDBRANCH  14  15
ENDBRANCH  13  14
ENDBRANCH   1  13
TORSDOF 20
ENDMDL
