MODEL 1
REMARK VINA RESULT:    -3.326      0.000      0.000
REMARK INTER + INTRA:          -4.036
REMARK INTER:                  -3.909
REMARK INTRA:                  -0.127
REMARK UNBOUND:                -0.127
REMARK SMILES O=C([O-])CCC(=O)[O-]
REMARK SMILES IDX 4 1 2 2 1 3 3 4 5 5 6 6 7 7 8 8
REMARK H PARENT
REMARK Flexibility Score: inf
ROOT
ATOM      1  C   UNL     1       4.091  12.332   7.092  1.00  0.00     0.059 C 
ENDROOT
BRANCH   1   2
ATOM      2  C   UNL     1       4.942  11.290   6.431  1.00  0.00     0.042 C 
ATOM      3  O   UNL     1       4.725  10.959   5.236  1.00  0.00    -0.550 OA
ATOM      4  O   UNL     1       6.002  10.716   7.122  1.00  0.00    -0.550 OA
ENDBRANCH   1   2
BRANCH   1   5
ATOM      5  C   UNL     1       4.457  13.744   6.621  1.00  0.00     0.059 C 
BRANCH   5   6
ATOM      6  C   UNL     1       5.579  14.321   7.427  1.00  0.00     0.042 C 
ATOM      7  O   UNL     1       6.465  15.020   6.870  1.00  0.00    -0.550 OA
ATOM      8  O   UNL     1       5.625  14.121   8.802  1.00  0.00    -0.550 OA
ENDBRANCH   5   6
ENDBRANCH   1   5
TORSDOF 3
ENDMDL
MODEL 2
REMARK VINA RESULT:    -3.322      1.780      3.775
REMARK INTER + INTRA:          -4.031
REMARK INTER:                  -3.910
REMARK INTRA:                  -0.121
REMARK UNBOUND:                -0.127
REMARK SMILES O=C([O-])CCC(=O)[O-]
REMARK SMILES IDX 4 1 2 2 1 3 3 4 5 5 6 6 7 7 8 8
REMARK H PARENT
REMARK Flexibility Score: inf
ROOT
ATOM      1  C   UNL     1       3.912  12.064   6.882  1.00  0.00     0.059 C 
ENDROOT
BRANCH   1   2
ATOM      2  C   UNL     1       4.660  13.361   6.939  1.00  0.00     0.042 C 
ATOM      3  O   UNL     1       4.733  14.096   5.920  1.00  0.00    -0.550 OA
ATOM      4  O   UNL     1       5.241  13.777   8.131  1.00  0.00    -0.550 OA
ENDBRANCH   1   2
BRANCH   1   5
ATOM      5  C   UNL     1       4.859  10.860   6.948  1.00  0.00     0.059 C 
BRANCH   5   6
ATOM      6  C   UNL     1       4.654  10.065   8.201  1.00  0.00     0.042 C 
ATOM      7  O   UNL     1       4.645  10.639   9.321  1.00  0.00    -0.550 OA
ATOM      8  O   UNL     1       4.433   8.695   8.128  1.00  0.00    -0.550 OA
ENDBRANCH   5   6
ENDBRANCH   1   5
TORSDOF 3
ENDMDL
MODEL 3
REMARK VINA RESULT:    -3.310      1.891      2.308
REMARK INTER + INTRA:          -4.017
REMARK INTER:                  -3.897
REMARK INTRA:                  -0.121
REMARK UNBOUND:                -0.127
REMARK SMILES O=C([O-])CCC(=O)[O-]
REMARK SMILES IDX 4 1 2 2 1 3 3 4 5 5 6 6 7 7 8 8
REMARK H PARENT
REMARK Flexibility Score: inf
ROOT
ATOM      1  C   UNL     1       5.004  10.720   7.081  1.00  0.00     0.059 C 
ENDROOT
BRANCH   1   2
ATOM      2  C   UNL     1       4.624   9.911   8.285  1.00  0.00     0.042 C 
ATOM      3  O   UNL     1       4.362   8.686   8.168  1.00  0.00    -0.550 OA
ATOM      4  O   UNL     1       4.602  10.504   9.542  1.00  0.00    -0.550 OA
ENDBRANCH   1   2
BRANCH   1   5
ATOM      5  C   UNL     1       4.011  11.859   6.828  1.00  0.00     0.059 C 
BRANCH   5   6
ATOM      6  C   UNL     1       4.660  13.201   6.980  1.00  0.00     0.042 C 
ATOM      7  O   UNL     1       4.636  14.027   6.030  1.00  0.00    -0.550 OA
ATOM      8  O   UNL     1       5.255  13.555   8.185  1.00  0.00    -0.550 OA
ENDBRANCH   5   6
ENDBRANCH   1   5
TORSDOF 3
ENDMDL
MODEL 4
REMARK VINA RESULT:    -3.289      0.489      3.633
REMARK INTER + INTRA:          -3.993
REMARK INTER:                  -3.914
REMARK INTRA:                  -0.079
REMARK UNBOUND:                -0.127
REMARK SMILES O=C([O-])CCC(=O)[O-]
REMARK SMILES IDX 4 1 2 2 1 3 3 4 5 5 6 6 7 7 8 8
REMARK H PARENT
REMARK Flexibility Score: inf
ROOT
ATOM      1  C   UNL     1       4.658  13.684   6.544  1.00  0.00     0.059 C 
ENDROOT
BRANCH   1   2
ATOM      2  C   UNL     1       5.623  14.311   7.505  1.00  0.00     0.042 C 
ATOM      3  O   UNL     1       5.222  14.732   8.621  1.00  0.00    -0.550 OA
ATOM      4  O   UNL     1       6.972  14.392   7.183  1.00  0.00    -0.550 OA
ENDBRANCH   1   2
BRANCH   1   5
ATOM      5  C   UNL     1       4.090  12.369   7.091  1.00  0.00     0.059 C 
BRANCH   5   6
ATOM      6  C   UNL     1       4.790  11.180   6.507  1.00  0.00     0.042 C 
ATOM      7  O   UNL     1       4.786  10.991   5.263  1.00  0.00    -0.550 OA
ATOM      8  O   UNL     1       5.481  10.303   7.334  1.00  0.00    -0.550 OA
ENDBRANCH   5   6
ENDBRANCH   1   5
TORSDOF 3
ENDMDL
MODEL 5
REMARK VINA RESULT:    -3.278      1.476      1.798
REMARK INTER + INTRA:          -3.980
REMARK INTER:                  -3.807
REMARK INTRA:                  -0.172
REMARK UNBOUND:                -0.127
REMARK SMILES O=C([O-])CCC(=O)[O-]
REMARK SMILES IDX 4 1 2 2 1 3 3 4 5 5 6 6 7 7 8 8
REMARK H PARENT
REMARK Flexibility Score: inf
ROOT
ATOM      1  C   UNL     1       4.669  13.612   6.222  1.00  0.00     0.059 C 
ENDROOT
BRANCH   1   2
ATOM      2  C   UNL     1       4.248  12.173   6.243  1.00  0.00     0.042 C 
ATOM      3  O   UNL     1       3.273  11.808   6.950  1.00  0.00    -0.550 OA
ATOM      4  O   UNL     1       4.908  11.244   5.448  1.00  0.00    -0.550 OA
ENDBRANCH   1   2
BRANCH   1   5
ATOM      5  C   UNL     1       5.153  14.080   7.599  1.00  0.00     0.059 C 
BRANCH   5   6
ATOM      6  C   UNL     1       6.228  13.187   8.139  1.00  0.00     0.042 C 
ATOM      7  O   UNL     1       7.344  13.120   7.563  1.00  0.00    -0.550 OA
ATOM      8  O   UNL     1       6.009  12.460   9.303  1.00  0.00    -0.550 OA
ENDBRANCH   5   6
ENDBRANCH   1   5
TORSDOF 3
ENDMDL
MODEL 6
REMARK VINA RESULT:    -3.249      2.521      3.446
REMARK INTER + INTRA:          -3.945
REMARK INTER:                  -3.912
REMARK INTRA:                  -0.033
REMARK UNBOUND:                -0.127
REMARK SMILES O=C([O-])CCC(=O)[O-]
REMARK SMILES IDX 4 1 2 2 1 3 3 4 5 5 6 6 7 7 8 8
REMARK H PARENT
REMARK Flexibility Score: inf
ROOT
ATOM      1  C   UNL     1       4.853   9.876   7.643  1.00  0.00     0.059 C 
ENDROOT
BRANCH   1   2
ATOM      2  C   UNL     1       4.311   8.938   8.678  1.00  0.00     0.042 C 
ATOM      3  O   UNL     1       4.048   9.356   9.836  1.00  0.00    -0.550 OA
ATOM      4  O   UNL     1       4.056   7.611   8.351  1.00  0.00    -0.550 OA
ENDBRANCH   1   2
BRANCH   1   5
ATOM      5  C   UNL     1       4.108  11.215   7.646  1.00  0.00     0.059 C 
BRANCH   5   6
ATOM      6  C   UNL     1       4.516  12.076   6.490  1.00  0.00     0.042 C 
ATOM      7  O   UNL     1       4.711  11.565   5.357  1.00  0.00    -0.550 OA
ATOM      8  O   UNL     1       4.641  13.451   6.655  1.00  0.00    -0.550 OA
ENDBRANCH   5   6
ENDBRANCH   1   5
TORSDOF 3
ENDMDL
MODEL 7
REMARK VINA RESULT:    -3.241     16.616     17.616
REMARK INTER + INTRA:          -3.936
REMARK INTER:                  -3.842
REMARK INTRA:                  -0.094
REMARK UNBOUND:                -0.127
REMARK SMILES O=C([O-])CCC(=O)[O-]
REMARK SMILES IDX 4 1 2 2 1 3 3 4 5 5 6 6 7 7 8 8
REMARK H PARENT
REMARK Flexibility Score: inf
ROOT
ATOM      1  C   UNL     1       5.942   2.267  -7.617  1.00  0.00     0.059 C 
ENDROOT
BRANCH   1   2
ATOM      2  C   UNL     1       6.566   3.460  -6.958  1.00  0.00     0.042 C 
ATOM      3  O   UNL     1       7.362   3.308  -5.995  1.00  0.00    -0.550 OA
ATOM      4  O   UNL     1       6.301   4.738  -7.437  1.00  0.00    -0.550 OA
ENDBRANCH   1   2
BRANCH   1   5
ATOM      5  C   UNL     1       4.538   1.988  -7.068  1.00  0.00     0.059 C 
BRANCH   5   6
ATOM      6  C   UNL     1       4.536   0.820  -6.129  1.00  0.00     0.042 C 
ATOM      7  O   UNL     1       5.347   0.778  -5.168  1.00  0.00    -0.550 OA
ATOM      8  O   UNL     1       3.609  -0.202  -6.292  1.00  0.00    -0.550 OA
ENDBRANCH   5   6
ENDBRANCH   1   5
TORSDOF 3
ENDMDL
MODEL 8
REMARK VINA RESULT:    -3.154     16.584     17.530
REMARK INTER + INTRA:          -3.834
REMARK INTER:                  -3.716
REMARK INTRA:                  -0.118
REMARK UNBOUND:                -0.127
REMARK SMILES O=C([O-])CCC(=O)[O-]
REMARK SMILES IDX 4 1 2 2 1 3 3 4 5 5 6 6 7 7 8 8
REMARK H PARENT
REMARK Flexibility Score: inf
ROOT
ATOM      1  C   UNL     1       4.507   1.987  -7.434  1.00  0.00     0.059 C 
ENDROOT
BRANCH   1   2
ATOM      2  C   UNL     1       4.546   0.736  -6.610  1.00  0.00     0.042 C 
ATOM      3  O   UNL     1       5.627   0.109  -6.460  1.00  0.00    -0.550 OA
ATOM      4  O   UNL     1       3.396   0.287  -5.972  1.00  0.00    -0.550 OA
ENDBRANCH   1   2
BRANCH   1   5
ATOM      5  C   UNL     1       5.911   2.424  -7.866  1.00  0.00     0.059 C 
BRANCH   5   6
ATOM      6  C   UNL     1       6.451   3.504  -6.978  1.00  0.00     0.042 C 
ATOM      7  O   UNL     1       7.032   3.207  -5.902  1.00  0.00    -0.550 OA
ATOM      8  O   UNL     1       6.348   4.836  -7.360  1.00  0.00    -0.550 OA
ENDBRANCH   5   6
ENDBRANCH   1   5
TORSDOF 3
ENDMDL
MODEL 9
REMARK VINA RESULT:    -3.014     17.346     18.686
REMARK INTER + INTRA:          -3.669
REMARK INTER:                  -3.552
REMARK INTRA:                  -0.117
REMARK UNBOUND:                -0.127
REMARK SMILES O=C([O-])CCC(=O)[O-]
REMARK SMILES IDX 4 1 2 2 1 3 3 4 5 5 6 6 7 7 8 8
REMARK H PARENT
REMARK Flexibility Score: inf
ROOT
ATOM      1  C   UNL     1       4.608   1.811  -7.390  1.00  0.00     0.059 C 
ENDROOT
BRANCH   1   2
ATOM      2  C   UNL     1       4.544   0.990  -6.138  1.00  0.00     0.042 C 
ATOM      3  O   UNL     1       5.372   1.185  -5.210  1.00  0.00    -0.550 OA
ATOM      4  O   UNL     1       3.542   0.040  -5.979  1.00  0.00    -0.550 OA
ENDBRANCH   1   2
BRANCH   1   5
ATOM      5  C   UNL     1       5.325   1.063  -8.520  1.00  0.00     0.059 C 
BRANCH   5   6
ATOM      6  C   UNL     1       6.797   0.953  -8.262  1.00  0.00     0.042 C 
ATOM      7  O   UNL     1       7.471   1.981  -7.991  1.00  0.00    -0.550 OA
ATOM      8  O   UNL     1       7.416  -0.291  -8.281  1.00  0.00    -0.550 OA
ENDBRANCH   5   6
ENDBRANCH   1   5
TORSDOF 3
ENDMDL
