MODEL 1
REMARK VINA RESULT:    -7.819      0.000      0.000
REMARK INTER + INTRA:         -23.576
REMARK INTER:                 -18.562
REMARK INTRA:                  -5.014
REMARK UNBOUND:                -5.014
REMARK SMILES O=C(OC[C@H]1O[C@H](OC(=O)c2cc(O)c(O)c(O)c2)[C@H](OC(=O)c2cc(O)c(O)c(O)c2)[C@@H](OC(=O)c2cc(O)c(O)c(O)c2)[C@H]1OC(=O)c1cc(O)c(O)c(O)c1)c1cc(O)c(O)c(O)c1
REMARK SMILES IDX 5 1 46 2 33 3 20 4 7 5 6 6 4 7 3 8 2 9 1 10 59 11 60 12
REMARK SMILES IDX 61 13 67 14 63 15 65 16 62 17 64 19 66 21 47 23 48 24 49 25
REMARK SMILES IDX 50 26 58 27 51 28 56 29 52 30 54 31 57 32 53 34 55 36 34 38
REMARK SMILES IDX 35 39 36 40 37 41 45 42 38 43 43 44 39 45 41 46 44 47 40 49
REMARK SMILES IDX 42 51 8 53 9 54 10 55 11 56 19 57 12 58 17 59 13 60 15 61
REMARK SMILES IDX 18 62 14 64 16 66 21 68 22 69 23 70 24 71 32 72 25 73 30 74
REMARK SMILES IDX 26 75 28 76 31 77 27 79 29 81
REMARK H PARENT 62 18 64 20 66 22 57 33 53 35 55 37 44 48 40 50 42 52 18 63
REMARK H PARENT 14 65 16 67 31 78 27 80 29 82
REMARK Flexibility Score: inf
ROOT
ATOM      1  C   UNL     1      14.931  24.650  42.353  1.00  0.00     0.205 C 
ATOM      2  C   UNL     1      15.134  24.686  43.879  1.00  0.00     0.254 C 
ATOM      3  C   UNL     1      14.051  23.801  44.507  1.00  0.00     0.267 C 
ATOM      4  C   UNL     1      14.148  22.378  43.929  1.00  0.00     0.290 C 
ATOM      5  C   UNL     1      14.127  22.442  42.384  1.00  0.00     0.357 C 
ATOM      6  O   UNL     1      15.114  23.327  41.868  1.00  0.00    -0.329 OA
ENDROOT
BRANCH   1   7
ATOM      7  C   UNL     1      15.894  25.597  41.612  1.00  0.00     0.269 C 
BRANCH   7   8
ATOM      8  O   UNL     1      16.619  24.864  40.631  1.00  0.00    -0.459 OA
BRANCH   8   9
ATOM      9  C   UNL     1      18.000  25.021  40.445  1.00  0.00     0.338 C 
ATOM     10  O   UNL     1      18.586  26.040  40.912  1.00  0.00    -0.246 OA
BRANCH   9  11
ATOM     11  C   UNL     1      18.761  24.014  39.678  1.00  0.00     0.067 A 
ATOM     12  C   UNL     1      18.398  23.708  38.359  1.00  0.00     0.066 A 
ATOM     13  C   UNL     1      19.075  22.721  37.639  1.00  0.00     0.162 A 
ATOM     14  C   UNL     1      19.831  23.319  40.277  1.00  0.00     0.066 A 
ATOM     15  C   UNL     1      20.125  21.999  38.253  1.00  0.00     0.200 A 
ATOM     16  C   UNL     1      20.500  22.311  39.573  1.00  0.00     0.162 A 
BRANCH  13  17
ATOM     17  O   UNL     1      18.681  22.500  36.318  1.00  0.00    -0.504 OA
ATOM     18  H   UNL     1      17.748  22.235  36.052  1.00  0.00     0.293 HD
ENDBRANCH  13  17
BRANCH  15  19
ATOM     19  O   UNL     1      20.805  20.972  37.591  1.00  0.00    -0.502 OA
ATOM     20  H   UNL     1      20.425  20.436  36.826  1.00  0.00     0.293 HD
ENDBRANCH  15  19
BRANCH  16  21
ATOM     21  O   UNL     1      21.536  21.626  40.209  1.00  0.00    -0.504 OA
ATOM     22  H   UNL     1      22.003  21.998  41.027  1.00  0.00     0.293 HD
ENDBRANCH  16  21
ENDBRANCH   9  11
ENDBRANCH   8   9
ENDBRANCH   7   8
ENDBRANCH   1   7
BRANCH   2  23
ATOM     23  O   UNL     1      16.418  24.162  44.221  1.00  0.00    -0.452 OA
BRANCH  23  24
ATOM     24  C   UNL     1      17.218  24.655  45.261  1.00  0.00     0.338 C 
ATOM     25  O   UNL     1      17.263  24.044  46.360  1.00  0.00    -0.246 OA
BRANCH  24  26
ATOM     26  C   UNL     1      18.018  25.881  45.046  1.00  0.00     0.067 A 
ATOM     27  C   UNL     1      19.077  25.899  44.120  1.00  0.00     0.066 A 
ATOM     28  C   UNL     1      17.762  27.031  45.811  1.00  0.00     0.066 A 
ATOM     29  C   UNL     1      19.877  27.044  43.970  1.00  0.00     0.162 A 
ATOM     30  C   UNL     1      18.549  28.177  45.658  1.00  0.00     0.162 A 
ATOM     31  C   UNL     1      19.609  28.188  44.740  1.00  0.00     0.200 A 
BRANCH  29  32
ATOM     32  O   UNL     1      20.936  27.046  43.067  1.00  0.00    -0.504 OA
ATOM     33  H   UNL     1      21.503  26.220  42.914  1.00  0.00     0.293 HD
ENDBRANCH  29  32
BRANCH  30  34
ATOM     34  O   UNL     1      18.264  29.297  46.436  1.00  0.00    -0.504 OA
ATOM     35  H   UNL     1      18.391  30.243  46.088  1.00  0.00     0.293 HD
ENDBRANCH  30  34
BRANCH  31  36
ATOM     36  O   UNL     1      20.388  29.337  44.612  1.00  0.00    -0.502 OA
ATOM     37  H   UNL     1      21.295  29.330  44.162  1.00  0.00     0.293 HD
ENDBRANCH  31  36
ENDBRANCH  24  26
ENDBRANCH  23  24
ENDBRANCH   2  23
BRANCH   3  38
ATOM     38  O   UNL     1      14.179  23.792  45.928  1.00  0.00    -0.450 OA
BRANCH  38  39
ATOM     39  C   UNL     1      13.553  24.741  46.749  1.00  0.00     0.338 C 
ATOM     40  O   UNL     1      12.367  25.097  46.511  1.00  0.00    -0.246 OA
BRANCH  39  41
ATOM     41  C   UNL     1      14.274  25.312  47.908  1.00  0.00     0.067 A 
ATOM     42  C   UNL     1      14.331  24.611  49.125  1.00  0.00     0.066 A 
ATOM     43  C   UNL     1      14.913  26.559  47.804  1.00  0.00     0.066 A 
ATOM     44  C   UNL     1      15.009  25.147  50.223  1.00  0.00     0.162 A 
ATOM     45  C   UNL     1      15.592  27.108  48.896  1.00  0.00     0.162 A 
ATOM     46  C   UNL     1      15.634  26.401  50.126  1.00  0.00     0.200 A 
BRANCH  44  47
ATOM     47  O   UNL     1      15.066  24.430  51.419  1.00  0.00    -0.504 OA
ATOM     48  H   UNL     1      15.346  23.452  51.443  1.00  0.00     0.293 HD
ENDBRANCH  44  47
BRANCH  45  49
ATOM     49  O   UNL     1      16.201  28.350  48.718  1.00  0.00    -0.504 OA
ATOM     50  H   UNL     1      16.084  29.133  49.345  1.00  0.00     0.293 HD
ENDBRANCH  45  49
BRANCH  46  51
ATOM     51  O   UNL     1      16.274  26.900  51.264  1.00  0.00    -0.502 OA
ATOM     52  H   UNL     1      16.559  27.867  51.369  1.00  0.00     0.293 HD
ENDBRANCH  46  51
ENDBRANCH  39  41
ENDBRANCH  38  39
ENDBRANCH   3  38
BRANCH   5  53
ATOM     53  O   UNL     1      12.827  22.802  41.918  1.00  0.00    -0.428 OA
BRANCH  53  54
ATOM     54  C   UNL     1      12.387  22.568  40.610  1.00  0.00     0.340 C 
ATOM     55  O   UNL     1      11.957  21.436  40.271  1.00  0.00    -0.246 OA
BRANCH  54  56
ATOM     56  C   UNL     1      12.426  23.664  39.629  1.00  0.00     0.067 A 
ATOM     57  C   UNL     1      12.262  24.995  40.034  1.00  0.00     0.066 A 
ATOM     58  C   UNL     1      12.644  23.382  38.276  1.00  0.00     0.066 A 
ATOM     59  C   UNL     1      12.346  26.045  39.111  1.00  0.00     0.162 A 
ATOM     60  C   UNL     1      12.702  24.410  37.334  1.00  0.00     0.162 A 
ATOM     61  C   UNL     1      12.570  25.754  37.741  1.00  0.00     0.200 A 
BRANCH  59  62
ATOM     62  O   UNL     1      12.205  27.347  39.601  1.00  0.00    -0.504 OA
ATOM     63  H   UNL     1      11.923  27.569  40.549  1.00  0.00     0.293 HD
ENDBRANCH  59  62
BRANCH  60  64
ATOM     64  O   UNL     1      12.884  24.073  35.993  1.00  0.00    -0.504 OA
ATOM     65  H   UNL     1      13.799  23.847  35.616  1.00  0.00     0.293 HD
ENDBRANCH  60  64
BRANCH  61  66
ATOM     66  O   UNL     1      12.671  26.762  36.771  1.00  0.00    -0.502 OA
ATOM     67  H   UNL     1      13.372  27.490  36.780  1.00  0.00     0.293 HD
ENDBRANCH  61  66
ENDBRANCH  54  56
ENDBRANCH  53  54
ENDBRANCH   5  53
BRANCH   4  68
ATOM     68  O   UNL     1      13.033  21.597  44.356  1.00  0.00    -0.448 OA
BRANCH  68  69
ATOM     69  C   UNL     1      13.112  20.555  45.285  1.00  0.00     0.339 C 
ATOM     70  O   UNL     1      12.071  20.141  45.866  1.00  0.00    -0.246 OA
BRANCH  69  71
ATOM     71  C   UNL     1      14.426  19.952  45.592  1.00  0.00     0.067 A 
ATOM     72  C   UNL     1      14.837  18.766  44.970  1.00  0.00     0.066 A 
ATOM     73  C   UNL     1      15.289  20.570  46.511  1.00  0.00     0.066 A 
ATOM     74  C   UNL     1      16.094  18.209  45.248  1.00  0.00     0.162 A 
ATOM     75  C   UNL     1      16.545  20.025  46.792  1.00  0.00     0.162 A 
ATOM     76  C   UNL     1      16.954  18.842  46.161  1.00  0.00     0.200 A 
BRANCH  74  77
ATOM     77  O   UNL     1      16.497  17.034  44.612  1.00  0.00    -0.504 OA
ATOM     78  H   UNL     1      16.235  16.834  43.652  1.00  0.00     0.293 HD
ENDBRANCH  74  77
BRANCH  75  79
ATOM     79  O   UNL     1      17.378  20.677  47.703  1.00  0.00    -0.504 OA
ATOM     80  H   UNL     1      18.349  20.872  47.504  1.00  0.00     0.293 HD
ENDBRANCH  75  79
BRANCH  76  81
ATOM     81  O   UNL     1      18.211  18.304  46.447  1.00  0.00    -0.502 OA
ATOM     82  H   UNL     1      19.024  18.879  46.606  1.00  0.00     0.293 HD
ENDBRANCH  76  81
ENDBRANCH  69  71
ENDBRANCH  68  69
ENDBRANCH   4  68
TORSDOF 31
ENDMDL
MODEL 2
REMARK VINA RESULT:    -7.723      2.379      6.982
REMARK INTER + INTRA:         -23.347
REMARK INTER:                 -16.737
REMARK INTRA:                  -6.610
REMARK UNBOUND:                -5.014
REMARK SMILES O=C(OC[C@H]1O[C@H](OC(=O)c2cc(O)c(O)c(O)c2)[C@H](OC(=O)c2cc(O)c(O)c(O)c2)[C@@H](OC(=O)c2cc(O)c(O)c(O)c2)[C@H]1OC(=O)c1cc(O)c(O)c(O)c1)c1cc(O)c(O)c(O)c1
REMARK SMILES IDX 5 1 46 2 33 3 20 4 7 5 6 6 4 7 3 8 2 9 1 10 59 11 60 12
REMARK SMILES IDX 61 13 67 14 63 15 65 16 62 17 64 19 66 21 47 23 48 24 49 25
REMARK SMILES IDX 50 26 58 27 51 28 56 29 52 30 54 31 57 32 53 34 55 36 34 38
REMARK SMILES IDX 35 39 36 40 37 41 45 42 38 43 43 44 39 45 41 46 44 47 40 49
REMARK SMILES IDX 42 51 8 53 9 54 10 55 11 56 19 57 12 58 17 59 13 60 15 61
REMARK SMILES IDX 18 62 14 64 16 66 21 68 22 69 23 70 24 71 32 72 25 73 30 74
REMARK SMILES IDX 26 75 28 76 31 77 27 79 29 81
REMARK H PARENT 62 18 64 20 66 22 57 33 53 35 55 37 44 48 40 50 42 52 18 63
REMARK H PARENT 14 65 16 67 31 78 27 80 29 82
REMARK Flexibility Score: inf
ROOT
ATOM      1  C   UNL     1      16.726  24.970  40.201  1.00  0.00     0.205 C 
ATOM      2  C   UNL     1      16.169  23.898  41.154  1.00  0.00     0.254 C 
ATOM      3  C   UNL     1      17.150  23.769  42.325  1.00  0.00     0.267 C 
ATOM      4  C   UNL     1      17.322  25.139  43.007  1.00  0.00     0.290 C 
ATOM      5  C   UNL     1      17.699  26.202  41.950  1.00  0.00     0.357 C 
ATOM      6  O   UNL     1      16.784  26.227  40.861  1.00  0.00    -0.329 OA
ENDROOT
BRANCH   1   7
ATOM      7  C   UNL     1      15.882  25.110  38.920  1.00  0.00     0.269 C 
BRANCH   7   8
ATOM      8  O   UNL     1      16.743  25.147  37.786  1.00  0.00    -0.459 OA
BRANCH   8   9
ATOM      9  C   UNL     1      17.251  23.984  37.192  1.00  0.00     0.338 C 
ATOM     10  O   UNL     1      16.701  23.516  36.153  1.00  0.00    -0.246 OA
BRANCH   9  11
ATOM     11  C   UNL     1      18.405  23.288  37.798  1.00  0.00     0.067 A 
ATOM     12  C   UNL     1      18.917  22.124  37.209  1.00  0.00     0.066 A 
ATOM     13  C   UNL     1      19.974  21.427  37.798  1.00  0.00     0.162 A 
ATOM     14  C   UNL     1      18.976  23.763  38.996  1.00  0.00     0.066 A 
ATOM     15  C   UNL     1      20.521  21.883  39.021  1.00  0.00     0.200 A 
ATOM     16  C   UNL     1      20.018  23.058  39.609  1.00  0.00     0.162 A 
BRANCH  13  17
ATOM     17  O   UNL     1      20.455  20.298  37.133  1.00  0.00    -0.504 OA
ATOM     18  H   UNL     1      19.912  19.767  36.474  1.00  0.00     0.293 HD
ENDBRANCH  13  17
BRANCH  15  19
ATOM     19  O   UNL     1      21.551  21.198  39.674  1.00  0.00    -0.502 OA
ATOM     20  H   UNL     1      21.484  20.823  40.608  1.00  0.00     0.293 HD
ENDBRANCH  15  19
BRANCH  16  21
ATOM     21  O   UNL     1      20.538  23.544  40.809  1.00  0.00    -0.504 OA
ATOM     22  H   UNL     1      21.496  23.862  40.889  1.00  0.00     0.293 HD
ENDBRANCH  16  21
ENDBRANCH   9  11
ENDBRANCH   8   9
ENDBRANCH   7   8
ENDBRANCH   1   7
BRANCH   2  23
ATOM     23  O   UNL     1      14.894  24.297  41.659  1.00  0.00    -0.452 OA
BRANCH  23  24
ATOM     24  C   UNL     1      13.788  23.443  41.772  1.00  0.00     0.338 C 
ATOM     25  O   UNL     1      13.107  23.162  40.753  1.00  0.00    -0.246 OA
BRANCH  24  26
ATOM     26  C   UNL     1      13.447  22.865  43.091  1.00  0.00     0.067 A 
ATOM     27  C   UNL     1      13.253  23.692  44.213  1.00  0.00     0.066 A 
ATOM     28  C   UNL     1      13.366  21.472  43.248  1.00  0.00     0.066 A 
ATOM     29  C   UNL     1      12.996  23.133  45.476  1.00  0.00     0.162 A 
ATOM     30  C   UNL     1      13.101  20.911  44.502  1.00  0.00     0.162 A 
ATOM     31  C   UNL     1      12.917  21.738  45.621  1.00  0.00     0.200 A 
BRANCH  29  32
ATOM     32  O   UNL     1      12.827  23.957  46.586  1.00  0.00    -0.504 OA
ATOM     33  H   UNL     1      12.100  23.782  47.270  1.00  0.00     0.293 HD
ENDBRANCH  29  32
BRANCH  30  34
ATOM     34  O   UNL     1      13.031  19.525  44.618  1.00  0.00    -0.504 OA
ATOM     35  H   UNL     1      13.497  18.905  43.963  1.00  0.00     0.293 HD
ENDBRANCH  30  34
BRANCH  31  36
ATOM     36  O   UNL     1      12.666  21.158  46.863  1.00  0.00    -0.502 OA
ATOM     37  H   UNL     1      11.728  20.987  47.201  1.00  0.00     0.293 HD
ENDBRANCH  31  36
ENDBRANCH  24  26
ENDBRANCH  23  24
ENDBRANCH   2  23
BRANCH   3  38
ATOM     38  O   UNL     1      16.694  22.784  43.251  1.00  0.00    -0.450 OA
BRANCH  38  39
ATOM     39  C   UNL     1      17.459  21.662  43.598  1.00  0.00     0.338 C 
ATOM     40  O   UNL     1      18.604  21.498  43.095  1.00  0.00    -0.246 OA
BRANCH  39  41
ATOM     41  C   UNL     1      16.935  20.677  44.571  1.00  0.00     0.067 A 
ATOM     42  C   UNL     1      16.474  21.098  45.830  1.00  0.00     0.066 A 
ATOM     43  C   UNL     1      16.890  19.312  44.244  1.00  0.00     0.066 A 
ATOM     44  C   UNL     1      15.981  20.171  46.752  1.00  0.00     0.162 A 
ATOM     45  C   UNL     1      16.402  18.374  45.160  1.00  0.00     0.162 A 
ATOM     46  C   UNL     1      15.950  18.804  46.434  1.00  0.00     0.200 A 
BRANCH  44  47
ATOM     47  O   UNL     1      15.515  20.611  47.993  1.00  0.00    -0.504 OA
ATOM     48  H   UNL     1      16.067  21.229  48.582  1.00  0.00     0.293 HD
ENDBRANCH  44  47
BRANCH  45  49
ATOM     49  O   UNL     1      16.388  17.036  44.766  1.00  0.00    -0.504 OA
ATOM     50  H   UNL     1      16.564  16.721  43.823  1.00  0.00     0.293 HD
ENDBRANCH  45  49
BRANCH  46  51
ATOM     51  O   UNL     1      15.471  17.920  47.406  1.00  0.00    -0.502 OA
ATOM     52  H   UNL     1      15.740  16.944  47.458  1.00  0.00     0.293 HD
ENDBRANCH  46  51
ENDBRANCH  39  41
ENDBRANCH  38  39
ENDBRANCH   3  38
BRANCH   5  53
ATOM     53  O   UNL     1      19.034  25.995  41.489  1.00  0.00    -0.428 OA
BRANCH  53  54
ATOM     54  C   UNL     1      19.951  27.034  41.299  1.00  0.00     0.340 C 
ATOM     55  O   UNL     1      20.639  27.466  42.260  1.00  0.00    -0.246 OA
BRANCH  54  56
ATOM     56  C   UNL     1      20.113  27.618  39.958  1.00  0.00     0.067 A 
ATOM     57  C   UNL     1      20.828  28.808  39.775  1.00  0.00     0.066 A 
ATOM     58  C   UNL     1      19.560  26.973  38.846  1.00  0.00     0.066 A 
ATOM     59  C   UNL     1      21.023  29.343  38.495  1.00  0.00     0.162 A 
ATOM     60  C   UNL     1      19.717  27.503  37.565  1.00  0.00     0.162 A 
ATOM     61  C   UNL     1      20.464  28.683  37.371  1.00  0.00     0.200 A 
BRANCH  59  62
ATOM     62  O   UNL     1      21.778  30.515  38.394  1.00  0.00    -0.504 OA
ATOM     63  H   UNL     1      21.663  31.202  37.657  1.00  0.00     0.293 HD
ENDBRANCH  59  62
BRANCH  60  64
ATOM     64  O   UNL     1      19.116  26.842  36.493  1.00  0.00    -0.504 OA
ATOM     65  H   UNL     1      18.605  25.974  36.617  1.00  0.00     0.293 HD
ENDBRANCH  60  64
BRANCH  61  66
ATOM     66  O   UNL     1      20.633  29.164  36.064  1.00  0.00    -0.502 OA
ATOM     67  H   UNL     1      21.308  28.798  35.407  1.00  0.00     0.293 HD
ENDBRANCH  61  66
ENDBRANCH  54  56
ENDBRANCH  53  54
ENDBRANCH   5  53
BRANCH   4  68
ATOM     68  O   UNL     1      18.372  25.079  43.971  1.00  0.00    -0.448 OA
BRANCH  68  69
ATOM     69  C   UNL     1      18.470  25.925  45.080  1.00  0.00     0.339 C 
ATOM     70  O   UNL     1      19.449  26.714  45.194  1.00  0.00    -0.246 OA
BRANCH  69  71
ATOM     71  C   UNL     1      17.428  25.877  46.126  1.00  0.00     0.067 A 
ATOM     72  C   UNL     1      16.928  24.654  46.591  1.00  0.00     0.066 A 
ATOM     73  C   UNL     1      16.927  27.067  46.679  1.00  0.00     0.066 A 
ATOM     74  C   UNL     1      15.954  24.612  47.600  1.00  0.00     0.162 A 
ATOM     75  C   UNL     1      15.959  27.037  47.687  1.00  0.00     0.162 A 
ATOM     76  C   UNL     1      15.469  25.808  48.153  1.00  0.00     0.200 A 
BRANCH  74  77
ATOM     77  O   UNL     1      15.475  23.386  48.062  1.00  0.00    -0.504 OA
ATOM     78  H   UNL     1      15.103  22.688  47.426  1.00  0.00     0.293 HD
ENDBRANCH  74  77
BRANCH  75  79
ATOM     79  O   UNL     1      15.497  28.242  48.218  1.00  0.00    -0.504 OA
ATOM     80  H   UNL     1      14.984  28.288  49.088  1.00  0.00     0.293 HD
ENDBRANCH  75  79
BRANCH  76  81
ATOM     81  O   UNL     1      14.503  25.787  49.161  1.00  0.00    -0.502 OA
ATOM     82  H   UNL     1      14.280  26.599  49.717  1.00  0.00     0.293 HD
ENDBRANCH  76  81
ENDBRANCH  69  71
ENDBRANCH  68  69
ENDBRANCH   4  68
TORSDOF 31
ENDMDL
MODEL 3
REMARK VINA RESULT:    -7.540      2.224      7.408
REMARK INTER + INTRA:         -22.912
REMARK INTER:                 -18.078
REMARK INTRA:                  -4.835
REMARK UNBOUND:                -5.014
REMARK SMILES O=C(OC[C@H]1O[C@H](OC(=O)c2cc(O)c(O)c(O)c2)[C@H](OC(=O)c2cc(O)c(O)c(O)c2)[C@@H](OC(=O)c2cc(O)c(O)c(O)c2)[C@H]1OC(=O)c1cc(O)c(O)c(O)c1)c1cc(O)c(O)c(O)c1
REMARK SMILES IDX 5 1 46 2 33 3 20 4 7 5 6 6 4 7 3 8 2 9 1 10 59 11 60 12
REMARK SMILES IDX 61 13 67 14 63 15 65 16 62 17 64 19 66 21 47 23 48 24 49 25
REMARK SMILES IDX 50 26 58 27 51 28 56 29 52 30 54 31 57 32 53 34 55 36 34 38
REMARK SMILES IDX 35 39 36 40 37 41 45 42 38 43 43 44 39 45 41 46 44 47 40 49
REMARK SMILES IDX 42 51 8 53 9 54 10 55 11 56 19 57 12 58 17 59 13 60 15 61
REMARK SMILES IDX 18 62 14 64 16 66 21 68 22 69 23 70 24 71 32 72 25 73 30 74
REMARK SMILES IDX 26 75 28 76 31 77 27 79 29 81
REMARK H PARENT 62 18 64 20 66 22 57 33 53 35 55 37 44 48 40 50 42 52 18 63
REMARK H PARENT 14 65 16 67 31 78 27 80 29 82
REMARK Flexibility Score: inf
ROOT
ATOM      1  C   UNL     1      17.025  24.921  40.121  1.00  0.00     0.205 C 
ATOM      2  C   UNL     1      15.940  24.364  41.059  1.00  0.00     0.254 C 
ATOM      3  C   UNL     1      16.586  24.147  42.432  1.00  0.00     0.267 C 
ATOM      4  C   UNL     1      17.184  25.473  42.937  1.00  0.00     0.290 C 
ATOM      5  C   UNL     1      18.120  26.064  41.858  1.00  0.00     0.357 C 
ATOM      6  O   UNL     1      17.479  26.183  40.594  1.00  0.00    -0.329 OA
ENDROOT
BRANCH   1   7
ATOM      7  C   UNL     1      16.525  25.075  38.673  1.00  0.00     0.269 C 
BRANCH   7   8
ATOM      8  O   UNL     1      17.547  25.666  37.877  1.00  0.00    -0.459 OA
BRANCH   8   9
ATOM      9  C   UNL     1      18.202  24.965  36.855  1.00  0.00     0.338 C 
ATOM     10  O   UNL     1      18.633  25.586  35.841  1.00  0.00    -0.246 OA
BRANCH   9  11
ATOM     11  C   UNL     1      18.359  23.499  36.949  1.00  0.00     0.067 A 
ATOM     12  C   UNL     1      19.594  22.942  37.307  1.00  0.00     0.066 A 
ATOM     13  C   UNL     1      19.771  21.557  37.349  1.00  0.00     0.162 A 
ATOM     14  C   UNL     1      17.282  22.645  36.637  1.00  0.00     0.066 A 
ATOM     15  C   UNL     1      18.700  20.701  37.000  1.00  0.00     0.200 A 
ATOM     16  C   UNL     1      17.456  21.256  36.651  1.00  0.00     0.162 A 
BRANCH  13  17
ATOM     17  O   UNL     1      21.018  21.077  37.752  1.00  0.00    -0.504 OA
ATOM     18  H   UNL     1      21.197  20.684  38.660  1.00  0.00     0.293 HD
ENDBRANCH  13  17
BRANCH  15  19
ATOM     19  O   UNL     1      18.839  19.309  36.984  1.00  0.00    -0.502 OA
ATOM     20  H   UNL     1      19.715  18.824  36.872  1.00  0.00     0.293 HD
ENDBRANCH  15  19
BRANCH  16  21
ATOM     21  O   UNL     1      16.374  20.444  36.309  1.00  0.00    -0.504 OA
ATOM     22  H   UNL     1      15.527  20.821  35.901  1.00  0.00     0.293 HD
ENDBRANCH  16  21
ENDBRANCH   9  11
ENDBRANCH   8   9
ENDBRANCH   7   8
ENDBRANCH   1   7
BRANCH   2  23
ATOM     23  O   UNL     1      14.871  25.302  41.193  1.00  0.00    -0.452 OA
BRANCH  23  24
ATOM     24  C   UNL     1      13.530  25.015  40.903  1.00  0.00     0.338 C 
ATOM     25  O   UNL     1      12.741  24.706  41.833  1.00  0.00    -0.246 OA
BRANCH  24  26
ATOM     26  C   UNL     1      13.053  25.097  39.505  1.00  0.00     0.067 A 
ATOM     27  C   UNL     1      12.932  23.939  38.715  1.00  0.00     0.066 A 
ATOM     28  C   UNL     1      12.766  26.347  38.932  1.00  0.00     0.066 A 
ATOM     29  C   UNL     1      12.544  24.031  37.367  1.00  0.00     0.162 A 
ATOM     30  C   UNL     1      12.370  26.442  37.594  1.00  0.00     0.162 A 
ATOM     31  C   UNL     1      12.260  25.287  36.806  1.00  0.00     0.200 A 
BRANCH  29  32
ATOM     32  O   UNL     1      12.448  22.883  36.586  1.00  0.00    -0.504 OA
ATOM     33  H   UNL     1      13.157  22.159  36.618  1.00  0.00     0.293 HD
ENDBRANCH  29  32
BRANCH  30  34
ATOM     34  O   UNL     1      12.097  27.700  37.062  1.00  0.00    -0.504 OA
ATOM     35  H   UNL     1      11.237  27.899  36.561  1.00  0.00     0.293 HD
ENDBRANCH  30  34
BRANCH  31  36
ATOM     36  O   UNL     1      11.875  25.406  35.472  1.00  0.00    -0.502 OA
ATOM     37  H   UNL     1      11.318  24.703  35.004  1.00  0.00     0.293 HD
ENDBRANCH  31  36
ENDBRANCH  24  26
ENDBRANCH  23  24
ENDBRANCH   2  23
BRANCH   3  38
ATOM     38  O   UNL     1      15.631  23.626  43.355  1.00  0.00    -0.450 OA
BRANCH  38  39
ATOM     39  C   UNL     1      15.220  22.285  43.340  1.00  0.00     0.338 C 
ATOM     40  O   UNL     1      14.333  21.906  42.527  1.00  0.00    -0.246 OA
BRANCH  39  41
ATOM     41  C   UNL     1      15.838  21.307  44.262  1.00  0.00     0.067 A 
ATOM     42  C   UNL     1      15.924  19.950  43.905  1.00  0.00     0.066 A 
ATOM     43  C   UNL     1      16.350  21.725  45.502  1.00  0.00     0.066 A 
ATOM     44  C   UNL     1      16.506  19.023  44.773  1.00  0.00     0.162 A 
ATOM     45  C   UNL     1      16.931  20.806  46.381  1.00  0.00     0.162 A 
ATOM     46  C   UNL     1      17.003  19.435  46.020  1.00  0.00     0.200 A 
BRANCH  44  47
ATOM     47  O   UNL     1      16.594  17.682  44.395  1.00  0.00    -0.504 OA
ATOM     48  H   UNL     1      15.800  17.187  43.996  1.00  0.00     0.293 HD
ENDBRANCH  44  47
BRANCH  45  49
ATOM     49  O   UNL     1      17.417  21.293  47.595  1.00  0.00    -0.504 OA
ATOM     50  H   UNL     1      18.356  21.638  47.731  1.00  0.00     0.293 HD
ENDBRANCH  45  49
BRANCH  46  51
ATOM     51  O   UNL     1      17.549  18.459  46.859  1.00  0.00    -0.502 OA
ATOM     52  H   UNL     1      17.672  17.490  46.587  1.00  0.00     0.293 HD
ENDBRANCH  46  51
ENDBRANCH  39  41
ENDBRANCH  38  39
ENDBRANCH   3  38
BRANCH   5  53
ATOM     53  O   UNL     1      19.313  25.289  41.754  1.00  0.00    -0.428 OA
BRANCH  53  54
ATOM     54  C   UNL     1      20.282  25.499  40.766  1.00  0.00     0.340 C 
ATOM     55  O   UNL     1      20.771  24.530  40.131  1.00  0.00    -0.246 OA
BRANCH  54  56
ATOM     56  C   UNL     1      20.724  26.871  40.469  1.00  0.00     0.067 A 
ATOM     57  C   UNL     1      21.516  27.583  41.379  1.00  0.00     0.066 A 
ATOM     58  C   UNL     1      20.364  27.472  39.258  1.00  0.00     0.066 A 
ATOM     59  C   UNL     1      21.977  28.871  41.080  1.00  0.00     0.162 A 
ATOM     60  C   UNL     1      20.788  28.765  38.951  1.00  0.00     0.162 A 
ATOM     61  C   UNL     1      21.613  29.474  39.849  1.00  0.00     0.200 A 
BRANCH  59  62
ATOM     62  O   UNL     1      22.791  29.500  42.026  1.00  0.00    -0.504 OA
ATOM     63  H   UNL     1      23.773  29.707  41.881  1.00  0.00     0.293 HD
ENDBRANCH  59  62
BRANCH  60  64
ATOM     64  O   UNL     1      20.372  29.334  37.747  1.00  0.00    -0.504 OA
ATOM     65  H   UNL     1      21.014  29.486  36.975  1.00  0.00     0.293 HD
ENDBRANCH  60  64
BRANCH  61  66
ATOM     66  O   UNL     1      22.050  30.758  39.489  1.00  0.00    -0.502 OA
ATOM     67  H   UNL     1      23.016  31.000  39.314  1.00  0.00     0.293 HD
ENDBRANCH  61  66
ENDBRANCH  54  56
ENDBRANCH  53  54
ENDBRANCH   5  53
BRANCH   4  68
ATOM     68  O   UNL     1      17.953  25.247  44.117  1.00  0.00    -0.448 OA
BRANCH  68  69
ATOM     69  C   UNL     1      18.046  26.150  45.180  1.00  0.00     0.339 C 
ATOM     70  O   UNL     1      18.942  27.040  45.184  1.00  0.00    -0.246 OA
BRANCH  69  71
ATOM     71  C   UNL     1      17.096  26.047  46.308  1.00  0.00     0.067 A 
ATOM     72  C   UNL     1      16.755  24.801  46.851  1.00  0.00     0.066 A 
ATOM     73  C   UNL     1      16.525  27.205  46.859  1.00  0.00     0.066 A 
ATOM     74  C   UNL     1      15.871  24.708  47.936  1.00  0.00     0.162 A 
ATOM     75  C   UNL     1      15.645  27.125  47.942  1.00  0.00     0.162 A 
ATOM     76  C   UNL     1      15.314  25.875  48.487  1.00  0.00     0.200 A 
BRANCH  74  77
ATOM     77  O   UNL     1      15.550  23.462  48.476  1.00  0.00    -0.504 OA
ATOM     78  H   UNL     1      14.717  22.959  48.190  1.00  0.00     0.293 HD
ENDBRANCH  74  77
BRANCH  75  79
ATOM     79  O   UNL     1      15.109  28.301  48.468  1.00  0.00    -0.504 OA
ATOM     80  H   UNL     1      14.651  28.331  49.369  1.00  0.00     0.293 HD
ENDBRANCH  75  79
BRANCH  76  81
ATOM     81  O   UNL     1      14.435  25.803  49.569  1.00  0.00    -0.502 OA
ATOM     82  H   UNL     1      14.687  25.371  50.445  1.00  0.00     0.293 HD
ENDBRANCH  76  81
ENDBRANCH  69  71
ENDBRANCH  68  69
ENDBRANCH   4  68
TORSDOF 31
ENDMDL
MODEL 4
REMARK VINA RESULT:    -7.505      2.085      7.297
REMARK INTER + INTRA:         -22.829
REMARK INTER:                 -16.995
REMARK INTRA:                  -5.834
REMARK UNBOUND:                -5.014
REMARK SMILES O=C(OC[C@H]1O[C@H](OC(=O)c2cc(O)c(O)c(O)c2)[C@H](OC(=O)c2cc(O)c(O)c(O)c2)[C@@H](OC(=O)c2cc(O)c(O)c(O)c2)[C@H]1OC(=O)c1cc(O)c(O)c(O)c1)c1cc(O)c(O)c(O)c1
REMARK SMILES IDX 5 1 46 2 33 3 20 4 7 5 6 6 4 7 3 8 2 9 1 10 59 11 60 12
REMARK SMILES IDX 61 13 67 14 63 15 65 16 62 17 64 19 66 21 47 23 48 24 49 25
REMARK SMILES IDX 50 26 58 27 51 28 56 29 52 30 54 31 57 32 53 34 55 36 34 38
REMARK SMILES IDX 35 39 36 40 37 41 45 42 38 43 43 44 39 45 41 46 44 47 40 49
REMARK SMILES IDX 42 51 8 53 9 54 10 55 11 56 19 57 12 58 17 59 13 60 15 61
REMARK SMILES IDX 18 62 14 64 16 66 21 68 22 69 23 70 24 71 32 72 25 73 30 74
REMARK SMILES IDX 26 75 28 76 31 77 27 79 29 81
REMARK H PARENT 62 18 64 20 66 22 57 33 53 35 55 37 44 48 40 50 42 52 18 63
REMARK H PARENT 14 65 16 67 31 78 27 80 29 82
REMARK Flexibility Score: inf
ROOT
ATOM      1  C   UNL     1      16.552  24.795  40.162  1.00  0.00     0.205 C 
ATOM      2  C   UNL     1      16.105  23.770  41.220  1.00  0.00     0.254 C 
ATOM      3  C   UNL     1      17.184  23.731  42.308  1.00  0.00     0.267 C 
ATOM      4  C   UNL     1      17.379  25.141  42.893  1.00  0.00     0.290 C 
ATOM      5  C   UNL     1      17.638  26.147  41.748  1.00  0.00     0.357 C 
ATOM      6  O   UNL     1      16.634  26.090  40.742  1.00  0.00    -0.329 OA
ENDROOT
BRANCH   1   7
ATOM      7  C   UNL     1      15.600  24.842  38.953  1.00  0.00     0.269 C 
BRANCH   7   8
ATOM      8  O   UNL     1      16.339  24.614  37.758  1.00  0.00    -0.459 OA
BRANCH   8   9
ATOM      9  C   UNL     1      15.729  24.201  36.565  1.00  0.00     0.338 C 
ATOM     10  O   UNL     1      15.574  25.025  35.618  1.00  0.00    -0.246 OA
BRANCH   9  11
ATOM     11  C   UNL     1      15.238  22.814  36.429  1.00  0.00     0.067 A 
ATOM     12  C   UNL     1      13.862  22.554  36.371  1.00  0.00     0.066 A 
ATOM     13  C   UNL     1      13.381  21.245  36.295  1.00  0.00     0.162 A 
ATOM     14  C   UNL     1      16.145  21.735  36.401  1.00  0.00     0.066 A 
ATOM     15  C   UNL     1      14.291  20.162  36.304  1.00  0.00     0.200 A 
ATOM     16  C   UNL     1      15.673  20.419  36.350  1.00  0.00     0.162 A 
BRANCH  13  17
ATOM     17  O   UNL     1      12.000  21.068  36.201  1.00  0.00    -0.504 OA
ATOM     18  H   UNL     1      11.567  20.354  35.640  1.00  0.00     0.293 HD
ENDBRANCH  13  17
BRANCH  15  19
ATOM     19  O   UNL     1      13.860  18.831  36.273  1.00  0.00    -0.502 OA
ATOM     20  H   UNL     1      13.009  18.517  35.834  1.00  0.00     0.293 HD
ENDBRANCH  15  19
BRANCH  16  21
ATOM     21  O   UNL     1      16.601  19.377  36.352  1.00  0.00    -0.504 OA
ATOM     22  H   UNL     1      17.451  19.413  35.802  1.00  0.00     0.293 HD
ENDBRANCH  16  21
ENDBRANCH   9  11
ENDBRANCH   8   9
ENDBRANCH   7   8
ENDBRANCH   1   7
BRANCH   2  23
ATOM     23  O   UNL     1      14.867  24.173  41.809  1.00  0.00    -0.452 OA
BRANCH  23  24
ATOM     24  C   UNL     1      13.765  23.324  41.984  1.00  0.00     0.338 C 
ATOM     25  O   UNL     1      13.035  23.035  41.001  1.00  0.00    -0.246 OA
BRANCH  24  26
ATOM     26  C   UNL     1      13.484  22.763  43.324  1.00  0.00     0.067 A 
ATOM     27  C   UNL     1      13.333  23.604  44.442  1.00  0.00     0.066 A 
ATOM     28  C   UNL     1      13.419  21.371  43.504  1.00  0.00     0.066 A 
ATOM     29  C   UNL     1      13.135  23.061  45.722  1.00  0.00     0.162 A 
ATOM     30  C   UNL     1      13.212  20.827  44.775  1.00  0.00     0.162 A 
ATOM     31  C   UNL     1      13.071  21.668  45.889  1.00  0.00     0.200 A 
BRANCH  29  32
ATOM     32  O   UNL     1      13.008  23.900  46.827  1.00  0.00    -0.504 OA
ATOM     33  H   UNL     1      13.820  24.246  47.325  1.00  0.00     0.293 HD
ENDBRANCH  29  32
BRANCH  30  34
ATOM     34  O   UNL     1      13.156  19.442  44.913  1.00  0.00    -0.504 OA
ATOM     35  H   UNL     1      13.861  18.831  44.511  1.00  0.00     0.293 HD
ENDBRANCH  30  34
BRANCH  31  36
ATOM     36  O   UNL     1      12.878  21.104  47.149  1.00  0.00    -0.502 OA
ATOM     37  H   UNL     1      12.151  20.424  47.331  1.00  0.00     0.293 HD
ENDBRANCH  31  36
ENDBRANCH  24  26
ENDBRANCH  23  24
ENDBRANCH   2  23
BRANCH   3  38
ATOM     38  O   UNL     1      16.832  22.793  43.324  1.00  0.00    -0.450 OA
BRANCH  38  39
ATOM     39  C   UNL     1      17.603  21.655  43.602  1.00  0.00     0.338 C 
ATOM     40  O   UNL     1      18.716  21.493  43.032  1.00  0.00    -0.246 OA
BRANCH  39  41
ATOM     41  C   UNL     1      17.125  20.653  44.580  1.00  0.00     0.067 A 
ATOM     42  C   UNL     1      16.693  21.056  45.856  1.00  0.00     0.066 A 
ATOM     43  C   UNL     1      17.093  19.291  44.243  1.00  0.00     0.066 A 
ATOM     44  C   UNL     1      16.242  20.113  46.783  1.00  0.00     0.162 A 
ATOM     45  C   UNL     1      16.648  18.337  45.164  1.00  0.00     0.162 A 
ATOM     46  C   UNL     1      16.225  18.748  46.455  1.00  0.00     0.200 A 
BRANCH  44  47
ATOM     47  O   UNL     1      15.805  20.534  48.041  1.00  0.00    -0.504 OA
ATOM     48  H   UNL     1      14.869  20.321  48.379  1.00  0.00     0.293 HD
ENDBRANCH  44  47
BRANCH  45  49
ATOM     49  O   UNL     1      16.645  17.002  44.759  1.00  0.00    -0.504 OA
ATOM     50  H   UNL     1      16.906  16.690  43.835  1.00  0.00     0.293 HD
ENDBRANCH  45  49
BRANCH  46  51
ATOM     51  O   UNL     1      15.790  17.848  47.431  1.00  0.00    -0.502 OA
ATOM     52  H   UNL     1      16.328  17.044  47.734  1.00  0.00     0.293 HD
ENDBRANCH  46  51
ENDBRANCH  39  41
ENDBRANCH  38  39
ENDBRANCH   3  38
BRANCH   5  53
ATOM     53  O   UNL     1      18.934  25.941  41.187  1.00  0.00    -0.428 OA
BRANCH  53  54
ATOM     54  C   UNL     1      19.162  25.787  39.815  1.00  0.00     0.340 C 
ATOM     55  O   UNL     1      18.998  26.753  39.026  1.00  0.00    -0.246 OA
BRANCH  54  56
ATOM     56  C   UNL     1      19.604  24.482  39.299  1.00  0.00     0.067 A 
ATOM     57  C   UNL     1      20.262  23.567  40.131  1.00  0.00     0.066 A 
ATOM     58  C   UNL     1      19.355  24.139  37.966  1.00  0.00     0.066 A 
ATOM     59  C   UNL     1      20.643  22.306  39.657  1.00  0.00     0.162 A 
ATOM     60  C   UNL     1      19.751  22.898  37.464  1.00  0.00     0.162 A 
ATOM     61  C   UNL     1      20.385  21.961  38.305  1.00  0.00     0.200 A 
BRANCH  59  62
ATOM     62  O   UNL     1      21.264  21.437  40.560  1.00  0.00    -0.504 OA
ATOM     63  H   UNL     1      20.775  20.939  41.295  1.00  0.00     0.293 HD
ENDBRANCH  59  62
BRANCH  60  64
ATOM     64  O   UNL     1      19.512  22.618  36.118  1.00  0.00    -0.504 OA
ATOM     65  H   UNL     1      19.414  23.354  35.426  1.00  0.00     0.293 HD
ENDBRANCH  60  64
BRANCH  61  66
ATOM     66  O   UNL     1      20.735  20.710  37.774  1.00  0.00    -0.502 OA
ATOM     67  H   UNL     1      20.199  20.224  37.068  1.00  0.00     0.293 HD
ENDBRANCH  61  66
ENDBRANCH  54  56
ENDBRANCH  53  54
ENDBRANCH   5  53
BRANCH   4  68
ATOM     68  O   UNL     1      18.507  25.160  43.765  1.00  0.00    -0.448 OA
BRANCH  68  69
ATOM     69  C   UNL     1      18.625  25.994  44.881  1.00  0.00     0.339 C 
ATOM     70  O   UNL     1      19.599  26.792  44.979  1.00  0.00    -0.246 OA
BRANCH  69  71
ATOM     71  C   UNL     1      17.610  25.924  45.953  1.00  0.00     0.067 A 
ATOM     72  C   UNL     1      17.042  27.088  46.485  1.00  0.00     0.066 A 
ATOM     73  C   UNL     1      17.193  24.678  46.450  1.00  0.00     0.066 A 
ATOM     74  C   UNL     1      16.063  27.017  47.486  1.00  0.00     0.162 A 
ATOM     75  C   UNL     1      16.215  24.595  47.445  1.00  0.00     0.162 A 
ATOM     76  C   UNL     1      15.644  25.765  47.968  1.00  0.00     0.200 A 
BRANCH  74  77
ATOM     77  O   UNL     1      15.496  28.185  47.998  1.00  0.00    -0.504 OA
ATOM     78  H   UNL     1      14.666  28.160  48.582  1.00  0.00     0.293 HD
ENDBRANCH  74  77
BRANCH  75  79
ATOM     79  O   UNL     1      15.820  23.337  47.903  1.00  0.00    -0.504 OA
ATOM     80  H   UNL     1      16.118  22.481  47.456  1.00  0.00     0.293 HD
ENDBRANCH  75  79
BRANCH  76  81
ATOM     81  O   UNL     1      14.668  25.674  48.962  1.00  0.00    -0.502 OA
ATOM     82  H   UNL     1      14.686  26.244  49.794  1.00  0.00     0.293 HD
ENDBRANCH  76  81
ENDBRANCH  69  71
ENDBRANCH  68  69
ENDBRANCH   4  68
TORSDOF 31
ENDMDL
MODEL 5
REMARK VINA RESULT:    -7.449      1.947      8.261
REMARK INTER + INTRA:         -22.696
REMARK INTER:                 -16.218
REMARK INTRA:                  -6.479
REMARK UNBOUND:                -5.014
REMARK SMILES O=C(OC[C@H]1O[C@H](OC(=O)c2cc(O)c(O)c(O)c2)[C@H](OC(=O)c2cc(O)c(O)c(O)c2)[C@@H](OC(=O)c2cc(O)c(O)c(O)c2)[C@H]1OC(=O)c1cc(O)c(O)c(O)c1)c1cc(O)c(O)c(O)c1
REMARK SMILES IDX 5 1 46 2 33 3 20 4 7 5 6 6 4 7 3 8 2 9 1 10 59 11 60 12
REMARK SMILES IDX 61 13 67 14 63 15 65 16 62 17 64 19 66 21 47 23 48 24 49 25
REMARK SMILES IDX 50 26 58 27 51 28 56 29 52 30 54 31 57 32 53 34 55 36 34 38
REMARK SMILES IDX 35 39 36 40 37 41 45 42 38 43 43 44 39 45 41 46 44 47 40 49
REMARK SMILES IDX 42 51 8 53 9 54 10 55 11 56 19 57 12 58 17 59 13 60 15 61
REMARK SMILES IDX 18 62 14 64 16 66 21 68 22 69 23 70 24 71 32 72 25 73 30 74
REMARK SMILES IDX 26 75 28 76 31 77 27 79 29 81
REMARK H PARENT 62 18 64 20 66 22 57 33 53 35 55 37 44 48 40 50 42 52 18 63
REMARK H PARENT 14 65 16 67 31 78 27 80 29 82
REMARK Flexibility Score: inf
ROOT
ATOM      1  C   UNL     1      13.025  23.079  45.293  1.00  0.00     0.205 C 
ATOM      2  C   UNL     1      13.906  24.299  45.617  1.00  0.00     0.254 C 
ATOM      3  C   UNL     1      14.947  24.424  44.500  1.00  0.00     0.267 C 
ATOM      4  C   UNL     1      14.235  24.550  43.141  1.00  0.00     0.290 C 
ATOM      5  C   UNL     1      13.229  23.388  42.972  1.00  0.00     0.357 C 
ATOM      6  O   UNL     1      12.331  23.289  44.071  1.00  0.00    -0.329 OA
ENDROOT
BRANCH   1   7
ATOM      7  C   UNL     1      12.006  22.779  46.408  1.00  0.00     0.269 C 
BRANCH   7   8
ATOM      8  O   UNL     1      12.319  21.529  47.014  1.00  0.00    -0.459 OA
BRANCH   8   9
ATOM      9  C   UNL     1      12.893  21.437  48.290  1.00  0.00     0.338 C 
ATOM     10  O   UNL     1      12.207  21.727  49.312  1.00  0.00    -0.246 OA
BRANCH   9  11
ATOM     11  C   UNL     1      14.308  21.034  48.435  1.00  0.00     0.067 A 
ATOM     12  C   UNL     1      15.305  21.671  47.684  1.00  0.00     0.066 A 
ATOM     13  C   UNL     1      16.638  21.266  47.772  1.00  0.00     0.162 A 
ATOM     14  C   UNL     1      14.664  19.977  49.298  1.00  0.00     0.066 A 
ATOM     15  C   UNL     1      16.989  20.182  48.610  1.00  0.00     0.200 A 
ATOM     16  C   UNL     1      15.993  19.547  49.374  1.00  0.00     0.162 A 
BRANCH  13  17
ATOM     17  O   UNL     1      17.580  21.974  47.023  1.00  0.00    -0.504 OA
ATOM     18  H   UNL     1      18.454  21.584  46.716  1.00  0.00     0.293 HD
ENDBRANCH  13  17
BRANCH  15  19
ATOM     19  O   UNL     1      18.302  19.709  48.701  1.00  0.00    -0.502 OA
ATOM     20  H   UNL     1      18.560  18.734  48.707  1.00  0.00     0.293 HD
ENDBRANCH  15  19
BRANCH  16  21
ATOM     21  O   UNL     1      16.302  18.480  50.218  1.00  0.00    -0.504 OA
ATOM     22  H   UNL     1      16.453  17.543  49.866  1.00  0.00     0.293 HD
ENDBRANCH  16  21
ENDBRANCH   9  11
ENDBRANCH   8   9
ENDBRANCH   7   8
ENDBRANCH   1   7
BRANCH   2  23
ATOM     23  O   UNL     1      13.114  25.487  45.649  1.00  0.00    -0.452 OA
BRANCH  23  24
ATOM     24  C   UNL     1      12.842  26.222  46.811  1.00  0.00     0.338 C 
ATOM     25  O   UNL     1      11.875  27.026  46.831  1.00  0.00    -0.246 OA
BRANCH  24  26
ATOM     26  C   UNL     1      13.688  26.029  48.010  1.00  0.00     0.067 A 
ATOM     27  C   UNL     1      13.529  24.896  48.829  1.00  0.00     0.066 A 
ATOM     28  C   UNL     1      14.626  27.009  48.375  1.00  0.00     0.066 A 
ATOM     29  C   UNL     1      14.286  24.752  50.003  1.00  0.00     0.162 A 
ATOM     30  C   UNL     1      15.389  26.864  49.538  1.00  0.00     0.162 A 
ATOM     31  C   UNL     1      15.222  25.738  50.357  1.00  0.00     0.200 A 
BRANCH  29  32
ATOM     32  O   UNL     1      14.108  23.638  50.820  1.00  0.00    -0.504 OA
ATOM     33  H   UNL     1      13.295  23.546  51.419  1.00  0.00     0.293 HD
ENDBRANCH  29  32
BRANCH  30  34
ATOM     34  O   UNL     1      16.307  27.859  49.867  1.00  0.00    -0.504 OA
ATOM     35  H   UNL     1      16.027  28.722  50.322  1.00  0.00     0.293 HD
ENDBRANCH  30  34
BRANCH  31  36
ATOM     36  O   UNL     1      15.985  25.621  51.518  1.00  0.00    -0.502 OA
ATOM     37  H   UNL     1      16.877  26.084  51.628  1.00  0.00     0.293 HD
ENDBRANCH  31  36
ENDBRANCH  24  26
ENDBRANCH  23  24
ENDBRANCH   2  23
BRANCH   3  38
ATOM     38  O   UNL     1      15.804  25.539  44.740  1.00  0.00    -0.450 OA
BRANCH  38  39
ATOM     39  C   UNL     1      17.136  25.394  45.153  1.00  0.00     0.338 C 
ATOM     40  O   UNL     1      17.418  24.636  46.121  1.00  0.00    -0.246 OA
BRANCH  39  41
ATOM     41  C   UNL     1      18.218  26.111  44.442  1.00  0.00     0.067 A 
ATOM     42  C   UNL     1      18.607  25.711  43.152  1.00  0.00     0.066 A 
ATOM     43  C   UNL     1      18.864  27.201  45.047  1.00  0.00     0.066 A 
ATOM     44  C   UNL     1      19.628  26.384  42.477  1.00  0.00     0.162 A 
ATOM     45  C   UNL     1      19.891  27.881  44.384  1.00  0.00     0.162 A 
ATOM     46  C   UNL     1      20.287  27.464  43.087  1.00  0.00     0.200 A 
BRANCH  44  47
ATOM     47  O   UNL     1      19.992  25.980  41.191  1.00  0.00    -0.504 OA
ATOM     48  H   UNL     1      20.956  25.760  40.953  1.00  0.00     0.293 HD
ENDBRANCH  44  47
BRANCH  45  49
ATOM     49  O   UNL     1      20.487  28.954  45.047  1.00  0.00    -0.504 OA
ATOM     50  H   UNL     1      21.180  28.855  45.774  1.00  0.00     0.293 HD
ENDBRANCH  45  49
BRANCH  46  51
ATOM     51  O   UNL     1      21.320  28.082  42.376  1.00  0.00    -0.502 OA
ATOM     52  H   UNL     1      21.170  28.660  41.556  1.00  0.00     0.293 HD
ENDBRANCH  46  51
ENDBRANCH  39  41
ENDBRANCH  38  39
ENDBRANCH   3  38
BRANCH   5  53
ATOM     53  O   UNL     1      13.919  22.157  42.766  1.00  0.00    -0.428 OA
BRANCH  53  54
ATOM     54  C   UNL     1      13.416  20.916  43.171  1.00  0.00     0.340 C 
ATOM     55  O   UNL     1      12.282  20.528  42.791  1.00  0.00    -0.246 OA
BRANCH  54  56
ATOM     56  C   UNL     1      14.231  20.059  44.047  1.00  0.00     0.067 A 
ATOM     57  C   UNL     1      13.635  19.289  45.054  1.00  0.00     0.066 A 
ATOM     58  C   UNL     1      15.618  19.997  43.867  1.00  0.00     0.066 A 
ATOM     59  C   UNL     1      14.402  18.437  45.859  1.00  0.00     0.162 A 
ATOM     60  C   UNL     1      16.404  19.176  44.676  1.00  0.00     0.162 A 
ATOM     61  C   UNL     1      15.806  18.374  45.670  1.00  0.00     0.200 A 
BRANCH  59  62
ATOM     62  O   UNL     1      13.727  17.676  46.818  1.00  0.00    -0.504 OA
ATOM     63  H   UNL     1      13.104  18.067  47.516  1.00  0.00     0.293 HD
ENDBRANCH  59  62
BRANCH  60  64
ATOM     64  O   UNL     1      17.786  19.178  44.481  1.00  0.00    -0.504 OA
ATOM     65  H   UNL     1      18.209  18.805  43.637  1.00  0.00     0.293 HD
ENDBRANCH  60  64
BRANCH  61  66
ATOM     66  O   UNL     1      16.626  17.534  46.439  1.00  0.00    -0.502 OA
ATOM     67  H   UNL     1      17.630  17.629  46.507  1.00  0.00     0.293 HD
ENDBRANCH  61  66
ENDBRANCH  54  56
ENDBRANCH  53  54
ENDBRANCH   5  53
BRANCH   4  68
ATOM     68  O   UNL     1      15.184  24.473  42.079  1.00  0.00    -0.448 OA
BRANCH  68  69
ATOM     69  C   UNL     1      14.998  25.042  40.815  1.00  0.00     0.339 C 
ATOM     70  O   UNL     1      13.937  25.673  40.551  1.00  0.00    -0.246 OA
BRANCH  69  71
ATOM     71  C   UNL     1      16.048  24.887  39.786  1.00  0.00     0.067 A 
ATOM     72  C   UNL     1      17.251  24.233  40.077  1.00  0.00     0.066 A 
ATOM     73  C   UNL     1      15.846  25.391  38.491  1.00  0.00     0.066 A 
ATOM     74  C   UNL     1      18.236  24.068  39.091  1.00  0.00     0.162 A 
ATOM     75  C   UNL     1      16.818  25.230  37.500  1.00  0.00     0.162 A 
ATOM     76  C   UNL     1      18.018  24.566  37.795  1.00  0.00     0.200 A 
BRANCH  74  77
ATOM     77  O   UNL     1      19.425  23.402  39.391  1.00  0.00    -0.504 OA
ATOM     78  H   UNL     1      20.038  23.057  38.659  1.00  0.00     0.293 HD
ENDBRANCH  74  77
BRANCH  75  79
ATOM     79  O   UNL     1      16.573  25.734  36.222  1.00  0.00    -0.504 OA
ATOM     80  H   UNL     1      16.134  26.632  36.070  1.00  0.00     0.293 HD
ENDBRANCH  75  79
BRANCH  76  81
ATOM     81  O   UNL     1      18.985  24.408  36.800  1.00  0.00    -0.502 OA
ATOM     82  H   UNL     1      19.949  24.674  36.933  1.00  0.00     0.293 HD
ENDBRANCH  76  81
ENDBRANCH  69  71
ENDBRANCH  68  69
ENDBRANCH   4  68
TORSDOF 31
ENDMDL
MODEL 6
REMARK VINA RESULT:    -7.341      0.800      7.020
REMARK INTER + INTRA:         -22.440
REMARK INTER:                 -18.098
REMARK INTRA:                  -4.342
REMARK UNBOUND:                -5.014
REMARK SMILES O=C(OC[C@H]1O[C@H](OC(=O)c2cc(O)c(O)c(O)c2)[C@H](OC(=O)c2cc(O)c(O)c(O)c2)[C@@H](OC(=O)c2cc(O)c(O)c(O)c2)[C@H]1OC(=O)c1cc(O)c(O)c(O)c1)c1cc(O)c(O)c(O)c1
REMARK SMILES IDX 5 1 46 2 33 3 20 4 7 5 6 6 4 7 3 8 2 9 1 10 59 11 60 12
REMARK SMILES IDX 61 13 67 14 63 15 65 16 62 17 64 19 66 21 47 23 48 24 49 25
REMARK SMILES IDX 50 26 58 27 51 28 56 29 52 30 54 31 57 32 53 34 55 36 34 38
REMARK SMILES IDX 35 39 36 40 37 41 45 42 38 43 43 44 39 45 41 46 44 47 40 49
REMARK SMILES IDX 42 51 8 53 9 54 10 55 11 56 19 57 12 58 17 59 13 60 15 61
REMARK SMILES IDX 18 62 14 64 16 66 21 68 22 69 23 70 24 71 32 72 25 73 30 74
REMARK SMILES IDX 26 75 28 76 31 77 27 79 29 81
REMARK H PARENT 62 18 64 20 66 22 57 33 53 35 55 37 44 48 40 50 42 52 18 63
REMARK H PARENT 14 65 16 67 31 78 27 80 29 82
REMARK Flexibility Score: inf
ROOT
ATOM      1  C   UNL     1      15.684  23.884  42.568  1.00  0.00     0.205 C 
ATOM      2  C   UNL     1      14.485  22.920  42.595  1.00  0.00     0.254 C 
ATOM      3  C   UNL     1      14.217  22.560  44.060  1.00  0.00     0.267 C 
ATOM      4  C   UNL     1      13.965  23.844  44.871  1.00  0.00     0.290 C 
ATOM      5  C   UNL     1      15.126  24.839  44.641  1.00  0.00     0.357 C 
ATOM      6  O   UNL     1      15.363  25.083  43.260  1.00  0.00    -0.329 OA
ENDROOT
BRANCH   1   7
ATOM      7  C   UNL     1      16.124  24.231  41.134  1.00  0.00     0.269 C 
BRANCH   7   8
ATOM      8  O   UNL     1      17.418  24.826  41.165  1.00  0.00    -0.459 OA
BRANCH   8   9
ATOM      9  C   UNL     1      18.196  24.991  40.010  1.00  0.00     0.338 C 
ATOM     10  O   UNL     1      18.320  26.139  39.493  1.00  0.00    -0.246 OA
BRANCH   9  11
ATOM     11  C   UNL     1      18.840  23.820  39.381  1.00  0.00     0.067 A 
ATOM     12  C   UNL     1      19.913  23.179  40.015  1.00  0.00     0.066 A 
ATOM     13  C   UNL     1      20.566  22.103  39.408  1.00  0.00     0.162 A 
ATOM     14  C   UNL     1      18.413  23.363  38.117  1.00  0.00     0.066 A 
ATOM     15  C   UNL     1      20.161  21.669  38.124  1.00  0.00     0.200 A 
ATOM     16  C   UNL     1      19.077  22.303  37.490  1.00  0.00     0.162 A 
BRANCH  13  17
ATOM     17  O   UNL     1      21.600  21.491  40.119  1.00  0.00    -0.504 OA
ATOM     18  H   UNL     1      21.831  20.516  40.037  1.00  0.00     0.293 HD
ENDBRANCH  13  17
BRANCH  15  19
ATOM     19  O   UNL     1      20.809  20.626  37.455  1.00  0.00    -0.502 OA
ATOM     20  H   UNL     1      20.778  20.481  36.458  1.00  0.00     0.293 HD
ENDBRANCH  15  19
BRANCH  16  21
ATOM     21  O   UNL     1      18.643  21.897  36.228  1.00  0.00    -0.504 OA
ATOM     22  H   UNL     1      18.180  21.009  36.079  1.00  0.00     0.293 HD
ENDBRANCH  16  21
ENDBRANCH   9  11
ENDBRANCH   8   9
ENDBRANCH   7   8
ENDBRANCH   1   7
BRANCH   2  23
ATOM     23  O   UNL     1      13.325  23.556  42.054  1.00  0.00    -0.452 OA
BRANCH  23  24
ATOM     24  C   UNL     1      12.734  23.209  40.832  1.00  0.00     0.338 C 
ATOM     25  O   UNL     1      12.274  22.050  40.665  1.00  0.00    -0.246 OA
BRANCH  24  26
ATOM     26  C   UNL     1      12.640  24.220  39.755  1.00  0.00     0.067 A 
ATOM     27  C   UNL     1      12.907  23.874  38.417  1.00  0.00     0.066 A 
ATOM     28  C   UNL     1      12.337  25.555  40.067  1.00  0.00     0.066 A 
ATOM     29  C   UNL     1      12.884  24.852  37.408  1.00  0.00     0.162 A 
ATOM     30  C   UNL     1      12.303  26.530  39.065  1.00  0.00     0.162 A 
ATOM     31  C   UNL     1      12.578  26.184  37.733  1.00  0.00     0.200 A 
BRANCH  29  32
ATOM     32  O   UNL     1      13.170  24.506  36.090  1.00  0.00    -0.504 OA
ATOM     33  H   UNL     1      14.069  24.713  35.672  1.00  0.00     0.293 HD
ENDBRANCH  29  32
BRANCH  30  34
ATOM     34  O   UNL     1      12.000  27.844  39.415  1.00  0.00    -0.504 OA
ATOM     35  H   UNL     1      12.722  28.530  39.612  1.00  0.00     0.293 HD
ENDBRANCH  30  34
BRANCH  31  36
ATOM     36  O   UNL     1      12.550  27.174  36.753  1.00  0.00    -0.502 OA
ATOM     37  H   UNL     1      12.348  26.970  35.783  1.00  0.00     0.293 HD
ENDBRANCH  31  36
ENDBRANCH  24  26
ENDBRANCH  23  24
ENDBRANCH   2  23
BRANCH   3  38
ATOM     38  O   UNL     1      13.113  21.661  44.158  1.00  0.00    -0.450 OA
BRANCH  38  39
ATOM     39  C   UNL     1      13.258  20.328  44.569  1.00  0.00     0.338 C 
ATOM     40  O   UNL     1      12.362  19.483  44.296  1.00  0.00    -0.246 OA
BRANCH  39  41
ATOM     41  C   UNL     1      14.470  19.904  45.304  1.00  0.00     0.067 A 
ATOM     42  C   UNL     1      14.549  20.069  46.698  1.00  0.00     0.066 A 
ATOM     43  C   UNL     1      15.552  19.329  44.618  1.00  0.00     0.066 A 
ATOM     44  C   UNL     1      15.692  19.671  47.396  1.00  0.00     0.162 A 
ATOM     45  C   UNL     1      16.703  18.931  45.305  1.00  0.00     0.162 A 
ATOM     46  C   UNL     1      16.781  19.112  46.711  1.00  0.00     0.200 A 
BRANCH  44  47
ATOM     47  O   UNL     1      15.746  19.831  48.783  1.00  0.00    -0.504 OA
ATOM     48  H   UNL     1      16.632  19.901  49.277  1.00  0.00     0.293 HD
ENDBRANCH  44  47
BRANCH  45  49
ATOM     49  O   UNL     1      17.737  18.368  44.558  1.00  0.00    -0.504 OA
ATOM     50  H   UNL     1      18.698  18.678  44.597  1.00  0.00     0.293 HD
ENDBRANCH  45  49
BRANCH  46  51
ATOM     51  O   UNL     1      17.909  18.758  47.457  1.00  0.00    -0.502 OA
ATOM     52  H   UNL     1      18.685  19.386  47.634  1.00  0.00     0.293 HD
ENDBRANCH  46  51
ENDBRANCH  39  41
ENDBRANCH  38  39
ENDBRANCH   3  38
BRANCH   5  53
ATOM     53  O   UNL     1      16.312  24.378  45.288  1.00  0.00    -0.428 OA
BRANCH  53  54
ATOM     54  C   UNL     1      17.594  24.551  44.755  1.00  0.00     0.340 C 
ATOM     55  O   UNL     1      18.212  23.583  44.242  1.00  0.00    -0.246 OA
BRANCH  54  56
ATOM     56  C   UNL     1      18.218  25.884  44.795  1.00  0.00     0.067 A 
ATOM     57  C   UNL     1      17.764  26.862  45.689  1.00  0.00     0.066 A 
ATOM     58  C   UNL     1      19.287  26.179  43.942  1.00  0.00     0.066 A 
ATOM     59  C   UNL     1      18.385  28.115  45.762  1.00  0.00     0.162 A 
ATOM     60  C   UNL     1      19.902  27.431  43.977  1.00  0.00     0.162 A 
ATOM     61  C   UNL     1      19.471  28.408  44.898  1.00  0.00     0.200 A 
BRANCH  59  62
ATOM     62  O   UNL     1      17.894  29.024  46.705  1.00  0.00    -0.504 OA
ATOM     63  H   UNL     1      17.266  28.773  47.460  1.00  0.00     0.293 HD
ENDBRANCH  59  62
BRANCH  60  64
ATOM     64  O   UNL     1      20.940  27.687  43.081  1.00  0.00    -0.504 OA
ATOM     65  H   UNL     1      21.657  26.999  42.879  1.00  0.00     0.293 HD
ENDBRANCH  60  64
BRANCH  61  66
ATOM     66  O   UNL     1      20.138  29.641  44.930  1.00  0.00    -0.502 OA
ATOM     67  H   UNL     1      21.011  29.827  44.454  1.00  0.00     0.293 HD
ENDBRANCH  61  66
ENDBRANCH  54  56
ENDBRANCH  53  54
ENDBRANCH   5  53
BRANCH   4  68
ATOM     68  O   UNL     1      13.906  23.543  46.263  1.00  0.00    -0.448 OA
BRANCH  68  69
ATOM     69  C   UNL     1      13.278  24.350  47.217  1.00  0.00     0.339 C 
ATOM     70  O   UNL     1      12.022  24.484  47.208  1.00  0.00    -0.246 OA
BRANCH  69  71
ATOM     71  C   UNL     1      14.095  25.056  48.225  1.00  0.00     0.067 A 
ATOM     72  C   UNL     1      14.661  26.306  47.947  1.00  0.00     0.066 A 
ATOM     73  C   UNL     1      14.308  24.482  49.489  1.00  0.00     0.066 A 
ATOM     74  C   UNL     1      15.418  26.984  48.915  1.00  0.00     0.162 A 
ATOM     75  C   UNL     1      15.058  25.149  50.462  1.00  0.00     0.162 A 
ATOM     76  C   UNL     1      15.615  26.405  50.179  1.00  0.00     0.200 A 
BRANCH  74  77
ATOM     77  O   UNL     1      15.965  28.235  48.628  1.00  0.00    -0.504 OA
ATOM     78  H   UNL     1      15.379  29.049  48.480  1.00  0.00     0.293 HD
ENDBRANCH  74  77
BRANCH  75  79
ATOM     79  O   UNL     1      15.236  24.549  51.710  1.00  0.00    -0.504 OA
ATOM     80  H   UNL     1      16.009  24.784  52.317  1.00  0.00     0.293 HD
ENDBRANCH  75  79
BRANCH  76  81
ATOM     81  O   UNL     1      16.362  27.066  51.157  1.00  0.00    -0.502 OA
ATOM     82  H   UNL     1      17.186  27.605  50.938  1.00  0.00     0.293 HD
ENDBRANCH  76  81
ENDBRANCH  69  71
ENDBRANCH  68  69
ENDBRANCH   4  68
TORSDOF 31
ENDMDL
MODEL 7
REMARK VINA RESULT:    -7.284      1.969      7.048
REMARK INTER + INTRA:         -22.305
REMARK INTER:                 -16.401
REMARK INTRA:                  -5.904
REMARK UNBOUND:                -5.014
REMARK SMILES O=C(OC[C@H]1O[C@H](OC(=O)c2cc(O)c(O)c(O)c2)[C@H](OC(=O)c2cc(O)c(O)c(O)c2)[C@@H](OC(=O)c2cc(O)c(O)c(O)c2)[C@H]1OC(=O)c1cc(O)c(O)c(O)c1)c1cc(O)c(O)c(O)c1
REMARK SMILES IDX 5 1 46 2 33 3 20 4 7 5 6 6 4 7 3 8 2 9 1 10 59 11 60 12
REMARK SMILES IDX 61 13 67 14 63 15 65 16 62 17 64 19 66 21 47 23 48 24 49 25
REMARK SMILES IDX 50 26 58 27 51 28 56 29 52 30 54 31 57 32 53 34 55 36 34 38
REMARK SMILES IDX 35 39 36 40 37 41 45 42 38 43 43 44 39 45 41 46 44 47 40 49
REMARK SMILES IDX 42 51 8 53 9 54 10 55 11 56 19 57 12 58 17 59 13 60 15 61
REMARK SMILES IDX 18 62 14 64 16 66 21 68 22 69 23 70 24 71 32 72 25 73 30 74
REMARK SMILES IDX 26 75 28 76 31 77 27 79 29 81
REMARK H PARENT 62 18 64 20 66 22 57 33 53 35 55 37 44 48 40 50 42 52 18 63
REMARK H PARENT 14 65 16 67 31 78 27 80 29 82
REMARK Flexibility Score: inf
ROOT
ATOM      1  C   UNL     1      15.812  24.854  40.552  1.00  0.00     0.205 C 
ATOM      2  C   UNL     1      15.076  24.077  41.659  1.00  0.00     0.254 C 
ATOM      3  C   UNL     1      16.088  23.799  42.776  1.00  0.00     0.267 C 
ATOM      4  C   UNL     1      16.682  25.128  43.278  1.00  0.00     0.290 C 
ATOM      5  C   UNL     1      17.233  25.935  42.080  1.00  0.00     0.357 C 
ATOM      6  O   UNL     1      16.264  26.105  41.053  1.00  0.00    -0.329 OA
ENDROOT
BRANCH   1   7
ATOM      7  C   UNL     1      14.925  25.095  39.317  1.00  0.00     0.269 C 
BRANCH   7   8
ATOM      8  O   UNL     1      15.734  25.529  38.229  1.00  0.00    -0.459 OA
BRANCH   8   9
ATOM      9  C   UNL     1      15.499  25.119  36.909  1.00  0.00     0.338 C 
ATOM     10  O   UNL     1      15.487  25.974  35.977  1.00  0.00    -0.246 OA
BRANCH   9  11
ATOM     11  C   UNL     1      15.232  23.696  36.614  1.00  0.00     0.067 A 
ATOM     12  C   UNL     1      16.271  22.758  36.663  1.00  0.00     0.066 A 
ATOM     13  C   UNL     1      16.045  21.419  36.336  1.00  0.00     0.162 A 
ATOM     14  C   UNL     1      13.940  23.275  36.238  1.00  0.00     0.066 A 
ATOM     15  C   UNL     1      14.757  21.004  35.923  1.00  0.00     0.200 A 
ATOM     16  C   UNL     1      13.708  21.941  35.884  1.00  0.00     0.162 A 
BRANCH  13  17
ATOM     17  O   UNL     1      17.121  20.536  36.447  1.00  0.00    -0.504 OA
ATOM     18  H   UNL     1      18.010  20.683  36.002  1.00  0.00     0.293 HD
ENDBRANCH  13  17
BRANCH  15  19
ATOM     19  O   UNL     1      14.488  19.685  35.544  1.00  0.00    -0.502 OA
ATOM     20  H   UNL     1      14.026  19.420  34.687  1.00  0.00     0.293 HD
ENDBRANCH  15  19
BRANCH  16  21
ATOM     21  O   UNL     1      12.423  21.569  35.490  1.00  0.00    -0.504 OA
ATOM     22  H   UNL     1      12.207  20.628  35.182  1.00  0.00     0.293 HD
ENDBRANCH  16  21
ENDBRANCH   9  11
ENDBRANCH   8   9
ENDBRANCH   7   8
ENDBRANCH   1   7
BRANCH   2  23
ATOM     23  O   UNL     1      14.006  24.861  42.187  1.00  0.00    -0.452 OA
BRANCH  23  24
ATOM     24  C   UNL     1      12.791  24.331  42.642  1.00  0.00     0.338 C 
ATOM     25  O   UNL     1      11.962  23.866  41.817  1.00  0.00    -0.246 OA
BRANCH  24  26
ATOM     26  C   UNL     1      12.504  24.307  44.094  1.00  0.00     0.067 A 
ATOM     27  C   UNL     1      12.477  25.497  44.843  1.00  0.00     0.066 A 
ATOM     28  C   UNL     1      12.309  23.082  44.752  1.00  0.00     0.066 A 
ATOM     29  C   UNL     1      12.273  25.462  46.233  1.00  0.00     0.162 A 
ATOM     30  C   UNL     1      12.095  23.042  46.134  1.00  0.00     0.162 A 
ATOM     31  C   UNL     1      12.078  24.230  46.880  1.00  0.00     0.200 A 
BRANCH  29  32
ATOM     32  O   UNL     1      12.270  26.643  46.971  1.00  0.00    -0.504 OA
ATOM     33  H   UNL     1      11.422  26.996  47.401  1.00  0.00     0.293 HD
ENDBRANCH  29  32
BRANCH  30  34
ATOM     34  O   UNL     1      11.908  21.807  46.750  1.00  0.00    -0.504 OA
ATOM     35  H   UNL     1      12.608  21.073  46.710  1.00  0.00     0.293 HD
ENDBRANCH  30  34
BRANCH  31  36
ATOM     36  O   UNL     1      11.875  24.167  48.257  1.00  0.00    -0.502 OA
ATOM     37  H   UNL     1      10.952  24.194  48.670  1.00  0.00     0.293 HD
ENDBRANCH  31  36
ENDBRANCH  24  26
ENDBRANCH  23  24
ENDBRANCH   2  23
BRANCH   3  38
ATOM     38  O   UNL     1      15.470  23.074  43.839  1.00  0.00    -0.450 OA
BRANCH  38  39
ATOM     39  C   UNL     1      15.256  21.690  43.785  1.00  0.00     0.338 C 
ATOM     40  O   UNL     1      14.533  21.198  42.875  1.00  0.00    -0.246 OA
BRANCH  39  41
ATOM     41  C   UNL     1      15.893  20.799  44.780  1.00  0.00     0.067 A 
ATOM     42  C   UNL     1      15.817  21.097  46.151  1.00  0.00     0.066 A 
ATOM     43  C   UNL     1      16.576  19.645  44.365  1.00  0.00     0.066 A 
ATOM     44  C   UNL     1      16.418  20.260  47.095  1.00  0.00     0.162 A 
ATOM     45  C   UNL     1      17.186  18.801  45.299  1.00  0.00     0.162 A 
ATOM     46  C   UNL     1      17.116  19.114  46.681  1.00  0.00     0.200 A 
BRANCH  44  47
ATOM     47  O   UNL     1      16.320  20.566  48.454  1.00  0.00    -0.504 OA
ATOM     48  H   UNL     1      15.433  20.519  48.949  1.00  0.00     0.293 HD
ENDBRANCH  44  47
BRANCH  45  49
ATOM     49  O   UNL     1      17.848  17.673  44.813  1.00  0.00    -0.504 OA
ATOM     50  H   UNL     1      18.823  17.474  44.980  1.00  0.00     0.293 HD
ENDBRANCH  45  49
BRANCH  46  51
ATOM     51  O   UNL     1      17.721  18.329  47.667  1.00  0.00    -0.502 OA
ATOM     52  H   UNL     1      17.327  17.461  48.013  1.00  0.00     0.293 HD
ENDBRANCH  46  51
ENDBRANCH  39  41
ENDBRANCH  38  39
ENDBRANCH   3  38
BRANCH   5  53
ATOM     53  O   UNL     1      18.416  25.324  41.569  1.00  0.00    -0.428 OA
BRANCH  53  54
ATOM     54  C   UNL     1      18.893  25.538  40.271  1.00  0.00     0.340 C 
ATOM     55  O   UNL     1      18.910  26.694  39.776  1.00  0.00    -0.246 OA
BRANCH  54  56
ATOM     56  C   UNL     1      19.383  24.394  39.485  1.00  0.00     0.067 A 
ATOM     57  C   UNL     1      19.199  24.345  38.098  1.00  0.00     0.066 A 
ATOM     58  C   UNL     1      20.056  23.347  40.124  1.00  0.00     0.066 A 
ATOM     59  C   UNL     1      19.705  23.282  37.340  1.00  0.00     0.162 A 
ATOM     60  C   UNL     1      20.544  22.263  39.393  1.00  0.00     0.162 A 
ATOM     61  C   UNL     1      20.390  22.224  37.992  1.00  0.00     0.200 A 
BRANCH  59  62
ATOM     62  O   UNL     1      19.509  23.324  35.956  1.00  0.00    -0.504 OA
ATOM     63  H   UNL     1      19.718  22.555  35.330  1.00  0.00     0.293 HD
ENDBRANCH  59  62
BRANCH  60  64
ATOM     64  O   UNL     1      21.175  21.226  40.081  1.00  0.00    -0.504 OA
ATOM     65  H   UNL     1      20.831  20.272  40.048  1.00  0.00     0.293 HD
ENDBRANCH  60  64
BRANCH  61  66
ATOM     66  O   UNL     1      20.926  21.136  37.287  1.00  0.00    -0.502 OA
ATOM     67  H   UNL     1      21.818  21.153  36.811  1.00  0.00     0.293 HD
ENDBRANCH  61  66
ENDBRANCH  54  56
ENDBRANCH  53  54
ENDBRANCH   5  53
BRANCH   4  68
ATOM     68  O   UNL     1      17.760  24.876  44.178  1.00  0.00    -0.448 OA
BRANCH  68  69
ATOM     69  C   UNL     1      18.038  25.650  45.308  1.00  0.00     0.339 C 
ATOM     70  O   UNL     1      19.137  26.265  45.404  1.00  0.00    -0.246 OA
BRANCH  69  71
ATOM     71  C   UNL     1      17.043  25.732  46.397  1.00  0.00     0.067 A 
ATOM     72  C   UNL     1      16.608  26.972  46.884  1.00  0.00     0.066 A 
ATOM     73  C   UNL     1      16.510  24.560  46.956  1.00  0.00     0.066 A 
ATOM     74  C   UNL     1      15.646  27.046  47.903  1.00  0.00     0.162 A 
ATOM     75  C   UNL     1      15.549  24.622  47.970  1.00  0.00     0.162 A 
ATOM     76  C   UNL     1      15.111  25.866  48.447  1.00  0.00     0.200 A 
BRANCH  74  77
ATOM     77  O   UNL     1      15.212  28.287  48.369  1.00  0.00    -0.504 OA
ATOM     78  H   UNL     1      15.837  28.916  48.863  1.00  0.00     0.293 HD
ENDBRANCH  74  77
BRANCH  75  79
ATOM     79  O   UNL     1      15.035  23.433  48.490  1.00  0.00    -0.504 OA
ATOM     80  H   UNL     1      15.462  22.956  49.272  1.00  0.00     0.293 HD
ENDBRANCH  75  79
BRANCH  76  81
ATOM     81  O   UNL     1      14.151  25.920  49.459  1.00  0.00    -0.502 OA
ATOM     82  H   UNL     1      13.382  26.573  49.443  1.00  0.00     0.293 HD
ENDBRANCH  76  81
ENDBRANCH  69  71
ENDBRANCH  68  69
ENDBRANCH   4  68
TORSDOF 31
ENDMDL
MODEL 8
REMARK VINA RESULT:    -7.250      2.641      6.936
REMARK INTER + INTRA:         -22.225
REMARK INTER:                 -15.865
REMARK INTRA:                  -6.359
REMARK UNBOUND:                -5.014
REMARK SMILES O=C(OC[C@H]1O[C@H](OC(=O)c2cc(O)c(O)c(O)c2)[C@H](OC(=O)c2cc(O)c(O)c(O)c2)[C@@H](OC(=O)c2cc(O)c(O)c(O)c2)[C@H]1OC(=O)c1cc(O)c(O)c(O)c1)c1cc(O)c(O)c(O)c1
REMARK SMILES IDX 5 1 46 2 33 3 20 4 7 5 6 6 4 7 3 8 2 9 1 10 59 11 60 12
REMARK SMILES IDX 61 13 67 14 63 15 65 16 62 17 64 19 66 21 47 23 48 24 49 25
REMARK SMILES IDX 50 26 58 27 51 28 56 29 52 30 54 31 57 32 53 34 55 36 34 38
REMARK SMILES IDX 35 39 36 40 37 41 45 42 38 43 43 44 39 45 41 46 44 47 40 49
REMARK SMILES IDX 42 51 8 53 9 54 10 55 11 56 19 57 12 58 17 59 13 60 15 61
REMARK SMILES IDX 18 62 14 64 16 66 21 68 22 69 23 70 24 71 32 72 25 73 30 74
REMARK SMILES IDX 26 75 28 76 31 77 27 79 29 81
REMARK H PARENT 62 18 64 20 66 22 57 33 53 35 55 37 44 48 40 50 42 52 18 63
REMARK H PARENT 14 65 16 67 31 78 27 80 29 82
REMARK Flexibility Score: inf
ROOT
ATOM      1  C   UNL     1      17.433  22.886  43.268  1.00  0.00     0.205 C 
ATOM      2  C   UNL     1      16.972  22.140  44.533  1.00  0.00     0.254 C 
ATOM      3  C   UNL     1      15.980  23.049  45.267  1.00  0.00     0.267 C 
ATOM      4  C   UNL     1      14.812  23.404  44.328  1.00  0.00     0.290 C 
ATOM      5  C   UNL     1      15.367  23.975  43.003  1.00  0.00     0.357 C 
ATOM      6  O   UNL     1      16.327  23.112  42.405  1.00  0.00    -0.329 OA
ENDROOT
BRANCH   1   7
ATOM      7  C   UNL     1      18.525  22.118  42.501  1.00  0.00     0.269 C 
BRANCH   7   8
ATOM      8  O   UNL     1      19.378  23.044  41.836  1.00  0.00    -0.459 OA
BRANCH   8   9
ATOM      9  C   UNL     1      19.745  22.894  40.491  1.00  0.00     0.338 C 
ATOM     10  O   UNL     1      20.695  22.119  40.180  1.00  0.00    -0.246 OA
BRANCH   9  11
ATOM     11  C   UNL     1      19.044  23.666  39.444  1.00  0.00     0.067 A 
ATOM     12  C   UNL     1      17.657  23.852  39.514  1.00  0.00     0.066 A 
ATOM     13  C   UNL     1      16.973  24.535  38.505  1.00  0.00     0.162 A 
ATOM     14  C   UNL     1      19.755  24.184  38.343  1.00  0.00     0.066 A 
ATOM     15  C   UNL     1      17.682  25.023  37.382  1.00  0.00     0.200 A 
ATOM     16  C   UNL     1      19.076  24.847  37.315  1.00  0.00     0.162 A 
BRANCH  13  17
ATOM     17  O   UNL     1      15.598  24.715  38.664  1.00  0.00    -0.504 OA
ATOM     18  H   UNL     1      14.965  23.977  38.923  1.00  0.00     0.293 HD
ENDBRANCH  13  17
BRANCH  15  19
ATOM     19  O   UNL     1      17.039  25.674  36.325  1.00  0.00    -0.502 OA
ATOM     20  H   UNL     1      16.056  25.899  36.306  1.00  0.00     0.293 HD
ENDBRANCH  15  19
BRANCH  16  21
ATOM     21  O   UNL     1      19.810  25.322  36.228  1.00  0.00    -0.504 OA
ATOM     22  H   UNL     1      19.595  26.204  35.778  1.00  0.00     0.293 HD
ENDBRANCH  16  21
ENDBRANCH   9  11
ENDBRANCH   8   9
ENDBRANCH   7   8
ENDBRANCH   1   7
BRANCH   2  23
ATOM     23  O   UNL     1      16.312  20.924  44.178  1.00  0.00    -0.452 OA
BRANCH  23  24
ATOM     24  C   UNL     1      16.631  19.668  44.714  1.00  0.00     0.338 C 
ATOM     25  O   UNL     1      17.613  19.026  44.260  1.00  0.00    -0.246 OA
BRANCH  24  26
ATOM     26  C   UNL     1      15.819  19.121  45.823  1.00  0.00     0.067 A 
ATOM     27  C   UNL     1      14.414  19.181  45.786  1.00  0.00     0.066 A 
ATOM     28  C   UNL     1      16.449  18.583  46.957  1.00  0.00     0.066 A 
ATOM     29  C   UNL     1      13.651  18.722  46.873  1.00  0.00     0.162 A 
ATOM     30  C   UNL     1      15.693  18.116  48.037  1.00  0.00     0.162 A 
ATOM     31  C   UNL     1      14.293  18.185  48.001  1.00  0.00     0.200 A 
BRANCH  29  32
ATOM     32  O   UNL     1      12.261  18.805  46.838  1.00  0.00    -0.504 OA
ATOM     33  H   UNL     1      11.693  18.030  46.516  1.00  0.00     0.293 HD
ENDBRANCH  29  32
BRANCH  30  34
ATOM     34  O   UNL     1      16.356  17.591  49.144  1.00  0.00    -0.504 OA
ATOM     35  H   UNL     1      16.521  16.595  49.252  1.00  0.00     0.293 HD
ENDBRANCH  30  34
BRANCH  31  36
ATOM     36  O   UNL     1      13.559  17.725  49.093  1.00  0.00    -0.502 OA
ATOM     37  H   UNL     1      12.677  17.242  48.988  1.00  0.00     0.293 HD
ENDBRANCH  31  36
ENDBRANCH  24  26
ENDBRANCH  23  24
ENDBRANCH   2  23
BRANCH   3  38
ATOM     38  O   UNL     1      15.512  22.416  46.458  1.00  0.00    -0.450 OA
BRANCH  38  39
ATOM     39  C   UNL     1      15.839  22.882  47.739  1.00  0.00     0.338 C 
ATOM     40  O   UNL     1      16.003  24.117  47.939  1.00  0.00    -0.246 OA
BRANCH  39  41
ATOM     41  C   UNL     1      15.972  21.931  48.865  1.00  0.00     0.067 A 
ATOM     42  C   UNL     1      17.242  21.484  49.270  1.00  0.00     0.066 A 
ATOM     43  C   UNL     1      14.833  21.467  49.542  1.00  0.00     0.066 A 
ATOM     44  C   UNL     1      17.373  20.585  50.332  1.00  0.00     0.162 A 
ATOM     45  C   UNL     1      14.950  20.564  50.603  1.00  0.00     0.162 A 
ATOM     46  C   UNL     1      16.234  20.107  50.999  1.00  0.00     0.200 A 
BRANCH  44  47
ATOM     47  O   UNL     1      18.643  20.163  50.729  1.00  0.00    -0.504 OA
ATOM     48  H   UNL     1      19.484  20.485  50.256  1.00  0.00     0.293 HD
ENDBRANCH  44  47
BRANCH  45  49
ATOM     49  O   UNL     1      13.775  20.147  51.228  1.00  0.00    -0.504 OA
ATOM     50  H   UNL     1      12.996  20.756  51.434  1.00  0.00     0.293 HD
ENDBRANCH  45  49
BRANCH  46  51
ATOM     51  O   UNL     1      16.423  19.188  52.035  1.00  0.00    -0.502 OA
ATOM     52  H   UNL     1      15.791  18.419  52.227  1.00  0.00     0.293 HD
ENDBRANCH  46  51
ENDBRANCH  39  41
ENDBRANCH  38  39
ENDBRANCH   3  38
BRANCH   5  53
ATOM     53  O   UNL     1      15.911  25.277  43.210  1.00  0.00    -0.428 OA
BRANCH  53  54
ATOM     54  C   UNL     1      16.399  26.080  42.173  1.00  0.00     0.340 C 
ATOM     55  O   UNL     1      15.643  26.449  41.238  1.00  0.00    -0.246 OA
BRANCH  54  56
ATOM     56  C   UNL     1      17.810  26.499  42.188  1.00  0.00     0.067 A 
ATOM     57  C   UNL     1      18.503  26.641  43.396  1.00  0.00     0.066 A 
ATOM     58  C   UNL     1      18.476  26.746  40.982  1.00  0.00     0.066 A 
ATOM     59  C   UNL     1      19.859  26.994  43.412  1.00  0.00     0.162 A 
ATOM     60  C   UNL     1      19.818  27.127  40.976  1.00  0.00     0.162 A 
ATOM     61  C   UNL     1      20.531  27.240  42.188  1.00  0.00     0.200 A 
BRANCH  59  62
ATOM     62  O   UNL     1      20.488  27.081  44.658  1.00  0.00    -0.504 OA
ATOM     63  H   UNL     1      20.508  26.329  45.337  1.00  0.00     0.293 HD
ENDBRANCH  59  62
BRANCH  60  64
ATOM     64  O   UNL     1      20.427  27.397  39.750  1.00  0.00    -0.504 OA
ATOM     65  H   UNL     1      19.902  27.411  38.881  1.00  0.00     0.293 HD
ENDBRANCH  60  64
BRANCH  61  66
ATOM     66  O   UNL     1      21.889  27.588  42.138  1.00  0.00    -0.502 OA
ATOM     67  H   UNL     1      22.232  28.494  41.849  1.00  0.00     0.293 HD
ENDBRANCH  61  66
ENDBRANCH  54  56
ENDBRANCH  53  54
ENDBRANCH   5  53
BRANCH   4  68
ATOM     68  O   UNL     1      13.984  24.399  44.928  1.00  0.00    -0.448 OA
BRANCH  68  69
ATOM     69  C   UNL     1      12.903  24.120  45.769  1.00  0.00     0.339 C 
ATOM     70  O   UNL     1      12.113  23.173  45.496  1.00  0.00    -0.246 OA
BRANCH  69  71
ATOM     71  C   UNL     1      12.681  24.951  46.970  1.00  0.00     0.067 A 
ATOM     72  C   UNL     1      12.454  24.363  48.221  1.00  0.00     0.066 A 
ATOM     73  C   UNL     1      12.705  26.352  46.874  1.00  0.00     0.066 A 
ATOM     74  C   UNL     1      12.266  25.155  49.364  1.00  0.00     0.162 A 
ATOM     75  C   UNL     1      12.523  27.151  48.007  1.00  0.00     0.162 A 
ATOM     76  C   UNL     1      12.303  26.556  49.258  1.00  0.00     0.200 A 
BRANCH  74  77
ATOM     77  O   UNL     1      12.054  24.557  50.606  1.00  0.00    -0.504 OA
ATOM     78  H   UNL     1      11.140  24.208  50.877  1.00  0.00     0.293 HD
ENDBRANCH  74  77
BRANCH  75  79
ATOM     79  O   UNL     1      12.566  28.539  47.870  1.00  0.00    -0.504 OA
ATOM     80  H   UNL     1      12.153  29.162  48.550  1.00  0.00     0.293 HD
ENDBRANCH  75  79
BRANCH  76  81
ATOM     81  O   UNL     1      12.123  27.361  50.384  1.00  0.00    -0.502 OA
ATOM     82  H   UNL     1      12.862  27.928  50.770  1.00  0.00     0.293 HD
ENDBRANCH  76  81
ENDBRANCH  69  71
ENDBRANCH  68  69
ENDBRANCH   4  68
TORSDOF 31
ENDMDL
MODEL 9
REMARK VINA RESULT:    -7.246      2.595      7.130
REMARK INTER + INTRA:         -22.214
REMARK INTER:                 -16.771
REMARK INTRA:                  -5.443
REMARK UNBOUND:                -5.014
REMARK SMILES O=C(OC[C@H]1O[C@H](OC(=O)c2cc(O)c(O)c(O)c2)[C@H](OC(=O)c2cc(O)c(O)c(O)c2)[C@@H](OC(=O)c2cc(O)c(O)c(O)c2)[C@H]1OC(=O)c1cc(O)c(O)c(O)c1)c1cc(O)c(O)c(O)c1
REMARK SMILES IDX 5 1 46 2 33 3 20 4 7 5 6 6 4 7 3 8 2 9 1 10 59 11 60 12
REMARK SMILES IDX 61 13 67 14 63 15 65 16 62 17 64 19 66 21 47 23 48 24 49 25
REMARK SMILES IDX 50 26 58 27 51 28 56 29 52 30 54 31 57 32 53 34 55 36 34 38
REMARK SMILES IDX 35 39 36 40 37 41 45 42 38 43 43 44 39 45 41 46 44 47 40 49
REMARK SMILES IDX 42 51 8 53 9 54 10 55 11 56 19 57 12 58 17 59 13 60 15 61
REMARK SMILES IDX 18 62 14 64 16 66 21 68 22 69 23 70 24 71 32 72 25 73 30 74
REMARK SMILES IDX 26 75 28 76 31 77 27 79 29 81
REMARK H PARENT 62 18 64 20 66 22 57 33 53 35 55 37 44 48 40 50 42 52 18 63
REMARK H PARENT 14 65 16 67 31 78 27 80 29 82
REMARK Flexibility Score: inf
ROOT
ATOM      1  C   UNL     1      17.045  23.003  43.201  1.00  0.00     0.205 C 
ATOM      2  C   UNL     1      16.657  22.282  44.504  1.00  0.00     0.254 C 
ATOM      3  C   UNL     1      15.646  23.171  45.237  1.00  0.00     0.267 C 
ATOM      4  C   UNL     1      14.436  23.440  44.324  1.00  0.00     0.290 C 
ATOM      5  C   UNL     1      14.925  23.988  42.963  1.00  0.00     0.357 C 
ATOM      6  O   UNL     1      15.905  23.148  42.365  1.00  0.00    -0.329 OA
ENDROOT
BRANCH   1   7
ATOM      7  C   UNL     1      18.148  22.258  42.426  1.00  0.00     0.269 C 
BRANCH   7   8
ATOM      8  O   UNL     1      19.137  23.188  41.995  1.00  0.00    -0.459 OA
BRANCH   8   9
ATOM      9  C   UNL     1      19.715  23.131  40.720  1.00  0.00     0.338 C 
ATOM     10  O   UNL     1      20.634  22.296  40.481  1.00  0.00    -0.246 OA
BRANCH   9  11
ATOM     11  C   UNL     1      19.272  24.068  39.666  1.00  0.00     0.067 A 
ATOM     12  C   UNL     1      19.833  25.350  39.580  1.00  0.00     0.066 A 
ATOM     13  C   UNL     1      19.389  26.265  38.623  1.00  0.00     0.162 A 
ATOM     14  C   UNL     1      18.252  23.700  38.766  1.00  0.00     0.066 A 
ATOM     15  C   UNL     1      18.339  25.907  37.744  1.00  0.00     0.200 A 
ATOM     16  C   UNL     1      17.782  24.618  37.820  1.00  0.00     0.162 A 
BRANCH  13  17
ATOM     17  O   UNL     1      20.022  27.507  38.573  1.00  0.00    -0.504 OA
ATOM     18  H   UNL     1      20.056  28.083  37.750  1.00  0.00     0.293 HD
ENDBRANCH  13  17
BRANCH  15  19
ATOM     19  O   UNL     1      17.828  26.801  36.797  1.00  0.00    -0.502 OA
ATOM     20  H   UNL     1      17.190  27.552  37.007  1.00  0.00     0.293 HD
ENDBRANCH  15  19
BRANCH  16  21
ATOM     21  O   UNL     1      16.752  24.226  36.964  1.00  0.00    -0.504 OA
ATOM     22  H   UNL     1      15.787  24.185  37.267  1.00  0.00     0.293 HD
ENDBRANCH  16  21
ENDBRANCH   9  11
ENDBRANCH   8   9
ENDBRANCH   7   8
ENDBRANCH   1   7
BRANCH   2  23
ATOM     23  O   UNL     1      16.043  21.026  44.212  1.00  0.00    -0.452 OA
BRANCH  23  24
ATOM     24  C   UNL     1      16.461  19.801  44.749  1.00  0.00     0.338 C 
ATOM     25  O   UNL     1      17.479  19.227  44.283  1.00  0.00    -0.246 OA
BRANCH  24  26
ATOM     26  C   UNL     1      15.708  19.204  45.875  1.00  0.00     0.067 A 
ATOM     27  C   UNL     1      14.301  19.247  45.905  1.00  0.00     0.066 A 
ATOM     28  C   UNL     1      16.396  18.634  46.958  1.00  0.00     0.066 A 
ATOM     29  C   UNL     1      13.595  18.741  47.008  1.00  0.00     0.162 A 
ATOM     30  C   UNL     1      15.696  18.119  48.054  1.00  0.00     0.162 A 
ATOM     31  C   UNL     1      14.294  18.172  48.085  1.00  0.00     0.200 A 
BRANCH  29  32
ATOM     32  O   UNL     1      12.204  18.807  47.040  1.00  0.00    -0.504 OA
ATOM     33  H   UNL     1      11.721  19.590  47.464  1.00  0.00     0.293 HD
ENDBRANCH  29  32
BRANCH  30  34
ATOM     34  O   UNL     1      16.415  17.563  49.110  1.00  0.00    -0.504 OA
ATOM     35  H   UNL     1      17.226  18.023  49.511  1.00  0.00     0.293 HD
ENDBRANCH  30  34
BRANCH  31  36
ATOM     36  O   UNL     1      13.618  17.664  49.193  1.00  0.00    -0.502 OA
ATOM     37  H   UNL     1      13.660  18.105  50.102  1.00  0.00     0.293 HD
ENDBRANCH  31  36
ENDBRANCH  24  26
ENDBRANCH  23  24
ENDBRANCH   2  23
BRANCH   3  38
ATOM     38  O   UNL     1      15.243  22.561  46.463  1.00  0.00    -0.450 OA
BRANCH  38  39
ATOM     39  C   UNL     1      15.722  22.984  47.711  1.00  0.00     0.338 C 
ATOM     40  O   UNL     1      15.972  24.204  47.910  1.00  0.00    -0.246 OA
BRANCH  39  41
ATOM     41  C   UNL     1      15.916  22.006  48.804  1.00  0.00     0.067 A 
ATOM     42  C   UNL     1      14.812  21.521  49.527  1.00  0.00     0.066 A 
ATOM     43  C   UNL     1      17.203  21.548  49.127  1.00  0.00     0.066 A 
ATOM     44  C   UNL     1      14.991  20.598  50.561  1.00  0.00     0.162 A 
ATOM     45  C   UNL     1      17.396  20.627  50.162  1.00  0.00     0.162 A 
ATOM     46  C   UNL     1      16.279  20.152  50.897  1.00  0.00     0.200 A 
BRANCH  44  47
ATOM     47  O   UNL     1      13.881  20.118  51.259  1.00  0.00    -0.504 OA
ATOM     48  H   UNL     1      13.357  20.709  51.900  1.00  0.00     0.293 HD
ENDBRANCH  44  47
BRANCH  45  49
ATOM     49  O   UNL     1      18.703  20.218  50.427  1.00  0.00    -0.504 OA
ATOM     50  H   UNL     1      19.520  20.616  49.987  1.00  0.00     0.293 HD
ENDBRANCH  45  49
BRANCH  46  51
ATOM     51  O   UNL     1      16.399  19.250  51.958  1.00  0.00    -0.502 OA
ATOM     52  H   UNL     1      16.744  18.302  51.853  1.00  0.00     0.293 HD
ENDBRANCH  46  51
ENDBRANCH  39  41
ENDBRANCH  38  39
ENDBRANCH   3  38
BRANCH   5  53
ATOM     53  O   UNL     1      15.415  25.320  43.109  1.00  0.00    -0.428 OA
BRANCH  53  54
ATOM     54  C   UNL     1      16.499  25.824  42.381  1.00  0.00     0.340 C 
ATOM     55  O   UNL     1      16.558  25.678  41.134  1.00  0.00    -0.246 OA
BRANCH  54  56
ATOM     56  C   UNL     1      17.573  26.538  43.090  1.00  0.00     0.067 A 
ATOM     57  C   UNL     1      18.878  26.555  42.584  1.00  0.00     0.066 A 
ATOM     58  C   UNL     1      17.289  27.223  44.277  1.00  0.00     0.066 A 
ATOM     59  C   UNL     1      19.893  27.272  43.231  1.00  0.00     0.162 A 
ATOM     60  C   UNL     1      18.291  27.920  44.954  1.00  0.00     0.162 A 
ATOM     61  C   UNL     1      19.600  27.968  44.431  1.00  0.00     0.200 A 
BRANCH  59  62
ATOM     62  O   UNL     1      21.162  27.268  42.642  1.00  0.00    -0.504 OA
ATOM     63  H   UNL     1      21.375  26.819  41.758  1.00  0.00     0.293 HD
ENDBRANCH  59  62
BRANCH  60  64
ATOM     64  O   UNL     1      17.965  28.556  46.152  1.00  0.00    -0.504 OA
ATOM     65  H   UNL     1      17.305  28.155  46.811  1.00  0.00     0.293 HD
ENDBRANCH  60  64
BRANCH  61  66
ATOM     66  O   UNL     1      20.571  28.710  45.120  1.00  0.00    -0.502 OA
ATOM     67  H   UNL     1      20.453  29.673  45.404  1.00  0.00     0.293 HD
ENDBRANCH  61  66
ENDBRANCH  54  56
ENDBRANCH  53  54
ENDBRANCH   5  53
BRANCH   4  68
ATOM     68  O   UNL     1      13.582  24.417  44.915  1.00  0.00    -0.448 OA
BRANCH  68  69
ATOM     69  C   UNL     1      12.669  24.148  45.939  1.00  0.00     0.339 C 
ATOM     70  O   UNL     1      11.903  23.147  45.862  1.00  0.00    -0.246 OA
BRANCH  69  71
ATOM     71  C   UNL     1      12.598  25.052  47.107  1.00  0.00     0.067 A 
ATOM     72  C   UNL     1      12.670  26.442  46.947  1.00  0.00     0.066 A 
ATOM     73  C   UNL     1      12.448  24.525  48.399  1.00  0.00     0.066 A 
ATOM     74  C   UNL     1      12.579  27.297  48.056  1.00  0.00     0.162 A 
ATOM     75  C   UNL     1      12.354  25.368  49.510  1.00  0.00     0.162 A 
ATOM     76  C   UNL     1      12.418  26.759  49.343  1.00  0.00     0.200 A 
BRANCH  74  77
ATOM     77  O   UNL     1      12.639  28.680  47.881  1.00  0.00    -0.504 OA
ATOM     78  H   UNL     1      13.010  29.092  47.032  1.00  0.00     0.293 HD
ENDBRANCH  74  77
BRANCH  75  79
ATOM     79  O   UNL     1      12.193  24.804  50.777  1.00  0.00    -0.504 OA
ATOM     80  H   UNL     1      12.664  23.954  51.054  1.00  0.00     0.293 HD
ENDBRANCH  75  79
BRANCH  76  81
ATOM     81  O   UNL     1      12.322  27.595  50.458  1.00  0.00    -0.502 OA
ATOM     82  H   UNL     1      11.853  27.316  51.306  1.00  0.00     0.293 HD
ENDBRANCH  76  81
ENDBRANCH  69  71
ENDBRANCH  68  69
ENDBRANCH   4  68
TORSDOF 31
ENDMDL
