MODEL 1
REMARK VINA RESULT:    -3.534      0.000      0.000
REMARK INTER + INTRA:          -5.931
REMARK INTER:                  -5.394
REMARK INTRA:                  -0.537
REMARK UNBOUND:                -0.537
REMARK SMILES O=C([O-])CCCCCCCCC(=O)[O-]
REMARK SMILES IDX 7 1 6 2 5 3 4 4 2 5 1 6 3 7 8 8 9 9 10 10 11 11 12 12 13 13
REMARK SMILES IDX 14 14
REMARK H PARENT
REMARK Flexibility Score: inf
ROOT
ATOM      1  C   UNL     1      31.325   9.481  22.909  1.00  0.00     0.000 C 
ENDROOT
BRANCH   1   2
ATOM      2  C   UNL     1      32.125   8.702  21.852  1.00  0.00     0.000 C 
BRANCH   2   3
ATOM      3  C   UNL     1      31.431   7.398  21.422  1.00  0.00     0.006 C 
BRANCH   3   4
ATOM      4  C   UNL     1      32.422   6.375  20.852  1.00  0.00     0.053 C 
BRANCH   4   5
ATOM      5  C   UNL     1      32.132   4.989  21.339  1.00  0.00     0.041 C 
ATOM      6  O   UNL     1      31.201   4.317  20.820  1.00  0.00    -0.550 OA
ATOM      7  O   UNL     1      32.912   4.424  22.340  1.00  0.00    -0.550 OA
ENDBRANCH   4   5
ENDBRANCH   3   4
ENDBRANCH   2   3
ENDBRANCH   1   2
BRANCH   1   8
ATOM      8  C   UNL     1      32.100  10.690  23.460  1.00  0.00     0.000 C 
BRANCH   8   9
ATOM      9  C   UNL     1      32.513  11.687  22.361  1.00  0.00     0.000 C 
BRANCH   9  10
ATOM     10  C   UNL     1      34.031  11.919  22.221  1.00  0.00     0.006 C 
BRANCH  10  11
ATOM     11  C   UNL     1      34.880  11.297  23.341  1.00  0.00     0.053 C 
BRANCH  11  12
ATOM     12  C   UNL     1      35.893  10.332  22.807  1.00  0.00     0.041 C 
ATOM     13  O   UNL     1      37.062  10.320  23.273  1.00  0.00    -0.550 OA
ATOM     14  O   UNL     1      35.557   9.471  21.771  1.00  0.00    -0.550 OA
ENDBRANCH  11  12
ENDBRANCH  10  11
ENDBRANCH   9  10
ENDBRANCH   8   9
ENDBRANCH   1   8
TORSDOF 9
ENDMDL
MODEL 2
REMARK VINA RESULT:    -3.442      1.484      2.449
REMARK INTER + INTRA:          -5.790
REMARK INTER:                  -5.072
REMARK INTRA:                  -0.718
REMARK UNBOUND:                -0.537
REMARK SMILES O=C([O-])CCCCCCCCC(=O)[O-]
REMARK SMILES IDX 7 1 6 2 5 3 4 4 2 5 1 6 3 7 8 8 9 9 10 10 11 11 12 12 13 13
REMARK SMILES IDX 14 14
REMARK H PARENT
REMARK Flexibility Score: inf
ROOT
ATOM      1  C   UNL     1      32.347  11.464  22.281  1.00  0.00     0.000 C 
ENDROOT
BRANCH   1   2
ATOM      2  C   UNL     1      31.997  10.296  23.218  1.00  0.00     0.000 C 
BRANCH   2   3
ATOM      3  C   UNL     1      31.394   9.094  22.470  1.00  0.00     0.006 C 
BRANCH   3   4
ATOM      4  C   UNL     1      32.331   8.566  21.376  1.00  0.00     0.053 C 
BRANCH   4   5
ATOM      5  C   UNL     1      31.850   7.264  20.813  1.00  0.00     0.041 C 
ATOM      6  O   UNL     1      31.609   7.156  19.581  1.00  0.00    -0.550 OA
ATOM      7  O   UNL     1      31.702   6.159  21.642  1.00  0.00    -0.550 OA
ENDBRANCH   4   5
ENDBRANCH   3   4
ENDBRANCH   2   3
ENDBRANCH   1   2
BRANCH   1   8
ATOM      8  C   UNL     1      33.689  12.125  22.642  1.00  0.00     0.000 C 
BRANCH   8   9
ATOM      9  C   UNL     1      34.586  11.223  23.510  1.00  0.00     0.000 C 
BRANCH   9  10
ATOM     10  C   UNL     1      35.954  10.868  22.893  1.00  0.00     0.006 C 
BRANCH  10  11
ATOM     11  C   UNL     1      35.963   9.578  22.057  1.00  0.00     0.053 C 
BRANCH  11  12
ATOM     12  C   UNL     1      37.008   8.613  22.526  1.00  0.00     0.041 C 
ATOM     13  O   UNL     1      37.160   7.510  21.939  1.00  0.00    -0.550 OA
ATOM     14  O   UNL     1      37.789   8.916  23.634  1.00  0.00    -0.550 OA
ENDBRANCH  11  12
ENDBRANCH  10  11
ENDBRANCH   9  10
ENDBRANCH   8   9
ENDBRANCH   1   8
TORSDOF 9
ENDMDL
MODEL 3
REMARK VINA RESULT:    -3.358      1.098      5.214
REMARK INTER + INTRA:          -5.662
REMARK INTER:                  -5.060
REMARK INTRA:                  -0.602
REMARK UNBOUND:                -0.537
REMARK SMILES O=C([O-])CCCCCCCCC(=O)[O-]
REMARK SMILES IDX 7 1 6 2 5 3 4 4 2 5 1 6 3 7 8 8 9 9 10 10 11 11 12 12 13 13
REMARK SMILES IDX 14 14
REMARK H PARENT
REMARK Flexibility Score: inf
ROOT
ATOM      1  C   UNL     1      32.545  11.506  22.260  1.00  0.00     0.000 C 
ENDROOT
BRANCH   1   2
ATOM      2  C   UNL     1      33.919  12.099  22.614  1.00  0.00     0.000 C 
BRANCH   2   3
ATOM      3  C   UNL     1      34.766  11.157  23.487  1.00  0.00     0.006 C 
BRANCH   3   4
ATOM      4  C   UNL     1      36.119  10.830  22.841  1.00  0.00     0.053 C 
BRANCH   4   5
ATOM      5  C   UNL     1      35.958   9.997  21.607  1.00  0.00     0.041 C 
ATOM      6  O   UNL     1      36.040  10.529  20.468  1.00  0.00    -0.550 OA
ATOM      7  O   UNL     1      35.755   8.626  21.712  1.00  0.00    -0.550 OA
ENDBRANCH   4   5
ENDBRANCH   3   4
ENDBRANCH   2   3
ENDBRANCH   1   2
BRANCH   1   8
ATOM      8  C   UNL     1      31.978  10.624  23.386  1.00  0.00     0.000 C 
BRANCH   8   9
ATOM      9  C   UNL     1      31.193   9.409  22.857  1.00  0.00     0.000 C 
BRANCH   9  10
ATOM     10  C   UNL     1      31.916   8.578  21.777  1.00  0.00     0.006 C 
BRANCH  10  11
ATOM     11  C   UNL     1      31.154   7.325  21.317  1.00  0.00     0.053 C 
BRANCH  11  12
ATOM     12  C   UNL     1      32.082   6.231  20.888  1.00  0.00     0.041 C 
ATOM     13  O   UNL     1      33.326   6.421  20.882  1.00  0.00    -0.550 OA
ATOM     14  O   UNL     1      31.571   5.011  20.461  1.00  0.00    -0.550 OA
ENDBRANCH  11  12
ENDBRANCH  10  11
ENDBRANCH   9  10
ENDBRANCH   8   9
ENDBRANCH   1   8
TORSDOF 9
ENDMDL
MODEL 4
REMARK VINA RESULT:    -3.341      1.459      5.287
REMARK INTER + INTRA:          -5.635
REMARK INTER:                  -5.052
REMARK INTRA:                  -0.583
REMARK UNBOUND:                -0.537
REMARK SMILES O=C([O-])CCCCCCCCC(=O)[O-]
REMARK SMILES IDX 7 1 6 2 5 3 4 4 2 5 1 6 3 7 8 8 9 9 10 10 11 11 12 12 13 13
REMARK SMILES IDX 14 14
REMARK H PARENT
REMARK Flexibility Score: inf
ROOT
ATOM      1  C   UNL     1      33.704  12.089  22.828  1.00  0.00     0.000 C 
ENDROOT
BRANCH   1   2
ATOM      2  C   UNL     1      34.642  11.068  23.494  1.00  0.00     0.000 C 
BRANCH   2   3
ATOM      3  C   UNL     1      36.052  11.064  22.876  1.00  0.00     0.006 C 
BRANCH   3   4
ATOM      4  C   UNL     1      36.329   9.783  22.079  1.00  0.00     0.053 C 
BRANCH   4   5
ATOM      5  C   UNL     1      37.283   8.878  22.796  1.00  0.00     0.041 C 
ATOM      6  O   UNL     1      37.089   7.633  22.807  1.00  0.00    -0.550 OA
ATOM      7  O   UNL     1      38.406   9.404  23.423  1.00  0.00    -0.550 OA
ENDBRANCH   4   5
ENDBRANCH   3   4
ENDBRANCH   2   3
ENDBRANCH   1   2
BRANCH   1   8
ATOM      8  C   UNL     1      32.378  11.457  22.370  1.00  0.00     0.000 C 
BRANCH   8   9
ATOM      9  C   UNL     1      31.920  10.303  23.281  1.00  0.00     0.000 C 
BRANCH   9  10
ATOM     10  C   UNL     1      31.291   9.099  22.551  1.00  0.00     0.006 C 
BRANCH  10  11
ATOM     11  C   UNL     1      32.194   8.452  21.488  1.00  0.00     0.053 C 
BRANCH  11  12
ATOM     12  C   UNL     1      31.643   7.147  21.002  1.00  0.00     0.041 C 
ATOM     13  O   UNL     1      31.697   6.125  21.735  1.00  0.00    -0.550 OA
ATOM     14  O   UNL     1      31.101   7.052  19.727  1.00  0.00    -0.550 OA
ENDBRANCH  11  12
ENDBRANCH  10  11
ENDBRANCH   9  10
ENDBRANCH   8   9
ENDBRANCH   1   8
TORSDOF 9
ENDMDL
MODEL 5
REMARK VINA RESULT:    -3.325      0.570      5.494
REMARK INTER + INTRA:          -5.611
REMARK INTER:                  -5.115
REMARK INTRA:                  -0.496
REMARK UNBOUND:                -0.537
REMARK SMILES O=C([O-])CCCCCCCCC(=O)[O-]
REMARK SMILES IDX 7 1 6 2 5 3 4 4 2 5 1 6 3 7 8 8 9 9 10 10 11 11 12 12 13 13
REMARK SMILES IDX 14 14
REMARK H PARENT
REMARK Flexibility Score: inf
ROOT
ATOM      1  C   UNL     1      32.015  10.654  23.538  1.00  0.00     0.000 C 
ENDROOT
BRANCH   1   2
ATOM      2  C   UNL     1      32.916  11.459  22.586  1.00  0.00     0.000 C 
BRANCH   2   3
ATOM      3  C   UNL     1      34.380  11.514  23.057  1.00  0.00     0.006 C 
BRANCH   3   4
ATOM      4  C   UNL     1      35.355  11.042  21.971  1.00  0.00     0.053 C 
BRANCH   4   5
ATOM      5  C   UNL     1      36.107   9.818  22.393  1.00  0.00     0.041 C 
ATOM      6  O   UNL     1      36.939   9.879  23.338  1.00  0.00    -0.550 OA
ATOM      7  O   UNL     1      35.865   8.600  21.770  1.00  0.00    -0.550 OA
ENDBRANCH   4   5
ENDBRANCH   3   4
ENDBRANCH   2   3
ENDBRANCH   1   2
BRANCH   1   8
ATOM      8  C   UNL     1      31.271   9.515  22.819  1.00  0.00     0.000 C 
BRANCH   8   9
ATOM      9  C   UNL     1      32.142   8.802  21.767  1.00  0.00     0.000 C 
BRANCH   9  10
ATOM     10  C   UNL     1      31.627   7.419  21.316  1.00  0.00     0.006 C 
BRANCH  10  11
ATOM     11  C   UNL     1      32.728   6.437  20.885  1.00  0.00     0.053 C 
BRANCH  11  12
ATOM     12  C   UNL     1      32.353   5.015  21.170  1.00  0.00     0.041 C 
ATOM     13  O   UNL     1      32.712   4.470  22.246  1.00  0.00    -0.550 OA
ATOM     14  O   UNL     1      31.638   4.281  20.232  1.00  0.00    -0.550 OA
ENDBRANCH  11  12
ENDBRANCH  10  11
ENDBRANCH   9  10
ENDBRANCH   8   9
ENDBRANCH   1   8
TORSDOF 9
ENDMDL
MODEL 6
REMARK VINA RESULT:    -3.240      1.225      1.660
REMARK INTER + INTRA:          -5.481
REMARK INTER:                  -4.899
REMARK INTRA:                  -0.583
REMARK UNBOUND:                -0.537
REMARK SMILES O=C([O-])CCCCCCCCC(=O)[O-]
REMARK SMILES IDX 7 1 6 2 5 3 4 4 2 5 1 6 3 7 8 8 9 9 10 10 11 11 12 12 13 13
REMARK SMILES IDX 14 14
REMARK H PARENT
REMARK Flexibility Score: inf
ROOT
ATOM      1  C   UNL     1      32.021   8.704  21.797  1.00  0.00     0.000 C 
ENDROOT
BRANCH   1   2
ATOM      2  C   UNL     1      31.246   7.418  21.465  1.00  0.00     0.000 C 
BRANCH   2   3
ATOM      3  C   UNL     1      32.028   6.477  20.531  1.00  0.00     0.006 C 
BRANCH   3   4
ATOM      4  C   UNL     1      33.525   6.812  20.494  1.00  0.00     0.053 C 
BRANCH   4   5
ATOM      5  C   UNL     1      34.359   5.688  21.026  1.00  0.00     0.041 C 
ATOM      6  O   UNL     1      33.852   4.547  21.193  1.00  0.00    -0.550 OA
ATOM      7  O   UNL     1      35.705   5.889  21.304  1.00  0.00    -0.550 OA
ENDBRANCH   4   5
ENDBRANCH   3   4
ENDBRANCH   2   3
ENDBRANCH   1   2
BRANCH   1   8
ATOM      8  C   UNL     1      31.299   9.571  22.844  1.00  0.00     0.000 C 
BRANCH   8   9
ATOM      9  C   UNL     1      32.220  10.629  23.481  1.00  0.00     0.000 C 
BRANCH   9  10
ATOM     10  C   UNL     1      33.425  11.057  22.619  1.00  0.00     0.006 C 
BRANCH  10  11
ATOM     11  C   UNL     1      34.734  11.251  23.401  1.00  0.00     0.053 C 
BRANCH  11  12
ATOM     12  C   UNL     1      35.854  10.439  22.830  1.00  0.00     0.041 C 
ATOM     13  O   UNL     1      37.050  10.765  23.052  1.00  0.00    -0.550 OA
ATOM     14  O   UNL     1      35.579   9.341  22.024  1.00  0.00    -0.550 OA
ENDBRANCH  11  12
ENDBRANCH  10  11
ENDBRANCH   9  10
ENDBRANCH   8   9
ENDBRANCH   1   8
TORSDOF 9
ENDMDL
MODEL 7
REMARK VINA RESULT:    -3.215      3.828      5.740
REMARK INTER + INTRA:          -5.443
REMARK INTER:                  -4.974
REMARK INTRA:                  -0.469
REMARK UNBOUND:                -0.537
REMARK SMILES O=C([O-])CCCCCCCCC(=O)[O-]
REMARK SMILES IDX 7 1 6 2 5 3 4 4 2 5 1 6 3 7 8 8 9 9 10 10 11 11 12 12 13 13
REMARK SMILES IDX 14 14
REMARK H PARENT
REMARK Flexibility Score: inf
ROOT
ATOM      1  C   UNL     1      35.964   9.579  21.896  1.00  0.00     0.000 C 
ENDROOT
BRANCH   1   2
ATOM      2  C   UNL     1      35.818  10.657  22.983  1.00  0.00     0.000 C 
BRANCH   2   3
ATOM      3  C   UNL     1      34.368  11.148  23.142  1.00  0.00     0.006 C 
BRANCH   3   4
ATOM      4  C   UNL     1      33.365  10.226  22.436  1.00  0.00     0.053 C 
BRANCH   4   5
ATOM      5  C   UNL     1      31.980  10.390  22.983  1.00  0.00     0.041 C 
ATOM      6  O   UNL     1      31.622  11.490  23.482  1.00  0.00    -0.550 OA
ATOM      7  O   UNL     1      31.073   9.340  22.910  1.00  0.00    -0.550 OA
ENDBRANCH   4   5
ENDBRANCH   3   4
ENDBRANCH   2   3
ENDBRANCH   1   2
BRANCH   1   8
ATOM      8  C   UNL     1      36.944   8.464  22.302  1.00  0.00     0.000 C 
BRANCH   8   9
ATOM      9  C   UNL     1      37.818   8.847  23.511  1.00  0.00     0.000 C 
BRANCH   9  10
ATOM     10  C   UNL     1      38.308   7.663  24.369  1.00  0.00     0.006 C 
BRANCH  10  11
ATOM     11  C   UNL     1      37.783   6.289  23.923  1.00  0.00     0.053 C 
BRANCH  11  12
ATOM     12  C   UNL     1      38.870   5.260  23.881  1.00  0.00     0.041 C 
ATOM     13  O   UNL     1      39.822   5.377  23.066  1.00  0.00    -0.550 OA
ATOM     14  O   UNL     1      38.813   4.153  24.718  1.00  0.00    -0.550 OA
ENDBRANCH  11  12
ENDBRANCH  10  11
ENDBRANCH   9  10
ENDBRANCH   8   9
ENDBRANCH   1   8
TORSDOF 9
ENDMDL
MODEL 8
REMARK VINA RESULT:    -3.106      2.965      4.891
REMARK INTER + INTRA:          -5.277
REMARK INTER:                  -4.777
REMARK INTRA:                  -0.500
REMARK UNBOUND:                -0.537
REMARK SMILES O=C([O-])CCCCCCCCC(=O)[O-]
REMARK SMILES IDX 7 1 6 2 5 3 4 4 2 5 1 6 3 7 8 8 9 9 10 10 11 11 12 12 13 13
REMARK SMILES IDX 14 14
REMARK H PARENT
REMARK Flexibility Score: inf
ROOT
ATOM      1  C   UNL     1      36.451  10.068  23.235  1.00  0.00     0.000 C 
ENDROOT
BRANCH   1   2
ATOM      2  C   UNL     1      37.935   9.957  22.849  1.00  0.00     0.000 C 
BRANCH   2   3
ATOM      3  C   UNL     1      38.225   8.746  21.943  1.00  0.00     0.006 C 
BRANCH   3   4
ATOM      4  C   UNL     1      37.037   7.777  21.877  1.00  0.00     0.053 C 
BRANCH   4   5
ATOM      5  C   UNL     1      37.380   6.438  22.453  1.00  0.00     0.041 C 
ATOM      6  O   UNL     1      37.532   6.303  23.696  1.00  0.00    -0.550 OA
ATOM      7  O   UNL     1      37.497   5.331  21.622  1.00  0.00    -0.550 OA
ENDBRANCH   4   5
ENDBRANCH   3   4
ENDBRANCH   2   3
ENDBRANCH   1   2
BRANCH   1   8
ATOM      8  C   UNL     1      35.760  11.271  22.571  1.00  0.00     0.000 C 
BRANCH   8   9
ATOM      9  C   UNL     1      34.527  11.760  23.354  1.00  0.00     0.000 C 
BRANCH   9  10
ATOM     10  C   UNL     1      33.208  11.785  22.555  1.00  0.00     0.006 C 
BRANCH  10  11
ATOM     11  C   UNL     1      32.040  11.042  23.223  1.00  0.00     0.053 C 
BRANCH  11  12
ATOM     12  C   UNL     1      31.835   9.679  22.639  1.00  0.00     0.041 C 
ATOM     13  O   UNL     1      30.879   8.960  23.030  1.00  0.00    -0.550 OA
ATOM     14  O   UNL     1      32.721   9.187  21.688  1.00  0.00    -0.550 OA
ENDBRANCH  11  12
ENDBRANCH  10  11
ENDBRANCH   9  10
ENDBRANCH   8   9
ENDBRANCH   1   8
TORSDOF 9
ENDMDL
MODEL 9
REMARK VINA RESULT:    -3.071      2.221      5.173
REMARK INTER + INTRA:          -5.223
REMARK INTER:                  -4.581
REMARK INTRA:                  -0.642
REMARK UNBOUND:                -0.537
REMARK SMILES O=C([O-])CCCCCCCCC(=O)[O-]
REMARK SMILES IDX 7 1 6 2 5 3 4 4 2 5 1 6 3 7 8 8 9 9 10 10 11 11 12 12 13 13
REMARK SMILES IDX 14 14
REMARK H PARENT
REMARK Flexibility Score: inf
ROOT
ATOM      1  C   UNL     1      32.303  10.077  22.215  1.00  0.00     0.000 C 
ENDROOT
BRANCH   1   2
ATOM      2  C   UNL     1      32.865  10.992  23.316  1.00  0.00     0.000 C 
BRANCH   2   3
ATOM      3  C   UNL     1      34.402  11.080  23.289  1.00  0.00     0.006 C 
BRANCH   3   4
ATOM      4  C   UNL     1      35.012  10.187  22.201  1.00  0.00     0.053 C 
BRANCH   4   5
ATOM      5  C   UNL     1      36.428   9.814  22.518  1.00  0.00     0.041 C 
ATOM      6  O   UNL     1      36.804   8.616  22.422  1.00  0.00    -0.550 OA
ATOM      7  O   UNL     1      37.342  10.794  22.883  1.00  0.00    -0.550 OA
ENDBRANCH   4   5
ENDBRANCH   3   4
ENDBRANCH   2   3
ENDBRANCH   1   2
BRANCH   1   8
ATOM      8  C   UNL     1      31.165   9.176  22.725  1.00  0.00     0.000 C 
BRANCH   8   9
ATOM      9  C   UNL     1      31.001   7.891  21.891  1.00  0.00     0.000 C 
BRANCH   9  10
ATOM     10  C   UNL     1      32.276   7.408  21.170  1.00  0.00     0.006 C 
BRANCH  10  11
ATOM     11  C   UNL     1      32.165   7.362  19.637  1.00  0.00     0.053 C 
BRANCH  11  12
ATOM     12  C   UNL     1      33.300   8.077  18.971  1.00  0.00     0.041 C 
ATOM     13  O   UNL     1      33.294   9.333  18.887  1.00  0.00    -0.550 OA
ATOM     14  O   UNL     1      34.346   7.355  18.412  1.00  0.00    -0.550 OA
ENDBRANCH  11  12
ENDBRANCH  10  11
ENDBRANCH   9  10
ENDBRANCH   8   9
ENDBRANCH   1   8
TORSDOF 9
ENDMDL
