MODEL 1
REMARK VINA RESULT:    -3.953      0.000      0.000
REMARK INTER + INTRA:          -4.935
REMARK INTER:                  -4.877
REMARK INTRA:                  -0.057
REMARK UNBOUND:                -0.057
REMARK SMILES CCCCCC(=O)[O-]
REMARK SMILES IDX 4 1 5 2 6 3 7 4 8 5 3 6 2 7 1 8
REMARK H PARENT
REMARK Flexibility Score: inf
ROOT
ATOM      1  C   UNL     1       2.779  -0.808  -1.882  1.00  0.00     0.006 C 
ENDROOT
BRANCH   1   2
ATOM      2  C   UNL     1       4.114  -0.620  -2.609  1.00  0.00     0.053 C 
BRANCH   2   3
ATOM      3  C   UNL     1       5.227  -0.443  -1.625  1.00  0.00     0.041 C 
ATOM      4  O   UNL     1       6.421  -0.620  -1.981  1.00  0.00    -0.550 OA
ATOM      5  O   UNL     1       4.942  -0.131  -0.302  1.00  0.00    -0.550 OA
ENDBRANCH   2   3
ENDBRANCH   1   2
BRANCH   1   6
ATOM      6  C   UNL     1       1.848  -1.736  -2.674  1.00  0.00     0.000 C 
BRANCH   6   7
ATOM      7  C   UNL     1       0.447  -1.840  -2.051  1.00  0.00    -0.003 C 
ATOM      8  C   UNL     1       0.344  -2.955  -1.010  1.00  0.00     0.004 C 
ENDBRANCH   6   7
ENDBRANCH   1   6
TORSDOF 4
ENDMDL
MODEL 2
REMARK VINA RESULT:    -3.861      3.092      4.809
REMARK INTER + INTRA:          -4.821
REMARK INTER:                  -4.778
REMARK INTRA:                  -0.043
REMARK UNBOUND:                -0.057
REMARK SMILES CCCCCC(=O)[O-]
REMARK SMILES IDX 4 1 5 2 6 3 7 4 8 5 3 6 2 7 1 8
REMARK H PARENT
REMARK Flexibility Score: inf
ROOT
ATOM      1  C   UNL     1       2.592  -0.691  -1.984  1.00  0.00     0.006 C 
ENDROOT
BRANCH   1   2
ATOM      2  C   UNL     1       1.767  -1.804  -2.639  1.00  0.00     0.053 C 
BRANCH   2   3
ATOM      3  C   UNL     1       0.479  -2.003  -1.905  1.00  0.00     0.041 C 
ATOM      4  O   UNL     1      -0.459  -1.173  -2.035  1.00  0.00    -0.550 OA
ATOM      5  O   UNL     1       0.331  -3.079  -1.039  1.00  0.00    -0.550 OA
ENDBRANCH   2   3
ENDBRANCH   1   2
BRANCH   1   6
ATOM      6  C   UNL     1       4.042  -0.713  -2.489  1.00  0.00     0.000 C 
BRANCH   6   7
ATOM      7  C   UNL     1       5.058  -0.399  -1.380  1.00  0.00    -0.003 C 
ATOM      8  C   UNL     1       6.502  -0.406  -1.881  1.00  0.00     0.004 C 
ENDBRANCH   6   7
ENDBRANCH   1   6
TORSDOF 4
ENDMDL
MODEL 3
REMARK VINA RESULT:    -3.778      9.449     10.749
REMARK INTER + INTRA:          -4.719
REMARK INTER:                  -4.720
REMARK INTRA:                   0.001
REMARK UNBOUND:                -0.057
REMARK SMILES CCCCCC(=O)[O-]
REMARK SMILES IDX 4 1 5 2 6 3 7 4 8 5 3 6 2 7 1 8
REMARK H PARENT
REMARK Flexibility Score: inf
ROOT
ATOM      1  C   UNL     1       8.317   0.585  -8.578  1.00  0.00     0.006 C 
ENDROOT
BRANCH   1   2
ATOM      2  C   UNL     1       9.299   1.649  -9.080  1.00  0.00     0.053 C 
BRANCH   2   3
ATOM      3  C   UNL     1       8.755   2.333 -10.294  1.00  0.00     0.041 C 
ATOM      4  O   UNL     1       7.569   2.756 -10.304  1.00  0.00    -0.550 OA
ATOM      5  O   UNL     1       9.542   2.462 -11.431  1.00  0.00    -0.550 OA
ENDBRANCH   2   3
ENDBRANCH   1   2
BRANCH   1   6
ATOM      6  C   UNL     1       8.764  -0.820  -9.005  1.00  0.00     0.000 C 
BRANCH   6   7
ATOM      7  C   UNL     1      10.125  -0.816  -9.718  1.00  0.00    -0.003 C 
ATOM      8  C   UNL     1       9.998  -0.962 -11.234  1.00  0.00     0.004 C 
ENDBRANCH   6   7
ENDBRANCH   1   6
TORSDOF 4
ENDMDL
MODEL 4
REMARK VINA RESULT:    -3.719     10.856     12.173
REMARK INTER + INTRA:          -4.646
REMARK INTER:                  -4.576
REMARK INTRA:                  -0.070
REMARK UNBOUND:                -0.057
REMARK SMILES CCCCCC(=O)[O-]
REMARK SMILES IDX 4 1 5 2 6 3 7 4 8 5 3 6 2 7 1 8
REMARK H PARENT
REMARK Flexibility Score: inf
ROOT
ATOM      1  C   UNL     1      -5.498  -1.116   5.639  1.00  0.00     0.006 C 
ENDROOT
BRANCH   1   2
ATOM      2  C   UNL     1      -5.470  -0.696   7.112  1.00  0.00     0.053 C 
BRANCH   2   3
ATOM      3  C   UNL     1      -5.703   0.776   7.242  1.00  0.00     0.041 C 
ATOM      4  O   UNL     1      -4.740   1.581   7.148  1.00  0.00    -0.550 OA
ATOM      5  O   UNL     1      -6.978   1.256   7.514  1.00  0.00    -0.550 OA
ENDBRANCH   2   3
ENDBRANCH   1   2
BRANCH   1   6
ATOM      6  C   UNL     1      -5.757  -2.623   5.502  1.00  0.00     0.000 C 
BRANCH   6   7
ATOM      7  C   UNL     1      -4.585  -3.366   4.843  1.00  0.00    -0.003 C 
ATOM      8  C   UNL     1      -3.250  -3.103   5.541  1.00  0.00     0.004 C 
ENDBRANCH   6   7
ENDBRANCH   1   6
TORSDOF 4
ENDMDL
MODEL 5
REMARK VINA RESULT:    -3.717     10.898     12.340
REMARK INTER + INTRA:          -4.643
REMARK INTER:                  -4.561
REMARK INTRA:                  -0.082
REMARK UNBOUND:                -0.057
REMARK SMILES CCCCCC(=O)[O-]
REMARK SMILES IDX 4 1 5 2 6 3 7 4 8 5 3 6 2 7 1 8
REMARK H PARENT
REMARK Flexibility Score: inf
ROOT
ATOM      1  C   UNL     1      -5.433  -1.086   5.773  1.00  0.00     0.006 C 
ENDROOT
BRANCH   1   2
ATOM      2  C   UNL     1      -5.783  -0.722   7.220  1.00  0.00     0.053 C 
BRANCH   2   3
ATOM      3  C   UNL     1      -5.873   0.762   7.380  1.00  0.00     0.041 C 
ATOM      4  O   UNL     1      -6.993   1.316   7.529  1.00  0.00    -0.550 OA
ATOM      5  O   UNL     1      -4.723   1.539   7.318  1.00  0.00    -0.550 OA
ENDBRANCH   2   3
ENDBRANCH   1   2
BRANCH   1   6
ATOM      6  C   UNL     1      -5.931  -2.495   5.425  1.00  0.00     0.000 C 
BRANCH   6   7
ATOM      7  C   UNL     1      -4.788  -3.450   5.048  1.00  0.00    -0.003 C 
ATOM      8  C   UNL     1      -3.416  -2.930   5.480  1.00  0.00     0.004 C 
ENDBRANCH   6   7
ENDBRANCH   1   6
TORSDOF 4
ENDMDL
MODEL 6
REMARK VINA RESULT:    -3.413     11.951     12.891
REMARK INTER + INTRA:          -4.269
REMARK INTER:                  -4.036
REMARK INTRA:                  -0.234
REMARK UNBOUND:                -0.057
REMARK SMILES CCCCCC(=O)[O-]
REMARK SMILES IDX 4 1 5 2 6 3 7 4 8 5 3 6 2 7 1 8
REMARK H PARENT
REMARK Flexibility Score: inf
ROOT
ATOM      1  C   UNL     1      -4.911  -1.395   6.467  1.00  0.00     0.006 C 
ENDROOT
BRANCH   1   2
ATOM      2  C   UNL     1      -5.314  -0.636   7.735  1.00  0.00     0.053 C 
BRANCH   2   3
ATOM      3  C   UNL     1      -5.683   0.776   7.405  1.00  0.00     0.041 C 
ATOM      4  O   UNL     1      -4.795   1.599   7.063  1.00  0.00    -0.550 OA
ATOM      5  O   UNL     1      -7.003   1.195   7.522  1.00  0.00    -0.550 OA
ENDBRANCH   2   3
ENDBRANCH   1   2
BRANCH   1   6
ATOM      6  C   UNL     1      -6.100  -1.529   5.505  1.00  0.00     0.000 C 
BRANCH   6   7
ATOM      7  C   UNL     1      -7.095  -2.615   5.944  1.00  0.00    -0.003 C 
ATOM      8  C   UNL     1      -8.445  -2.041   6.377  1.00  0.00     0.004 C 
ENDBRANCH   6   7
ENDBRANCH   1   6
TORSDOF 4
ENDMDL
MODEL 7
REMARK VINA RESULT:    -3.395     10.023     11.695
REMARK INTER + INTRA:          -4.246
REMARK INTER:                  -4.177
REMARK INTRA:                  -0.069
REMARK UNBOUND:                -0.057
REMARK SMILES CCCCCC(=O)[O-]
REMARK SMILES IDX 4 1 5 2 6 3 7 4 8 5 3 6 2 7 1 8
REMARK H PARENT
REMARK Flexibility Score: inf
ROOT
ATOM      1  C   UNL     1      -1.937  -9.802   2.219  1.00  0.00     0.006 C 
ENDROOT
BRANCH   1   2
ATOM      2  C   UNL     1      -2.918 -10.304   3.283  1.00  0.00     0.053 C 
BRANCH   2   3
ATOM      3  C   UNL     1      -2.983  -9.345   4.429  1.00  0.00     0.041 C 
ATOM      4  O   UNL     1      -2.216  -8.348   4.466  1.00  0.00    -0.550 OA
ATOM      5  O   UNL     1      -3.860  -9.579   5.482  1.00  0.00    -0.550 OA
ENDBRANCH   2   3
ENDBRANCH   1   2
BRANCH   1   6
ATOM      6  C   UNL     1      -1.642 -10.896   1.184  1.00  0.00     0.000 C 
BRANCH   6   7
ATOM      7  C   UNL     1      -1.991 -10.464  -0.249  1.00  0.00    -0.003 C 
ATOM      8  C   UNL     1      -1.146  -9.286  -0.734  1.00  0.00     0.004 C 
ENDBRANCH   6   7
ENDBRANCH   1   6
TORSDOF 4
ENDMDL
MODEL 8
REMARK VINA RESULT:    -3.393      8.571     10.279
REMARK INTER + INTRA:          -4.244
REMARK INTER:                  -4.776
REMARK INTRA:                   0.531
REMARK UNBOUND:                -0.057
REMARK SMILES CCCCCC(=O)[O-]
REMARK SMILES IDX 4 1 5 2 6 3 7 4 8 5 3 6 2 7 1 8
REMARK H PARENT
REMARK Flexibility Score: inf
ROOT
ATOM      1  C   UNL     1       8.799  -1.342  -9.295  1.00  0.00     0.006 C 
ENDROOT
BRANCH   1   2
ATOM      2  C   UNL     1       7.913  -0.505  -8.367  1.00  0.00     0.053 C 
BRANCH   2   3
ATOM      3  C   UNL     1       8.395   0.911  -8.319  1.00  0.00     0.041 C 
ATOM      4  O   UNL     1       7.866   1.785  -9.053  1.00  0.00    -0.550 OA
ATOM      5  O   UNL     1       9.461   1.255  -7.497  1.00  0.00    -0.550 OA
ENDBRANCH   2   3
ENDBRANCH   1   2
BRANCH   1   6
ATOM      6  C   UNL     1      10.114  -0.612  -9.605  1.00  0.00     0.000 C 
BRANCH   6   7
ATOM      7  C   UNL     1      10.122   0.020 -11.006  1.00  0.00    -0.003 C 
ATOM      8  C   UNL     1      10.111  -1.022 -12.125  1.00  0.00     0.004 C 
ENDBRANCH   6   7
ENDBRANCH   1   6
TORSDOF 4
ENDMDL
MODEL 9
REMARK VINA RESULT:    -3.294     10.440     11.418
REMARK INTER + INTRA:          -4.122
REMARK INTER:                  -3.995
REMARK INTRA:                  -0.127
REMARK UNBOUND:                -0.057
REMARK SMILES CCCCCC(=O)[O-]
REMARK SMILES IDX 4 1 5 2 6 3 7 4 8 5 3 6 2 7 1 8
REMARK H PARENT
REMARK Flexibility Score: inf
ROOT
ATOM      1  C   UNL     1      -3.615  -2.804   5.517  1.00  0.00     0.006 C 
ENDROOT
BRANCH   1   2
ATOM      2  C   UNL     1      -4.202  -4.153   5.089  1.00  0.00     0.053 C 
BRANCH   2   3
ATOM      3  C   UNL     1      -3.507  -5.274   5.794  1.00  0.00     0.041 C 
ATOM      4  O   UNL     1      -2.439  -5.750   5.329  1.00  0.00    -0.550 OA
ATOM      5  O   UNL     1      -4.064  -5.826   6.941  1.00  0.00    -0.550 OA
ENDBRANCH   2   3
ENDBRANCH   1   2
BRANCH   1   6
ATOM      6  C   UNL     1      -4.556  -2.080   6.490  1.00  0.00     0.000 C 
BRANCH   6   7
ATOM      7  C   UNL     1      -5.467  -1.064   5.784  1.00  0.00    -0.003 C 
ATOM      8  C   UNL     1      -6.937  -1.483   5.791  1.00  0.00     0.004 C 
ENDBRANCH   6   7
ENDBRANCH   1   6
TORSDOF 4
ENDMDL
