MODEL 1
REMARK VINA RESULT:    -4.317      0.000      0.000
REMARK INTER + INTRA:         -10.437
REMARK INTER:                  -8.102
REMARK INTRA:                  -2.334
REMARK UNBOUND:                -2.334
REMARK SMILES CCCCCCCCC=CCCCCCCCC(=O)[O-]
REMARK SMILES IDX 10 1 9 2 11 3 12 4 13 5 14 6 15 7 16 8 17 9 18 10 19 11
REMARK SMILES IDX 20 12 8 13 7 14 6 15 5 16 4 17 3 18 2 19 1 20
REMARK H PARENT
REMARK Flexibility Score: inf
ROOT
ATOM      1  C   UNL     1      21.888  -0.037 -15.277  1.00  0.00    -0.031 C 
ATOM      2  C   UNL     1      22.883  -0.069 -14.371  1.00  0.00    -0.031 C 
ENDROOT
BRANCH   1   3
ATOM      3  C   UNL     1      22.076   0.114 -16.769  1.00  0.00     0.027 C 
BRANCH   3   4
ATOM      4  C   UNL     1      21.464  -1.065 -17.542  1.00  0.00     0.004 C 
BRANCH   4   5
ATOM      5  C   UNL     1      22.283  -2.366 -17.437  1.00  0.00     0.000 C 
BRANCH   5   6
ATOM      6  C   UNL     1      21.893  -3.249 -16.233  1.00  0.00     0.000 C 
BRANCH   6   7
ATOM      7  C   UNL     1      23.092  -3.747 -15.402  1.00  0.00     0.000 C 
BRANCH   7   8
ATOM      8  C   UNL     1      24.465  -3.397 -16.009  1.00  0.00     0.006 C 
BRANCH   8   9
ATOM      9  C   UNL     1      25.630  -3.969 -15.192  1.00  0.00     0.053 C 
BRANCH   9  10
ATOM     10  C   UNL     1      26.550  -4.754 -16.071  1.00  0.00     0.041 C 
ATOM     11  O   UNL     1      26.090  -5.414 -17.041  1.00  0.00    -0.550 OA
ATOM     12  O   UNL     1      27.920  -4.721 -15.850  1.00  0.00    -0.550 OA
ENDBRANCH   9  10
ENDBRANCH   8   9
ENDBRANCH   7   8
ENDBRANCH   6   7
ENDBRANCH   5   6
ENDBRANCH   4   5
ENDBRANCH   3   4
ENDBRANCH   1   3
BRANCH   2  13
ATOM     13  C   UNL     1      24.348   0.059 -14.703  1.00  0.00     0.027 C 
BRANCH  13  14
ATOM     14  C   UNL     1      25.121   0.756 -13.572  1.00  0.00     0.004 C 
BRANCH  14  15
ATOM     15  C   UNL     1      24.258   0.975 -12.319  1.00  0.00     0.000 C 
BRANCH  15  16
ATOM     16  C   UNL     1      25.069   0.864 -11.017  1.00  0.00     0.000 C 
BRANCH  16  17
ATOM     17  C   UNL     1      25.085  -0.564 -10.449  1.00  0.00    -0.000 C 
BRANCH  17  18
ATOM     18  C   UNL     1      23.879  -1.402 -10.904  1.00  0.00    -0.000 C 
BRANCH  18  19
ATOM     19  C   UNL     1      24.267  -2.464 -11.947  1.00  0.00    -0.003 C 
ATOM     20  C   UNL     1      23.743  -3.856 -11.595  1.00  0.00     0.004 C 
ENDBRANCH  18  19
ENDBRANCH  17  18
ENDBRANCH  16  17
ENDBRANCH  15  16
ENDBRANCH  14  15
ENDBRANCH  13  14
ENDBRANCH   2  13
TORSDOF 15
ENDMDL
MODEL 2
REMARK VINA RESULT:    -4.301     11.258     14.850
REMARK INTER + INTRA:         -10.407
REMARK INTER:                  -8.925
REMARK INTRA:                  -1.482
REMARK UNBOUND:                -2.334
REMARK SMILES CCCCCCCCC=CCCCCCCCC(=O)[O-]
REMARK SMILES IDX 10 1 9 2 11 3 12 4 13 5 14 6 15 7 16 8 17 9 18 10 19 11
REMARK SMILES IDX 20 12 8 13 7 14 6 15 5 16 4 17 3 18 2 19 1 20
REMARK H PARENT
REMARK Flexibility Score: inf
ROOT
ATOM      1  C   UNL     1      30.228  -5.681   1.269  1.00  0.00    -0.031 C 
ATOM      2  C   UNL     1      30.347  -4.351   1.096  1.00  0.00    -0.031 C 
ENDROOT
BRANCH   1   3
ATOM      3  C   UNL     1      28.993  -6.381   1.790  1.00  0.00     0.027 C 
BRANCH   3   4
ATOM      4  C   UNL     1      28.303  -7.209   0.694  1.00  0.00     0.004 C 
BRANCH   4   5
ATOM      5  C   UNL     1      27.712  -6.356  -0.445  1.00  0.00     0.000 C 
BRANCH   5   6
ATOM      6  C   UNL     1      28.225  -6.749  -1.846  1.00  0.00     0.000 C 
BRANCH   6   7
ATOM      7  C   UNL     1      29.312  -5.811  -2.406  1.00  0.00     0.000 C 
BRANCH   7   8
ATOM      8  C   UNL     1      29.624  -6.032  -3.899  1.00  0.00     0.006 C 
BRANCH   8   9
ATOM      9  C   UNL     1      29.862  -4.715  -4.649  1.00  0.00     0.053 C 
BRANCH   9  10
ATOM     10  C   UNL     1      29.625  -4.898  -6.114  1.00  0.00     0.041 C 
ATOM     11  O   UNL     1      30.499  -5.450  -6.834  1.00  0.00    -0.550 OA
ATOM     12  O   UNL     1      28.420  -4.501  -6.679  1.00  0.00    -0.550 OA
ENDBRANCH   9  10
ENDBRANCH   8   9
ENDBRANCH   7   8
ENDBRANCH   6   7
ENDBRANCH   5   6
ENDBRANCH   4   5
ENDBRANCH   3   4
ENDBRANCH   1   3
BRANCH   2  13
ATOM     13  C   UNL     1      29.270  -3.346   1.413  1.00  0.00     0.027 C 
BRANCH  13  14
ATOM     14  C   UNL     1      29.808  -1.907   1.347  1.00  0.00     0.004 C 
BRANCH  14  15
ATOM     15  C   UNL     1      31.242  -1.842   0.800  1.00  0.00     0.000 C 
BRANCH  15  16
ATOM     16  C   UNL     1      31.395  -0.814  -0.335  1.00  0.00     0.000 C 
BRANCH  16  17
ATOM     17  C   UNL     1      30.364  -1.011  -1.457  1.00  0.00    -0.000 C 
BRANCH  17  18
ATOM     18  C   UNL     1      31.007  -1.080  -2.853  1.00  0.00    -0.000 C 
BRANCH  18  19
ATOM     19  C   UNL     1      30.896   0.253  -3.612  1.00  0.00    -0.003 C 
ATOM     20  C   UNL     1      32.183   1.074  -3.553  1.00  0.00     0.004 C 
ENDBRANCH  18  19
ENDBRANCH  17  18
ENDBRANCH  16  17
ENDBRANCH  15  16
ENDBRANCH  14  15
ENDBRANCH  13  14
ENDBRANCH   2  13
TORSDOF 15
ENDMDL
MODEL 3
REMARK VINA RESULT:    -4.296      1.365      2.743
REMARK INTER + INTRA:         -10.397
REMARK INTER:                  -8.162
REMARK INTRA:                  -2.235
REMARK UNBOUND:                -2.334
REMARK SMILES CCCCCCCCC=CCCCCCCCC(=O)[O-]
REMARK SMILES IDX 10 1 9 2 11 3 12 4 13 5 14 6 15 7 16 8 17 9 18 10 19 11
REMARK SMILES IDX 20 12 8 13 7 14 6 15 5 16 4 17 3 18 2 19 1 20
REMARK H PARENT
REMARK Flexibility Score: inf
ROOT
ATOM      1  C   UNL     1      20.777  -1.209 -17.695  1.00  0.00    -0.031 C 
ATOM      2  C   UNL     1      21.623  -0.225 -18.056  1.00  0.00    -0.031 C 
ENDROOT
BRANCH   1   3
ATOM      3  C   UNL     1      20.573  -1.702 -16.280  1.00  0.00     0.027 C 
BRANCH   3   4
ATOM      4  C   UNL     1      21.075  -3.144 -16.103  1.00  0.00     0.004 C 
BRANCH   4   5
ATOM      5  C   UNL     1      22.609  -3.275 -16.145  1.00  0.00     0.000 C 
BRANCH   5   6
ATOM      6  C   UNL     1      23.199  -4.057 -14.953  1.00  0.00     0.000 C 
BRANCH   6   7
ATOM      7  C   UNL     1      24.680  -3.742 -14.663  1.00  0.00     0.000 C 
BRANCH   7   8
ATOM      8  C   UNL     1      25.536  -3.533 -15.927  1.00  0.00     0.006 C 
BRANCH   8   9
ATOM      9  C   UNL     1      26.011  -4.857 -16.539  1.00  0.00     0.053 C 
BRANCH   9  10
ATOM     10  C   UNL     1      27.454  -5.090 -16.223  1.00  0.00     0.041 C 
ATOM     11  O   UNL     1      28.329  -4.969 -17.121  1.00  0.00    -0.550 OA
ATOM     12  O   UNL     1      27.840  -5.398 -14.924  1.00  0.00    -0.550 OA
ENDBRANCH   9  10
ENDBRANCH   8   9
ENDBRANCH   7   8
ENDBRANCH   6   7
ENDBRANCH   5   6
ENDBRANCH   4   5
ENDBRANCH   3   4
ENDBRANCH   1   3
BRANCH   2  13
ATOM     13  C   UNL     1      22.517   0.528 -17.104  1.00  0.00     0.027 C 
BRANCH  13  14
ATOM     14  C   UNL     1      23.918  -0.102 -17.033  1.00  0.00     0.004 C 
BRANCH  14  15
ATOM     15  C   UNL     1      24.523  -0.030 -15.622  1.00  0.00     0.000 C 
BRANCH  15  16
ATOM     16  C   UNL     1      23.457  -0.131 -14.517  1.00  0.00     0.000 C 
BRANCH  16  17
ATOM     17  C   UNL     1      24.068  -0.329 -13.121  1.00  0.00    -0.000 C 
BRANCH  17  18
ATOM     18  C   UNL     1      24.567   0.985 -12.497  1.00  0.00    -0.000 C 
BRANCH  18  19
ATOM     19  C   UNL     1      24.861   0.842 -10.994  1.00  0.00    -0.003 C 
ATOM     20  C   UNL     1      24.878  -0.614 -10.531  1.00  0.00     0.004 C 
ENDBRANCH  18  19
ENDBRANCH  17  18
ENDBRANCH  16  17
ENDBRANCH  15  16
ENDBRANCH  14  15
ENDBRANCH  13  14
ENDBRANCH   2  13
TORSDOF 15
ENDMDL
MODEL 4
REMARK VINA RESULT:    -4.230      2.899      5.585
REMARK INTER + INTRA:         -10.274
REMARK INTER:                  -7.572
REMARK INTRA:                  -2.703
REMARK UNBOUND:                -2.334
REMARK SMILES CCCCCCCCC=CCCCCCCCC(=O)[O-]
REMARK SMILES IDX 10 1 9 2 11 3 12 4 13 5 14 6 15 7 16 8 17 9 18 10 19 11
REMARK SMILES IDX 20 12 8 13 7 14 6 15 5 16 4 17 3 18 2 19 1 20
REMARK H PARENT
REMARK Flexibility Score: inf
ROOT
ATOM      1  C   UNL     1      22.052  -1.745 -15.847  1.00  0.00    -0.031 C 
ATOM      2  C   UNL     1      22.782  -0.729 -16.345  1.00  0.00    -0.031 C 
ENDROOT
BRANCH   1   3
ATOM      3  C   UNL     1      22.126  -3.180 -16.317  1.00  0.00     0.027 C 
BRANCH   3   4
ATOM      4  C   UNL     1      22.517  -4.133 -15.176  1.00  0.00     0.004 C 
BRANCH   4   5
ATOM      5  C   UNL     1      23.914  -3.855 -14.589  1.00  0.00     0.000 C 
BRANCH   5   6
ATOM      6  C   UNL     1      23.952  -3.860 -13.046  1.00  0.00     0.000 C 
BRANCH   6   7
ATOM      7  C   UNL     1      24.175  -2.471 -12.417  1.00  0.00     0.000 C 
BRANCH   7   8
ATOM      8  C   UNL     1      24.956  -1.493 -13.317  1.00  0.00     0.006 C 
BRANCH   8   9
ATOM      9  C   UNL     1      24.521  -0.035 -13.113  1.00  0.00     0.053 C 
BRANCH   9  10
ATOM     10  C   UNL     1      24.883   0.430 -11.739  1.00  0.00     0.041 C 
ATOM     11  O   UNL     1      24.210   1.336 -11.178  1.00  0.00    -0.550 OA
ATOM     12  O   UNL     1      25.934  -0.168 -11.056  1.00  0.00    -0.550 OA
ENDBRANCH   9  10
ENDBRANCH   8   9
ENDBRANCH   7   8
ENDBRANCH   6   7
ENDBRANCH   5   6
ENDBRANCH   4   5
ENDBRANCH   3   4
ENDBRANCH   1   3
BRANCH   2  13
ATOM     13  C   UNL     1      23.779  -0.861 -17.469  1.00  0.00     0.027 C 
BRANCH  13  14
ATOM     14  C   UNL     1      25.216  -0.631 -16.973  1.00  0.00     0.004 C 
BRANCH  14  15
ATOM     15  C   UNL     1      26.109  -1.866 -17.168  1.00  0.00     0.000 C 
BRANCH  15  16
ATOM     16  C   UNL     1      25.401  -2.989 -17.945  1.00  0.00     0.000 C 
BRANCH  16  17
ATOM     17  C   UNL     1      25.971  -4.381 -17.626  1.00  0.00    -0.000 C 
BRANCH  17  18
ATOM     18  C   UNL     1      27.448  -4.528 -18.029  1.00  0.00    -0.000 C 
BRANCH  18  19
ATOM     19  C   UNL     1      28.365  -4.745 -16.814  1.00  0.00    -0.003 C 
ATOM     20  C   UNL     1      27.588  -5.039 -15.532  1.00  0.00     0.004 C 
ENDBRANCH  18  19
ENDBRANCH  17  18
ENDBRANCH  16  17
ENDBRANCH  15  16
ENDBRANCH  14  15
ENDBRANCH  13  14
ENDBRANCH   2  13
TORSDOF 15
ENDMDL
MODEL 5
REMARK VINA RESULT:    -4.221      1.240      4.465
REMARK INTER + INTRA:         -10.256
REMARK INTER:                  -8.229
REMARK INTRA:                  -2.027
REMARK UNBOUND:                -2.334
REMARK SMILES CCCCCCCCC=CCCCCCCCC(=O)[O-]
REMARK SMILES IDX 10 1 9 2 11 3 12 4 13 5 14 6 15 7 16 8 17 9 18 10 19 11
REMARK SMILES IDX 20 12 8 13 7 14 6 15 5 16 4 17 3 18 2 19 1 20
REMARK H PARENT
REMARK Flexibility Score: inf
ROOT
ATOM      1  C   UNL     1      24.646  -1.167 -10.617  1.00  0.00    -0.031 C 
ATOM      2  C   UNL     1      25.023   0.082 -10.951  1.00  0.00    -0.031 C 
ENDROOT
BRANCH   1   3
ATOM      3  C   UNL     1      23.499  -1.924 -11.245  1.00  0.00     0.027 C 
BRANCH   3   4
ATOM      4  C   UNL     1      23.724  -3.443 -11.197  1.00  0.00     0.004 C 
BRANCH   4   5
ATOM      5  C   UNL     1      23.776  -4.105 -12.587  1.00  0.00     0.000 C 
BRANCH   5   6
ATOM      6  C   UNL     1      24.342  -3.188 -13.692  1.00  0.00     0.000 C 
BRANCH   6   7
ATOM      7  C   UNL     1      24.413  -3.846 -15.083  1.00  0.00     0.000 C 
BRANCH   7   8
ATOM      8  C   UNL     1      25.713  -3.545 -15.855  1.00  0.00     0.006 C 
BRANCH   8   9
ATOM      9  C   UNL     1      26.272  -4.784 -16.566  1.00  0.00     0.053 C 
BRANCH   9  10
ATOM     10  C   UNL     1      27.666  -5.067 -16.103  1.00  0.00     0.041 C 
ATOM     11  O   UNL     1      28.646  -4.830 -16.858  1.00  0.00    -0.550 OA
ATOM     12  O   UNL     1      27.887  -5.551 -14.820  1.00  0.00    -0.550 OA
ENDBRANCH   9  10
ENDBRANCH   8   9
ENDBRANCH   7   8
ENDBRANCH   6   7
ENDBRANCH   5   6
ENDBRANCH   4   5
ENDBRANCH   3   4
ENDBRANCH   1   3
BRANCH   2  13
ATOM     13  C   UNL     1      24.345   0.932 -11.995  1.00  0.00     0.027 C 
BRANCH  13  14
ATOM     14  C   UNL     1      24.910   0.656 -13.397  1.00  0.00     0.004 C 
BRANCH  14  15
ATOM     15  C   UNL     1      23.838   0.144 -14.372  1.00  0.00     0.000 C 
BRANCH  15  16
ATOM     16  C   UNL     1      24.384  -0.058 -15.796  1.00  0.00     0.000 C 
BRANCH  16  17
ATOM     17  C   UNL     1      23.323  -0.602 -16.766  1.00  0.00    -0.000 C 
BRANCH  17  18
ATOM     18  C   UNL     1      22.089  -1.169 -16.044  1.00  0.00    -0.000 C 
BRANCH  18  19
ATOM     19  C   UNL     1      20.784  -0.501 -16.509  1.00  0.00    -0.003 C 
ATOM     20  C   UNL     1      20.991   0.938 -16.977  1.00  0.00     0.004 C 
ENDBRANCH  18  19
ENDBRANCH  17  18
ENDBRANCH  16  17
ENDBRANCH  15  16
ENDBRANCH  14  15
ENDBRANCH  13  14
ENDBRANCH   2  13
TORSDOF 15
ENDMDL
MODEL 6
REMARK VINA RESULT:    -4.181      1.279      3.498
REMARK INTER + INTRA:         -10.182
REMARK INTER:                  -7.620
REMARK INTRA:                  -2.562
REMARK UNBOUND:                -2.334
REMARK SMILES CCCCCCCCC=CCCCCCCCC(=O)[O-]
REMARK SMILES IDX 10 1 9 2 11 3 12 4 13 5 14 6 15 7 16 8 17 9 18 10 19 11
REMARK SMILES IDX 20 12 8 13 7 14 6 15 5 16 4 17 3 18 2 19 1 20
REMARK H PARENT
REMARK Flexibility Score: inf
ROOT
ATOM      1  C   UNL     1      21.178  -3.334 -15.865  1.00  0.00    -0.031 C 
ATOM      2  C   UNL     1      21.185  -2.387 -16.822  1.00  0.00    -0.031 C 
ENDROOT
BRANCH   1   3
ATOM      3  C   UNL     1      22.371  -4.170 -15.463  1.00  0.00     0.027 C 
BRANCH   3   4
ATOM      4  C   UNL     1      23.237  -3.459 -14.411  1.00  0.00     0.004 C 
BRANCH   4   5
ATOM      5  C   UNL     1      24.729  -3.836 -14.480  1.00  0.00     0.000 C 
BRANCH   5   6
ATOM      6  C   UNL     1      25.599  -2.799 -15.222  1.00  0.00     0.000 C 
BRANCH   6   7
ATOM      7  C   UNL     1      25.960  -3.198 -16.666  1.00  0.00     0.000 C 
BRANCH   7   8
ATOM      8  C   UNL     1      25.544  -4.634 -17.044  1.00  0.00     0.006 C 
BRANCH   8   9
ATOM      9  C   UNL     1      26.749  -5.522 -17.383  1.00  0.00     0.053 C 
BRANCH   9  10
ATOM     10  C   UNL     1      27.884  -5.239 -16.452  1.00  0.00     0.041 C 
ATOM     11  O   UNL     1      27.825  -5.607 -15.249  1.00  0.00    -0.550 OA
ATOM     12  O   UNL     1      29.030  -4.611 -16.923  1.00  0.00    -0.550 OA
ENDBRANCH   9  10
ENDBRANCH   8   9
ENDBRANCH   7   8
ENDBRANCH   6   7
ENDBRANCH   5   6
ENDBRANCH   4   5
ENDBRANCH   3   4
ENDBRANCH   1   3
BRANCH   2  13
ATOM     13  C   UNL     1      22.384  -2.023 -17.660  1.00  0.00     0.027 C 
BRANCH  13  14
ATOM     14  C   UNL     1      23.190  -0.881 -17.020  1.00  0.00     0.004 C 
BRANCH  14  15
ATOM     15  C   UNL     1      22.302   0.091 -16.227  1.00  0.00     0.000 C 
BRANCH  15  16
ATOM     16  C   UNL     1      22.583   0.048 -14.715  1.00  0.00     0.000 C 
BRANCH  16  17
ATOM     17  C   UNL     1      24.074   0.218 -14.384  1.00  0.00    -0.000 C 
BRANCH  17  18
ATOM     18  C   UNL     1      24.310   0.800 -12.979  1.00  0.00    -0.000 C 
BRANCH  18  19
ATOM     19  C   UNL     1      25.142  -0.141 -12.091  1.00  0.00    -0.003 C 
ATOM     20  C   UNL     1      24.348  -1.357 -11.614  1.00  0.00     0.004 C 
ENDBRANCH  18  19
ENDBRANCH  17  18
ENDBRANCH  16  17
ENDBRANCH  15  16
ENDBRANCH  14  15
ENDBRANCH  13  14
ENDBRANCH   2  13
TORSDOF 15
ENDMDL
MODEL 7
REMARK VINA RESULT:    -4.089      1.506      4.492
REMARK INTER + INTRA:         -10.009
REMARK INTER:                  -7.392
REMARK INTRA:                  -2.617
REMARK UNBOUND:                -2.334
REMARK SMILES CCCCCCCCC=CCCCCCCCC(=O)[O-]
REMARK SMILES IDX 10 1 9 2 11 3 12 4 13 5 14 6 15 7 16 8 17 9 18 10 19 11
REMARK SMILES IDX 20 12 8 13 7 14 6 15 5 16 4 17 3 18 2 19 1 20
REMARK H PARENT
REMARK Flexibility Score: inf
ROOT
ATOM      1  C   UNL     1      25.109  -1.484 -12.982  1.00  0.00    -0.031 C 
ATOM      2  C   UNL     1      24.761  -0.294 -13.510  1.00  0.00    -0.031 C 
ENDROOT
BRANCH   1   3
ATOM      3  C   UNL     1      24.146  -2.485 -12.388  1.00  0.00     0.027 C 
BRANCH   3   4
ATOM      4  C   UNL     1      24.137  -3.804 -13.177  1.00  0.00     0.004 C 
BRANCH   4   5
ATOM      5  C   UNL     1      23.187  -3.794 -14.389  1.00  0.00     0.000 C 
BRANCH   5   6
ATOM      6  C   UNL     1      23.863  -4.212 -15.712  1.00  0.00     0.000 C 
BRANCH   6   7
ATOM      7  C   UNL     1      25.112  -3.385 -16.071  1.00  0.00     0.000 C 
BRANCH   7   8
ATOM      8  C   UNL     1      25.840  -3.865 -17.342  1.00  0.00     0.006 C 
BRANCH   8   9
ATOM      9  C   UNL     1      26.503  -5.236 -17.155  1.00  0.00     0.053 C 
BRANCH   9  10
ATOM     10  C   UNL     1      27.766  -5.101 -16.366  1.00  0.00     0.041 C 
ATOM     11  O   UNL     1      27.807  -5.479 -15.165  1.00  0.00    -0.550 OA
ATOM     12  O   UNL     1      28.913  -4.600 -16.969  1.00  0.00    -0.550 OA
ENDBRANCH   9  10
ENDBRANCH   8   9
ENDBRANCH   7   8
ENDBRANCH   6   7
ENDBRANCH   5   6
ENDBRANCH   4   5
ENDBRANCH   3   4
ENDBRANCH   1   3
BRANCH   2  13
ATOM     13  C   UNL     1      23.351   0.235 -13.574  1.00  0.00     0.027 C 
BRANCH  13  14
ATOM     14  C   UNL     1      22.656  -0.178 -14.882  1.00  0.00     0.004 C 
BRANCH  14  15
ATOM     15  C   UNL     1      23.574  -0.031 -16.106  1.00  0.00     0.000 C 
BRANCH  15  16
ATOM     16  C   UNL     1      22.964  -0.647 -17.377  1.00  0.00     0.000 C 
BRANCH  16  17
ATOM     17  C   UNL     1      21.486  -1.029 -17.202  1.00  0.00    -0.000 C 
BRANCH  17  18
ATOM     18  C   UNL     1      21.221  -2.522 -17.457  1.00  0.00    -0.000 C 
BRANCH  18  19
ATOM     19  C   UNL     1      20.064  -3.063 -16.600  1.00  0.00    -0.003 C 
ATOM     20  C   UNL     1      18.864  -2.118 -16.564  1.00  0.00     0.004 C 
ENDBRANCH  18  19
ENDBRANCH  17  18
ENDBRANCH  16  17
ENDBRANCH  15  16
ENDBRANCH  14  15
ENDBRANCH  13  14
ENDBRANCH   2  13
TORSDOF 15
ENDMDL
MODEL 8
REMARK VINA RESULT:    -4.086      2.840      5.512
REMARK INTER + INTRA:         -10.003
REMARK INTER:                  -7.579
REMARK INTRA:                  -2.423
REMARK UNBOUND:                -2.334
REMARK SMILES CCCCCCCCC=CCCCCCCCC(=O)[O-]
REMARK SMILES IDX 10 1 9 2 11 3 12 4 13 5 14 6 15 7 16 8 17 9 18 10 19 11
REMARK SMILES IDX 20 12 8 13 7 14 6 15 5 16 4 17 3 18 2 19 1 20
REMARK H PARENT
REMARK Flexibility Score: inf
ROOT
ATOM      1  C   UNL     1      25.460  -2.315 -18.102  1.00  0.00    -0.031 C 
ATOM      2  C   UNL     1      25.625  -3.562 -17.621  1.00  0.00    -0.031 C 
ENDROOT
BRANCH   1   3
ATOM      3  C   UNL     1      26.374  -1.146 -17.816  1.00  0.00     0.027 C 
BRANCH   3   4
ATOM      4  C   UNL     1      25.628   0.002 -17.119  1.00  0.00     0.004 C 
BRANCH   4   5
ATOM      5  C   UNL     1      24.099  -0.188 -17.078  1.00  0.00     0.000 C 
BRANCH   5   6
ATOM      6  C   UNL     1      23.483   0.031 -15.680  1.00  0.00     0.000 C 
BRANCH   6   7
ATOM      7  C   UNL     1      24.509   0.388 -14.588  1.00  0.00     0.000 C 
BRANCH   7   8
ATOM      8  C   UNL     1      24.059   0.019 -13.160  1.00  0.00     0.006 C 
BRANCH   8   9
ATOM      9  C   UNL     1      25.064   0.476 -12.094  1.00  0.00     0.053 C 
BRANCH   9  10
ATOM     10  C   UNL     1      24.990  -0.412 -10.893  1.00  0.00     0.041 C 
ATOM     11  O   UNL     1      25.738  -0.203  -9.901  1.00  0.00    -0.550 OA
ATOM     12  O   UNL     1      24.062  -1.445 -10.848  1.00  0.00    -0.550 OA
ENDBRANCH   9  10
ENDBRANCH   8   9
ENDBRANCH   7   8
ENDBRANCH   6   7
ENDBRANCH   5   6
ENDBRANCH   4   5
ENDBRANCH   3   4
ENDBRANCH   1   3
BRANCH   2  13
ATOM     13  C   UNL     1      26.743  -3.985 -16.702  1.00  0.00     0.027 C 
BRANCH  13  14
ATOM     14  C   UNL     1      26.247  -4.154 -15.256  1.00  0.00     0.004 C 
BRANCH  14  15
ATOM     15  C   UNL     1      25.136  -3.156 -14.896  1.00  0.00     0.000 C 
BRANCH  15  16
ATOM     16  C   UNL     1      24.065  -3.770 -13.978  1.00  0.00     0.000 C 
BRANCH  16  17
ATOM     17  C   UNL     1      22.834  -4.266 -14.751  1.00  0.00    -0.000 C 
BRANCH  17  18
ATOM     18  C   UNL     1      22.438  -3.331 -15.907  1.00  0.00    -0.000 C 
BRANCH  18  19
ATOM     19  C   UNL     1      20.914  -3.248 -16.095  1.00  0.00    -0.003 C 
ATOM     20  C   UNL     1      20.405  -1.809 -16.161  1.00  0.00     0.004 C 
ENDBRANCH  18  19
ENDBRANCH  17  18
ENDBRANCH  16  17
ENDBRANCH  15  16
ENDBRANCH  14  15
ENDBRANCH  13  14
ENDBRANCH   2  13
TORSDOF 15
ENDMDL
MODEL 9
REMARK VINA RESULT:    -4.086      2.485      5.516
REMARK INTER + INTRA:         -10.003
REMARK INTER:                  -7.555
REMARK INTRA:                  -2.448
REMARK UNBOUND:                -2.334
REMARK SMILES CCCCCCCCC=CCCCCCCCC(=O)[O-]
REMARK SMILES IDX 10 1 9 2 11 3 12 4 13 5 14 6 15 7 16 8 17 9 18 10 19 11
REMARK SMILES IDX 20 12 8 13 7 14 6 15 5 16 4 17 3 18 2 19 1 20
REMARK H PARENT
REMARK Flexibility Score: inf
ROOT
ATOM      1  C   UNL     1      21.330  -3.342 -15.894  1.00  0.00    -0.031 C 
ATOM      2  C   UNL     1      22.325  -4.012 -15.281  1.00  0.00    -0.031 C 
ENDROOT
BRANCH   1   3
ATOM      3  C   UNL     1      21.447  -2.648 -17.232  1.00  0.00     0.027 C 
BRANCH   3   4
ATOM      4  C   UNL     1      21.879  -1.181 -17.076  1.00  0.00     0.004 C 
BRANCH   4   5
ATOM      5  C   UNL     1      21.164  -0.444 -15.926  1.00  0.00     0.000 C 
BRANCH   5   6
ATOM      6  C   UNL     1      22.126   0.148 -14.875  1.00  0.00     0.000 C 
BRANCH   6   7
ATOM      7  C   UNL     1      23.593  -0.294 -15.042  1.00  0.00     0.000 C 
BRANCH   7   8
ATOM      8  C   UNL     1      24.543   0.266 -13.966  1.00  0.00     0.006 C 
BRANCH   8   9
ATOM      9  C   UNL     1      23.894   0.309 -12.576  1.00  0.00     0.053 C 
BRANCH   9  10
ATOM     10  C   UNL     1      24.622  -0.593 -11.632  1.00  0.00     0.041 C 
ATOM     11  O   UNL     1      25.518  -0.131 -10.876  1.00  0.00    -0.550 OA
ATOM     12  O   UNL     1      24.280  -1.937 -11.551  1.00  0.00    -0.550 OA
ENDBRANCH   9  10
ENDBRANCH   8   9
ENDBRANCH   7   8
ENDBRANCH   6   7
ENDBRANCH   5   6
ENDBRANCH   4   5
ENDBRANCH   3   4
ENDBRANCH   1   3
BRANCH   2  13
ATOM     13  C   UNL     1      23.723  -4.159 -15.827  1.00  0.00     0.027 C 
BRANCH  13  14
ATOM     14  C   UNL     1      24.778  -3.773 -14.778  1.00  0.00     0.004 C 
BRANCH  14  15
ATOM     15  C   UNL     1      25.993  -3.067 -15.401  1.00  0.00     0.000 C 
BRANCH  15  16
ATOM     16  C   UNL     1      25.679  -2.453 -16.776  1.00  0.00     0.000 C 
BRANCH  16  17
ATOM     17  C   UNL     1      26.502  -3.086 -17.910  1.00  0.00    -0.000 C 
BRANCH  17  18
ATOM     18  C   UNL     1      27.722  -3.869 -17.397  1.00  0.00    -0.000 C 
BRANCH  18  19
ATOM     19  C   UNL     1      27.664  -5.357 -17.783  1.00  0.00    -0.003 C 
ATOM     20  C   UNL     1      26.233  -5.872 -17.935  1.00  0.00     0.004 C 
ENDBRANCH  18  19
ENDBRANCH  17  18
ENDBRANCH  16  17
ENDBRANCH  15  16
ENDBRANCH  14  15
ENDBRANCH  13  14
ENDBRANCH   2  13
TORSDOF 15
ENDMDL
