MODEL 1
REMARK VINA RESULT:    -7.126      0.000      0.000
REMARK INTER + INTRA:          -8.086
REMARK INTER:                  -8.375
REMARK INTRA:                   0.289
REMARK UNBOUND:                 0.289
REMARK SMILES O=c1c(O)c(-c2ccc(O)cc2)oc2cc(O)cc(O)c12
REMARK SMILES IDX 5 1 3 2 2 3 1 4 21 5 19 6 18 7 16 8 15 9 14 10 13 11 6 12
REMARK SMILES IDX 7 13 8 14 9 15 12 16 11 17 10 18 4 20 20 22 17 24
REMARK H PARENT 10 19 4 21 20 23 17 25
REMARK Flexibility Score: inf
ROOT
ATOM      1  C   UNL     1     -22.926  84.979 -23.223  1.00  0.00     0.180 A 
ATOM      2  C   UNL     1     -23.715  84.333 -24.190  1.00  0.00     0.208 A 
ATOM      3  C   UNL     1     -24.158  85.063 -25.305  1.00  0.00     0.238 A 
ATOM      4  O   UNL     1     -24.819  84.465 -26.196  1.00  0.00    -0.285 OA
ATOM      5  C   UNL     1     -23.820  86.431 -25.431  1.00  0.00     0.111 A 
ATOM      6  C   UNL     1     -24.248  87.277 -26.499  1.00  0.00     0.134 A 
ATOM      7  C   UNL     1     -23.745  88.581 -26.591  1.00  0.00     0.093 A 
ATOM      8  C   UNL     1     -22.883  89.091 -25.617  1.00  0.00     0.123 A 
ATOM      9  C   UNL     1     -22.507  88.292 -24.539  1.00  0.00     0.094 A 
ATOM     10  C   UNL     1     -22.962  86.976 -24.440  1.00  0.00     0.146 A 
ATOM     11  O   UNL     1     -22.571  86.245 -23.403  1.00  0.00    -0.452 OA
ENDROOT
BRANCH   1  12
ATOM     12  C   UNL     1     -22.443  84.284 -22.007  1.00  0.00     0.021 A 
ATOM     13  C   UNL     1     -22.143  82.910 -22.020  1.00  0.00     0.016 A 
ATOM     14  C   UNL     1     -21.712  82.269 -20.854  1.00  0.00     0.047 A 
ATOM     15  C   UNL     1     -21.588  82.991 -19.660  1.00  0.00     0.115 A 
ATOM     16  C   UNL     1     -22.336  84.995 -20.801  1.00  0.00     0.016 A 
ATOM     17  C   UNL     1     -21.903  84.352 -19.637  1.00  0.00     0.047 A 
BRANCH  15  18
ATOM     18  O   UNL     1     -21.158  82.364 -18.492  1.00  0.00    -0.508 OA
ATOM     19  H   UNL     1     -20.236  81.949 -18.422  1.00  0.00     0.293 HD
ENDBRANCH  15  18
ENDBRANCH   1  12
BRANCH   2  20
ATOM     20  O   UNL     1     -24.019  82.976 -24.057  1.00  0.00    -0.502 OA
ATOM     21  H   UNL     1     -24.681  82.505 -24.663  1.00  0.00     0.293 HD
ENDBRANCH   2  20
BRANCH   6  22
ATOM     22  O   UNL     1     -25.177  86.897 -27.471  1.00  0.00    -0.507 OA
ATOM     23  H   UNL     1     -25.376  85.943 -27.733  1.00  0.00     0.293 HD
ENDBRANCH   6  22
BRANCH   8  24
ATOM     24  O   UNL     1     -22.400  90.395 -25.708  1.00  0.00    -0.508 OA
ATOM     25  H   UNL     1     -21.685  90.741 -25.079  1.00  0.00     0.293 HD
ENDBRANCH   8  24
TORSDOF 5
ENDMDL
MODEL 2
REMARK VINA RESULT:    -7.121      1.302      2.916
REMARK INTER + INTRA:          -8.081
REMARK INTER:                  -8.045
REMARK INTRA:                  -0.035
REMARK UNBOUND:                 0.289
REMARK SMILES O=c1c(O)c(-c2ccc(O)cc2)oc2cc(O)cc(O)c12
REMARK SMILES IDX 5 1 3 2 2 3 1 4 21 5 19 6 18 7 16 8 15 9 14 10 13 11 6 12
REMARK SMILES IDX 7 13 8 14 9 15 12 16 11 17 10 18 4 20 20 22 17 24
REMARK H PARENT 10 19 4 21 20 23 17 25
REMARK Flexibility Score: inf
ROOT
ATOM      1  C   UNL     1     -22.521  85.326 -23.036  1.00  0.00     0.180 A 
ATOM      2  C   UNL     1     -21.862  86.525 -23.358  1.00  0.00     0.208 A 
ATOM      3  C   UNL     1     -22.259  87.234 -24.504  1.00  0.00     0.238 A 
ATOM      4  O   UNL     1     -21.703  88.335 -24.757  1.00  0.00    -0.285 OA
ATOM      5  C   UNL     1     -23.297  86.726 -25.321  1.00  0.00     0.111 A 
ATOM      6  C   UNL     1     -23.753  87.339 -26.528  1.00  0.00     0.134 A 
ATOM      7  C   UNL     1     -24.874  86.819 -27.185  1.00  0.00     0.093 A 
ATOM      8  C   UNL     1     -25.515  85.669 -26.718  1.00  0.00     0.123 A 
ATOM      9  C   UNL     1     -25.040  85.029 -25.576  1.00  0.00     0.094 A 
ATOM     10  C   UNL     1     -23.947  85.545 -24.877  1.00  0.00     0.146 A 
ATOM     11  O   UNL     1     -23.534  84.911 -23.786  1.00  0.00    -0.452 OA
ENDROOT
BRANCH   1  12
ATOM     12  C   UNL     1     -22.142  84.511 -21.859  1.00  0.00     0.021 A 
ATOM     13  C   UNL     1     -21.775  83.160 -21.991  1.00  0.00     0.016 A 
ATOM     14  C   UNL     1     -21.445  82.403 -20.862  1.00  0.00     0.047 A 
ATOM     15  C   UNL     1     -21.491  82.984 -19.588  1.00  0.00     0.115 A 
ATOM     16  C   UNL     1     -22.205  85.079 -20.575  1.00  0.00     0.016 A 
ATOM     17  C   UNL     1     -21.874  84.321 -19.449  1.00  0.00     0.047 A 
BRANCH  15  18
ATOM     18  O   UNL     1     -21.163  82.240 -18.456  1.00  0.00    -0.508 OA
ATOM     19  H   UNL     1     -21.659  82.361 -17.581  1.00  0.00     0.293 HD
ENDBRANCH  15  18
ENDBRANCH   1  12
BRANCH   2  20
ATOM     20  O   UNL     1     -20.855  87.020 -22.525  1.00  0.00    -0.502 OA
ATOM     21  H   UNL     1     -20.148  86.423 -22.113  1.00  0.00     0.293 HD
ENDBRANCH   2  20
BRANCH   6  22
ATOM     22  O   UNL     1     -23.128  88.435 -27.130  1.00  0.00    -0.507 OA
ATOM     23  H   UNL     1     -23.584  89.087 -27.750  1.00  0.00     0.293 HD
ENDBRANCH   6  22
BRANCH   8  24
ATOM     24  O   UNL     1     -26.620  85.149 -27.389  1.00  0.00    -0.508 OA
ATOM     25  H   UNL     1     -26.573  84.267 -27.883  1.00  0.00     0.293 HD
ENDBRANCH   8  24
TORSDOF 5
ENDMDL
MODEL 3
REMARK VINA RESULT:    -6.979      5.655      9.317
REMARK INTER + INTRA:          -7.914
REMARK INTER:                  -7.625
REMARK INTRA:                  -0.289
REMARK UNBOUND:                 0.289
REMARK SMILES O=c1c(O)c(-c2ccc(O)cc2)oc2cc(O)cc(O)c12
REMARK SMILES IDX 5 1 3 2 2 3 1 4 21 5 19 6 18 7 16 8 15 9 14 10 13 11 6 12
REMARK SMILES IDX 7 13 8 14 9 15 12 16 11 17 10 18 4 20 20 22 17 24
REMARK H PARENT 10 19 4 21 20 23 17 25
REMARK Flexibility Score: inf
ROOT
ATOM      1  C   UNL     1     -24.894  91.980 -28.279  1.00  0.00     0.180 A 
ATOM      2  C   UNL     1     -25.652  92.797 -27.422  1.00  0.00     0.208 A 
ATOM      3  C   UNL     1     -25.704  94.179 -27.669  1.00  0.00     0.238 A 
ATOM      4  O   UNL     1     -26.429  94.898 -26.932  1.00  0.00    -0.285 OA
ATOM      5  C   UNL     1     -24.987  94.727 -28.759  1.00  0.00     0.111 A 
ATOM      6  C   UNL     1     -24.935  96.117 -29.079  1.00  0.00     0.134 A 
ATOM      7  C   UNL     1     -24.301  96.532 -30.256  1.00  0.00     0.093 A 
ATOM      8  C   UNL     1     -23.658  95.614 -31.090  1.00  0.00     0.123 A 
ATOM      9  C   UNL     1     -23.651  94.262 -30.755  1.00  0.00     0.094 A 
ATOM     10  C   UNL     1     -24.307  93.814 -29.607  1.00  0.00     0.146 A 
ATOM     11  O   UNL     1     -24.286  92.515 -29.330  1.00  0.00    -0.452 OA
ENDROOT
BRANCH   1  12
ATOM     12  C   UNL     1     -24.770  90.519 -28.068  1.00  0.00     0.021 A 
ATOM     13  C   UNL     1     -25.669  89.615 -28.660  1.00  0.00     0.016 A 
ATOM     14  C   UNL     1     -25.547  88.241 -28.428  1.00  0.00     0.047 A 
ATOM     15  C   UNL     1     -24.534  87.757 -27.590  1.00  0.00     0.115 A 
ATOM     16  C   UNL     1     -23.770  90.027 -27.213  1.00  0.00     0.016 A 
ATOM     17  C   UNL     1     -23.650  88.653 -26.983  1.00  0.00     0.047 A 
BRANCH  15  18
ATOM     18  O   UNL     1     -24.402  86.391 -27.351  1.00  0.00    -0.508 OA
ATOM     19  H   UNL     1     -23.502  85.974 -27.145  1.00  0.00     0.293 HD
ENDBRANCH  15  18
ENDBRANCH   1  12
BRANCH   2  20
ATOM     20  O   UNL     1     -26.371  92.233 -26.365  1.00  0.00    -0.502 OA
ATOM     21  H   UNL     1     -25.918  91.799 -25.570  1.00  0.00     0.293 HD
ENDBRANCH   2  20
BRANCH   6  22
ATOM     22  O   UNL     1     -25.465  97.125 -28.267  1.00  0.00    -0.507 OA
ATOM     23  H   UNL     1     -24.925  97.697 -27.636  1.00  0.00     0.293 HD
ENDBRANCH   6  22
BRANCH   8  24
ATOM     24  O   UNL     1     -23.015  96.038 -32.251  1.00  0.00    -0.508 OA
ATOM     25  H   UNL     1     -23.347  95.768 -33.169  1.00  0.00     0.293 HD
ENDBRANCH   8  24
TORSDOF 5
ENDMDL
MODEL 4
REMARK VINA RESULT:    -6.902      1.522      3.171
REMARK INTER + INTRA:          -7.823
REMARK INTER:                  -7.566
REMARK INTRA:                  -0.257
REMARK UNBOUND:                 0.289
REMARK SMILES O=c1c(O)c(-c2ccc(O)cc2)oc2cc(O)cc(O)c12
REMARK SMILES IDX 5 1 3 2 2 3 1 4 21 5 19 6 18 7 16 8 15 9 14 10 13 11 6 12
REMARK SMILES IDX 7 13 8 14 9 15 12 16 11 17 10 18 4 20 20 22 17 24
REMARK H PARENT 10 19 4 21 20 23 17 25
REMARK Flexibility Score: inf
ROOT
ATOM      1  C   UNL     1     -22.687  85.432 -23.806  1.00  0.00     0.180 A 
ATOM      2  C   UNL     1     -21.913  86.594 -23.638  1.00  0.00     0.208 A 
ATOM      3  C   UNL     1     -22.220  87.732 -24.402  1.00  0.00     0.238 A 
ATOM      4  O   UNL     1     -21.559  88.786 -24.208  1.00  0.00    -0.285 OA
ATOM      5  C   UNL     1     -23.286  87.689 -25.332  1.00  0.00     0.111 A 
ATOM      6  C   UNL     1     -23.660  88.770 -26.187  1.00  0.00     0.134 A 
ATOM      7  C   UNL     1     -24.812  88.661 -26.974  1.00  0.00     0.093 A 
ATOM      8  C   UNL     1     -25.566  87.485 -26.989  1.00  0.00     0.123 A 
ATOM      9  C   UNL     1     -25.175  86.403 -26.204  1.00  0.00     0.094 A 
ATOM     10  C   UNL     1     -24.052  86.495 -25.380  1.00  0.00     0.146 A 
ATOM     11  O   UNL     1     -23.720  85.445 -24.638  1.00  0.00    -0.452 OA
ENDROOT
BRANCH   1  12
ATOM     12  C   UNL     1     -22.408  84.185 -23.056  1.00  0.00     0.021 A 
ATOM     13  C   UNL     1     -22.830  84.021 -21.725  1.00  0.00     0.016 A 
ATOM     14  C   UNL     1     -22.534  82.845 -21.029  1.00  0.00     0.047 A 
ATOM     15  C   UNL     1     -21.802  81.825 -21.651  1.00  0.00     0.115 A 
ATOM     16  C   UNL     1     -21.657  83.166 -23.665  1.00  0.00     0.016 A 
ATOM     17  C   UNL     1     -21.364  81.991 -22.967  1.00  0.00     0.047 A 
BRANCH  15  18
ATOM     18  O   UNL     1     -21.503  80.648 -20.968  1.00  0.00    -0.508 OA
ATOM     19  H   UNL     1     -21.501  79.749 -21.437  1.00  0.00     0.293 HD
ENDBRANCH  15  18
ENDBRANCH   1  12
BRANCH   2  20
ATOM     20  O   UNL     1     -20.880  86.621 -22.698  1.00  0.00    -0.502 OA
ATOM     21  H   UNL     1     -20.290  87.434 -22.561  1.00  0.00     0.293 HD
ENDBRANCH   2  20
BRANCH   6  22
ATOM     22  O   UNL     1     -22.924  89.952 -26.317  1.00  0.00    -0.507 OA
ATOM     23  H   UNL     1     -23.268  90.798 -26.747  1.00  0.00     0.293 HD
ENDBRANCH   6  22
BRANCH   8  24
ATOM     24  O   UNL     1     -26.703  87.379 -27.789  1.00  0.00    -0.508 OA
ATOM     25  H   UNL     1     -27.596  87.098 -27.405  1.00  0.00     0.293 HD
ENDBRANCH   8  24
TORSDOF 5
ENDMDL
MODEL 5
REMARK VINA RESULT:    -6.875      6.178      9.642
REMARK INTER + INTRA:          -7.791
REMARK INTER:                  -7.525
REMARK INTRA:                  -0.266
REMARK UNBOUND:                 0.289
REMARK SMILES O=c1c(O)c(-c2ccc(O)cc2)oc2cc(O)cc(O)c12
REMARK SMILES IDX 5 1 3 2 2 3 1 4 21 5 19 6 18 7 16 8 15 9 14 10 13 11 6 12
REMARK SMILES IDX 7 13 8 14 9 15 12 16 11 17 10 18 4 20 20 22 17 24
REMARK H PARENT 10 19 4 21 20 23 17 25
REMARK Flexibility Score: inf
ROOT
ATOM      1  C   UNL     1     -24.114  91.531 -29.829  1.00  0.00     0.180 A 
ATOM      2  C   UNL     1     -23.457  91.830 -31.035  1.00  0.00     0.208 A 
ATOM      3  C   UNL     1     -23.344  93.172 -31.433  1.00  0.00     0.238 A 
ATOM      4  O   UNL     1     -22.707  93.439 -32.486  1.00  0.00    -0.285 OA
ATOM      5  C   UNL     1     -23.901  94.195 -30.629  1.00  0.00     0.111 A 
ATOM      6  C   UNL     1     -23.880  95.585 -30.955  1.00  0.00     0.134 A 
ATOM      7  C   UNL     1     -24.346  96.520 -30.023  1.00  0.00     0.093 A 
ATOM      8  C   UNL     1     -24.894  96.111 -28.804  1.00  0.00     0.123 A 
ATOM      9  C   UNL     1     -24.973  94.753 -28.502  1.00  0.00     0.094 A 
ATOM     10  C   UNL     1     -24.483  93.800 -29.396  1.00  0.00     0.146 A 
ATOM     11  O   UNL     1     -24.567  92.516 -29.065  1.00  0.00    -0.452 OA
ENDROOT
BRANCH   1  12
ATOM     12  C   UNL     1     -24.295  90.139 -29.355  1.00  0.00     0.021 A 
ATOM     13  C   UNL     1     -25.511  89.455 -29.538  1.00  0.00     0.016 A 
ATOM     14  C   UNL     1     -25.667  88.150 -29.061  1.00  0.00     0.047 A 
ATOM     15  C   UNL     1     -24.616  87.518 -28.385  1.00  0.00     0.115 A 
ATOM     16  C   UNL     1     -23.254  89.504 -28.658  1.00  0.00     0.016 A 
ATOM     17  C   UNL     1     -23.413  88.199 -28.183  1.00  0.00     0.047 A 
BRANCH  15  18
ATOM     18  O   UNL     1     -24.760  86.217 -27.906  1.00  0.00    -0.508 OA
ATOM     19  H   UNL     1     -24.471  85.416 -28.455  1.00  0.00     0.293 HD
ENDBRANCH  15  18
ENDBRANCH   1  12
BRANCH   2  20
ATOM     20  O   UNL     1     -22.895  90.807 -31.803  1.00  0.00    -0.502 OA
ATOM     21  H   UNL     1     -23.110  89.829 -31.647  1.00  0.00     0.293 HD
ENDBRANCH   2  20
BRANCH   6  22
ATOM     22  O   UNL     1     -23.440  96.092 -32.181  1.00  0.00    -0.507 OA
ATOM     23  H   UNL     1     -23.387  95.560 -33.037  1.00  0.00     0.293 HD
ENDBRANCH   6  22
BRANCH   8  24
ATOM     24  O   UNL     1     -25.370  97.048 -27.889  1.00  0.00    -0.508 OA
ATOM     25  H   UNL     1     -26.064  96.804 -27.193  1.00  0.00     0.293 HD
ENDBRANCH   8  24
TORSDOF 5
ENDMDL
MODEL 6
REMARK VINA RESULT:    -6.804      1.506      6.490
REMARK INTER + INTRA:          -7.708
REMARK INTER:                  -7.441
REMARK INTRA:                  -0.266
REMARK UNBOUND:                 0.289
REMARK SMILES O=c1c(O)c(-c2ccc(O)cc2)oc2cc(O)cc(O)c12
REMARK SMILES IDX 5 1 3 2 2 3 1 4 21 5 19 6 18 7 16 8 15 9 14 10 13 11 6 12
REMARK SMILES IDX 7 13 8 14 9 15 12 16 11 17 10 18 4 20 20 22 17 24
REMARK H PARENT 10 19 4 21 20 23 17 25
REMARK Flexibility Score: inf
ROOT
ATOM      1  C   UNL     1     -23.425  85.207 -23.878  1.00  0.00     0.180 A 
ATOM      2  C   UNL     1     -23.485  84.048 -24.670  1.00  0.00     0.208 A 
ATOM      3  C   UNL     1     -23.045  82.829 -24.128  1.00  0.00     0.238 A 
ATOM      4  O   UNL     1     -23.152  81.784 -24.823  1.00  0.00    -0.285 OA
ATOM      5  C   UNL     1     -22.539  82.788 -22.806  1.00  0.00     0.111 A 
ATOM      6  C   UNL     1     -22.029  81.617 -22.169  1.00  0.00     0.134 A 
ATOM      7  C   UNL     1     -21.676  81.665 -20.816  1.00  0.00     0.093 A 
ATOM      8  C   UNL     1     -21.749  82.859 -20.094  1.00  0.00     0.123 A 
ATOM      9  C   UNL     1     -22.189  84.021 -20.723  1.00  0.00     0.094 A 
ATOM     10  C   UNL     1     -22.584  83.996 -22.062  1.00  0.00     0.146 A 
ATOM     11  O   UNL     1     -23.007  85.124 -22.621  1.00  0.00    -0.452 OA
ENDROOT
BRANCH   1  12
ATOM     12  C   UNL     1     -23.846  86.533 -24.388  1.00  0.00     0.021 A 
ATOM     13  C   UNL     1     -22.905  87.479 -24.831  1.00  0.00     0.016 A 
ATOM     14  C   UNL     1     -23.324  88.733 -25.286  1.00  0.00     0.047 A 
ATOM     15  C   UNL     1     -24.686  89.061 -25.291  1.00  0.00     0.115 A 
ATOM     16  C   UNL     1     -25.208  86.877 -24.378  1.00  0.00     0.016 A 
ATOM     17  C   UNL     1     -25.624  88.131 -24.834  1.00  0.00     0.047 A 
BRANCH  15  18
ATOM     18  O   UNL     1     -25.115  90.307 -25.743  1.00  0.00    -0.508 OA
ATOM     19  H   UNL     1     -26.089  90.485 -25.960  1.00  0.00     0.293 HD
ENDBRANCH  15  18
ENDBRANCH   1  12
BRANCH   2  20
ATOM     20  O   UNL     1     -24.009  84.106 -25.964  1.00  0.00    -0.502 OA
ATOM     21  H   UNL     1     -23.972  83.320 -26.602  1.00  0.00     0.293 HD
ENDBRANCH   2  20
BRANCH   6  22
ATOM     22  O   UNL     1     -21.828  80.397 -22.824  1.00  0.00    -0.507 OA
ATOM     23  H   UNL     1     -21.015  80.169 -23.376  1.00  0.00     0.293 HD
ENDBRANCH   6  22
BRANCH   8  24
ATOM     24  O   UNL     1     -21.380  82.901 -18.751  1.00  0.00    -0.508 OA
ATOM     25  H   UNL     1     -21.301  83.778 -18.251  1.00  0.00     0.293 HD
ENDBRANCH   8  24
TORSDOF 5
ENDMDL
MODEL 7
REMARK VINA RESULT:    -6.618      2.258      6.880
REMARK INTER + INTRA:          -7.490
REMARK INTER:                  -7.241
REMARK INTRA:                  -0.249
REMARK UNBOUND:                 0.289
REMARK SMILES O=c1c(O)c(-c2ccc(O)cc2)oc2cc(O)cc(O)c12
REMARK SMILES IDX 5 1 3 2 2 3 1 4 21 5 19 6 18 7 16 8 15 9 14 10 13 11 6 12
REMARK SMILES IDX 7 13 8 14 9 15 12 16 11 17 10 18 4 20 20 22 17 24
REMARK H PARENT 10 19 4 21 20 23 17 25
REMARK Flexibility Score: inf
ROOT
ATOM      1  C   UNL     1     -22.248  84.628 -23.266  1.00  0.00     0.180 A 
ATOM      2  C   UNL     1     -22.040  84.411 -21.893  1.00  0.00     0.208 A 
ATOM      3  C   UNL     1     -21.653  83.133 -21.457  1.00  0.00     0.238 A 
ATOM      4  O   UNL     1     -21.415  82.958 -20.233  1.00  0.00    -0.285 OA
ATOM      5  C   UNL     1     -21.493  82.087 -22.397  1.00  0.00     0.111 A 
ATOM      6  C   UNL     1     -21.143  80.743 -22.063  1.00  0.00     0.134 A 
ATOM      7  C   UNL     1     -20.885  79.823 -23.086  1.00  0.00     0.093 A 
ATOM      8  C   UNL     1     -21.030  80.178 -24.429  1.00  0.00     0.123 A 
ATOM      9  C   UNL     1     -21.429  81.470 -24.763  1.00  0.00     0.094 A 
ATOM     10  C   UNL     1     -21.658  82.421 -23.767  1.00  0.00     0.146 A 
ATOM     11  O   UNL     1     -22.026  83.644 -24.129  1.00  0.00    -0.452 OA
ENDROOT
BRANCH   1  12
ATOM     12  C   UNL     1     -22.682  85.941 -23.799  1.00  0.00     0.021 A 
ATOM     13  C   UNL     1     -24.013  86.168 -24.191  1.00  0.00     0.016 A 
ATOM     14  C   UNL     1     -24.394  87.407 -24.714  1.00  0.00     0.047 A 
ATOM     15  C   UNL     1     -23.448  88.429 -24.864  1.00  0.00     0.115 A 
ATOM     16  C   UNL     1     -21.735  86.964 -23.972  1.00  0.00     0.016 A 
ATOM     17  C   UNL     1     -22.119  88.202 -24.494  1.00  0.00     0.047 A 
BRANCH  15  18
ATOM     18  O   UNL     1     -23.816  89.669 -25.383  1.00  0.00    -0.508 OA
ATOM     19  H   UNL     1     -23.853  89.835 -26.382  1.00  0.00     0.293 HD
ENDBRANCH  15  18
ENDBRANCH   1  12
BRANCH   2  20
ATOM     20  O   UNL     1     -22.182  85.463 -20.985  1.00  0.00    -0.502 OA
ATOM     21  H   UNL     1     -21.411  85.802 -20.421  1.00  0.00     0.293 HD
ENDBRANCH   2  20
BRANCH   6  22
ATOM     22  O   UNL     1     -21.062  80.261 -20.754  1.00  0.00    -0.507 OA
ATOM     23  H   UNL     1     -21.854  79.982 -20.194  1.00  0.00     0.293 HD
ENDBRANCH   6  22
BRANCH   8  24
ATOM     24  O   UNL     1     -20.786  79.250 -25.440  1.00  0.00    -0.508 OA
ATOM     25  H   UNL     1     -20.976  79.464 -26.412  1.00  0.00     0.293 HD
ENDBRANCH   8  24
TORSDOF 5
ENDMDL
MODEL 8
REMARK VINA RESULT:    -6.520      2.323      2.833
REMARK INTER + INTRA:          -7.374
REMARK INTER:                  -7.087
REMARK INTRA:                  -0.287
REMARK UNBOUND:                 0.289
REMARK SMILES O=c1c(O)c(-c2ccc(O)cc2)oc2cc(O)cc(O)c12
REMARK SMILES IDX 5 1 3 2 2 3 1 4 21 5 19 6 18 7 16 8 15 9 14 10 13 11 6 12
REMARK SMILES IDX 7 13 8 14 9 15 12 16 11 17 10 18 4 20 20 22 17 24
REMARK H PARENT 10 19 4 21 20 23 17 25
REMARK Flexibility Score: inf
ROOT
ATOM      1  C   UNL     1     -23.178  84.103 -23.947  1.00  0.00     0.180 A 
ATOM      2  C   UNL     1     -24.583  84.089 -23.918  1.00  0.00     0.208 A 
ATOM      3  C   UNL     1     -25.280  85.298 -24.082  1.00  0.00     0.238 A 
ATOM      4  O   UNL     1     -26.538  85.271 -24.110  1.00  0.00    -0.285 OA
ATOM      5  C   UNL     1     -24.563  86.505 -24.258  1.00  0.00     0.111 A 
ATOM      6  C   UNL     1     -25.164  87.793 -24.394  1.00  0.00     0.134 A 
ATOM      7  C   UNL     1     -24.364  88.901 -24.694  1.00  0.00     0.093 A 
ATOM      8  C   UNL     1     -22.976  88.781 -24.796  1.00  0.00     0.123 A 
ATOM      9  C   UNL     1     -22.374  87.539 -24.606  1.00  0.00     0.094 A 
ATOM     10  C   UNL     1     -23.149  86.409 -24.343  1.00  0.00     0.146 A 
ATOM     11  O   UNL     1     -22.537  85.242 -24.179  1.00  0.00    -0.452 OA
ENDROOT
BRANCH   1  12
ATOM     12  C   UNL     1     -22.374  82.874 -23.756  1.00  0.00     0.021 A 
ATOM     13  C   UNL     1     -22.086  82.379 -22.471  1.00  0.00     0.016 A 
ATOM     14  C   UNL     1     -21.305  81.231 -22.314  1.00  0.00     0.047 A 
ATOM     15  C   UNL     1     -20.790  80.571 -23.438  1.00  0.00     0.115 A 
ATOM     16  C   UNL     1     -21.837  82.218 -24.876  1.00  0.00     0.016 A 
ATOM     17  C   UNL     1     -21.056  81.069 -24.716  1.00  0.00     0.047 A 
BRANCH  15  18
ATOM     18  O   UNL     1     -20.011  79.425 -23.294  1.00  0.00    -0.508 OA
ATOM     19  H   UNL     1     -19.775  79.056 -22.380  1.00  0.00     0.293 HD
ENDBRANCH  15  18
ENDBRANCH   1  12
BRANCH   2  20
ATOM     20  O   UNL     1     -25.272  82.883 -23.765  1.00  0.00    -0.502 OA
ATOM     21  H   UNL     1     -24.802  82.013 -23.542  1.00  0.00     0.293 HD
ENDBRANCH   2  20
BRANCH   6  22
ATOM     22  O   UNL     1     -26.530  88.039 -24.218  1.00  0.00    -0.507 OA
ATOM     23  H   UNL     1     -27.246  87.804 -24.889  1.00  0.00     0.293 HD
ENDBRANCH   6  22
BRANCH   8  24
ATOM     24  O   UNL     1     -22.184  89.892 -25.079  1.00  0.00    -0.508 OA
ATOM     25  H   UNL     1     -21.939  90.564 -24.362  1.00  0.00     0.293 HD
ENDBRANCH   8  24
TORSDOF 5
ENDMDL
MODEL 9
REMARK VINA RESULT:    -6.510      5.113      8.334
REMARK INTER + INTRA:          -7.363
REMARK INTER:                  -7.100
REMARK INTRA:                  -0.263
REMARK UNBOUND:                 0.289
REMARK SMILES O=c1c(O)c(-c2ccc(O)cc2)oc2cc(O)cc(O)c12
REMARK SMILES IDX 5 1 3 2 2 3 1 4 21 5 19 6 18 7 16 8 15 9 14 10 13 11 6 12
REMARK SMILES IDX 7 13 8 14 9 15 12 16 11 17 10 18 4 20 20 22 17 24
REMARK H PARENT 10 19 4 21 20 23 17 25
REMARK Flexibility Score: inf
ROOT
ATOM      1  C   UNL     1     -24.208  91.279 -28.170  1.00  0.00     0.180 A 
ATOM      2  C   UNL     1     -23.620  91.095 -29.433  1.00  0.00     0.208 A 
ATOM      3  C   UNL     1     -23.551  92.184 -30.318  1.00  0.00     0.238 A 
ATOM      4  O   UNL     1     -22.975  92.027 -31.426  1.00  0.00    -0.285 OA
ATOM      5  C   UNL     1     -24.083  93.438 -29.933  1.00  0.00     0.111 A 
ATOM      6  C   UNL     1     -24.104  94.599 -30.763  1.00  0.00     0.134 A 
ATOM      7  C   UNL     1     -24.537  95.820 -30.232  1.00  0.00     0.093 A 
ATOM      8  C   UNL     1     -25.013  95.908 -28.922  1.00  0.00     0.123 A 
ATOM      9  C   UNL     1     -25.053  94.768 -28.123  1.00  0.00     0.094 A 
ATOM     10  C   UNL     1     -24.593  93.544 -28.612  1.00  0.00     0.146 A 
ATOM     11  O   UNL     1     -24.638  92.483 -27.814  1.00  0.00    -0.452 OA
ENDROOT
BRANCH   1  12
ATOM     12  C   UNL     1     -24.340  90.173 -27.194  1.00  0.00     0.021 A 
ATOM     13  C   UNL     1     -25.559  89.494 -27.017  1.00  0.00     0.016 A 
ATOM     14  C   UNL     1     -25.667  88.468 -26.072  1.00  0.00     0.047 A 
ATOM     15  C   UNL     1     -24.562  88.119 -25.284  1.00  0.00     0.115 A 
ATOM     16  C   UNL     1     -23.244  89.830 -26.385  1.00  0.00     0.016 A 
ATOM     17  C   UNL     1     -23.354  88.804 -25.442  1.00  0.00     0.047 A 
BRANCH  15  18
ATOM     18  O   UNL     1     -24.657  87.098 -24.340  1.00  0.00    -0.508 OA
ATOM     19  H   UNL     1     -24.471  86.133 -24.584  1.00  0.00     0.293 HD
ENDBRANCH  15  18
ENDBRANCH   1  12
BRANCH   2  20
ATOM     20  O   UNL     1     -23.081  89.854 -29.784  1.00  0.00    -0.502 OA
ATOM     21  H   UNL     1     -22.683  89.221 -29.101  1.00  0.00     0.293 HD
ENDBRANCH   2  20
BRANCH   6  22
ATOM     22  O   UNL     1     -23.738  94.600 -32.113  1.00  0.00    -0.507 OA
ATOM     23  H   UNL     1     -22.944  94.107 -32.492  1.00  0.00     0.293 HD
ENDBRANCH   6  22
BRANCH   8  24
ATOM     24  O   UNL     1     -25.457  97.124 -28.407  1.00  0.00    -0.508 OA
ATOM     25  H   UNL     1     -25.124  97.477 -27.518  1.00  0.00     0.293 HD
ENDBRANCH   8  24
TORSDOF 5
ENDMDL
