MODEL 1
REMARK VINA RESULT:    -4.828      0.000      0.000
REMARK INTER + INTRA:          -5.539
REMARK INTER:                  -5.534
REMARK INTRA:                  -0.005
REMARK UNBOUND:                -0.005
REMARK SMILES COc1cc(C(=O)[O-])ccc1O
REMARK SMILES IDX 5 1 9 2 4 3 10 4 3 5 11 6 6 7 7 8 8 9 2 10 1 11 12 12
REMARK H PARENT 12 13
REMARK Flexibility Score: inf
ROOT
ATOM      1  C   UNL     1      14.221  37.546  28.382  1.00  0.00     0.001 A 
ATOM      2  C   UNL     1      13.125  36.896  27.791  1.00  0.00     0.014 A 
ATOM      3  C   UNL     1      15.150  38.206  27.558  1.00  0.00     0.060 A 
ATOM      4  C   UNL     1      12.960  36.908  26.405  1.00  0.00     0.051 A 
ATOM      5  C   UNL     1      14.989  38.221  26.158  1.00  0.00     0.161 A 
ATOM      6  C   UNL     1      13.883  37.564  25.587  1.00  0.00     0.157 A 
ENDROOT
BRANCH   1   7
ATOM      7  C   UNL     1      14.399  37.535  29.852  1.00  0.00     0.072 C 
ATOM      8  O   UNL     1      13.686  36.792  30.577  1.00  0.00    -0.545 OA
ATOM      9  O   UNL     1      15.357  38.344  30.452  1.00  0.00    -0.545 OA
ENDBRANCH   1   7
BRANCH   5  10
ATOM     10  O   UNL     1      15.899  38.873  25.311  1.00  0.00    -0.493 OA
ATOM     11  C   UNL     1      15.660  40.124  24.675  1.00  0.00     0.278 C 
ENDBRANCH   5  10
BRANCH   6  12
ATOM     12  O   UNL     1      13.685  37.554  24.206  1.00  0.00    -0.504 OA
ATOM     13  H   UNL     1      12.766  37.448  23.793  1.00  0.00     0.293 HD
ENDBRANCH   6  12
TORSDOF 3
ENDMDL
MODEL 2
REMARK VINA RESULT:    -4.793      1.287      4.290
REMARK INTER + INTRA:          -5.498
REMARK INTER:                  -5.423
REMARK INTRA:                  -0.076
REMARK UNBOUND:                -0.005
REMARK SMILES COc1cc(C(=O)[O-])ccc1O
REMARK SMILES IDX 5 1 9 2 4 3 10 4 3 5 11 6 6 7 7 8 8 9 2 10 1 11 12 12
REMARK H PARENT 12 13
REMARK Flexibility Score: inf
ROOT
ATOM      1  C   UNL     1      14.161  38.406  26.135  1.00  0.00     0.001 A 
ATOM      2  C   UNL     1      13.115  37.511  25.856  1.00  0.00     0.014 A 
ATOM      3  C   UNL     1      14.734  38.408  27.420  1.00  0.00     0.060 A 
ATOM      4  C   UNL     1      12.653  36.636  26.840  1.00  0.00     0.051 A 
ATOM      5  C   UNL     1      14.271  37.527  28.417  1.00  0.00     0.161 A 
ATOM      6  C   UNL     1      13.223  36.638  28.115  1.00  0.00     0.157 A 
ENDROOT
BRANCH   1   7
ATOM      7  C   UNL     1      14.654  39.337  25.094  1.00  0.00     0.072 C 
ATOM      8  O   UNL     1      15.886  39.426  24.847  1.00  0.00    -0.545 OA
ATOM      9  O   UNL     1      13.763  40.125  24.375  1.00  0.00    -0.545 OA
ENDBRANCH   1   7
BRANCH   5  10
ATOM     10  O   UNL     1      14.824  37.507  29.707  1.00  0.00    -0.493 OA
ATOM     11  C   UNL     1      15.878  38.356  30.149  1.00  0.00     0.278 C 
ENDBRANCH   5  10
BRANCH   6  12
ATOM     12  O   UNL     1      12.734  35.749  29.072  1.00  0.00    -0.504 OA
ATOM     13  H   UNL     1      13.018  35.790  30.044  1.00  0.00     0.293 HD
ENDBRANCH   6  12
TORSDOF 3
ENDMDL
MODEL 3
REMARK VINA RESULT:    -4.578      1.991      4.780
REMARK INTER + INTRA:          -5.251
REMARK INTER:                  -5.176
REMARK INTRA:                  -0.075
REMARK UNBOUND:                -0.005
REMARK SMILES COc1cc(C(=O)[O-])ccc1O
REMARK SMILES IDX 5 1 9 2 4 3 10 4 3 5 11 6 6 7 7 8 8 9 2 10 1 11 12 12
REMARK H PARENT 12 13
REMARK Flexibility Score: inf
ROOT
ATOM      1  C   UNL     1      13.913  37.640  27.906  1.00  0.00     0.001 A 
ATOM      2  C   UNL     1      15.298  37.414  27.939  1.00  0.00     0.014 A 
ATOM      3  C   UNL     1      13.308  38.336  28.967  1.00  0.00     0.060 A 
ATOM      4  C   UNL     1      16.064  37.876  29.011  1.00  0.00     0.051 A 
ATOM      5  C   UNL     1      14.076  38.805  30.052  1.00  0.00     0.161 A 
ATOM      6  C   UNL     1      15.462  38.568  30.065  1.00  0.00     0.157 A 
ENDROOT
BRANCH   1   7
ATOM      7  C   UNL     1      13.098  37.151  26.770  1.00  0.00     0.072 C 
ATOM      8  O   UNL     1      12.124  36.377  26.968  1.00  0.00    -0.545 OA
ATOM      9  O   UNL     1      13.396  37.540  25.469  1.00  0.00    -0.545 OA
ENDBRANCH   1   7
BRANCH   5  10
ATOM     10  O   UNL     1      13.499  39.503  31.125  1.00  0.00    -0.493 OA
ATOM     11  C   UNL     1      12.199  40.082  31.108  1.00  0.00     0.278 C 
ENDBRANCH   5  10
BRANCH   6  12
ATOM     12  O   UNL     1      16.260  39.014  31.119  1.00  0.00    -0.504 OA
ATOM     13  H   UNL     1      17.250  39.200  31.007  1.00  0.00     0.293 HD
ENDBRANCH   6  12
TORSDOF 3
ENDMDL
MODEL 4
REMARK VINA RESULT:    -4.481      1.716      2.417
REMARK INTER + INTRA:          -5.140
REMARK INTER:                  -5.067
REMARK INTRA:                  -0.073
REMARK UNBOUND:                -0.005
REMARK SMILES COc1cc(C(=O)[O-])ccc1O
REMARK SMILES IDX 5 1 9 2 4 3 10 4 3 5 11 6 6 7 7 8 8 9 2 10 1 11 12 12
REMARK H PARENT 12 13
REMARK Flexibility Score: inf
ROOT
ATOM      1  C   UNL     1      14.536  38.014  29.170  1.00  0.00     0.001 A 
ATOM      2  C   UNL     1      13.680  37.115  29.826  1.00  0.00     0.014 A 
ATOM      3  C   UNL     1      14.444  38.150  27.774  1.00  0.00     0.060 A 
ATOM      4  C   UNL     1      12.749  36.369  29.101  1.00  0.00     0.051 A 
ATOM      5  C   UNL     1      13.507  37.400  27.036  1.00  0.00     0.161 A 
ATOM      6  C   UNL     1      12.658  36.506  27.714  1.00  0.00     0.157 A 
ENDROOT
BRANCH   1   7
ATOM      7  C   UNL     1      15.525  38.807  29.937  1.00  0.00     0.072 C 
ATOM      8  O   UNL     1      16.626  38.299  30.278  1.00  0.00    -0.545 OA
ATOM      9  O   UNL     1      15.251  40.123  30.291  1.00  0.00    -0.545 OA
ENDBRANCH   1   7
BRANCH   5  10
ATOM     10  O   UNL     1      13.392  37.516  25.642  1.00  0.00    -0.493 OA
ATOM     11  C   UNL     1      14.217  38.344  24.829  1.00  0.00     0.278 C 
ENDBRANCH   5  10
BRANCH   6  12
ATOM     12  O   UNL     1      11.716  35.742  27.023  1.00  0.00    -0.504 OA
ATOM     13  H   UNL     1      11.206  36.105  26.227  1.00  0.00     0.293 HD
ENDBRANCH   6  12
TORSDOF 3
ENDMDL
MODEL 5
REMARK VINA RESULT:    -4.451      1.560      2.930
REMARK INTER + INTRA:          -5.106
REMARK INTER:                  -5.033
REMARK INTRA:                  -0.073
REMARK UNBOUND:                -0.005
REMARK SMILES COc1cc(C(=O)[O-])ccc1O
REMARK SMILES IDX 5 1 9 2 4 3 10 4 3 5 11 6 6 7 7 8 8 9 2 10 1 11 12 12
REMARK H PARENT 12 13
REMARK Flexibility Score: inf
ROOT
ATOM      1  C   UNL     1      15.182  38.996  28.480  1.00  0.00     0.001 A 
ATOM      2  C   UNL     1      15.874  39.748  27.517  1.00  0.00     0.014 A 
ATOM      3  C   UNL     1      14.169  38.115  28.061  1.00  0.00     0.060 A 
ATOM      4  C   UNL     1      15.560  39.620  26.163  1.00  0.00     0.051 A 
ATOM      5  C   UNL     1      13.848  37.982  26.696  1.00  0.00     0.161 A 
ATOM      6  C   UNL     1      14.554  38.745  25.748  1.00  0.00     0.157 A 
ENDROOT
BRANCH   1   7
ATOM      7  C   UNL     1      15.512  39.128  29.918  1.00  0.00     0.072 C 
ATOM      8  O   UNL     1      16.361  38.367  30.452  1.00  0.00    -0.545 OA
ATOM      9  O   UNL     1      14.888  40.095  30.697  1.00  0.00    -0.545 OA
ENDBRANCH   1   7
BRANCH   5  10
ATOM     10  O   UNL     1      12.842  37.111  26.249  1.00  0.00    -0.493 OA
ATOM     11  C   UNL     1      12.113  36.219  27.086  1.00  0.00     0.278 C 
ENDBRANCH   5  10
BRANCH   6  12
ATOM     12  O   UNL     1      14.269  38.645  24.385  1.00  0.00    -0.504 OA
ATOM     13  H   UNL     1      13.324  38.707  24.025  1.00  0.00     0.293 HD
ENDBRANCH   6  12
TORSDOF 3
ENDMDL
MODEL 6
REMARK VINA RESULT:    -4.349      1.464      4.875
REMARK INTER + INTRA:          -4.989
REMARK INTER:                  -4.902
REMARK INTRA:                  -0.087
REMARK UNBOUND:                -0.005
REMARK SMILES COc1cc(C(=O)[O-])ccc1O
REMARK SMILES IDX 5 1 9 2 4 3 10 4 3 5 11 6 6 7 7 8 8 9 2 10 1 11 12 12
REMARK H PARENT 12 13
REMARK Flexibility Score: inf
ROOT
ATOM      1  C   UNL     1      14.293  38.347  26.868  1.00  0.00     0.001 A 
ATOM      2  C   UNL     1      15.674  38.530  27.042  1.00  0.00     0.014 A 
ATOM      3  C   UNL     1      13.504  37.994  27.977  1.00  0.00     0.060 A 
ATOM      4  C   UNL     1      16.254  38.366  28.301  1.00  0.00     0.051 A 
ATOM      5  C   UNL     1      14.084  37.826  29.250  1.00  0.00     0.161 A 
ATOM      6  C   UNL     1      15.470  38.016  29.403  1.00  0.00     0.157 A 
ENDROOT
BRANCH   1   7
ATOM      7  C   UNL     1      13.673  38.520  25.533  1.00  0.00     0.072 C 
ATOM      8  O   UNL     1      13.578  37.546  24.741  1.00  0.00    -0.545 OA
ATOM      9  O   UNL     1      13.188  39.761  25.137  1.00  0.00    -0.545 OA
ENDBRANCH   1   7
BRANCH   5  10
ATOM     10  O   UNL     1      13.322  37.475  30.375  1.00  0.00    -0.493 OA
ATOM     11  C   UNL     1      12.228  38.233  30.880  1.00  0.00     0.278 C 
ENDBRANCH   5  10
BRANCH   6  12
ATOM     12  O   UNL     1      16.086  37.860  30.645  1.00  0.00    -0.504 OA
ATOM     13  H   UNL     1      16.010  38.556  31.377  1.00  0.00     0.293 HD
ENDBRANCH   6  12
TORSDOF 3
ENDMDL
MODEL 7
REMARK VINA RESULT:    -4.272      2.443      3.438
REMARK INTER + INTRA:          -4.901
REMARK INTER:                  -4.816
REMARK INTRA:                  -0.085
REMARK UNBOUND:                -0.005
REMARK SMILES COc1cc(C(=O)[O-])ccc1O
REMARK SMILES IDX 5 1 9 2 4 3 10 4 3 5 11 6 6 7 7 8 8 9 2 10 1 11 12 12
REMARK H PARENT 12 13
REMARK Flexibility Score: inf
ROOT
ATOM      1  C   UNL     1      12.107  38.174  29.428  1.00  0.00     0.001 A 
ATOM      2  C   UNL     1      13.270  38.142  30.214  1.00  0.00     0.014 A 
ATOM      3  C   UNL     1      12.183  37.791  28.077  1.00  0.00     0.060 A 
ATOM      4  C   UNL     1      14.485  37.732  29.661  1.00  0.00     0.051 A 
ATOM      5  C   UNL     1      13.407  37.376  27.513  1.00  0.00     0.161 A 
ATOM      6  C   UNL     1      14.560  37.350  28.320  1.00  0.00     0.157 A 
ENDROOT
BRANCH   1   7
ATOM      7  C   UNL     1      10.817  38.609  30.011  1.00  0.00     0.072 C 
ATOM      8  O   UNL     1      10.200  37.869  30.823  1.00  0.00    -0.545 OA
ATOM      9  O   UNL     1      10.267  39.839  29.669  1.00  0.00    -0.545 OA
ENDBRANCH   1   7
BRANCH   5  10
ATOM     10  O   UNL     1      13.513  36.988  26.169  1.00  0.00    -0.493 OA
ATOM     11  C   UNL     1      13.793  37.874  25.091  1.00  0.00     0.278 C 
ENDBRANCH   5  10
BRANCH   6  12
ATOM     12  O   UNL     1      15.792  36.947  27.803  1.00  0.00    -0.504 OA
ATOM     13  H   UNL     1      16.212  36.057  28.041  1.00  0.00     0.293 HD
ENDBRANCH   6  12
TORSDOF 3
ENDMDL
MODEL 8
REMARK VINA RESULT:    -4.157      2.467      3.674
REMARK INTER + INTRA:          -4.769
REMARK INTER:                  -4.695
REMARK INTRA:                  -0.074
REMARK UNBOUND:                -0.005
REMARK SMILES COc1cc(C(=O)[O-])ccc1O
REMARK SMILES IDX 5 1 9 2 4 3 10 4 3 5 11 6 6 7 7 8 8 9 2 10 1 11 12 12
REMARK H PARENT 12 13
REMARK Flexibility Score: inf
ROOT
ATOM      1  C   UNL     1      11.979  38.005  29.416  1.00  0.00     0.001 A 
ATOM      2  C   UNL     1      11.720  37.347  28.203  1.00  0.00     0.014 A 
ATOM      3  C   UNL     1      13.308  38.122  29.860  1.00  0.00     0.060 A 
ATOM      4  C   UNL     1      12.769  36.819  27.448  1.00  0.00     0.051 A 
ATOM      5  C   UNL     1      14.371  37.592  29.102  1.00  0.00     0.161 A 
ATOM      6  C   UNL     1      14.089  36.937  27.890  1.00  0.00     0.157 A 
ENDROOT
BRANCH   1   7
ATOM      7  C   UNL     1      10.869  38.565  30.220  1.00  0.00     0.072 C 
ATOM      8  O   UNL     1      10.728  39.812  30.335  1.00  0.00    -0.545 OA
ATOM      9  O   UNL     1       9.966  37.723  30.859  1.00  0.00    -0.545 OA
ENDBRANCH   1   7
BRANCH   5  10
ATOM     10  O   UNL     1      15.707  37.695  29.521  1.00  0.00    -0.493 OA
ATOM     11  C   UNL     1      16.185  38.635  30.477  1.00  0.00     0.278 C 
ENDBRANCH   5  10
BRANCH   6  12
ATOM     12  O   UNL     1      15.111  36.396  27.108  1.00  0.00    -0.504 OA
ATOM     13  H   UNL     1      14.923  35.830  26.289  1.00  0.00     0.293 HD
ENDBRANCH   6  12
TORSDOF 3
ENDMDL
MODEL 9
REMARK VINA RESULT:    -4.045      2.177      3.909
REMARK INTER + INTRA:          -4.641
REMARK INTER:                  -4.561
REMARK INTRA:                  -0.080
REMARK UNBOUND:                -0.005
REMARK SMILES COc1cc(C(=O)[O-])ccc1O
REMARK SMILES IDX 5 1 9 2 4 3 10 4 3 5 11 6 6 7 7 8 8 9 2 10 1 11 12 12
REMARK H PARENT 12 13
REMARK Flexibility Score: inf
ROOT
ATOM      1  C   UNL     1      14.583  38.626  28.074  1.00  0.00     0.001 A 
ATOM      2  C   UNL     1      14.721  37.763  26.975  1.00  0.00     0.014 A 
ATOM      3  C   UNL     1      13.442  38.519  28.888  1.00  0.00     0.060 A 
ATOM      4  C   UNL     1      13.739  36.811  26.697  1.00  0.00     0.051 A 
ATOM      5  C   UNL     1      12.447  37.560  28.613  1.00  0.00     0.161 A 
ATOM      6  C   UNL     1      12.606  36.704  27.507  1.00  0.00     0.157 A 
ENDROOT
BRANCH   1   7
ATOM      7  C   UNL     1      15.623  39.638  28.371  1.00  0.00     0.072 C 
ATOM      8  O   UNL     1      16.330  40.120  27.446  1.00  0.00    -0.545 OA
ATOM      9  O   UNL     1      15.833  40.071  29.675  1.00  0.00    -0.545 OA
ENDBRANCH   1   7
BRANCH   5  10
ATOM     10  O   UNL     1      11.298  37.430  29.409  1.00  0.00    -0.493 OA
ATOM     11  C   UNL     1      10.722  38.482  30.176  1.00  0.00     0.278 C 
ENDBRANCH   5  10
BRANCH   6  12
ATOM     12  O   UNL     1      11.646  35.740  27.198  1.00  0.00    -0.504 OA
ATOM     13  H   UNL     1      11.211  35.685  26.285  1.00  0.00     0.293 HD
ENDBRANCH   6  12
TORSDOF 3
ENDMDL
