MODEL 1
REMARK VINA RESULT:     0.094      0.000      0.000
REMARK INTER + INTRA:           0.205
REMARK INTER:                   0.127
REMARK INTRA:                   0.078
REMARK UNBOUND:                 0.078
REMARK SMILES CCCCCCCC(=O)[O-]
REMARK SMILES IDX 5 1 6 2 7 3 8 4 9 5 10 6 4 7 3 8 2 9 1 10
REMARK H PARENT
REMARK Flexibility Score: inf
ROOT
ATOM      1  C   UNL     1      25.988  31.854  -6.973  1.00  0.00     0.000 C 
ENDROOT
BRANCH   1   2
ATOM      2  C   UNL     1      24.766  30.953  -6.771  1.00  0.00     0.006 C 
BRANCH   2   3
ATOM      3  C   UNL     1      24.310  30.338  -8.097  1.00  0.00     0.053 C 
BRANCH   3   4
ATOM      4  C   UNL     1      22.885  29.893  -8.006  1.00  0.00     0.041 C 
ATOM      5  O   UNL     1      21.972  30.731  -7.785  1.00  0.00    -0.550 OA
ATOM      6  O   UNL     1      22.569  28.544  -8.117  1.00  0.00    -0.550 OA
ENDBRANCH   3   4
ENDBRANCH   2   3
ENDBRANCH   1   2
BRANCH   1   7
ATOM      7  C   UNL     1      25.761  32.842  -8.125  1.00  0.00     0.000 C 
BRANCH   7   8
ATOM      8  C   UNL     1      24.338  33.417  -8.084  1.00  0.00    -0.000 C 
BRANCH   8   9
ATOM      9  C   UNL     1      24.323  34.946  -7.936  1.00  0.00    -0.003 C 
ATOM     10  C   UNL     1      25.717  35.564  -8.044  1.00  0.00     0.004 C 
ENDBRANCH   8   9
ENDBRANCH   7   8
ENDBRANCH   1   7
TORSDOF 6
ENDMDL
MODEL 2
REMARK VINA RESULT:     0.122      2.309      4.741
REMARK INTER + INTRA:           0.243
REMARK INTER:                   0.235
REMARK INTRA:                   0.007
REMARK UNBOUND:                 0.078
REMARK SMILES CCCCCCCC(=O)[O-]
REMARK SMILES IDX 5 1 6 2 7 3 8 4 9 5 10 6 4 7 3 8 2 9 1 10
REMARK H PARENT
REMARK Flexibility Score: inf
ROOT
ATOM      1  C   UNL     1      25.325  31.595  -6.781  1.00  0.00     0.000 C 
ENDROOT
BRANCH   1   2
ATOM      2  C   UNL     1      25.667  32.338  -8.078  1.00  0.00     0.006 C 
BRANCH   2   3
ATOM      3  C   UNL     1      25.855  33.836  -7.819  1.00  0.00     0.053 C 
BRANCH   3   4
ATOM      4  C   UNL     1      24.563  34.567  -8.009  1.00  0.00     0.041 C 
ATOM      5  O   UNL     1      23.484  33.928  -8.118  1.00  0.00    -0.550 OA
ATOM      6  O   UNL     1      24.557  35.952  -8.116  1.00  0.00    -0.550 OA
ENDBRANCH   3   4
ENDBRANCH   2   3
ENDBRANCH   1   2
BRANCH   1   7
ATOM      7  C   UNL     1      24.364  30.430  -7.050  1.00  0.00     0.000 C 
BRANCH   7   8
ATOM      8  C   UNL     1      23.137  30.901  -7.844  1.00  0.00    -0.000 C 
BRANCH   8   9
ATOM      9  C   UNL     1      22.139  29.766  -8.117  1.00  0.00    -0.003 C 
ATOM     10  C   UNL     1      22.725  28.383  -7.834  1.00  0.00     0.004 C 
ENDBRANCH   8   9
ENDBRANCH   7   8
ENDBRANCH   1   7
TORSDOF 6
ENDMDL
MODEL 3
REMARK VINA RESULT:     1.166      2.554      4.632
REMARK INTER + INTRA:           1.653
REMARK INTER:                   0.111
REMARK INTRA:                   1.542
REMARK UNBOUND:                 0.078
REMARK SMILES CCCCCCCC(=O)[O-]
REMARK SMILES IDX 5 1 6 2 7 3 8 4 9 5 10 6 4 7 3 8 2 9 1 10
REMARK H PARENT
REMARK Flexibility Score: inf
ROOT
ATOM      1  C   UNL     1      23.949  32.270  -7.342  1.00  0.00     0.000 C 
ENDROOT
BRANCH   1   2
ATOM      2  C   UNL     1      24.500  33.674  -7.612  1.00  0.00     0.006 C 
BRANCH   2   3
ATOM      3  C   UNL     1      25.942  33.610  -8.124  1.00  0.00     0.053 C 
BRANCH   3   4
ATOM      4  C   UNL     1      26.573  32.306  -7.751  1.00  0.00     0.041 C 
ATOM      5  O   UNL     1      27.752  32.047  -8.109  1.00  0.00    -0.550 OA
ATOM      6  O   UNL     1      25.842  31.354  -7.051  1.00  0.00    -0.550 OA
ENDBRANCH   3   4
ENDBRANCH   2   3
ENDBRANCH   1   2
BRANCH   1   7
ATOM      7  C   UNL     1      22.415  32.266  -7.361  1.00  0.00     0.000 C 
BRANCH   7   8
ATOM      8  C   UNL     1      21.875  30.929  -7.893  1.00  0.00    -0.000 C 
BRANCH   8   9
ATOM      9  C   UNL     1      22.966  29.852  -7.997  1.00  0.00    -0.003 C 
ATOM     10  C   UNL     1      22.395  28.435  -8.041  1.00  0.00     0.004 C 
ENDBRANCH   8   9
ENDBRANCH   7   8
ENDBRANCH   1   7
TORSDOF 6
ENDMDL
MODEL 4
REMARK VINA RESULT:     1.610     16.824     18.549
REMARK INTER + INTRA:           2.254
REMARK INTER:                   2.444
REMARK INTRA:                  -0.190
REMARK UNBOUND:                 0.078
REMARK SMILES CCCCCCCC(=O)[O-]
REMARK SMILES IDX 5 1 6 2 7 3 8 4 9 5 10 6 4 7 3 8 2 9 1 10
REMARK H PARENT
REMARK Flexibility Score: inf
ROOT
ATOM      1  C   UNL     1      27.177  43.996   3.730  1.00  0.00     0.000 C 
ENDROOT
BRANCH   1   2
ATOM      2  C   UNL     1      27.510  45.197   4.621  1.00  0.00     0.006 C 
BRANCH   2   3
ATOM      3  C   UNL     1      26.718  45.146   5.931  1.00  0.00     0.053 C 
BRANCH   3   4
ATOM      4  C   UNL     1      26.751  46.475   6.616  1.00  0.00     0.041 C 
ATOM      5  O   UNL     1      25.984  46.707   7.588  1.00  0.00    -0.550 OA
ATOM      6  O   UNL     1      27.593  47.477   6.150  1.00  0.00    -0.550 OA
ENDBRANCH   3   4
ENDBRANCH   2   3
ENDBRANCH   1   2
BRANCH   1   7
ATOM      7  C   UNL     1      25.895  43.297   4.201  1.00  0.00     0.000 C 
BRANCH   7   8
ATOM      8  C   UNL     1      25.009  42.909   3.008  1.00  0.00    -0.000 C 
BRANCH   8   9
ATOM      9  C   UNL     1      23.744  42.150   3.435  1.00  0.00    -0.003 C 
ATOM     10  C   UNL     1      22.676  42.118   2.341  1.00  0.00     0.004 C 
ENDBRANCH   8   9
ENDBRANCH   7   8
ENDBRANCH   1   7
TORSDOF 6
ENDMDL
MODEL 5
REMARK VINA RESULT:     1.738     15.839     17.366
REMARK INTER + INTRA:           2.426
REMARK INTER:                   2.648
REMARK INTRA:                  -0.222
REMARK UNBOUND:                 0.078
REMARK SMILES CCCCCCCC(=O)[O-]
REMARK SMILES IDX 5 1 6 2 7 3 8 4 9 5 10 6 4 7 3 8 2 9 1 10
REMARK H PARENT
REMARK Flexibility Score: inf
ROOT
ATOM      1  C   UNL     1      26.756  43.976   3.498  1.00  0.00     0.000 C 
ENDROOT
BRANCH   1   2
ATOM      2  C   UNL     1      25.512  43.276   4.057  1.00  0.00     0.006 C 
BRANCH   2   3
ATOM      3  C   UNL     1      24.763  42.523   2.954  1.00  0.00     0.053 C 
BRANCH   3   4
ATOM      4  C   UNL     1      23.319  42.366   3.315  1.00  0.00     0.041 C 
ATOM      5  O   UNL     1      22.456  42.200   2.414  1.00  0.00    -0.550 OA
ATOM      6  O   UNL     1      22.920  42.453   4.643  1.00  0.00    -0.550 OA
ENDBRANCH   3   4
ENDBRANCH   2   3
ENDBRANCH   1   2
BRANCH   1   7
ATOM      7  C   UNL     1      27.518  44.715   4.605  1.00  0.00     0.000 C 
BRANCH   7   8
ATOM      8  C   UNL     1      26.660  44.843   5.872  1.00  0.00    -0.000 C 
BRANCH   8   9
ATOM      9  C   UNL     1      26.719  46.251   6.485  1.00  0.00    -0.003 C 
ATOM     10  C   UNL     1      25.716  46.443   7.622  1.00  0.00     0.004 C 
ENDBRANCH   8   9
ENDBRANCH   7   8
ENDBRANCH   1   7
TORSDOF 6
ENDMDL
MODEL 6
REMARK VINA RESULT:     2.845     14.817     16.364
REMARK INTER + INTRA:           3.921
REMARK INTER:                   3.847
REMARK INTRA:                   0.074
REMARK UNBOUND:                 0.078
REMARK SMILES CCCCCCCC(=O)[O-]
REMARK SMILES IDX 5 1 6 2 7 3 8 4 9 5 10 6 4 7 3 8 2 9 1 10
REMARK H PARENT
REMARK Flexibility Score: inf
ROOT
ATOM      1  C   UNL     1      25.899  43.143   4.240  1.00  0.00     0.000 C 
ENDROOT
BRANCH   1   2
ATOM      2  C   UNL     1      24.419  42.989   4.603  1.00  0.00     0.006 C 
BRANCH   2   3
ATOM      3  C   UNL     1      23.788  41.812   3.853  1.00  0.00     0.053 C 
BRANCH   3   4
ATOM      4  C   UNL     1      23.324  42.243   2.497  1.00  0.00     0.041 C 
ATOM      5  O   UNL     1      22.264  41.769   2.010  1.00  0.00    -0.550 OA
ATOM      6  O   UNL     1      24.088  43.131   1.750  1.00  0.00    -0.550 OA
ENDBRANCH   3   4
ENDBRANCH   2   3
ENDBRANCH   1   2
BRANCH   1   7
ATOM      7  C   UNL     1      26.680  43.814   5.377  1.00  0.00     0.000 C 
BRANCH   7   8
ATOM      8  C   UNL     1      27.252  45.167   4.929  1.00  0.00    -0.000 C 
BRANCH   8   9
ATOM      9  C   UNL     1      27.721  45.154   3.466  1.00  0.00    -0.003 C 
ATOM     10  C   UNL     1      29.036  44.398   3.275  1.00  0.00     0.004 C 
ENDBRANCH   8   9
ENDBRANCH   7   8
ENDBRANCH   1   7
TORSDOF 6
ENDMDL
