MODEL 1
REMARK VINA RESULT:    -3.557      0.000      0.000
REMARK INTER + INTRA:          -6.908
REMARK INTER:                  -6.052
REMARK INTRA:                  -0.856
REMARK UNBOUND:                -0.856
REMARK SMILES CCCCCCCCCCCCCC(=O)[O-]
REMARK SMILES IDX 8 1 9 2 10 3 11 4 12 5 13 6 14 7 15 8 16 9 7 10 6 11 5 12
REMARK SMILES IDX 4 13 3 14 2 15 1 16
REMARK H PARENT
REMARK Flexibility Score: inf
ROOT
ATOM      1  C   UNL     1     -15.611  10.313   7.186  1.00  0.00     0.000 C 
ENDROOT
BRANCH   1   2
ATOM      2  C   UNL     1     -15.511   9.254   8.299  1.00  0.00     0.000 C 
BRANCH   2   3
ATOM      3  C   UNL     1     -16.880   8.891   8.895  1.00  0.00     0.000 C 
BRANCH   3   4
ATOM      4  C   UNL     1     -16.813   7.672   9.830  1.00  0.00     0.000 C 
BRANCH   4   5
ATOM      5  C   UNL     1     -15.375   7.360  10.290  1.00  0.00     0.006 C 
BRANCH   5   6
ATOM      6  C   UNL     1     -15.276   6.134  11.213  1.00  0.00     0.053 C 
BRANCH   6   7
ATOM      7  C   UNL     1     -13.872   5.871  11.659  1.00  0.00     0.041 C 
ATOM      8  O   UNL     1     -13.170   6.804  12.128  1.00  0.00    -0.550 OA
ATOM      9  O   UNL     1     -13.344   4.588  11.573  1.00  0.00    -0.550 OA
ENDBRANCH   6   7
ENDBRANCH   5   6
ENDBRANCH   4   5
ENDBRANCH   3   4
ENDBRANCH   2   3
ENDBRANCH   1   2
BRANCH   1  10
ATOM     10  C   UNL     1     -16.710  11.355   7.455  1.00  0.00     0.000 C 
BRANCH  10  11
ATOM     11  C   UNL     1     -16.193  12.799   7.337  1.00  0.00    -0.000 C 
BRANCH  11  12
ATOM     12  C   UNL     1     -14.711  12.865   6.933  1.00  0.00    -0.000 C 
BRANCH  12  13
ATOM     13  C   UNL     1     -13.836  13.549   7.999  1.00  0.00    -0.000 C 
BRANCH  13  14
ATOM     14  C   UNL     1     -14.227  13.145   9.430  1.00  0.00    -0.000 C 
BRANCH  14  15
ATOM     15  C   UNL     1     -14.104  14.305  10.429  1.00  0.00    -0.003 C 
ATOM     16  C   UNL     1     -13.550  13.821  11.766  1.00  0.00     0.004 C 
ENDBRANCH  14  15
ENDBRANCH  13  14
ENDBRANCH  12  13
ENDBRANCH  11  12
ENDBRANCH  10  11
ENDBRANCH   1  10
TORSDOF 12
ENDMDL
MODEL 2
REMARK VINA RESULT:    -3.486      2.785      6.717
REMARK INTER + INTRA:          -6.787
REMARK INTER:                  -5.999
REMARK INTRA:                  -0.788
REMARK UNBOUND:                -0.856
REMARK SMILES CCCCCCCCCCCCCC(=O)[O-]
REMARK SMILES IDX 8 1 9 2 10 3 11 4 12 5 13 6 14 7 15 8 16 9 7 10 6 11 5 12
REMARK SMILES IDX 4 13 3 14 2 15 1 16
REMARK H PARENT
REMARK Flexibility Score: inf
ROOT
ATOM      1  C   UNL     1     -15.257   9.468   8.209  1.00  0.00     0.000 C 
ENDROOT
BRANCH   1   2
ATOM      2  C   UNL     1     -16.034  10.289   7.164  1.00  0.00     0.000 C 
BRANCH   2   3
ATOM      3  C   UNL     1     -16.186  11.765   7.566  1.00  0.00     0.000 C 
BRANCH   3   4
ATOM      4  C   UNL     1     -15.047  12.645   7.025  1.00  0.00     0.000 C 
BRANCH   4   5
ATOM      5  C   UNL     1     -14.176  13.238   8.152  1.00  0.00     0.006 C 
BRANCH   5   6
ATOM      6  C   UNL     1     -14.656  12.862   9.563  1.00  0.00     0.053 C 
BRANCH   6   7
ATOM      7  C   UNL     1     -14.012  13.698  10.624  1.00  0.00     0.041 C 
ATOM      8  O   UNL     1     -13.638  14.872  10.366  1.00  0.00    -0.550 OA
ATOM      9  O   UNL     1     -13.840  13.186  11.904  1.00  0.00    -0.550 OA
ENDBRANCH   6   7
ENDBRANCH   5   6
ENDBRANCH   4   5
ENDBRANCH   3   4
ENDBRANCH   2   3
ENDBRANCH   1   2
BRANCH   1  10
ATOM     10  C   UNL     1     -16.130   9.053   9.405  1.00  0.00     0.000 C 
BRANCH  10  11
ATOM     11  C   UNL     1     -16.366   7.533   9.462  1.00  0.00    -0.000 C 
BRANCH  11  12
ATOM     12  C   UNL     1     -16.003   6.930  10.830  1.00  0.00    -0.000 C 
BRANCH  12  13
ATOM     13  C   UNL     1     -14.518   6.534  10.927  1.00  0.00    -0.000 C 
BRANCH  13  14
ATOM     14  C   UNL     1     -13.943   6.743  12.337  1.00  0.00    -0.000 C 
BRANCH  14  15
ATOM     15  C   UNL     1     -13.357   5.456  12.935  1.00  0.00    -0.003 C 
ATOM     16  C   UNL     1     -13.400   4.313  11.925  1.00  0.00     0.004 C 
ENDBRANCH  14  15
ENDBRANCH  13  14
ENDBRANCH  12  13
ENDBRANCH  11  12
ENDBRANCH  10  11
ENDBRANCH   1  10
TORSDOF 12
ENDMDL
MODEL 3
REMARK VINA RESULT:    -3.367      3.463      6.747
REMARK INTER + INTRA:          -6.585
REMARK INTER:                  -5.507
REMARK INTRA:                  -1.078
REMARK UNBOUND:                -0.856
REMARK SMILES CCCCCCCCCCCCCC(=O)[O-]
REMARK SMILES IDX 8 1 9 2 10 3 11 4 12 5 13 6 14 7 15 8 16 9 7 10 6 11 5 12
REMARK SMILES IDX 4 13 3 14 2 15 1 16
REMARK H PARENT
REMARK Flexibility Score: inf
ROOT
ATOM      1  C   UNL     1     -15.946   9.300   8.183  1.00  0.00     0.000 C 
ENDROOT
BRANCH   1   2
ATOM      2  C   UNL     1     -16.926  10.437   8.526  1.00  0.00     0.000 C 
BRANCH   2   3
ATOM      3  C   UNL     1     -17.061  10.665  10.040  1.00  0.00     0.000 C 
BRANCH   3   4
ATOM      4  C   UNL     1     -16.077  11.722  10.569  1.00  0.00     0.000 C 
BRANCH   4   5
ATOM      5  C   UNL     1     -15.915  12.912   9.602  1.00  0.00     0.006 C 
BRANCH   5   6
ATOM      6  C   UNL     1     -14.462  13.151   9.159  1.00  0.00     0.053 C 
BRANCH   6   7
ATOM      7  C   UNL     1     -14.329  13.245   7.672  1.00  0.00     0.041 C 
ATOM      8  O   UNL     1     -15.308  12.974   6.929  1.00  0.00    -0.550 OA
ATOM      9  O   UNL     1     -13.126  13.648   7.105  1.00  0.00    -0.550 OA
ENDBRANCH   6   7
ENDBRANCH   5   6
ENDBRANCH   4   5
ENDBRANCH   3   4
ENDBRANCH   2   3
ENDBRANCH   1   2
BRANCH   1  10
ATOM     10  C   UNL     1     -15.858   8.239   9.292  1.00  0.00     0.000 C 
BRANCH  10  11
ATOM     11  C   UNL     1     -16.713   6.996   8.987  1.00  0.00    -0.000 C 
BRANCH  11  12
ATOM     12  C   UNL     1     -17.075   6.203  10.254  1.00  0.00    -0.000 C 
BRANCH  12  13
ATOM     13  C   UNL     1     -16.144   6.521  11.438  1.00  0.00    -0.000 C 
BRANCH  13  14
ATOM     14  C   UNL     1     -15.200   5.355  11.776  1.00  0.00    -0.000 C 
BRANCH  14  15
ATOM     15  C   UNL     1     -13.721   5.712  11.572  1.00  0.00    -0.003 C 
ATOM     16  C   UNL     1     -13.224   6.642  12.675  1.00  0.00     0.004 C 
ENDBRANCH  14  15
ENDBRANCH  13  14
ENDBRANCH  12  13
ENDBRANCH  11  12
ENDBRANCH  10  11
ENDBRANCH   1  10
TORSDOF 12
ENDMDL
MODEL 4
REMARK VINA RESULT:    -3.324      0.779      1.110
REMARK INTER + INTRA:          -6.511
REMARK INTER:                  -5.582
REMARK INTRA:                  -0.929
REMARK UNBOUND:                -0.856
REMARK SMILES CCCCCCCCCCCCCC(=O)[O-]
REMARK SMILES IDX 8 1 9 2 10 3 11 4 12 5 13 6 14 7 15 8 16 9 7 10 6 11 5 12
REMARK SMILES IDX 4 13 3 14 2 15 1 16
REMARK H PARENT
REMARK Flexibility Score: inf
ROOT
ATOM      1  C   UNL     1     -16.104  10.358   7.398  1.00  0.00     0.000 C 
ENDROOT
BRANCH   1   2
ATOM      2  C   UNL     1     -16.311   9.744   8.795  1.00  0.00     0.000 C 
BRANCH   2   3
ATOM      3  C   UNL     1     -15.586   8.400   8.964  1.00  0.00     0.000 C 
BRANCH   3   4
ATOM      4  C   UNL     1     -16.556   7.208   9.034  1.00  0.00     0.000 C 
BRANCH   4   5
ATOM      5  C   UNL     1     -16.623   6.586  10.444  1.00  0.00     0.006 C 
BRANCH   5   6
ATOM      6  C   UNL     1     -15.588   7.165  11.422  1.00  0.00     0.053 C 
BRANCH   6   7
ATOM      7  C   UNL     1     -14.471   6.209  11.699  1.00  0.00     0.041 C 
ATOM      8  O   UNL     1     -14.663   4.969  11.616  1.00  0.00    -0.550 OA
ATOM      9  O   UNL     1     -13.211   6.691  12.035  1.00  0.00    -0.550 OA
ENDBRANCH   6   7
ENDBRANCH   5   6
ENDBRANCH   4   5
ENDBRANCH   3   4
ENDBRANCH   2   3
ENDBRANCH   1   2
BRANCH   1  10
ATOM     10  C   UNL     1     -17.049  11.540   7.124  1.00  0.00     0.000 C 
BRANCH  10  11
ATOM     11  C   UNL     1     -16.319  12.894   7.147  1.00  0.00    -0.000 C 
BRANCH  11  12
ATOM     12  C   UNL     1     -14.801  12.750   6.948  1.00  0.00    -0.000 C 
BRANCH  12  13
ATOM     13  C   UNL     1     -13.991  13.392   8.090  1.00  0.00    -0.000 C 
BRANCH  13  14
ATOM     14  C   UNL     1     -14.417  12.880   9.475  1.00  0.00    -0.000 C 
BRANCH  14  15
ATOM     15  C   UNL     1     -14.649  14.016  10.481  1.00  0.00    -0.003 C 
ATOM     16  C   UNL     1     -13.478  14.136  11.453  1.00  0.00     0.004 C 
ENDBRANCH  14  15
ENDBRANCH  13  14
ENDBRANCH  12  13
ENDBRANCH  11  12
ENDBRANCH  10  11
ENDBRANCH   1  10
TORSDOF 12
ENDMDL
MODEL 5
REMARK VINA RESULT:    -3.304      2.290      4.254
REMARK INTER + INTRA:          -6.478
REMARK INTER:                  -4.988
REMARK INTRA:                  -1.490
REMARK UNBOUND:                -0.856
REMARK SMILES CCCCCCCCCCCCCC(=O)[O-]
REMARK SMILES IDX 8 1 9 2 10 3 11 4 12 5 13 6 14 7 15 8 16 9 7 10 6 11 5 12
REMARK SMILES IDX 4 13 3 14 2 15 1 16
REMARK H PARENT
REMARK Flexibility Score: inf
ROOT
ATOM      1  C   UNL     1     -13.774  13.586   7.884  1.00  0.00     0.000 C 
ENDROOT
BRANCH   1   2
ATOM      2  C   UNL     1     -14.711  12.959   6.835  1.00  0.00     0.000 C 
BRANCH   2   3
ATOM      3  C   UNL     1     -16.169  12.882   7.315  1.00  0.00     0.000 C 
BRANCH   3   4
ATOM      4  C   UNL     1     -16.787  11.489   7.107  1.00  0.00     0.000 C 
BRANCH   4   5
ATOM      5  C   UNL     1     -16.800  10.651   8.401  1.00  0.00     0.006 C 
BRANCH   5   6
ATOM      6  C   UNL     1     -15.598   9.701   8.530  1.00  0.00     0.053 C 
BRANCH   6   7
ATOM      7  C   UNL     1     -16.004   8.327   8.960  1.00  0.00     0.041 C 
ATOM      8  O   UNL     1     -17.017   7.777   8.454  1.00  0.00    -0.550 OA
ATOM      9  O   UNL     1     -15.252   7.645   9.910  1.00  0.00    -0.550 OA
ENDBRANCH   6   7
ENDBRANCH   5   6
ENDBRANCH   4   5
ENDBRANCH   3   4
ENDBRANCH   2   3
ENDBRANCH   1   2
BRANCH   1  10
ATOM     10  C   UNL     1     -14.171  13.225   9.325  1.00  0.00     0.000 C 
BRANCH  10  11
ATOM     11  C   UNL     1     -13.903  14.372  10.314  1.00  0.00    -0.000 C 
BRANCH  11  12
ATOM     12  C   UNL     1     -15.160  14.781  11.099  1.00  0.00    -0.000 C 
BRANCH  12  13
ATOM     13  C   UNL     1     -15.152  14.257  12.547  1.00  0.00    -0.000 C 
BRANCH  13  14
ATOM     14  C   UNL     1     -16.464  13.551  12.925  1.00  0.00    -0.000 C 
BRANCH  14  15
ATOM     15  C   UNL     1     -16.928  12.549  11.858  1.00  0.00    -0.003 C 
ATOM     16  C   UNL     1     -16.162  11.233  11.972  1.00  0.00     0.004 C 
ENDBRANCH  14  15
ENDBRANCH  13  14
ENDBRANCH  12  13
ENDBRANCH  11  12
ENDBRANCH  10  11
ENDBRANCH   1  10
TORSDOF 12
ENDMDL
MODEL 6
REMARK VINA RESULT:    -3.241      2.325      5.278
REMARK INTER + INTRA:          -6.370
REMARK INTER:                  -4.924
REMARK INTRA:                  -1.447
REMARK UNBOUND:                -0.856
REMARK SMILES CCCCCCCCCCCCCC(=O)[O-]
REMARK SMILES IDX 8 1 9 2 10 3 11 4 12 5 13 6 14 7 15 8 16 9 7 10 6 11 5 12
REMARK SMILES IDX 4 13 3 14 2 15 1 16
REMARK H PARENT
REMARK Flexibility Score: inf
ROOT
ATOM      1  C   UNL     1     -13.854  13.614   7.867  1.00  0.00     0.000 C 
ENDROOT
BRANCH   1   2
ATOM      2  C   UNL     1     -14.163  13.157   9.304  1.00  0.00     0.000 C 
BRANCH   2   3
ATOM      3  C   UNL     1     -14.073  14.305  10.322  1.00  0.00     0.000 C 
BRANCH   3   4
ATOM      4  C   UNL     1     -15.400  14.545  11.062  1.00  0.00     0.000 C 
BRANCH   4   5
ATOM      5  C   UNL     1     -16.432  13.431  10.796  1.00  0.00     0.006 C 
BRANCH   5   6
ATOM      6  C   UNL     1     -16.884  12.696  12.068  1.00  0.00     0.053 C 
BRANCH   6   7
ATOM      7  C   UNL     1     -15.952  11.589  12.447  1.00  0.00     0.041 C 
ATOM      8  O   UNL     1     -14.888  11.840  13.069  1.00  0.00    -0.550 OA
ATOM      9  O   UNL     1     -16.267  10.274  12.125  1.00  0.00    -0.550 OA
ENDBRANCH   6   7
ENDBRANCH   5   6
ENDBRANCH   4   5
ENDBRANCH   3   4
ENDBRANCH   2   3
ENDBRANCH   1   2
BRANCH   1  10
ATOM     10  C   UNL     1     -14.716  12.893   6.817  1.00  0.00     0.000 C 
BRANCH  10  11
ATOM     11  C   UNL     1     -16.218  13.177   6.993  1.00  0.00    -0.000 C 
BRANCH  11  12
ATOM     12  C   UNL     1     -17.018  11.917   7.362  1.00  0.00    -0.000 C 
BRANCH  12  13
ATOM     13  C   UNL     1     -16.141  10.653   7.418  1.00  0.00    -0.000 C 
BRANCH  13  14
ATOM     14  C   UNL     1     -16.480   9.751   8.615  1.00  0.00    -0.000 C 
BRANCH  14  15
ATOM     15  C   UNL     1     -15.497   8.583   8.776  1.00  0.00    -0.003 C 
ATOM     16  C   UNL     1     -15.986   7.596   9.832  1.00  0.00     0.004 C 
ENDBRANCH  14  15
ENDBRANCH  13  14
ENDBRANCH  12  13
ENDBRANCH  11  12
ENDBRANCH  10  11
ENDBRANCH   1  10
TORSDOF 12
ENDMDL
MODEL 7
REMARK VINA RESULT:    -3.211      3.162      7.083
REMARK INTER + INTRA:          -6.320
REMARK INTER:                  -5.205
REMARK INTRA:                  -1.115
REMARK UNBOUND:                -0.856
REMARK SMILES CCCCCCCCCCCCCC(=O)[O-]
REMARK SMILES IDX 8 1 9 2 10 3 11 4 12 5 13 6 14 7 15 8 16 9 7 10 6 11 5 12
REMARK SMILES IDX 4 13 3 14 2 15 1 16
REMARK H PARENT
REMARK Flexibility Score: inf
ROOT
ATOM      1  C   UNL     1     -16.782   8.573  10.405  1.00  0.00     0.000 C 
ENDROOT
BRANCH   1   2
ATOM      2  C   UNL     1     -16.409   9.784   9.530  1.00  0.00     0.000 C 
BRANCH   2   3
ATOM      3  C   UNL     1     -15.542   9.397   8.322  1.00  0.00     0.000 C 
BRANCH   3   4
ATOM      4  C   UNL     1     -15.722  10.356   7.133  1.00  0.00     0.000 C 
BRANCH   4   5
ATOM      5  C   UNL     1     -16.403  11.679   7.541  1.00  0.00     0.006 C 
BRANCH   5   6
ATOM      6  C   UNL     1     -15.650  12.931   7.064  1.00  0.00     0.053 C 
BRANCH   6   7
ATOM      7  C   UNL     1     -14.372  13.145   7.812  1.00  0.00     0.041 C 
ATOM      8  O   UNL     1     -13.358  13.596   7.220  1.00  0.00    -0.550 OA
ATOM      9  O   UNL     1     -14.307  12.861   9.171  1.00  0.00    -0.550 OA
ENDBRANCH   6   7
ENDBRANCH   5   6
ENDBRANCH   4   5
ENDBRANCH   3   4
ENDBRANCH   2   3
ENDBRANCH   1   2
BRANCH   1  10
ATOM     10  C   UNL     1     -17.081   7.313   9.577  1.00  0.00     0.000 C 
BRANCH  10  11
ATOM     11  C   UNL     1     -16.951   6.021  10.402  1.00  0.00    -0.000 C 
BRANCH  11  12
ATOM     12  C   UNL     1     -17.081   6.271  11.914  1.00  0.00    -0.000 C 
BRANCH  12  13
ATOM     13  C   UNL     1     -16.016   5.519  12.733  1.00  0.00    -0.000 C 
BRANCH  13  14
ATOM     14  C   UNL     1     -15.116   4.633  11.856  1.00  0.00    -0.000 C 
BRANCH  14  15
ATOM     15  C   UNL     1     -13.634   5.026  11.940  1.00  0.00    -0.003 C 
ATOM     16  C   UNL     1     -13.464   6.541  11.870  1.00  0.00     0.004 C 
ENDBRANCH  14  15
ENDBRANCH  13  14
ENDBRANCH  12  13
ENDBRANCH  11  12
ENDBRANCH  10  11
ENDBRANCH   1  10
TORSDOF 12
ENDMDL
MODEL 8
REMARK VINA RESULT:    -3.174      2.536      6.070
REMARK INTER + INTRA:          -6.257
REMARK INTER:                  -5.355
REMARK INTRA:                  -0.902
REMARK UNBOUND:                -0.856
REMARK SMILES CCCCCCCCCCCCCC(=O)[O-]
REMARK SMILES IDX 8 1 9 2 10 3 11 4 12 5 13 6 14 7 15 8 16 9 7 10 6 11 5 12
REMARK SMILES IDX 4 13 3 14 2 15 1 16
REMARK H PARENT
REMARK Flexibility Score: inf
ROOT
ATOM      1  C   UNL     1     -15.791  12.732   7.359  1.00  0.00     0.000 C 
ENDROOT
BRANCH   1   2
ATOM      2  C   UNL     1     -14.377  13.149   7.802  1.00  0.00     0.000 C 
BRANCH   2   3
ATOM      3  C   UNL     1     -14.146  12.951   9.308  1.00  0.00     0.000 C 
BRANCH   3   4
ATOM      4  C   UNL     1     -14.148  14.278  10.086  1.00  0.00     0.000 C 
BRANCH   4   5
ATOM      5  C   UNL     1     -15.304  14.362  11.104  1.00  0.00     0.006 C 
BRANCH   5   6
ATOM      6  C   UNL     1     -14.833  14.455  12.564  1.00  0.00     0.053 C 
BRANCH   6   7
ATOM      7  C   UNL     1     -13.925  13.326  12.940  1.00  0.00     0.041 C 
ATOM      8  O   UNL     1     -14.391  12.172  13.122  1.00  0.00    -0.550 OA
ATOM      9  O   UNL     1     -12.560  13.548  13.074  1.00  0.00    -0.550 OA
ENDBRANCH   6   7
ENDBRANCH   5   6
ENDBRANCH   4   5
ENDBRANCH   3   4
ENDBRANCH   2   3
ENDBRANCH   1   2
BRANCH   1  10
ATOM     10  C   UNL     1     -15.932  11.211   7.180  1.00  0.00     0.000 C 
BRANCH  10  11
ATOM     11  C   UNL     1     -16.961  10.598   8.145  1.00  0.00    -0.000 C 
BRANCH  11  12
ATOM     12  C   UNL     1     -16.300   9.850   9.316  1.00  0.00    -0.000 C 
BRANCH  12  13
ATOM     13  C   UNL     1     -15.608   8.549   8.872  1.00  0.00    -0.000 C 
BRANCH  13  14
ATOM     14  C   UNL     1     -16.197   7.304   9.556  1.00  0.00    -0.000 C 
BRANCH  14  15
ATOM     15  C   UNL     1     -15.799   7.196  11.035  1.00  0.00    -0.003 C 
ATOM     16  C   UNL     1     -14.445   6.508  11.188  1.00  0.00     0.004 C 
ENDBRANCH  14  15
ENDBRANCH  13  14
ENDBRANCH  12  13
ENDBRANCH  11  12
ENDBRANCH  10  11
ENDBRANCH   1  10
TORSDOF 12
ENDMDL
MODEL 9
REMARK VINA RESULT:    -3.174      3.028      6.294
REMARK INTER + INTRA:          -6.256
REMARK INTER:                  -5.306
REMARK INTRA:                  -0.950
REMARK UNBOUND:                -0.856
REMARK SMILES CCCCCCCCCCCCCC(=O)[O-]
REMARK SMILES IDX 8 1 9 2 10 3 11 4 12 5 13 6 14 7 15 8 16 9 7 10 6 11 5 12
REMARK SMILES IDX 4 13 3 14 2 15 1 16
REMARK H PARENT
REMARK Flexibility Score: inf
ROOT
ATOM      1  C   UNL     1     -15.704  10.524   7.324  1.00  0.00     0.000 C 
ENDROOT
BRANCH   1   2
ATOM      2  C   UNL     1     -15.504  12.047   7.436  1.00  0.00     0.000 C 
BRANCH   2   3
ATOM      3  C   UNL     1     -16.583  12.724   8.295  1.00  0.00     0.000 C 
BRANCH   3   4
ATOM      4  C   UNL     1     -16.050  13.180   9.664  1.00  0.00     0.000 C 
BRANCH   4   5
ATOM      5  C   UNL     1     -14.509  13.174   9.727  1.00  0.00     0.006 C 
BRANCH   5   6
ATOM      6  C   UNL     1     -13.919  14.389  10.461  1.00  0.00     0.053 C 
BRANCH   6   7
ATOM      7  C   UNL     1     -13.789  14.156  11.933  1.00  0.00     0.041 C 
ATOM      8  O   UNL     1     -12.709  13.725  12.414  1.00  0.00    -0.550 OA
ATOM      9  O   UNL     1     -14.858  14.431  12.777  1.00  0.00    -0.550 OA
ENDBRANCH   6   7
ENDBRANCH   5   6
ENDBRANCH   4   5
ENDBRANCH   3   4
ENDBRANCH   2   3
ENDBRANCH   1   2
BRANCH   1  10
ATOM     10  C   UNL     1     -17.061  10.062   7.878  1.00  0.00     0.000 C 
BRANCH  10  11
ATOM     11  C   UNL     1     -16.917   9.195   9.140  1.00  0.00    -0.000 C 
BRANCH  11  12
ATOM     12  C   UNL     1     -15.639   8.339   9.126  1.00  0.00    -0.000 C 
BRANCH  12  13
ATOM     13  C   UNL     1     -15.712   7.150  10.101  1.00  0.00    -0.000 C 
BRANCH  13  14
ATOM     14  C   UNL     1     -15.645   7.589  11.573  1.00  0.00    -0.000 C 
BRANCH  14  15
ATOM     15  C   UNL     1     -14.738   6.686  12.420  1.00  0.00    -0.003 C 
ATOM     16  C   UNL     1     -13.753   5.919  11.542  1.00  0.00     0.004 C 
ENDBRANCH  14  15
ENDBRANCH  13  14
ENDBRANCH  12  13
ENDBRANCH  11  12
ENDBRANCH  10  11
ENDBRANCH   1  10
TORSDOF 12
ENDMDL
