MODEL 1
REMARK VINA RESULT:     1.569      0.000      0.000
REMARK INTER + INTRA:           2.203
REMARK INTER:                   2.119
REMARK INTRA:                   0.084
REMARK UNBOUND:                 0.084
REMARK SMILES CC[C@@H](CC[C@H](C)[C@@H]1CC[C@@H]2[C@H]3CC(=O)C4=CC(=O)CC[C@@]4(C)[C@H]3CC[C@@]21C)C(C)C
REMARK SMILES IDX 4 1 3 2 2 3 1 4 29 5 30 6 31 7 5 8 6 9 7 10 8 11 9 12 27 13
REMARK SMILES IDX 10 14 11 15 26 16 28 17 12 18 25 19 24 20 13 21 22 22 14 23
REMARK SMILES IDX 16 24 21 25 23 26 15 27 17 28 20 29 18 30 19 31
REMARK H PARENT
REMARK Flexibility Score: inf
ROOT
ATOM      1  C   UNL     1     -10.224 -13.524  36.496  1.00  0.00     0.004 C 
ENDROOT
BRANCH   1   2
ATOM      2  C   UNL     1     -10.516 -12.007  36.687  1.00  0.00    -0.009 C 
BRANCH   2   3
ATOM      3  C   UNL     1     -12.033 -11.810  36.968  1.00  0.00     0.000 C 
ATOM      4  C   UNL     1     -12.500 -12.506  38.250  1.00  0.00     0.004 C 
ENDBRANCH   2   3
BRANCH   2   5
ATOM      5  C   UNL     1     -10.040 -11.083  35.508  1.00  0.00    -0.014 C 
ATOM      6  C   UNL     1      -9.875 -11.844  34.182  1.00  0.00     0.007 C 
ATOM      7  C   UNL     1     -10.896  -9.821  35.310  1.00  0.00     0.007 C 
ENDBRANCH   2   5
ENDBRANCH   1   2
BRANCH   1   8
ATOM      8  C   UNL     1     -11.482 -14.382  36.247  1.00  0.00     0.004 C 
BRANCH   8   9
ATOM      9  C   UNL     1     -12.051 -14.252  34.807  1.00  0.00    -0.011 C 
ATOM     10  C   UNL     1     -13.501 -13.735  34.843  1.00  0.00     0.008 C 
BRANCH   9  11
ATOM     11  C   UNL     1     -11.708 -15.540  33.939  1.00  0.00    -0.002 C 
ATOM     12  C   UNL     1     -10.301 -15.422  33.340  1.00  0.00     0.005 C 
ATOM     13  C   UNL     1     -12.603 -16.077  32.767  1.00  0.00    -0.026 C 
ATOM     14  C   UNL     1     -10.206 -16.447  32.223  1.00  0.00     0.005 C 
ATOM     15  C   UNL     1     -11.610 -17.043  32.039  1.00  0.00    -0.001 C 
ATOM     16  C   UNL     1     -13.088 -14.949  31.812  1.00  0.00     0.007 C 
ATOM     17  C   UNL     1     -13.818 -16.862  33.336  1.00  0.00     0.012 C 
ATOM     18  C   UNL     1     -11.900 -17.389  30.548  1.00  0.00     0.004 C 
ATOM     19  C   UNL     1     -13.460 -15.411  30.396  1.00  0.00     0.005 C 
ATOM     20  C   UNL     1     -12.289 -16.142  29.705  1.00  0.00     0.003 C 
ATOM     21  C   UNL     1     -12.930 -18.529  30.423  1.00  0.00     0.085 C 
ATOM     22  C   UNL     1     -12.511 -16.493  28.173  1.00  0.00    -0.000 C 
ATOM     23  C   UNL     1     -13.258 -18.842  28.999  1.00  0.00     0.159 C 
ATOM     24  C   UNL     1     -13.347 -17.761  27.991  1.00  0.00     0.005 C 
ATOM     25  C   UNL     1     -13.200 -15.311  27.416  1.00  0.00     0.020 C 
ATOM     26  C   UNL     1     -11.123 -16.751  27.522  1.00  0.00     0.017 C 
ATOM     27  O   UNL     1     -13.537 -20.032  28.686  1.00  0.00    -0.295 OA
ATOM     28  C   UNL     1     -14.044 -17.971  26.856  1.00  0.00     0.055 C 
ATOM     29  C   UNL     1     -13.473 -15.618  25.938  1.00  0.00     0.081 C 
ATOM     30  C   UNL     1     -14.131 -16.957  25.789  1.00  0.00     0.156 C 
ATOM     31  O   UNL     1     -14.747 -17.230  24.725  1.00  0.00    -0.295 OA
ENDBRANCH   9  11
ENDBRANCH   8   9
ENDBRANCH   1   8
TORSDOF 6
ENDMDL
