MODEL 1
REMARK VINA RESULT:    -7.538      0.000      0.000
REMARK INTER + INTRA:          -9.217
REMARK INTER:                  -9.080
REMARK INTRA:                  -0.137
REMARK UNBOUND:                -0.137
REMARK SMILES O=c1c(O)c(-c2ccc(O)c(O)c2)oc2cc(O)cc(O)c12
REMARK SMILES IDX 5 1 3 2 2 3 1 4 22 5 20 6 19 7 17 8 16 9 15 10 14 11 6 12
REMARK SMILES IDX 7 13 8 14 9 15 13 16 11 17 10 18 12 20 4 22 21 24 18 26
REMARK H PARENT 10 19 12 21 4 23 21 25 18 27
REMARK Flexibility Score: inf
ROOT
ATOM      1  C   UNL     1      94.318 -62.368 103.537  1.00  0.00     0.180 A 
ATOM      2  C   UNL     1      93.757 -61.846 102.359  1.00  0.00     0.208 A 
ATOM      3  C   UNL     1      92.620 -62.463 101.814  1.00  0.00     0.238 A 
ATOM      4  O   UNL     1      92.091 -61.959 100.789  1.00  0.00    -0.285 OA
ATOM      5  C   UNL     1      92.067 -63.603 102.445  1.00  0.00     0.111 A 
ATOM      6  C   UNL     1      90.940 -64.332 101.958  1.00  0.00     0.134 A 
ATOM      7  C   UNL     1      90.399 -65.365 102.734  1.00  0.00     0.093 A 
ATOM      8  C   UNL     1      90.984 -65.739 103.946  1.00  0.00     0.123 A 
ATOM      9  C   UNL     1      92.120 -65.072 104.400  1.00  0.00     0.094 A 
ATOM     10  C   UNL     1      92.661 -64.013 103.667  1.00  0.00     0.146 A 
ATOM     11  O   UNL     1      93.738 -63.398 104.141  1.00  0.00    -0.452 OA
ENDROOT
BRANCH   1  12
ATOM     12  C   UNL     1      95.531 -61.787 104.158  1.00  0.00     0.025 A 
ATOM     13  C   UNL     1      96.711 -62.539 104.302  1.00  0.00     0.016 A 
ATOM     14  C   UNL     1      97.835 -61.980 104.913  1.00  0.00     0.051 A 
ATOM     15  C   UNL     1      97.794 -60.666 105.400  1.00  0.00     0.157 A 
ATOM     16  C   UNL     1      95.489 -60.479 104.667  1.00  0.00     0.062 A 
ATOM     17  C   UNL     1      96.618 -59.916 105.279  1.00  0.00     0.158 A 
BRANCH  15  18
ATOM     18  O   UNL     1      98.915 -60.104 106.008  1.00  0.00    -0.504 OA
ATOM     19  H   UNL     1      99.161 -60.319 106.967  1.00  0.00     0.293 HD
ENDBRANCH  15  18
BRANCH  17  20
ATOM     20  O   UNL     1      96.577 -58.612 105.771  1.00  0.00    -0.504 OA
ATOM     21  H   UNL     1      97.415 -58.138 106.088  1.00  0.00     0.293 HD
ENDBRANCH  17  20
ENDBRANCH   1  12
BRANCH   2  22
ATOM     22  O   UNL     1      94.306 -60.707 101.764  1.00  0.00    -0.502 OA
ATOM     23  H   UNL     1      95.284 -60.644 101.506  1.00  0.00     0.293 HD
ENDBRANCH   2  22
BRANCH   6  24
ATOM     24  O   UNL     1      90.338 -64.101 100.719  1.00  0.00    -0.507 OA
ATOM     25  H   UNL     1      90.835 -63.879  99.870  1.00  0.00     0.293 HD
ENDBRANCH   6  24
BRANCH   8  26
ATOM     26  O   UNL     1      90.449 -66.778 104.703  1.00  0.00    -0.508 OA
ATOM     27  H   UNL     1      90.258 -67.687 104.296  1.00  0.00     0.293 HD
ENDBRANCH   8  26
TORSDOF 6
ENDMDL
MODEL 2
REMARK VINA RESULT:    -7.417      1.361      6.822
REMARK INTER + INTRA:          -9.071
REMARK INTER:                  -8.757
REMARK INTRA:                  -0.314
REMARK UNBOUND:                -0.137
REMARK SMILES O=c1c(O)c(-c2ccc(O)c(O)c2)oc2cc(O)cc(O)c12
REMARK SMILES IDX 5 1 3 2 2 3 1 4 22 5 20 6 19 7 17 8 16 9 15 10 14 11 6 12
REMARK SMILES IDX 7 13 8 14 9 15 13 16 11 17 10 18 12 20 4 22 21 24 18 26
REMARK H PARENT 10 19 12 21 4 23 21 25 18 27
REMARK Flexibility Score: inf
ROOT
ATOM      1  C   UNL     1      93.719 -62.055 103.190  1.00  0.00     0.180 A 
ATOM      2  C   UNL     1      93.432 -60.681 103.248  1.00  0.00     0.208 A 
ATOM      3  C   UNL     1      94.354 -59.818 103.862  1.00  0.00     0.238 A 
ATOM      4  O   UNL     1      94.116 -58.582 103.863  1.00  0.00    -0.285 OA
ATOM      5  C   UNL     1      95.542 -60.341 104.424  1.00  0.00     0.111 A 
ATOM      6  C   UNL     1      96.527 -59.565 105.106  1.00  0.00     0.134 A 
ATOM      7  C   UNL     1      97.726 -60.168 105.507  1.00  0.00     0.093 A 
ATOM      8  C   UNL     1      97.947 -61.533 105.309  1.00  0.00     0.123 A 
ATOM      9  C   UNL     1      96.966 -62.311 104.698  1.00  0.00     0.094 A 
ATOM     10  C   UNL     1      95.776 -61.731 104.254  1.00  0.00     0.146 A 
ATOM     11  O   UNL     1      94.872 -62.507 103.668  1.00  0.00    -0.452 OA
ENDROOT
BRANCH   1  12
ATOM     12  C   UNL     1      92.786 -63.030 102.580  1.00  0.00     0.025 A 
ATOM     13  C   UNL     1      92.780 -63.269 101.194  1.00  0.00     0.016 A 
ATOM     14  C   UNL     1      91.875 -64.175 100.636  1.00  0.00     0.051 A 
ATOM     15  C   UNL     1      90.954 -64.845 101.453  1.00  0.00     0.157 A 
ATOM     16  C   UNL     1      91.846 -63.689 103.390  1.00  0.00     0.062 A 
ATOM     17  C   UNL     1      90.937 -64.599 102.831  1.00  0.00     0.158 A 
BRANCH  15  18
ATOM     18  O   UNL     1      90.050 -65.752 100.901  1.00  0.00    -0.504 OA
ATOM     19  H   UNL     1      89.050 -65.600 100.950  1.00  0.00     0.293 HD
ENDBRANCH  15  18
BRANCH  17  20
ATOM     20  O   UNL     1      90.015 -65.262 103.640  1.00  0.00    -0.504 OA
ATOM     21  H   UNL     1      90.303 -65.983 104.291  1.00  0.00     0.293 HD
ENDBRANCH  17  20
ENDBRANCH   1  12
BRANCH   2  22
ATOM     22  O   UNL     1      92.263 -60.181 102.667  1.00  0.00    -0.502 OA
ATOM     23  H   UNL     1      91.401 -60.070 103.188  1.00  0.00     0.293 HD
ENDBRANCH   2  22
BRANCH   6  24
ATOM     24  O   UNL     1      96.366 -58.216 105.435  1.00  0.00    -0.507 OA
ATOM     25  H   UNL     1      96.476 -57.450 104.789  1.00  0.00     0.293 HD
ENDBRANCH   6  24
BRANCH   8  26
ATOM     26  O   UNL     1      99.136 -62.128 105.726  1.00  0.00    -0.508 OA
ATOM     27  H   UNL     1      99.870 -61.590 106.171  1.00  0.00     0.293 HD
ENDBRANCH   8  26
TORSDOF 6
ENDMDL
MODEL 3
REMARK VINA RESULT:    -7.377      2.576      4.266
REMARK INTER + INTRA:          -9.024
REMARK INTER:                  -8.851
REMARK INTRA:                  -0.173
REMARK UNBOUND:                -0.137
REMARK SMILES O=c1c(O)c(-c2ccc(O)c(O)c2)oc2cc(O)cc(O)c12
REMARK SMILES IDX 5 1 3 2 2 3 1 4 22 5 20 6 19 7 17 8 16 9 15 10 14 11 6 12
REMARK SMILES IDX 7 13 8 14 9 15 13 16 11 17 10 18 12 20 4 22 21 24 18 26
REMARK H PARENT 10 19 12 21 4 23 21 25 18 27
REMARK Flexibility Score: inf
ROOT
ATOM      1  C   UNL     1      95.310 -61.611 104.327  1.00  0.00     0.180 A 
ATOM      2  C   UNL     1      95.153 -60.224 104.496  1.00  0.00     0.208 A 
ATOM      3  C   UNL     1      94.292 -59.526 103.634  1.00  0.00     0.238 A 
ATOM      4  O   UNL     1      94.115 -58.294 103.824  1.00  0.00    -0.285 OA
ATOM      5  C   UNL     1      93.611 -60.219 102.605  1.00  0.00     0.111 A 
ATOM      6  C   UNL     1      92.745 -59.606 101.650  1.00  0.00     0.134 A 
ATOM      7  C   UNL     1      92.022 -60.408 100.758  1.00  0.00     0.093 A 
ATOM      8  C   UNL     1      92.183 -61.796 100.744  1.00  0.00     0.123 A 
ATOM      9  C   UNL     1      93.071 -62.398 101.633  1.00  0.00     0.094 A 
ATOM     10  C   UNL     1      93.779 -61.628 102.559  1.00  0.00     0.146 A 
ATOM     11  O   UNL     1      94.606 -62.243 103.395  1.00  0.00    -0.452 OA
ENDROOT
BRANCH   1  12
ATOM     12  C   UNL     1      96.217 -62.412 105.180  1.00  0.00     0.025 A 
ATOM     13  C   UNL     1      97.604 -62.178 105.193  1.00  0.00     0.016 A 
ATOM     14  C   UNL     1      98.445 -62.962 105.987  1.00  0.00     0.051 A 
ATOM     15  C   UNL     1      97.915 -63.997 106.769  1.00  0.00     0.157 A 
ATOM     16  C   UNL     1      95.695 -63.464 105.948  1.00  0.00     0.062 A 
ATOM     17  C   UNL     1      96.539 -64.251 106.747  1.00  0.00     0.158 A 
BRANCH  15  18
ATOM     18  O   UNL     1      98.751 -64.780 107.563  1.00  0.00    -0.504 OA
ATOM     19  H   UNL     1      99.334 -65.506 107.165  1.00  0.00     0.293 HD
ENDBRANCH  15  18
BRANCH  17  20
ATOM     20  O   UNL     1      96.015 -65.286 107.519  1.00  0.00    -0.504 OA
ATOM     21  H   UNL     1      95.368 -65.107 108.278  1.00  0.00     0.293 HD
ENDBRANCH  17  20
ENDBRANCH   1  12
BRANCH   2  22
ATOM     22  O   UNL     1      95.818 -59.563 105.531  1.00  0.00    -0.502 OA
ATOM     23  H   UNL     1      95.728 -59.840 106.502  1.00  0.00     0.293 HD
ENDBRANCH   2  22
BRANCH   6  24
ATOM     24  O   UNL     1      92.583 -58.224 101.519  1.00  0.00    -0.507 OA
ATOM     25  H   UNL     1      91.713 -57.732 101.653  1.00  0.00     0.293 HD
ENDBRANCH   6  24
BRANCH   8  26
ATOM     26  O   UNL     1      91.472 -62.584  99.843  1.00  0.00    -0.508 OA
ATOM     27  H   UNL     1      90.739 -63.213 100.151  1.00  0.00     0.293 HD
ENDBRANCH   8  26
TORSDOF 6
ENDMDL
MODEL 4
REMARK VINA RESULT:    -7.076      2.742      4.194
REMARK INTER + INTRA:          -8.660
REMARK INTER:                  -8.383
REMARK INTRA:                  -0.277
REMARK UNBOUND:                -0.137
REMARK SMILES O=c1c(O)c(-c2ccc(O)c(O)c2)oc2cc(O)cc(O)c12
REMARK SMILES IDX 5 1 3 2 2 3 1 4 22 5 20 6 19 7 17 8 16 9 15 10 14 11 6 12
REMARK SMILES IDX 7 13 8 14 9 15 13 16 11 17 10 18 12 20 4 22 21 24 18 26
REMARK H PARENT 10 19 12 21 4 23 21 25 18 27
REMARK Flexibility Score: inf
ROOT
ATOM      1  C   UNL     1      94.957 -62.450 103.633  1.00  0.00     0.180 A 
ATOM      2  C   UNL     1      94.554 -63.396 102.675  1.00  0.00     0.208 A 
ATOM      3  C   UNL     1      93.622 -63.019 101.695  1.00  0.00     0.238 A 
ATOM      4  O   UNL     1      93.305 -63.855 100.809  1.00  0.00    -0.285 OA
ATOM      5  C   UNL     1      93.094 -61.706 101.693  1.00  0.00     0.111 A 
ATOM      6  C   UNL     1      92.114 -61.228 100.772  1.00  0.00     0.134 A 
ATOM      7  C   UNL     1      91.761 -59.872 100.781  1.00  0.00     0.093 A 
ATOM      8  C   UNL     1      92.302 -58.993 101.723  1.00  0.00     0.123 A 
ATOM      9  C   UNL     1      93.214 -59.464 102.665  1.00  0.00     0.094 A 
ATOM     10  C   UNL     1      93.614 -60.803 102.657  1.00  0.00     0.146 A 
ATOM     11  O   UNL     1      94.494 -61.207 103.565  1.00  0.00    -0.452 OA
ENDROOT
BRANCH   1  12
ATOM     12  C   UNL     1      95.917 -62.779 104.711  1.00  0.00     0.025 A 
ATOM     13  C   UNL     1      97.268 -62.396 104.630  1.00  0.00     0.016 A 
ATOM     14  C   UNL     1      98.162 -62.739 105.647  1.00  0.00     0.051 A 
ATOM     15  C   UNL     1      97.723 -63.479 106.753  1.00  0.00     0.157 A 
ATOM     16  C   UNL     1      95.488 -63.539 105.811  1.00  0.00     0.062 A 
ATOM     17  C   UNL     1      96.385 -63.883 106.833  1.00  0.00     0.158 A 
BRANCH  15  18
ATOM     18  O   UNL     1      98.611 -63.821 107.771  1.00  0.00    -0.504 OA
ATOM     19  H   UNL     1      98.977 -64.762 107.862  1.00  0.00     0.293 HD
ENDBRANCH  15  18
BRANCH  17  20
ATOM     20  O   UNL     1      95.952 -64.625 107.931  1.00  0.00    -0.504 OA
ATOM     21  H   UNL     1      95.099 -65.171 107.900  1.00  0.00     0.293 HD
ENDBRANCH  17  20
ENDBRANCH   1  12
BRANCH   2  22
ATOM     22  O   UNL     1      95.104 -64.681 102.681  1.00  0.00    -0.502 OA
ATOM     23  H   UNL     1      95.007 -65.319 101.900  1.00  0.00     0.293 HD
ENDBRANCH   2  22
BRANCH   6  24
ATOM     24  O   UNL     1      91.445 -62.040  99.853  1.00  0.00    -0.507 OA
ATOM     25  H   UNL     1      91.311 -61.817  98.879  1.00  0.00     0.293 HD
ENDBRANCH   6  24
BRANCH   8  26
ATOM     26  O   UNL     1      91.933 -57.650 101.736  1.00  0.00    -0.508 OA
ATOM     27  H   UNL     1      90.975 -57.362 101.574  1.00  0.00     0.293 HD
ENDBRANCH   8  26
TORSDOF 6
ENDMDL
MODEL 5
REMARK VINA RESULT:    -7.058      1.999      6.740
REMARK INTER + INTRA:          -8.639
REMARK INTER:                  -8.309
REMARK INTRA:                  -0.330
REMARK UNBOUND:                -0.137
REMARK SMILES O=c1c(O)c(-c2ccc(O)c(O)c2)oc2cc(O)cc(O)c12
REMARK SMILES IDX 5 1 3 2 2 3 1 4 22 5 20 6 19 7 17 8 16 9 15 10 14 11 6 12
REMARK SMILES IDX 7 13 8 14 9 15 13 16 11 17 10 18 12 20 4 22 21 24 18 26
REMARK H PARENT 10 19 12 21 4 23 21 25 18 27
REMARK Flexibility Score: inf
ROOT
ATOM      1  C   UNL     1      93.615 -62.799 102.439  1.00  0.00     0.180 A 
ATOM      2  C   UNL     1      92.904 -61.588 102.397  1.00  0.00     0.208 A 
ATOM      3  C   UNL     1      93.417 -60.473 103.079  1.00  0.00     0.238 A 
ATOM      4  O   UNL     1      92.803 -59.377 102.993  1.00  0.00    -0.285 OA
ATOM      5  C   UNL     1      94.626 -60.587 103.806  1.00  0.00     0.111 A 
ATOM      6  C   UNL     1      95.216 -59.533 104.567  1.00  0.00     0.134 A 
ATOM      7  C   UNL     1      96.481 -59.720 105.139  1.00  0.00     0.093 A 
ATOM      8  C   UNL     1      97.146 -60.944 105.034  1.00  0.00     0.123 A 
ATOM      9  C   UNL     1      96.550 -61.998 104.345  1.00  0.00     0.094 A 
ATOM     10  C   UNL     1      95.306 -61.830 103.731  1.00  0.00     0.146 A 
ATOM     11  O   UNL     1      94.779 -62.857 103.075  1.00  0.00    -0.452 OA
ENDROOT
BRANCH   1  12
ATOM     12  C   UNL     1      93.126 -64.024 101.766  1.00  0.00     0.025 A 
ATOM     13  C   UNL     1      92.314 -64.955 102.439  1.00  0.00     0.016 A 
ATOM     14  C   UNL     1      91.885 -66.116 101.793  1.00  0.00     0.051 A 
ATOM     15  C   UNL     1      92.269 -66.371 100.469  1.00  0.00     0.157 A 
ATOM     16  C   UNL     1      93.526 -64.296 100.447  1.00  0.00     0.062 A 
ATOM     17  C   UNL     1      93.094 -65.461  99.797  1.00  0.00     0.158 A 
BRANCH  15  18
ATOM     18  O   UNL     1      91.841 -67.528  99.821  1.00  0.00    -0.504 OA
ATOM     19  H   UNL     1      91.478 -68.321 100.336  1.00  0.00     0.293 HD
ENDBRANCH  15  18
BRANCH  17  20
ATOM     20  O   UNL     1      93.481 -65.721  98.483  1.00  0.00    -0.504 OA
ATOM     21  H   UNL     1      93.060 -65.234  97.700  1.00  0.00     0.293 HD
ENDBRANCH  17  20
ENDBRANCH   1  12
BRANCH   2  22
ATOM     22  O   UNL     1      91.724 -61.490 101.655  1.00  0.00    -0.502 OA
ATOM     23  H   UNL     1      91.382 -62.247 101.073  1.00  0.00     0.293 HD
ENDBRANCH   2  22
BRANCH   6  24
ATOM     24  O   UNL     1      94.597 -58.305 104.810  1.00  0.00    -0.507 OA
ATOM     25  H   UNL     1      93.796 -58.173 105.411  1.00  0.00     0.293 HD
ENDBRANCH   6  24
BRANCH   8  26
ATOM     26  O   UNL     1      98.396 -61.126 105.621  1.00  0.00    -0.508 OA
ATOM     27  H   UNL     1      98.494 -61.322 106.610  1.00  0.00     0.293 HD
ENDBRANCH   8  26
TORSDOF 6
ENDMDL
MODEL 6
REMARK VINA RESULT:    -7.057      2.273      7.531
REMARK INTER + INTRA:          -8.638
REMARK INTER:                  -8.514
REMARK INTRA:                  -0.125
REMARK UNBOUND:                -0.137
REMARK SMILES O=c1c(O)c(-c2ccc(O)c(O)c2)oc2cc(O)cc(O)c12
REMARK SMILES IDX 5 1 3 2 2 3 1 4 22 5 20 6 19 7 17 8 16 9 15 10 14 11 6 12
REMARK SMILES IDX 7 13 8 14 9 15 13 16 11 17 10 18 12 20 4 22 21 24 18 26
REMARK H PARENT 10 19 12 21 4 23 21 25 18 27
REMARK Flexibility Score: inf
ROOT
ATOM      1  C   UNL     1      91.664 -64.562 103.085  1.00  0.00     0.180 A 
ATOM      2  C   UNL     1      92.727 -64.712 103.992  1.00  0.00     0.208 A 
ATOM      3  C   UNL     1      93.675 -63.683 104.108  1.00  0.00     0.238 A 
ATOM      4  O   UNL     1      94.594 -63.800 104.960  1.00  0.00    -0.285 OA
ATOM      5  C   UNL     1      93.558 -62.524 103.304  1.00  0.00     0.111 A 
ATOM      6  C   UNL     1      94.483 -61.437 103.309  1.00  0.00     0.134 A 
ATOM      7  C   UNL     1      94.197 -60.283 102.568  1.00  0.00     0.093 A 
ATOM      8  C   UNL     1      93.052 -60.204 101.771  1.00  0.00     0.123 A 
ATOM      9  C   UNL     1      92.174 -61.284 101.713  1.00  0.00     0.094 A 
ATOM     10  C   UNL     1      92.413 -62.434 102.469  1.00  0.00     0.146 A 
ATOM     11  O   UNL     1      91.545 -63.435 102.393  1.00  0.00    -0.452 OA
ENDROOT
BRANCH   1  12
ATOM     12  C   UNL     1      90.640 -65.614 102.890  1.00  0.00     0.025 A 
ATOM     13  C   UNL     1      90.452 -66.229 101.639  1.00  0.00     0.016 A 
ATOM     14  C   UNL     1      89.463 -67.201 101.471  1.00  0.00     0.051 A 
ATOM     15  C   UNL     1      88.639 -67.563 102.546  1.00  0.00     0.157 A 
ATOM     16  C   UNL     1      89.797 -65.965 103.956  1.00  0.00     0.062 A 
ATOM     17  C   UNL     1      88.804 -66.941 103.789  1.00  0.00     0.158 A 
BRANCH  15  18
ATOM     18  O   UNL     1      87.653 -68.534 102.382  1.00  0.00    -0.504 OA
ATOM     19  H   UNL     1      87.566 -69.063 101.522  1.00  0.00     0.293 HD
ENDBRANCH  15  18
BRANCH  17  20
ATOM     20  O   UNL     1      87.978 -67.298 104.854  1.00  0.00    -0.504 OA
ATOM     21  H   UNL     1      87.584 -68.228 104.931  1.00  0.00     0.293 HD
ENDBRANCH  17  20
ENDBRANCH   1  12
BRANCH   2  22
ATOM     22  O   UNL     1      92.812 -65.855 104.793  1.00  0.00    -0.502 OA
ATOM     23  H   UNL     1      93.012 -66.773 104.412  1.00  0.00     0.293 HD
ENDBRANCH   2  22
BRANCH   6  24
ATOM     24  O   UNL     1      95.699 -61.451 103.997  1.00  0.00    -0.507 OA
ATOM     25  H   UNL     1      96.411 -62.158 103.893  1.00  0.00     0.293 HD
ENDBRANCH   6  24
BRANCH   8  26
ATOM     26  O   UNL     1      92.784 -59.059 101.024  1.00  0.00    -0.508 OA
ATOM     27  H   UNL     1      93.062 -58.983 100.053  1.00  0.00     0.293 HD
ENDBRANCH   8  26
TORSDOF 6
ENDMDL
MODEL 7
REMARK VINA RESULT:    -7.048      1.465      7.154
REMARK INTER + INTRA:          -8.627
REMARK INTER:                  -8.336
REMARK INTRA:                  -0.291
REMARK UNBOUND:                -0.137
REMARK SMILES O=c1c(O)c(-c2ccc(O)c(O)c2)oc2cc(O)cc(O)c12
REMARK SMILES IDX 5 1 3 2 2 3 1 4 22 5 20 6 19 7 17 8 16 9 15 10 14 11 6 12
REMARK SMILES IDX 7 13 8 14 9 15 13 16 11 17 10 18 12 20 4 22 21 24 18 26
REMARK H PARENT 10 19 12 21 4 23 21 25 18 27
REMARK Flexibility Score: inf
ROOT
ATOM      1  C   UNL     1      94.258 -63.152 103.412  1.00  0.00     0.180 A 
ATOM      2  C   UNL     1      95.315 -63.995 103.796  1.00  0.00     0.208 A 
ATOM      3  C   UNL     1      96.445 -63.435 104.412  1.00  0.00     0.238 A 
ATOM      4  O   UNL     1      97.364 -64.202 104.801  1.00  0.00    -0.285 OA
ATOM      5  C   UNL     1      96.511 -62.037 104.623  1.00  0.00     0.111 A 
ATOM      6  C   UNL     1      97.625 -61.357 105.201  1.00  0.00     0.134 A 
ATOM      7  C   UNL     1      97.528 -59.988 105.482  1.00  0.00     0.093 A 
ATOM      8  C   UNL     1      96.383 -59.262 105.144  1.00  0.00     0.123 A 
ATOM      9  C   UNL     1      95.314 -59.906 104.525  1.00  0.00     0.094 A 
ATOM     10  C   UNL     1      95.367 -61.278 104.265  1.00  0.00     0.146 A 
ATOM     11  O   UNL     1      94.322 -61.854 103.683  1.00  0.00    -0.452 OA
ENDROOT
BRANCH   1  12
ATOM     12  C   UNL     1      93.045 -63.665 102.736  1.00  0.00     0.025 A 
ATOM     13  C   UNL     1      92.865 -63.524 101.348  1.00  0.00     0.016 A 
ATOM     14  C   UNL     1      91.702 -63.993 100.734  1.00  0.00     0.051 A 
ATOM     15  C   UNL     1      90.696 -64.599 101.499  1.00  0.00     0.157 A 
ATOM     16  C   UNL     1      92.024 -64.254 103.499  1.00  0.00     0.062 A 
ATOM     17  C   UNL     1      90.855 -64.726 102.883  1.00  0.00     0.158 A 
BRANCH  15  18
ATOM     18  O   UNL     1      89.534 -65.071 100.889  1.00  0.00    -0.504 OA
ATOM     19  H   UNL     1      89.299 -66.056 100.888  1.00  0.00     0.293 HD
ENDBRANCH  15  18
BRANCH  17  20
ATOM     20  O   UNL     1      89.850 -65.323 103.643  1.00  0.00    -0.504 OA
ATOM     21  H   UNL     1      89.975 -65.518 104.629  1.00  0.00     0.293 HD
ENDBRANCH  17  20
ENDBRANCH   1  12
BRANCH   2  22
ATOM     22  O   UNL     1      95.220 -65.376 103.598  1.00  0.00    -0.502 OA
ATOM     23  H   UNL     1      95.248 -66.039 104.364  1.00  0.00     0.293 HD
ENDBRANCH   2  22
BRANCH   6  24
ATOM     24  O   UNL     1      98.848 -61.968 105.492  1.00  0.00    -0.507 OA
ATOM     25  H   UNL     1      98.995 -62.636 106.234  1.00  0.00     0.293 HD
ENDBRANCH   6  24
BRANCH   8  26
ATOM     26  O   UNL     1      96.302 -57.898 105.412  1.00  0.00    -0.508 OA
ATOM     27  H   UNL     1      95.984 -57.552 106.310  1.00  0.00     0.293 HD
ENDBRANCH   8  26
TORSDOF 6
ENDMDL
MODEL 8
REMARK VINA RESULT:    -7.028      1.814      7.111
REMARK INTER + INTRA:          -8.603
REMARK INTER:                  -8.317
REMARK INTRA:                  -0.286
REMARK UNBOUND:                -0.137
REMARK SMILES O=c1c(O)c(-c2ccc(O)c(O)c2)oc2cc(O)cc(O)c12
REMARK SMILES IDX 5 1 3 2 2 3 1 4 22 5 20 6 19 7 17 8 16 9 15 10 14 11 6 12
REMARK SMILES IDX 7 13 8 14 9 15 13 16 11 17 10 18 12 20 4 22 21 24 18 26
REMARK H PARENT 10 19 12 21 4 23 21 25 18 27
REMARK Flexibility Score: inf
ROOT
ATOM      1  C   UNL     1      91.635 -64.874 102.852  1.00  0.00     0.180 A 
ATOM      2  C   UNL     1      91.386 -63.970 101.805  1.00  0.00     0.208 A 
ATOM      3  C   UNL     1      92.188 -62.822 101.691  1.00  0.00     0.238 A 
ATOM      4  O   UNL     1      91.994 -62.045 100.720  1.00  0.00    -0.285 OA
ATOM      5  C   UNL     1      93.217 -62.585 102.633  1.00  0.00     0.111 A 
ATOM      6  C   UNL     1      94.063 -61.435 102.636  1.00  0.00     0.134 A 
ATOM      7  C   UNL     1      95.134 -61.369 103.537  1.00  0.00     0.093 A 
ATOM      8  C   UNL     1      95.348 -62.379 104.478  1.00  0.00     0.123 A 
ATOM      9  C   UNL     1      94.490 -63.477 104.521  1.00  0.00     0.094 A 
ATOM     10  C   UNL     1      93.437 -63.589 103.612  1.00  0.00     0.146 A 
ATOM     11  O   UNL     1      92.650 -64.657 103.681  1.00  0.00    -0.452 OA
ENDROOT
BRANCH   1  12
ATOM     12  C   UNL     1      90.818 -66.092 103.053  1.00  0.00     0.025 A 
ATOM     13  C   UNL     1      91.012 -67.241 102.263  1.00  0.00     0.016 A 
ATOM     14  C   UNL     1      90.213 -68.371 102.453  1.00  0.00     0.051 A 
ATOM     15  C   UNL     1      89.203 -68.366 103.424  1.00  0.00     0.157 A 
ATOM     16  C   UNL     1      89.790 -66.087 104.009  1.00  0.00     0.062 A 
ATOM     17  C   UNL     1      88.989 -67.222 104.200  1.00  0.00     0.158 A 
BRANCH  15  18
ATOM     18  O   UNL     1      88.405 -69.493 103.617  1.00  0.00    -0.504 OA
ATOM     19  H   UNL     1      88.457 -70.040 104.468  1.00  0.00     0.293 HD
ENDBRANCH  15  18
BRANCH  17  20
ATOM     20  O   UNL     1      87.978 -67.218 105.160  1.00  0.00    -0.504 OA
ATOM     21  H   UNL     1      87.195 -67.860 105.109  1.00  0.00     0.293 HD
ENDBRANCH  17  20
ENDBRANCH   1  12
BRANCH   2  22
ATOM     22  O   UNL     1      90.379 -64.234 100.873  1.00  0.00    -0.502 OA
ATOM     23  H   UNL     1      90.165 -65.171 100.554  1.00  0.00     0.293 HD
ENDBRANCH   2  22
BRANCH   6  24
ATOM     24  O   UNL     1      93.881 -60.330 101.802  1.00  0.00    -0.507 OA
ATOM     25  H   UNL     1      93.896 -59.369 102.108  1.00  0.00     0.293 HD
ENDBRANCH   6  24
BRANCH   8  26
ATOM     26  O   UNL     1      96.405 -62.297 105.381  1.00  0.00    -0.508 OA
ATOM     27  H   UNL     1      97.179 -61.660 105.234  1.00  0.00     0.293 HD
ENDBRANCH   8  26
TORSDOF 6
ENDMDL
MODEL 9
REMARK VINA RESULT:    -6.989      2.904      7.118
REMARK INTER + INTRA:          -8.556
REMARK INTER:                  -8.665
REMARK INTRA:                   0.109
REMARK UNBOUND:                -0.137
REMARK SMILES O=c1c(O)c(-c2ccc(O)c(O)c2)oc2cc(O)cc(O)c12
REMARK SMILES IDX 5 1 3 2 2 3 1 4 22 5 20 6 19 7 17 8 16 9 15 10 14 11 6 12
REMARK SMILES IDX 7 13 8 14 9 15 13 16 11 17 10 18 12 20 4 22 21 24 18 26
REMARK H PARENT 10 19 12 21 4 23 21 25 18 27
REMARK Flexibility Score: inf
ROOT
ATOM      1  C   UNL     1      95.907 -61.574 104.710  1.00  0.00     0.180 A 
ATOM      2  C   UNL     1      95.659 -62.862 105.215  1.00  0.00     0.208 A 
ATOM      3  C   UNL     1      96.714 -63.579 105.801  1.00  0.00     0.238 A 
ATOM      4  O   UNL     1      96.473 -64.709 106.299  1.00  0.00    -0.285 OA
ATOM      5  C   UNL     1      98.007 -63.006 105.861  1.00  0.00     0.111 A 
ATOM      6  C   UNL     1      99.158 -63.659 106.397  1.00  0.00     0.134 A 
ATOM      7  C   UNL     1     100.358 -62.947 106.525  1.00  0.00     0.093 A 
ATOM      8  C   UNL     1     100.465 -61.629 106.076  1.00  0.00     0.123 A 
ATOM      9  C   UNL     1      99.363 -61.004 105.497  1.00  0.00     0.094 A 
ATOM     10  C   UNL     1      98.143 -61.675 105.389  1.00  0.00     0.146 A 
ATOM     11  O   UNL     1      97.115 -61.038 104.841  1.00  0.00    -0.452 OA
ENDROOT
BRANCH   1  12
ATOM     12  C   UNL     1      94.852 -60.766 104.056  1.00  0.00     0.025 A 
ATOM     13  C   UNL     1      94.661 -59.411 104.381  1.00  0.00     0.016 A 
ATOM     14  C   UNL     1      93.644 -58.674 103.771  1.00  0.00     0.051 A 
ATOM     15  C   UNL     1      92.795 -59.283 102.837  1.00  0.00     0.157 A 
ATOM     16  C   UNL     1      93.984 -61.375 103.136  1.00  0.00     0.062 A 
ATOM     17  C   UNL     1      92.963 -60.636 102.521  1.00  0.00     0.158 A 
BRANCH  15  18
ATOM     18  O   UNL     1      91.780 -58.550 102.224  1.00  0.00    -0.504 OA
ATOM     19  H   UNL     1      91.409 -57.705 102.642  1.00  0.00     0.293 HD
ENDBRANCH  15  18
BRANCH  17  20
ATOM     20  O   UNL     1      92.112 -61.241 101.597  1.00  0.00    -0.504 OA
ATOM     21  H   UNL     1      92.373 -61.342 100.623  1.00  0.00     0.293 HD
ENDBRANCH  17  20
ENDBRANCH   1  12
BRANCH   2  22
ATOM     22  O   UNL     1      94.370 -63.400 105.165  1.00  0.00    -0.502 OA
ATOM     23  H   UNL     1      93.590 -62.993 105.667  1.00  0.00     0.293 HD
ENDBRANCH   2  22
BRANCH   6  24
ATOM     24  O   UNL     1      99.183 -65.000 106.789  1.00  0.00    -0.507 OA
ATOM     25  H   UNL     1      99.660 -65.351 107.606  1.00  0.00     0.293 HD
ENDBRANCH   6  24
BRANCH   8  26
ATOM     26  O   UNL     1     101.667 -60.934 106.192  1.00  0.00    -0.508 OA
ATOM     27  H   UNL     1     101.979 -60.291 105.473  1.00  0.00     0.293 HD
ENDBRANCH   8  26
TORSDOF 6
ENDMDL
