MODEL 1
REMARK VINA RESULT:    -7.117      0.000      0.000
REMARK INTER + INTRA:          -7.117
REMARK INTER:                  -7.117
REMARK INTRA:                   0.000
REMARK UNBOUND:                 0.000
REMARK SMILES C[NH+]1CCN(C2=[NH+]c3ccccc3Oc3ccc(Cl)cc32)CC1
REMARK SMILES IDX 7 1 6 2 21 3 5 4 8 5 9 6 13 7 10 8 12 9 14 10 11 11 15 12
REMARK SMILES IDX 16 13 17 14 18 15 20 16 19 17 4 18 22 19 3 20 23 21 2 22
REMARK SMILES IDX 1 23
REMARK H PARENT 7 24 2 25
REMARK Flexibility Score: inf
ROOT
ATOM      1  N   UNL     1      19.918  31.298  26.227  1.00  0.00    -0.237 N 
ATOM      2  C   UNL     1      18.812  31.301  25.530  1.00  0.00     0.286 C 
ATOM      3  C   UNL     1      17.951  32.502  25.360  1.00  0.00     0.108 A 
ATOM      4  N   UNL     1      18.390  30.068  24.917  1.00  0.00    -0.250 N 
ATOM      5  C   UNL     1      20.515  32.401  26.930  1.00  0.00     0.168 A 
ATOM      6  C   UNL     1      21.244  32.126  28.100  1.00  0.00     0.056 A 
ATOM      7  C   UNL     1      20.560  33.702  26.389  1.00  0.00     0.173 A 
ATOM      8  C   UNL     1      21.994  33.124  28.726  1.00  0.00     0.005 A 
ATOM      9  C   UNL     1      21.344  34.687  27.004  1.00  0.00     0.052 A 
ATOM     10  O   UNL     1      19.843  34.058  25.250  1.00  0.00    -0.452 OA
ATOM     11  C   UNL     1      22.051  34.403  28.174  1.00  0.00     0.004 A 
ATOM     12  C   UNL     1      18.486  33.783  25.117  1.00  0.00     0.143 A 
ATOM     13  C   UNL     1      17.639  34.835  24.745  1.00  0.00     0.049 A 
ATOM     14  C   UNL     1      16.260  34.644  24.671  1.00  0.00     0.024 A 
ATOM     15  C   UNL     1      15.715  33.392  24.960  1.00  0.00     0.042 A 
ATOM     16  C   UNL     1      16.555  32.327  25.295  1.00  0.00     0.041 A 
ATOM     17  Cl  UNL     1      13.979  33.149  24.874  1.00  0.00    -0.084 Cl
ATOM     18  C   UNL     1      18.031  30.030  23.497  1.00  0.00     0.298 C 
ATOM     19  C   UNL     1      18.051  28.908  25.746  1.00  0.00     0.298 C 
ATOM     20  C   UNL     1      18.509  28.712  22.878  1.00  0.00     0.308 C 
ATOM     21  C   UNL     1      18.529  27.625  25.059  1.00  0.00     0.308 C 
ATOM     22  N   UNL     1      18.034  27.554  23.668  1.00  0.00    -0.331 N 
ATOM     23  C   UNL     1      18.477  26.299  23.037  1.00  0.00     0.332 C 
ATOM     24  H   UNL     1      20.422  30.385  26.317  1.00  0.00     0.312 HD
ATOM     25  H   UNL     1      16.986  27.553  23.677  1.00  0.00     0.348 HD
ENDROOT
TORSDOF 0
ENDMDL
MODEL 2
REMARK VINA RESULT:    -7.110      3.236      6.378
REMARK INTER + INTRA:          -7.110
REMARK INTER:                  -7.110
REMARK INTRA:                   0.000
REMARK UNBOUND:                 0.000
REMARK SMILES C[NH+]1CCN(C2=[NH+]c3ccccc3Oc3ccc(Cl)cc32)CC1
REMARK SMILES IDX 7 1 6 2 21 3 5 4 8 5 9 6 13 7 10 8 12 9 14 10 11 11 15 12
REMARK SMILES IDX 16 13 17 14 18 15 20 16 19 17 4 18 22 19 3 20 23 21 2 22
REMARK SMILES IDX 1 23
REMARK H PARENT 7 24 2 25
REMARK Flexibility Score: inf
ROOT
ATOM      1  N   UNL     1      17.750  32.301  25.142  1.00  0.00    -0.237 N 
ATOM      2  C   UNL     1      18.890  31.663  25.179  1.00  0.00     0.286 C 
ATOM      3  C   UNL     1      19.025  30.246  25.612  1.00  0.00     0.108 A 
ATOM      4  N   UNL     1      20.084  32.379  24.809  1.00  0.00    -0.250 N 
ATOM      5  C   UNL     1      16.448  31.793  25.480  1.00  0.00     0.168 A 
ATOM      6  C   UNL     1      15.507  32.686  26.022  1.00  0.00     0.056 A 
ATOM      7  C   UNL     1      16.027  30.500  25.109  1.00  0.00     0.173 A 
ATOM      8  C   UNL     1      14.177  32.299  26.203  1.00  0.00     0.005 A 
ATOM      9  C   UNL     1      14.683  30.133  25.262  1.00  0.00     0.052 A 
ATOM     10  O   UNL     1      16.905  29.552  24.593  1.00  0.00    -0.452 OA
ATOM     11  C   UNL     1      13.762  31.026  25.814  1.00  0.00     0.004 A 
ATOM     12  C   UNL     1      18.112  29.248  25.215  1.00  0.00     0.143 A 
ATOM     13  C   UNL     1      18.400  27.900  25.461  1.00  0.00     0.049 A 
ATOM     14  C   UNL     1      19.557  27.535  26.150  1.00  0.00     0.024 A 
ATOM     15  C   UNL     1      20.441  28.519  26.593  1.00  0.00     0.042 A 
ATOM     16  C   UNL     1      20.181  29.864  26.320  1.00  0.00     0.041 A 
ATOM     17  Cl  UNL     1      21.893  28.064  27.467  1.00  0.00    -0.084 Cl
ATOM     18  C   UNL     1      21.015  31.812  23.830  1.00  0.00     0.298 C 
ATOM     19  C   UNL     1      20.525  33.536  25.592  1.00  0.00     0.298 C 
ATOM     20  C   UNL     1      21.581  32.930  22.948  1.00  0.00     0.308 C 
ATOM     21  C   UNL     1      21.105  34.601  24.656  1.00  0.00     0.308 C 
ATOM     22  N   UNL     1      22.141  34.023  23.774  1.00  0.00    -0.331 N 
ATOM     23  C   UNL     1      22.708  35.069  22.907  1.00  0.00     0.332 C 
ATOM     24  H   UNL     1      17.778  33.310  24.865  1.00  0.00     0.312 HD
ATOM     25  H   UNL     1      22.919  33.641  24.364  1.00  0.00     0.348 HD
ENDROOT
TORSDOF 0
ENDMDL
MODEL 3
REMARK VINA RESULT:    -6.512      2.952      4.490
REMARK INTER + INTRA:          -6.512
REMARK INTER:                  -6.512
REMARK INTRA:                   0.000
REMARK UNBOUND:                 0.000
REMARK SMILES C[NH+]1CCN(C2=[NH+]c3ccccc3Oc3ccc(Cl)cc32)CC1
REMARK SMILES IDX 7 1 6 2 21 3 5 4 8 5 9 6 13 7 10 8 12 9 14 10 11 11 15 12
REMARK SMILES IDX 16 13 17 14 18 15 20 16 19 17 4 18 22 19 3 20 23 21 2 22
REMARK SMILES IDX 1 23
REMARK H PARENT 7 24 2 25
REMARK Flexibility Score: inf
ROOT
ATOM      1  N   UNL     1      18.719  32.306  24.083  1.00  0.00    -0.237 N 
ATOM      2  C   UNL     1      18.740  31.230  24.823  1.00  0.00     0.286 C 
ATOM      3  C   UNL     1      19.793  30.948  25.835  1.00  0.00     0.108 A 
ATOM      4  N   UNL     1      17.701  30.250  24.628  1.00  0.00    -0.250 N 
ATOM      5  C   UNL     1      19.654  33.399  24.097  1.00  0.00     0.168 A 
ATOM      6  C   UNL     1      19.896  34.081  22.892  1.00  0.00     0.056 A 
ATOM      7  C   UNL     1      20.177  33.925  25.295  1.00  0.00     0.173 A 
ATOM      8  C   UNL     1      20.651  35.257  22.876  1.00  0.00     0.005 A 
ATOM      9  C   UNL     1      20.903  35.123  25.273  1.00  0.00     0.052 A 
ATOM     10  O   UNL     1      20.005  33.292  26.522  1.00  0.00    -0.452 OA
ATOM     11  C   UNL     1      21.147  35.783  24.067  1.00  0.00     0.004 A 
ATOM     12  C   UNL     1      20.288  31.941  26.702  1.00  0.00     0.143 A 
ATOM     13  C   UNL     1      21.110  31.583  27.778  1.00  0.00     0.049 A 
ATOM     14  C   UNL     1      21.495  30.256  27.967  1.00  0.00     0.024 A 
ATOM     15  C   UNL     1      21.052  29.272  27.083  1.00  0.00     0.042 A 
ATOM     16  C   UNL     1      20.202  29.613  26.029  1.00  0.00     0.041 A 
ATOM     17  Cl  UNL     1      21.540  27.602  27.312  1.00  0.00    -0.084 Cl
ATOM     18  C   UNL     1      16.945  29.734  25.771  1.00  0.00     0.298 C 
ATOM     19  C   UNL     1      17.571  29.557  23.344  1.00  0.00     0.298 C 
ATOM     20  C   UNL     1      15.481  29.525  25.369  1.00  0.00     0.308 C 
ATOM     21  C   UNL     1      16.088  29.353  23.016  1.00  0.00     0.308 C 
ATOM     22  N   UNL     1      15.382  28.705  24.141  1.00  0.00    -0.331 N 
ATOM     23  C   UNL     1      13.968  28.489  23.793  1.00  0.00     0.332 C 
ATOM     24  H   UNL     1      17.956  32.381  23.370  1.00  0.00     0.312 HD
ATOM     25  H   UNL     1      15.812  27.766  24.321  1.00  0.00     0.348 HD
ENDROOT
TORSDOF 0
ENDMDL
MODEL 4
REMARK VINA RESULT:    -6.463      2.392      5.823
REMARK INTER + INTRA:          -6.463
REMARK INTER:                  -6.463
REMARK INTRA:                   0.000
REMARK UNBOUND:                 0.000
REMARK SMILES C[NH+]1CCN(C2=[NH+]c3ccccc3Oc3ccc(Cl)cc32)CC1
REMARK SMILES IDX 7 1 6 2 21 3 5 4 8 5 9 6 13 7 10 8 12 9 14 10 11 11 15 12
REMARK SMILES IDX 16 13 17 14 18 15 20 16 19 17 4 18 22 19 3 20 23 21 2 22
REMARK SMILES IDX 1 23
REMARK H PARENT 7 24 2 25
REMARK Flexibility Score: inf
ROOT
ATOM      1  N   UNL     1      18.498  29.182  24.494  1.00  0.00    -0.237 N 
ATOM      2  C   UNL     1      18.495  30.420  24.911  1.00  0.00     0.286 C 
ATOM      3  C   UNL     1      17.254  31.214  25.119  1.00  0.00     0.108 A 
ATOM      4  N   UNL     1      19.762  31.060  25.155  1.00  0.00    -0.250 N 
ATOM      5  C   UNL     1      17.362  28.360  24.177  1.00  0.00     0.168 A 
ATOM      6  C   UNL     1      17.505  27.390  23.169  1.00  0.00     0.056 A 
ATOM      7  C   UNL     1      16.192  28.359  24.963  1.00  0.00     0.173 A 
ATOM      8  C   UNL     1      16.502  26.445  22.939  1.00  0.00     0.005 A 
ATOM      9  C   UNL     1      15.207  27.386  24.747  1.00  0.00     0.052 A 
ATOM     10  O   UNL     1      15.965  29.304  25.958  1.00  0.00    -0.452 OA
ATOM     11  C   UNL     1      15.357  26.437  23.734  1.00  0.00     0.004 A 
ATOM     12  C   UNL     1      16.105  30.669  25.727  1.00  0.00     0.143 A 
ATOM     13  C   UNL     1      15.048  31.508  26.101  1.00  0.00     0.049 A 
ATOM     14  C   UNL     1      15.093  32.874  25.824  1.00  0.00     0.024 A 
ATOM     15  C   UNL     1      16.204  33.415  25.177  1.00  0.00     0.042 A 
ATOM     16  C   UNL     1      17.280  32.593  24.833  1.00  0.00     0.041 A 
ATOM     17  Cl  UNL     1      16.262  35.132  24.820  1.00  0.00    -0.084 Cl
ATOM     18  C   UNL     1      20.011  31.754  26.421  1.00  0.00     0.298 C 
ATOM     19  C   UNL     1      20.710  31.266  24.057  1.00  0.00     0.298 C 
ATOM     20  C   UNL     1      21.463  31.529  26.856  1.00  0.00     0.308 C 
ATOM     21  C   UNL     1      22.140  31.056  24.564  1.00  0.00     0.308 C 
ATOM     22  N   UNL     1      22.402  31.876  25.766  1.00  0.00    -0.331 N 
ATOM     23  C   UNL     1      23.790  31.685  26.216  1.00  0.00     0.332 C 
ATOM     24  H   UNL     1      19.431  28.734  24.339  1.00  0.00     0.312 HD
ATOM     25  H   UNL     1      22.283  32.889  25.522  1.00  0.00     0.348 HD
ENDROOT
TORSDOF 0
ENDMDL
MODEL 5
REMARK VINA RESULT:    -6.135      2.951      5.514
REMARK INTER + INTRA:          -6.135
REMARK INTER:                  -6.135
REMARK INTRA:                   0.000
REMARK UNBOUND:                 0.000
REMARK SMILES C[NH+]1CCN(C2=[NH+]c3ccccc3Oc3ccc(Cl)cc32)CC1
REMARK SMILES IDX 7 1 6 2 21 3 5 4 8 5 9 6 13 7 10 8 12 9 14 10 11 11 15 12
REMARK SMILES IDX 16 13 17 14 18 15 20 16 19 17 4 18 22 19 3 20 23 21 2 22
REMARK SMILES IDX 1 23
REMARK H PARENT 7 24 2 25
REMARK Flexibility Score: inf
ROOT
ATOM      1  N   UNL     1      19.282  30.471  26.085  1.00  0.00    -0.237 N 
ATOM      2  C   UNL     1      19.530  31.752  26.162  1.00  0.00     0.286 C 
ATOM      3  C   UNL     1      20.702  32.320  26.882  1.00  0.00     0.108 A 
ATOM      4  N   UNL     1      18.604  32.663  25.541  1.00  0.00    -0.250 N 
ATOM      5  C   UNL     1      20.056  29.393  26.639  1.00  0.00     0.168 A 
ATOM      6  C   UNL     1      19.376  28.233  27.052  1.00  0.00     0.056 A 
ATOM      7  C   UNL     1      21.464  29.380  26.598  1.00  0.00     0.173 A 
ATOM      8  C   UNL     1      20.082  27.088  27.428  1.00  0.00     0.005 A 
ATOM      9  C   UNL     1      22.162  28.215  26.944  1.00  0.00     0.052 A 
ATOM     10  O   UNL     1      22.207  30.497  26.228  1.00  0.00    -0.452 OA
ATOM     11  C   UNL     1      21.475  27.075  27.366  1.00  0.00     0.004 A 
ATOM     12  C   UNL     1      21.988  31.750  26.794  1.00  0.00     0.143 A 
ATOM     13  C   UNL     1      23.095  32.440  27.303  1.00  0.00     0.049 A 
ATOM     14  C   UNL     1      22.932  33.664  27.952  1.00  0.00     0.024 A 
ATOM     15  C   UNL     1      21.657  34.213  28.090  1.00  0.00     0.042 A 
ATOM     16  C   UNL     1      20.551  33.550  27.553  1.00  0.00     0.041 A 
ATOM     17  Cl  UNL     1      21.446  35.748  28.912  1.00  0.00    -0.084 Cl
ATOM     18  C   UNL     1      19.087  33.707  24.633  1.00  0.00     0.298 C 
ATOM     19  C   UNL     1      17.218  32.743  26.011  1.00  0.00     0.298 C 
ATOM     20  C   UNL     1      18.092  33.890  23.482  1.00  0.00     0.308 C 
ATOM     21  C   UNL     1      16.281  32.954  24.817  1.00  0.00     0.308 C 
ATOM     22  N   UNL     1      16.721  34.103  23.996  1.00  0.00    -0.331 N 
ATOM     23  C   UNL     1      15.789  34.309  22.875  1.00  0.00     0.332 C 
ATOM     24  H   UNL     1      18.404  30.184  25.593  1.00  0.00     0.312 HD
ATOM     25  H   UNL     1      16.707  34.970  24.585  1.00  0.00     0.348 HD
ENDROOT
TORSDOF 0
ENDMDL
MODEL 6
REMARK VINA RESULT:    -5.792      2.929      5.526
REMARK INTER + INTRA:          -5.792
REMARK INTER:                  -5.792
REMARK INTRA:                   0.000
REMARK UNBOUND:                 0.000
REMARK SMILES C[NH+]1CCN(C2=[NH+]c3ccccc3Oc3ccc(Cl)cc32)CC1
REMARK SMILES IDX 7 1 6 2 21 3 5 4 8 5 9 6 13 7 10 8 12 9 14 10 11 11 15 12
REMARK SMILES IDX 16 13 17 14 18 15 20 16 19 17 4 18 22 19 3 20 23 21 2 22
REMARK SMILES IDX 1 23
REMARK H PARENT 7 24 2 25
REMARK Flexibility Score: inf
ROOT
ATOM      1  N   UNL     1      17.483  29.785  26.049  1.00  0.00    -0.237 N 
ATOM      2  C   UNL     1      17.976  30.903  25.584  1.00  0.00     0.286 C 
ATOM      3  C   UNL     1      19.417  31.264  25.668  1.00  0.00     0.108 A 
ATOM      4  N   UNL     1      17.070  31.849  24.984  1.00  0.00    -0.250 N 
ATOM      5  C   UNL     1      18.194  28.715  26.694  1.00  0.00     0.168 A 
ATOM      6  C   UNL     1      17.521  27.969  27.678  1.00  0.00     0.056 A 
ATOM      7  C   UNL     1      19.453  28.269  26.243  1.00  0.00     0.173 A 
ATOM      8  C   UNL     1      18.091  26.810  28.210  1.00  0.00     0.005 A 
ATOM      9  C   UNL     1      20.000  27.087  26.758  1.00  0.00     0.052 A 
ATOM     10  O   UNL     1      20.192  28.969  25.294  1.00  0.00    -0.452 OA
ATOM     11  C   UNL     1      19.327  26.363  27.745  1.00  0.00     0.004 A 
ATOM     12  C   UNL     1      20.442  30.333  25.411  1.00  0.00     0.143 A 
ATOM     13  C   UNL     1      21.767  30.768  25.284  1.00  0.00     0.049 A 
ATOM     14  C   UNL     1      22.093  32.112  25.469  1.00  0.00     0.024 A 
ATOM     15  C   UNL     1      21.092  33.034  25.775  1.00  0.00     0.042 A 
ATOM     16  C   UNL     1      19.763  32.616  25.866  1.00  0.00     0.041 A 
ATOM     17  Cl  UNL     1      21.500  34.724  26.015  1.00  0.00    -0.084 Cl
ATOM     18  C   UNL     1      17.356  32.414  23.663  1.00  0.00     0.298 C 
ATOM     19  C   UNL     1      16.008  32.464  25.784  1.00  0.00     0.298 C 
ATOM     20  C   UNL     1      16.050  32.571  22.875  1.00  0.00     0.308 C 
ATOM     21  C   UNL     1      14.744  32.618  24.932  1.00  0.00     0.308 C 
ATOM     22  N   UNL     1      15.043  33.316  23.663  1.00  0.00    -0.331 N 
ATOM     23  C   UNL     1      13.811  33.483  22.875  1.00  0.00     0.332 C 
ATOM     24  H   UNL     1      16.448  29.654  25.977  1.00  0.00     0.312 HD
ATOM     25  H   UNL     1      15.416  34.272  23.877  1.00  0.00     0.348 HD
ENDROOT
TORSDOF 0
ENDMDL
MODEL 7
REMARK VINA RESULT:    -5.607      3.139      5.412
REMARK INTER + INTRA:          -5.607
REMARK INTER:                  -5.607
REMARK INTRA:                   0.000
REMARK UNBOUND:                 0.000
REMARK SMILES C[NH+]1CCN(C2=[NH+]c3ccccc3Oc3ccc(Cl)cc32)CC1
REMARK SMILES IDX 7 1 6 2 21 3 5 4 8 5 9 6 13 7 10 8 12 9 14 10 11 11 15 12
REMARK SMILES IDX 16 13 17 14 18 15 20 16 19 17 4 18 22 19 3 20 23 21 2 22
REMARK SMILES IDX 1 23
REMARK H PARENT 7 24 2 25
REMARK Flexibility Score: inf
ROOT
ATOM      1  N   UNL     1      19.616  30.796  25.377  1.00  0.00    -0.237 N 
ATOM      2  C   UNL     1      18.368  30.698  25.002  1.00  0.00     0.286 C 
ATOM      3  C   UNL     1      17.592  29.430  25.053  1.00  0.00     0.108 A 
ATOM      4  N   UNL     1      17.719  31.875  24.485  1.00  0.00    -0.250 N 
ATOM      5  C   UNL     1      20.458  29.756  25.905  1.00  0.00     0.168 A 
ATOM      6  C   UNL     1      21.836  29.814  25.630  1.00  0.00     0.056 A 
ATOM      7  C   UNL     1      19.988  28.808  26.836  1.00  0.00     0.173 A 
ATOM      8  C   UNL     1      22.727  28.941  26.259  1.00  0.00     0.005 A 
ATOM      9  C   UNL     1      20.893  27.961  27.488  1.00  0.00     0.052 A 
ATOM     10  O   UNL     1      18.636  28.672  27.138  1.00  0.00    -0.452 OA
ATOM     11  C   UNL     1      22.257  28.020  27.195  1.00  0.00     0.004 A 
ATOM     12  C   UNL     1      17.667  28.546  26.148  1.00  0.00     0.143 A 
ATOM     13  C   UNL     1      16.759  27.485  26.253  1.00  0.00     0.049 A 
ATOM     14  C   UNL     1      15.814  27.257  25.252  1.00  0.00     0.024 A 
ATOM     15  C   UNL     1      15.765  28.097  24.139  1.00  0.00     0.042 A 
ATOM     16  C   UNL     1      16.642  29.180  24.044  1.00  0.00     0.041 A 
ATOM     17  Cl  UNL     1      14.582  27.810  22.875  1.00  0.00    -0.084 Cl
ATOM     18  C   UNL     1      16.417  32.295  25.010  1.00  0.00     0.298 C 
ATOM     19  C   UNL     1      18.204  32.507  23.255  1.00  0.00     0.298 C 
ATOM     20  C   UNL     1      16.358  33.825  25.080  1.00  0.00     0.308 C 
ATOM     21  C   UNL     1      18.090  34.030  23.379  1.00  0.00     0.308 C 
ATOM     22  N   UNL     1      16.724  34.428  23.779  1.00  0.00    -0.331 N 
ATOM     23  C   UNL     1      16.628  35.895  23.860  1.00  0.00     0.332 C 
ATOM     24  H   UNL     1      20.079  31.727  25.256  1.00  0.00     0.312 HD
ATOM     25  H   UNL     1      16.045  34.104  23.049  1.00  0.00     0.348 HD
ENDROOT
TORSDOF 0
ENDMDL
