MODEL 1
REMARK VINA RESULT:    -3.490      0.000      0.000
REMARK INTER + INTRA:          -4.438
REMARK INTER:                  -4.306
REMARK INTRA:                  -0.132
REMARK UNBOUND:                -0.132
REMARK SMILES CCCCCC(=O)[O-]
REMARK SMILES IDX 4 1 5 2 6 3 7 4 8 5 3 6 2 7 1 8
REMARK H PARENT
REMARK Flexibility Score: inf
ROOT
ATOM      1  C   UNL     1    -116.400 -98.581  42.319  1.00  0.00     0.006 C 
ENDROOT
BRANCH   1   2
ATOM      2  C   UNL     1    -116.788 -99.513  41.163  1.00  0.00     0.053 C 
BRANCH   2   3
ATOM      3  C   UNL     1    -117.211 -98.743  39.949  1.00  0.00     0.041 C 
ATOM      4  O   UNL     1    -116.876 -99.137  38.800  1.00  0.00    -0.550 OA
ATOM      5  O   UNL     1    -117.948 -97.574  40.088  1.00  0.00    -0.550 OA
ENDBRANCH   2   3
ENDBRANCH   1   2
BRANCH   1   6
ATOM      6  C   UNL     1    -117.214 -98.862  43.590  1.00  0.00     0.000 C 
BRANCH   6   7
ATOM      7  C   UNL     1    -118.397 -97.892  43.710  1.00  0.00    -0.003 C 
ATOM      8  C   UNL     1    -118.455 -97.263  45.098  1.00  0.00     0.004 C 
ENDBRANCH   6   7
ENDBRANCH   1   6
TORSDOF 4
ENDMDL
MODEL 2
REMARK VINA RESULT:    -3.453      6.242      8.673
REMARK INTER + INTRA:          -4.393
REMARK INTER:                  -4.319
REMARK INTRA:                  -0.074
REMARK UNBOUND:                -0.132
REMARK SMILES CCCCCC(=O)[O-]
REMARK SMILES IDX 4 1 5 2 6 3 7 4 8 5 3 6 2 7 1 8
REMARK H PARENT
REMARK Flexibility Score: inf
ROOT
ATOM      1  C   UNL     1    -115.712 -97.585  33.960  1.00  0.00     0.006 C 
ENDROOT
BRANCH   1   2
ATOM      2  C   UNL     1    -116.557 -98.522  34.833  1.00  0.00     0.053 C 
BRANCH   2   3
ATOM      3  C   UNL     1    -115.837 -98.910  36.088  1.00  0.00     0.041 C 
ATOM      4  O   UNL     1    -114.633 -99.278  36.041  1.00  0.00    -0.550 OA
ATOM      5  O   UNL     1    -116.505 -98.897  37.306  1.00  0.00    -0.550 OA
ENDBRANCH   2   3
ENDBRANCH   1   2
BRANCH   1   6
ATOM      6  C   UNL     1    -116.575 -96.730  33.021  1.00  0.00     0.000 C 
BRANCH   6   7
ATOM      7  C   UNL     1    -117.548 -97.605  32.221  1.00  0.00    -0.003 C 
ATOM      8  C   UNL     1    -118.093 -96.856  31.009  1.00  0.00     0.004 C 
ENDBRANCH   6   7
ENDBRANCH   1   6
TORSDOF 4
ENDMDL
MODEL 3
REMARK VINA RESULT:    -3.381      4.111      5.403
REMARK INTER + INTRA:          -4.303
REMARK INTER:                  -4.181
REMARK INTRA:                  -0.122
REMARK UNBOUND:                -0.132
REMARK SMILES CCCCCC(=O)[O-]
REMARK SMILES IDX 4 1 5 2 6 3 7 4 8 5 3 6 2 7 1 8
REMARK H PARENT
REMARK Flexibility Score: inf
ROOT
ATOM      1  C   UNL     1    -118.463 -98.700  44.997  1.00  0.00     0.006 C 
ENDROOT
BRANCH   1   2
ATOM      2  C   UNL     1    -118.609 -97.173  45.008  1.00  0.00     0.053 C 
BRANCH   2   3
ATOM      3  C   UNL     1    -118.383 -96.605  46.376  1.00  0.00     0.041 C 
ATOM      4  O   UNL     1    -118.432 -95.360  46.562  1.00  0.00    -0.550 OA
ATOM      5  O   UNL     1    -118.088 -97.449  47.439  1.00  0.00    -0.550 OA
ENDBRANCH   2   3
ENDBRANCH   1   2
BRANCH   1   6
ATOM      6  C   UNL     1    -117.277 -99.164  44.140  1.00  0.00     0.000 C 
BRANCH   6   7
ATOM      7  C   UNL     1    -117.298 -98.492  42.762  1.00  0.00    -0.003 C 
ATOM      8  C   UNL     1    -115.953 -98.637  42.056  1.00  0.00     0.004 C 
ENDBRANCH   6   7
ENDBRANCH   1   6
TORSDOF 4
ENDMDL
MODEL 4
REMARK VINA RESULT:    -3.251      6.407      8.330
REMARK INTER + INTRA:          -4.143
REMARK INTER:                  -3.945
REMARK INTRA:                  -0.198
REMARK UNBOUND:                -0.132
REMARK SMILES CCCCCC(=O)[O-]
REMARK SMILES IDX 4 1 5 2 6 3 7 4 8 5 3 6 2 7 1 8
REMARK H PARENT
REMARK Flexibility Score: inf
ROOT
ATOM      1  C   UNL     1    -115.735 -99.388  33.467  1.00  0.00     0.006 C 
ENDROOT
BRANCH   1   2
ATOM      2  C   UNL     1    -116.114-100.021  34.813  1.00  0.00     0.053 C 
BRANCH   2   3
ATOM      3  C   UNL     1    -115.688 -99.166  35.967  1.00  0.00     0.041 C 
ATOM      4  O   UNL     1    -114.645 -98.464  35.886  1.00  0.00    -0.550 OA
ATOM      5  O   UNL     1    -116.425 -99.170  37.144  1.00  0.00    -0.550 OA
ENDBRANCH   2   3
ENDBRANCH   1   2
BRANCH   1   6
ATOM      6  C   UNL     1    -116.968 -98.962  32.658  1.00  0.00     0.000 C 
BRANCH   6   7
ATOM      7  C   UNL     1    -117.240 -97.462  32.819  1.00  0.00    -0.003 C 
ATOM      8  C   UNL     1    -115.960 -96.703  33.156  1.00  0.00     0.004 C 
ENDBRANCH   6   7
ENDBRANCH   1   6
TORSDOF 4
ENDMDL
MODEL 5
REMARK VINA RESULT:    -3.171      8.230      9.752
REMARK INTER + INTRA:          -4.044
REMARK INTER:                  -3.954
REMARK INTRA:                  -0.091
REMARK UNBOUND:                -0.132
REMARK SMILES CCCCCC(=O)[O-]
REMARK SMILES IDX 4 1 5 2 6 3 7 4 8 5 3 6 2 7 1 8
REMARK H PARENT
REMARK Flexibility Score: inf
ROOT
ATOM      1  C   UNL     1    -116.912 -96.638  32.495  1.00  0.00     0.006 C 
ENDROOT
BRANCH   1   2
ATOM      2  C   UNL     1    -118.008 -97.663  32.172  1.00  0.00     0.053 C 
BRANCH   2   3
ATOM      3  C   UNL     1    -118.446 -97.573  30.742  1.00  0.00     0.041 C 
ATOM      4  O   UNL     1    -118.753 -98.616  30.106  1.00  0.00    -0.550 OA
ATOM      5  O   UNL     1    -118.485 -96.341  30.102  1.00  0.00    -0.550 OA
ENDBRANCH   2   3
ENDBRANCH   1   2
BRANCH   1   6
ATOM      6  C   UNL     1    -115.781 -97.243  33.338  1.00  0.00     0.000 C 
BRANCH   6   7
ATOM      7  C   UNL     1    -116.335 -98.228  34.375  1.00  0.00    -0.003 C 
ATOM      8  C   UNL     1    -115.298 -98.537  35.450  1.00  0.00     0.004 C 
ENDBRANCH   6   7
ENDBRANCH   1   6
TORSDOF 4
ENDMDL
MODEL 6
REMARK VINA RESULT:    -3.144      4.839      6.620
REMARK INTER + INTRA:          -4.012
REMARK INTER:                  -3.816
REMARK INTRA:                  -0.196
REMARK UNBOUND:                -0.132
REMARK SMILES CCCCCC(=O)[O-]
REMARK SMILES IDX 4 1 5 2 6 3 7 4 8 5 3 6 2 7 1 8
REMARK H PARENT
REMARK Flexibility Score: inf
ROOT
ATOM      1  C   UNL     1    -118.380 -97.914  48.458  1.00  0.00     0.006 C 
ENDROOT
BRANCH   1   2
ATOM      2  C   UNL     1    -117.605 -96.601  48.289  1.00  0.00     0.053 C 
BRANCH   2   3
ATOM      3  C   UNL     1    -118.376 -95.602  47.480  1.00  0.00     0.041 C 
ATOM      4  O   UNL     1    -118.535 -95.776  46.243  1.00  0.00    -0.550 OA
ATOM      5  O   UNL     1    -118.890 -94.464  48.087  1.00  0.00    -0.550 OA
ENDBRANCH   2   3
ENDBRANCH   1   2
BRANCH   1   6
ATOM      6  C   UNL     1    -117.587 -99.126  47.951  1.00  0.00     0.000 C 
BRANCH   6   7
ATOM      7  C   UNL     1    -118.317 -99.813  46.790  1.00  0.00    -0.003 C 
ATOM      8  C   UNL     1    -117.895 -99.224  45.448  1.00  0.00     0.004 C 
ENDBRANCH   6   7
ENDBRANCH   1   6
TORSDOF 4
ENDMDL
MODEL 7
REMARK VINA RESULT:    -3.096      6.599      8.479
REMARK INTER + INTRA:          -3.953
REMARK INTER:                  -3.753
REMARK INTRA:                  -0.200
REMARK UNBOUND:                -0.132
REMARK SMILES CCCCCC(=O)[O-]
REMARK SMILES IDX 4 1 5 2 6 3 7 4 8 5 3 6 2 7 1 8
REMARK H PARENT
REMARK Flexibility Score: inf
ROOT
ATOM      1  C   UNL     1    -115.711 -99.272  32.969  1.00  0.00     0.006 C 
ENDROOT
BRANCH   1   2
ATOM      2  C   UNL     1    -117.096 -98.618  32.889  1.00  0.00     0.053 C 
BRANCH   2   3
ATOM      3  C   UNL     1    -117.000 -97.147  32.618  1.00  0.00     0.041 C 
ATOM      4  O   UNL     1    -117.623 -96.638  31.650  1.00  0.00    -0.550 OA
ATOM      5  O   UNL     1    -116.196 -96.344  33.417  1.00  0.00    -0.550 OA
ENDBRANCH   2   3
ENDBRANCH   1   2
BRANCH   1   6
ATOM      6  C   UNL     1    -115.497-100.019  34.293  1.00  0.00     0.000 C 
BRANCH   6   7
ATOM      7  C   UNL     1    -115.103 -99.049  35.413  1.00  0.00    -0.003 C 
ATOM      8  C   UNL     1    -116.188 -98.973  36.483  1.00  0.00     0.004 C 
ENDBRANCH   6   7
ENDBRANCH   1   6
TORSDOF 4
ENDMDL
MODEL 8
REMARK VINA RESULT:    -3.055      1.380      2.364
REMARK INTER + INTRA:          -3.902
REMARK INTER:                  -3.809
REMARK INTRA:                  -0.093
REMARK UNBOUND:                -0.132
REMARK SMILES CCCCCC(=O)[O-]
REMARK SMILES IDX 4 1 5 2 6 3 7 4 8 5 3 6 2 7 1 8
REMARK H PARENT
REMARK Flexibility Score: inf
ROOT
ATOM      1  C   UNL     1    -118.341 -98.650  43.640  1.00  0.00     0.006 C 
ENDROOT
BRANCH   1   2
ATOM      2  C   UNL     1    -116.876 -98.914  43.268  1.00  0.00     0.053 C 
BRANCH   2   3
ATOM      3  C   UNL     1    -116.670 -98.903  41.784  1.00  0.00     0.041 C 
ATOM      4  O   UNL     1    -117.320 -98.105  41.059  1.00  0.00    -0.550 OA
ATOM      5  O   UNL     1    -115.783 -99.798  41.199  1.00  0.00    -0.550 OA
ENDBRANCH   2   3
ENDBRANCH   1   2
BRANCH   1   6
ATOM      6  C   UNL     1    -118.509 -97.370  44.470  1.00  0.00     0.000 C 
BRANCH   6   7
ATOM      7  C   UNL     1    -118.397 -97.669  45.970  1.00  0.00    -0.003 C 
ATOM      8  C   UNL     1    -118.306 -96.382  46.784  1.00  0.00     0.004 C 
ENDBRANCH   6   7
ENDBRANCH   1   6
TORSDOF 4
ENDMDL
