MODEL 1
REMARK VINA RESULT:    -3.859      0.000      0.000
REMARK INTER + INTRA:          -6.906
REMARK INTER:                  -5.889
REMARK INTRA:                  -1.018
REMARK UNBOUND:                -1.018
REMARK SMILES CCCCCCCCCCC(=O)[O-]
REMARK SMILES IDX 7 1 8 2 9 3 10 4 11 5 12 6 13 7 6 8 5 9 4 10 3 11 2 12 1 13
REMARK H PARENT
REMARK Flexibility Score: inf
ROOT
ATOM      1  C   UNL     1      26.620  56.529  25.390  1.00  0.00     0.000 C 
ENDROOT
BRANCH   1   2
ATOM      2  C   UNL     1      27.370  57.825  25.763  1.00  0.00     0.000 C 
BRANCH   2   3
ATOM      3  C   UNL     1      26.583  59.129  25.522  1.00  0.00     0.006 C 
BRANCH   3   4
ATOM      4  C   UNL     1      26.836  60.226  26.569  1.00  0.00     0.053 C 
BRANCH   4   5
ATOM      5  C   UNL     1      26.540  61.592  26.032  1.00  0.00     0.041 C 
ATOM      6  O   UNL     1      25.451  61.818  25.442  1.00  0.00    -0.550 OA
ATOM      7  O   UNL     1      27.482  62.606  26.152  1.00  0.00    -0.550 OA
ENDBRANCH   4   5
ENDBRANCH   3   4
ENDBRANCH   2   3
ENDBRANCH   1   2
BRANCH   1   8
ATOM      8  C   UNL     1      25.792  56.601  24.095  1.00  0.00     0.000 C 
BRANCH   8   9
ATOM      9  C   UNL     1      24.276  56.535  24.352  1.00  0.00    -0.000 C 
BRANCH   9  10
ATOM     10  C   UNL     1      23.939  56.039  25.768  1.00  0.00    -0.000 C 
BRANCH  10  11
ATOM     11  C   UNL     1      22.786  56.829  26.411  1.00  0.00    -0.000 C 
BRANCH  11  12
ATOM     12  C   UNL     1      22.709  58.277  25.902  1.00  0.00    -0.003 C 
ATOM     13  C   UNL     1      23.142  59.300  26.951  1.00  0.00     0.004 C 
ENDBRANCH  11  12
ENDBRANCH  10  11
ENDBRANCH   9  10
ENDBRANCH   8   9
ENDBRANCH   1   8
TORSDOF 9
ENDMDL
MODEL 2
REMARK VINA RESULT:    -3.821      3.381      5.111
REMARK INTER + INTRA:          -6.849
REMARK INTER:                  -6.187
REMARK INTRA:                  -0.662
REMARK UNBOUND:                -1.018
REMARK SMILES CCCCCCCCCCC(=O)[O-]
REMARK SMILES IDX 7 1 8 2 9 3 10 4 11 5 12 6 13 7 6 8 5 9 4 10 3 11 2 12 1 13
REMARK H PARENT
REMARK Flexibility Score: inf
ROOT
ATOM      1  C   UNL     1      27.119  57.317  25.547  1.00  0.00     0.000 C 
ENDROOT
BRANCH   1   2
ATOM      2  C   UNL     1      26.130  56.175  25.236  1.00  0.00     0.000 C 
BRANCH   2   3
ATOM      3  C   UNL     1      24.670  56.618  25.007  1.00  0.00     0.006 C 
BRANCH   3   4
ATOM      4  C   UNL     1      23.653  55.965  25.957  1.00  0.00     0.053 C 
BRANCH   4   5
ATOM      5  C   UNL     1      22.482  55.395  25.218  1.00  0.00     0.041 C 
ATOM      6  O   UNL     1      21.584  54.769  25.841  1.00  0.00    -0.550 OA
ATOM      7  O   UNL     1      22.399  55.524  23.838  1.00  0.00    -0.550 OA
ENDBRANCH   4   5
ENDBRANCH   3   4
ENDBRANCH   2   3
ENDBRANCH   1   2
BRANCH   1   8
ATOM      8  C   UNL     1      26.587  58.736  25.280  1.00  0.00     0.000 C 
BRANCH   8   9
ATOM      9  C   UNL     1      27.052  59.756  26.335  1.00  0.00    -0.000 C 
BRANCH   9  10
ATOM     10  C   UNL     1      25.983  60.819  26.637  1.00  0.00    -0.000 C 
BRANCH  10  11
ATOM     11  C   UNL     1      24.569  60.221  26.745  1.00  0.00    -0.000 C 
BRANCH  11  12
ATOM     12  C   UNL     1      23.866  60.607  28.056  1.00  0.00    -0.003 C 
ATOM     13  C   UNL     1      24.824  61.185  29.096  1.00  0.00     0.004 C 
ENDBRANCH  11  12
ENDBRANCH  10  11
ENDBRANCH   9  10
ENDBRANCH   8   9
ENDBRANCH   1   8
TORSDOF 9
ENDMDL
MODEL 3
REMARK VINA RESULT:    -3.802     19.615     21.247
REMARK INTER + INTRA:          -6.821
REMARK INTER:                  -5.878
REMARK INTRA:                  -0.943
REMARK UNBOUND:                -1.018
REMARK SMILES CCCCCCCCCCC(=O)[O-]
REMARK SMILES IDX 7 1 8 2 9 3 10 4 11 5 12 6 13 7 6 8 5 9 4 10 3 11 2 12 1 13
REMARK H PARENT
REMARK Flexibility Score: inf
ROOT
ATOM      1  C   UNL     1       9.339  58.953  41.721  1.00  0.00     0.000 C 
ENDROOT
BRANCH   1   2
ATOM      2  C   UNL     1      10.279  59.566  42.778  1.00  0.00     0.000 C 
BRANCH   2   3
ATOM      3  C   UNL     1      11.629  60.078  42.236  1.00  0.00     0.006 C 
BRANCH   3   4
ATOM      4  C   UNL     1      11.875  59.765  40.751  1.00  0.00     0.053 C 
BRANCH   4   5
ATOM      5  C   UNL     1      12.005  61.011  39.930  1.00  0.00     0.041 C 
ATOM      6  O   UNL     1      11.331  61.147  38.875  1.00  0.00    -0.550 OA
ATOM      7  O   UNL     1      12.896  62.007  40.310  1.00  0.00    -0.550 OA
ENDBRANCH   4   5
ENDBRANCH   3   4
ENDBRANCH   2   3
ENDBRANCH   1   2
BRANCH   1   8
ATOM      8  C   UNL     1       8.882  57.511  42.008  1.00  0.00     0.000 C 
BRANCH   8   9
ATOM      9  C   UNL     1       9.944  56.688  42.760  1.00  0.00    -0.000 C 
BRANCH   9  10
ATOM     10  C   UNL     1      10.982  56.061  41.814  1.00  0.00    -0.000 C 
BRANCH  10  11
ATOM     11  C   UNL     1      12.428  56.393  42.221  1.00  0.00    -0.000 C 
BRANCH  11  12
ATOM     12  C   UNL     1      13.461  55.822  41.237  1.00  0.00    -0.003 C 
ATOM     13  C   UNL     1      13.962  54.436  41.639  1.00  0.00     0.004 C 
ENDBRANCH  11  12
ENDBRANCH  10  11
ENDBRANCH   9  10
ENDBRANCH   8   9
ENDBRANCH   1   8
TORSDOF 9
ENDMDL
MODEL 4
REMARK VINA RESULT:    -3.766      1.691      2.354
REMARK INTER + INTRA:          -6.765
REMARK INTER:                  -5.965
REMARK INTRA:                  -0.800
REMARK UNBOUND:                -1.018
REMARK SMILES CCCCCCCCCCC(=O)[O-]
REMARK SMILES IDX 7 1 8 2 9 3 10 4 11 5 12 6 13 7 6 8 5 9 4 10 3 11 2 12 1 13
REMARK H PARENT
REMARK Flexibility Score: inf
ROOT
ATOM      1  C   UNL     1      27.252  57.716  25.816  1.00  0.00     0.000 C 
ENDROOT
BRANCH   1   2
ATOM      2  C   UNL     1      26.713  59.112  25.441  1.00  0.00     0.000 C 
BRANCH   2   3
ATOM      3  C   UNL     1      26.550  60.090  26.622  1.00  0.00     0.006 C 
BRANCH   3   4
ATOM      4  C   UNL     1      25.090  60.406  26.987  1.00  0.00     0.053 C 
BRANCH   4   5
ATOM      5  C   UNL     1      24.993  61.462  28.044  1.00  0.00     0.041 C 
ATOM      6  O   UNL     1      25.105  61.153  29.260  1.00  0.00    -0.550 OA
ATOM      7  O   UNL     1      24.743  62.782  27.691  1.00  0.00    -0.550 OA
ENDBRANCH   4   5
ENDBRANCH   3   4
ENDBRANCH   2   3
ENDBRANCH   1   2
BRANCH   1   8
ATOM      8  C   UNL     1      26.556  56.535  25.117  1.00  0.00     0.000 C 
BRANCH   8   9
ATOM      9  C   UNL     1      25.592  56.985  24.004  1.00  0.00    -0.000 C 
BRANCH   9  10
ATOM     10  C   UNL     1      24.145  56.529  24.259  1.00  0.00    -0.000 C 
BRANCH  10  11
ATOM     11  C   UNL     1      23.478  57.299  25.412  1.00  0.00    -0.000 C 
BRANCH  11  12
ATOM     12  C   UNL     1      22.853  56.364  26.459  1.00  0.00    -0.003 C 
ATOM     13  C   UNL     1      22.044  55.229  25.835  1.00  0.00     0.004 C 
ENDBRANCH  11  12
ENDBRANCH  10  11
ENDBRANCH   9  10
ENDBRANCH   8   9
ENDBRANCH   1   8
TORSDOF 9
ENDMDL
MODEL 5
REMARK VINA RESULT:    -3.693      2.622      4.335
REMARK INTER + INTRA:          -6.653
REMARK INTER:                  -5.626
REMARK INTRA:                  -1.027
REMARK UNBOUND:                -1.018
REMARK SMILES CCCCCCCCCCC(=O)[O-]
REMARK SMILES IDX 7 1 8 2 9 3 10 4 11 5 12 6 13 7 6 8 5 9 4 10 3 11 2 12 1 13
REMARK H PARENT
REMARK Flexibility Score: inf
ROOT
ATOM      1  C   UNL     1      26.811  59.141  26.243  1.00  0.00     0.000 C 
ENDROOT
BRANCH   1   2
ATOM      2  C   UNL     1      27.543  57.898  25.696  1.00  0.00     0.000 C 
BRANCH   2   3
ATOM      3  C   UNL     1      26.652  56.658  25.476  1.00  0.00     0.006 C 
BRANCH   3   4
ATOM      4  C   UNL     1      25.922  56.633  24.123  1.00  0.00     0.053 C 
BRANCH   4   5
ATOM      5  C   UNL     1      24.442  56.799  24.281  1.00  0.00     0.041 C 
ATOM      6  O   UNL     1      23.824  57.652  23.591  1.00  0.00    -0.550 OA
ATOM      7  O   UNL     1      23.752  56.036  25.214  1.00  0.00    -0.550 OA
ENDBRANCH   4   5
ENDBRANCH   3   4
ENDBRANCH   2   3
ENDBRANCH   1   2
BRANCH   1   8
ATOM      8  C   UNL     1      26.228  60.081  25.173  1.00  0.00     0.000 C 
BRANCH   8   9
ATOM      9  C   UNL     1      24.800  60.548  25.504  1.00  0.00    -0.000 C 
BRANCH   9  10
ATOM     10  C   UNL     1      24.152  59.716  26.623  1.00  0.00    -0.000 C 
BRANCH  10  11
ATOM     11  C   UNL     1      23.652  60.585  27.791  1.00  0.00    -0.000 C 
BRANCH  11  12
ATOM     12  C   UNL     1      24.793  61.038  28.716  1.00  0.00    -0.003 C 
ATOM     13  C   UNL     1      25.129  62.521  28.563  1.00  0.00     0.004 C 
ENDBRANCH  11  12
ENDBRANCH  10  11
ENDBRANCH   9  10
ENDBRANCH   8   9
ENDBRANCH   1   8
TORSDOF 9
ENDMDL
MODEL 6
REMARK VINA RESULT:    -3.674     19.226     21.427
REMARK INTER + INTRA:          -6.624
REMARK INTER:                  -5.698
REMARK INTRA:                  -0.926
REMARK UNBOUND:                -1.018
REMARK SMILES CCCCCCCCCCC(=O)[O-]
REMARK SMILES IDX 7 1 8 2 9 3 10 4 11 5 12 6 13 7 6 8 5 9 4 10 3 11 2 12 1 13
REMARK H PARENT
REMARK Flexibility Score: inf
ROOT
ATOM      1  C   UNL     1       8.862  57.206  41.980  1.00  0.00     0.000 C 
ENDROOT
BRANCH   1   2
ATOM      2  C   UNL     1       9.736  55.951  42.182  1.00  0.00     0.000 C 
BRANCH   2   3
ATOM      3  C   UNL     1      11.229  56.229  42.452  1.00  0.00     0.006 C 
BRANCH   3   4
ATOM      4  C   UNL     1      12.163  55.870  41.286  1.00  0.00     0.053 C 
BRANCH   4   5
ATOM      5  C   UNL     1      13.536  55.505  41.759  1.00  0.00     0.041 C 
ATOM      6  O   UNL     1      14.284  56.381  42.268  1.00  0.00    -0.550 OA
ATOM      7  O   UNL     1      14.003  54.206  41.606  1.00  0.00    -0.550 OA
ENDBRANCH   4   5
ENDBRANCH   3   4
ENDBRANCH   2   3
ENDBRANCH   1   2
BRANCH   1   8
ATOM      8  C   UNL     1       9.407  58.494  42.623  1.00  0.00     0.000 C 
BRANCH   8   9
ATOM      9  C   UNL     1       9.802  59.559  41.584  1.00  0.00    -0.000 C 
BRANCH   9  10
ATOM     10  C   UNL     1      11.255  60.035  41.752  1.00  0.00    -0.000 C 
BRANCH  10  11
ATOM     11  C   UNL     1      12.024  60.067  40.419  1.00  0.00    -0.000 C 
BRANCH  11  12
ATOM     12  C   UNL     1      13.457  59.530  40.555  1.00  0.00    -0.003 C 
ATOM     13  C   UNL     1      13.852  58.593  39.414  1.00  0.00     0.004 C 
ENDBRANCH  11  12
ENDBRANCH  10  11
ENDBRANCH   9  10
ENDBRANCH   8   9
ENDBRANCH   1   8
TORSDOF 9
ENDMDL
MODEL 7
REMARK VINA RESULT:    -3.660      2.408      4.138
REMARK INTER + INTRA:          -6.604
REMARK INTER:                  -5.563
REMARK INTRA:                  -1.040
REMARK UNBOUND:                -1.018
REMARK SMILES CCCCCCCCCCC(=O)[O-]
REMARK SMILES IDX 7 1 8 2 9 3 10 4 11 5 12 6 13 7 6 8 5 9 4 10 3 11 2 12 1 13
REMARK H PARENT
REMARK Flexibility Score: inf
ROOT
ATOM      1  C   UNL     1      25.525  60.758  27.370  1.00  0.00     0.000 C 
ENDROOT
BRANCH   1   2
ATOM      2  C   UNL     1      25.379  60.979  25.851  1.00  0.00     0.000 C 
BRANCH   2   3
ATOM      3  C   UNL     1      26.047  59.907  24.966  1.00  0.00     0.006 C 
BRANCH   3   4
ATOM      4  C   UNL     1      26.578  58.688  25.738  1.00  0.00     0.053 C 
BRANCH   4   5
ATOM      5  C   UNL     1      26.335  57.408  25.000  1.00  0.00     0.041 C 
ATOM      6  O   UNL     1      26.902  56.346  25.371  1.00  0.00    -0.550 OA
ATOM      7  O   UNL     1      25.511  57.393  23.882  1.00  0.00    -0.550 OA
ENDBRANCH   4   5
ENDBRANCH   3   4
ENDBRANCH   2   3
ENDBRANCH   1   2
BRANCH   1   8
ATOM      8  C   UNL     1      24.200  60.678  28.150  1.00  0.00     0.000 C 
BRANCH   8   9
ATOM      9  C   UNL     1      22.996  60.351  27.250  1.00  0.00    -0.000 C 
BRANCH   9  10
ATOM     10  C   UNL     1      22.510  58.902  27.421  1.00  0.00    -0.000 C 
BRANCH  10  11
ATOM     11  C   UNL     1      22.830  58.023  26.198  1.00  0.00    -0.000 C 
BRANCH  11  12
ATOM     12  C   UNL     1      22.967  56.537  26.563  1.00  0.00    -0.003 C 
ATOM     13  C   UNL     1      22.425  55.606  25.479  1.00  0.00     0.004 C 
ENDBRANCH  11  12
ENDBRANCH  10  11
ENDBRANCH   9  10
ENDBRANCH   8   9
ENDBRANCH   1   8
TORSDOF 9
ENDMDL
MODEL 8
REMARK VINA RESULT:    -3.659     19.358     21.401
REMARK INTER + INTRA:          -6.601
REMARK INTER:                  -5.678
REMARK INTRA:                  -0.923
REMARK UNBOUND:                -1.018
REMARK SMILES CCCCCCCCCCC(=O)[O-]
REMARK SMILES IDX 7 1 8 2 9 3 10 4 11 5 12 6 13 7 6 8 5 9 4 10 3 11 2 12 1 13
REMARK H PARENT
REMARK Flexibility Score: inf
ROOT
ATOM      1  C   UNL     1      10.940  56.174  42.592  1.00  0.00     0.000 C 
ENDROOT
BRANCH   1   2
ATOM      2  C   UNL     1       9.462  56.413  42.218  1.00  0.00     0.000 C 
BRANCH   2   3
ATOM      3  C   UNL     1       9.058  57.894  42.063  1.00  0.00     0.006 C 
BRANCH   3   4
ATOM      4  C   UNL     1      10.240  58.875  42.038  1.00  0.00     0.053 C 
BRANCH   4   5
ATOM      5  C   UNL     1       9.877  60.174  41.388  1.00  0.00     0.041 C 
ATOM      6  O   UNL     1       8.821  60.775  41.721  1.00  0.00    -0.550 OA
ATOM      7  O   UNL     1      10.684  60.705  40.390  1.00  0.00    -0.550 OA
ENDBRANCH   4   5
ENDBRANCH   3   4
ENDBRANCH   2   3
ENDBRANCH   1   2
BRANCH   1   8
ATOM      8  C   UNL     1      11.799  55.535  41.486  1.00  0.00     0.000 C 
BRANCH   8   9
ATOM      9  C   UNL     1      13.307  55.603  41.788  1.00  0.00    -0.000 C 
BRANCH   9  10
ATOM     10  C   UNL     1      13.838  57.046  41.811  1.00  0.00    -0.000 C 
BRANCH  10  11
ATOM     11  C   UNL     1      13.517  57.814  40.516  1.00  0.00    -0.000 C 
BRANCH  11  12
ATOM     12  C   UNL     1      14.019  59.266  40.554  1.00  0.00    -0.003 C 
ATOM     13  C   UNL     1      13.845  59.919  41.925  1.00  0.00     0.004 C 
ENDBRANCH  11  12
ENDBRANCH  10  11
ENDBRANCH   9  10
ENDBRANCH   8   9
ENDBRANCH   1   8
TORSDOF 9
ENDMDL
MODEL 9
REMARK VINA RESULT:    -3.644      2.890      4.589
REMARK INTER + INTRA:          -6.579
REMARK INTER:                  -5.645
REMARK INTRA:                  -0.934
REMARK UNBOUND:                -1.018
REMARK SMILES CCCCCCCCCCC(=O)[O-]
REMARK SMILES IDX 7 1 8 2 9 3 10 4 11 5 12 6 13 7 6 8 5 9 4 10 3 11 2 12 1 13
REMARK H PARENT
REMARK Flexibility Score: inf
ROOT
ATOM      1  C   UNL     1      26.348  59.151  25.549  1.00  0.00     0.000 C 
ENDROOT
BRANCH   1   2
ATOM      2  C   UNL     1      27.105  57.808  25.611  1.00  0.00     0.000 C 
BRANCH   2   3
ATOM      3  C   UNL     1      26.438  56.645  24.849  1.00  0.00     0.006 C 
BRANCH   3   4
ATOM      4  C   UNL     1      25.153  57.032  24.100  1.00  0.00     0.053 C 
BRANCH   4   5
ATOM      5  C   UNL     1      23.981  56.205  24.531  1.00  0.00     0.041 C 
ATOM      6  O   UNL     1      23.869  55.844  25.732  1.00  0.00    -0.550 OA
ATOM      7  O   UNL     1      23.031  55.804  23.601  1.00  0.00    -0.550 OA
ENDBRANCH   4   5
ENDBRANCH   3   4
ENDBRANCH   2   3
ENDBRANCH   1   2
BRANCH   1   8
ATOM      8  C   UNL     1      26.906  60.259  26.460  1.00  0.00     0.000 C 
BRANCH   8   9
ATOM      9  C   UNL     1      25.827  60.898  27.352  1.00  0.00    -0.000 C 
BRANCH   9  10
ATOM     10  C   UNL     1      24.424  60.818  26.728  1.00  0.00    -0.000 C 
BRANCH  10  11
ATOM     11  C   UNL     1      23.394  60.173  27.672  1.00  0.00    -0.000 C 
BRANCH  11  12
ATOM     12  C   UNL     1      22.722  58.937  27.053  1.00  0.00    -0.003 C 
ATOM     13  C   UNL     1      22.194  59.193  25.641  1.00  0.00     0.004 C 
ENDBRANCH  11  12
ENDBRANCH  10  11
ENDBRANCH   9  10
ENDBRANCH   8   9
ENDBRANCH   1   8
TORSDOF 9
ENDMDL
