MODEL 1
REMARK VINA RESULT:    -5.129      0.000      0.000
REMARK INTER + INTRA:          -5.279
REMARK INTER:                  -5.279
REMARK INTRA:                   0.000
REMARK UNBOUND:                 0.000
REMARK SMILES O=c1ccc2cc(O)ccc2o1
REMARK SMILES IDX 9 1 10 2 11 3 5 4 4 5 3 6 2 7 1 8 12 9 6 10 7 11 8 12
REMARK H PARENT 8 13
REMARK Flexibility Score: inf
ROOT
ATOM      1  C   UNL     1      21.963   0.455 -23.125  1.00  0.00     0.050 A 
ATOM      2  C   UNL     1      21.500  -0.749 -22.583  1.00  0.00     0.052 A 
ATOM      3  C   UNL     1      20.927  -0.770 -21.308  1.00  0.00     0.138 A 
ATOM      4  C   UNL     1      20.818   0.428 -20.568  1.00  0.00     0.021 A 
ATOM      5  C   UNL     1      20.241   0.376 -19.295  1.00  0.00     0.019 A 
ATOM      6  C   UNL     1      19.795  -0.847 -18.797  1.00  0.00     0.094 A 
ATOM      7  C   UNL     1      19.935  -1.994 -19.586  1.00  0.00     0.336 A 
ATOM      8  O   UNL     1      19.537  -3.107 -19.153  1.00  0.00    -0.246 OA
ATOM      9  O   UNL     1      20.487  -1.917 -20.794  1.00  0.00    -0.423 OA
ATOM     10  C   UNL     1      21.284   1.633 -21.115  1.00  0.00     0.058 A 
ATOM     11  C   UNL     1      21.856   1.645 -22.396  1.00  0.00     0.116 A 
ENDROOT
BRANCH  11  12
ATOM     12  O   UNL     1      22.323   2.834 -22.952  1.00  0.00    -0.508 OA
ATOM     13  H   UNL     1      21.738   3.404 -23.553  1.00  0.00     0.293 HD
ENDBRANCH  11  12
TORSDOF 1
ENDMDL
MODEL 2
REMARK VINA RESULT:    -5.007     17.128     19.389
REMARK INTER + INTRA:          -5.154
REMARK INTER:                  -5.154
REMARK INTRA:                   0.000
REMARK UNBOUND:                 0.000
REMARK SMILES O=c1ccc2cc(O)ccc2o1
REMARK SMILES IDX 9 1 10 2 11 3 5 4 4 5 3 6 2 7 1 8 12 9 6 10 7 11 8 12
REMARK H PARENT 8 13
REMARK Flexibility Score: inf
ROOT
ATOM      1  C   UNL     1       7.704  -7.284  -5.791  1.00  0.00     0.050 A 
ATOM      2  C   UNL     1       8.240  -8.278  -6.618  1.00  0.00     0.052 A 
ATOM      3  C   UNL     1       9.309  -7.982  -7.468  1.00  0.00     0.138 A 
ATOM      4  C   UNL     1       9.847  -6.676  -7.491  1.00  0.00     0.021 A 
ATOM      5  C   UNL     1      10.915  -6.409  -8.352  1.00  0.00     0.019 A 
ATOM      6  C   UNL     1      11.416  -7.432  -9.158  1.00  0.00     0.094 A 
ATOM      7  C   UNL     1      10.834  -8.702  -9.082  1.00  0.00     0.336 A 
ATOM      8  O   UNL     1      11.272  -9.638  -9.801  1.00  0.00    -0.246 OA
ATOM      9  O   UNL     1       9.818  -8.929  -8.253  1.00  0.00    -0.423 OA
ATOM     10  C   UNL     1       9.306  -5.682  -6.661  1.00  0.00     0.058 A 
ATOM     11  C   UNL     1       8.234  -5.988  -5.810  1.00  0.00     0.116 A 
ENDROOT
BRANCH  11  12
ATOM     12  O   UNL     1       7.687  -5.012  -4.981  1.00  0.00    -0.508 OA
ATOM     13  H   UNL     1       7.414  -4.104  -5.339  1.00  0.00     0.293 HD
ENDBRANCH  11  12
TORSDOF 1
ENDMDL
MODEL 3
REMARK VINA RESULT:    -4.991     17.599     19.513
REMARK INTER + INTRA:          -5.137
REMARK INTER:                  -5.137
REMARK INTRA:                   0.000
REMARK UNBOUND:                 0.000
REMARK SMILES O=c1ccc2cc(O)ccc2o1
REMARK SMILES IDX 9 1 10 2 11 3 5 4 4 5 3 6 2 7 1 8 12 9 6 10 7 11 8 12
REMARK H PARENT 8 13
REMARK Flexibility Score: inf
ROOT
ATOM      1  C   UNL     1       9.247   3.732  -9.337  1.00  0.00     0.050 A 
ATOM      2  C   UNL     1       8.144   4.579  -9.497  1.00  0.00     0.052 A 
ATOM      3  C   UNL     1       7.000   4.395  -8.715  1.00  0.00     0.138 A 
ATOM      4  C   UNL     1       6.960   3.352  -7.763  1.00  0.00     0.021 A 
ATOM      5  C   UNL     1       5.802   3.192  -6.996  1.00  0.00     0.019 A 
ATOM      6  C   UNL     1       4.728   4.060  -7.191  1.00  0.00     0.094 A 
ATOM      7  C   UNL     1       4.838   5.072  -8.151  1.00  0.00     0.336 A 
ATOM      8  O   UNL     1       3.880   5.865  -8.341  1.00  0.00    -0.246 OA
ATOM      9  O   UNL     1       5.952   5.202  -8.868  1.00  0.00    -0.423 OA
ATOM     10  C   UNL     1       8.068   2.505  -7.608  1.00  0.00     0.058 A 
ATOM     11  C   UNL     1       9.213   2.697  -8.395  1.00  0.00     0.116 A 
ENDROOT
BRANCH  11  12
ATOM     12  O   UNL     1      10.320   1.865  -8.251  1.00  0.00    -0.508 OA
ATOM     13  H   UNL     1      10.636   1.268  -9.008  1.00  0.00     0.293 HD
ENDBRANCH  11  12
TORSDOF 1
ENDMDL
MODEL 4
REMARK VINA RESULT:    -4.989     17.840     19.009
REMARK INTER + INTRA:          -5.135
REMARK INTER:                  -5.135
REMARK INTRA:                   0.000
REMARK UNBOUND:                 0.000
REMARK SMILES O=c1ccc2cc(O)ccc2o1
REMARK SMILES IDX 9 1 10 2 11 3 5 4 4 5 3 6 2 7 1 8 12 9 6 10 7 11 8 12
REMARK H PARENT 8 13
REMARK Flexibility Score: inf
ROOT
ATOM      1  C   UNL     1       8.385  -5.698  -6.202  1.00  0.00     0.050 A 
ATOM      2  C   UNL     1       7.630  -6.423  -7.131  1.00  0.00     0.052 A 
ATOM      3  C   UNL     1       8.253  -7.010  -8.236  1.00  0.00     0.138 A 
ATOM      4  C   UNL     1       9.648  -6.870  -8.412  1.00  0.00     0.021 A 
ATOM      5  C   UNL     1      10.243  -7.468  -9.527  1.00  0.00     0.019 A 
ATOM      6  C   UNL     1       9.449  -8.180 -10.426  1.00  0.00     0.094 A 
ATOM      7  C   UNL     1       8.074  -8.278 -10.188  1.00  0.00     0.336 A 
ATOM      8  O   UNL     1       7.341  -8.916 -10.988  1.00  0.00    -0.246 OA
ATOM      9  O   UNL     1       7.533  -7.699  -9.119  1.00  0.00    -0.423 OA
ATOM     10  C   UNL     1      10.401  -6.143  -7.478  1.00  0.00     0.058 A 
ATOM     11  C   UNL     1       9.768  -5.557  -6.372  1.00  0.00     0.116 A 
ENDROOT
BRANCH  11  12
ATOM     12  O   UNL     1      10.503  -4.832  -5.437  1.00  0.00    -0.508 OA
ATOM     13  H   UNL     1      11.159  -5.286  -4.812  1.00  0.00     0.293 HD
ENDBRANCH  11  12
TORSDOF 1
ENDMDL
MODEL 5
REMARK VINA RESULT:    -4.928     18.342     20.218
REMARK INTER + INTRA:          -5.072
REMARK INTER:                  -5.072
REMARK INTRA:                   0.000
REMARK UNBOUND:                 0.000
REMARK SMILES O=c1ccc2cc(O)ccc2o1
REMARK SMILES IDX 9 1 10 2 11 3 5 4 4 5 3 6 2 7 1 8 12 9 6 10 7 11 8 12
REMARK H PARENT 8 13
REMARK Flexibility Score: inf
ROOT
ATOM      1  C   UNL     1       8.280   3.837  -9.222  1.00  0.00     0.050 A 
ATOM      2  C   UNL     1       7.626   4.983  -9.688  1.00  0.00     0.052 A 
ATOM      3  C   UNL     1       6.365   5.322  -9.191  1.00  0.00     0.138 A 
ATOM      4  C   UNL     1       5.751   4.502  -8.217  1.00  0.00     0.021 A 
ATOM      5  C   UNL     1       4.488   4.866  -7.739  1.00  0.00     0.019 A 
ATOM      6  C   UNL     1       3.875   6.017  -8.234  1.00  0.00     0.094 A 
ATOM      7  C   UNL     1       4.542   6.781  -9.197  1.00  0.00     0.336 A 
ATOM      8  O   UNL     1       4.005   7.823  -9.655  1.00  0.00    -0.246 OA
ATOM      9  O   UNL     1       5.744   6.413  -9.635  1.00  0.00    -0.423 OA
ATOM     10  C   UNL     1       6.410   3.354  -7.754  1.00  0.00     0.058 A 
ATOM     11  C   UNL     1       7.677   3.022  -8.256  1.00  0.00     0.116 A 
ENDROOT
BRANCH  11  12
ATOM     12  O   UNL     1       8.343   1.885  -7.805  1.00  0.00    -0.508 OA
ATOM     13  H   UNL     1       7.871   1.180  -7.251  1.00  0.00     0.293 HD
ENDBRANCH  11  12
TORSDOF 1
ENDMDL
MODEL 6
REMARK VINA RESULT:    -4.882      0.831      4.770
REMARK INTER + INTRA:          -5.025
REMARK INTER:                  -5.025
REMARK INTRA:                   0.000
REMARK UNBOUND:                 0.000
REMARK SMILES O=c1ccc2cc(O)ccc2o1
REMARK SMILES IDX 9 1 10 2 11 3 5 4 4 5 3 6 2 7 1 8 12 9 6 10 7 11 8 12
REMARK H PARENT 8 13
REMARK Flexibility Score: inf
ROOT
ATOM      1  C   UNL     1      19.847  -0.810 -18.722  1.00  0.00     0.050 A 
ATOM      2  C   UNL     1      20.343   0.381 -19.263  1.00  0.00     0.052 A 
ATOM      3  C   UNL     1      20.854   0.401 -20.564  1.00  0.00     0.138 A 
ATOM      4  C   UNL     1      20.868  -0.786 -21.331  1.00  0.00     0.021 A 
ATOM      5  C   UNL     1      21.386  -0.735 -22.628  1.00  0.00     0.019 A 
ATOM      6  C   UNL     1      21.870   0.475 -23.125  1.00  0.00     0.094 A 
ATOM      7  C   UNL     1      21.824   1.611 -22.309  1.00  0.00     0.336 A 
ATOM      8  O   UNL     1      22.256   2.712 -22.739  1.00  0.00    -0.246 OA
ATOM      9  O   UNL     1      21.326   1.535 -21.077  1.00  0.00    -0.423 OA
ATOM     10  C   UNL     1      20.370  -1.977 -20.783  1.00  0.00     0.058 A 
ATOM     11  C   UNL     1      19.858  -1.988 -19.478  1.00  0.00     0.116 A 
ENDROOT
BRANCH  11  12
ATOM     12  O   UNL     1      19.360  -3.164 -18.922  1.00  0.00    -0.508 OA
ATOM     13  H   UNL     1      18.539  -3.622 -19.299  1.00  0.00     0.293 HD
ENDBRANCH  11  12
TORSDOF 1
ENDMDL
MODEL 7
REMARK VINA RESULT:    -4.869     18.638     20.496
REMARK INTER + INTRA:          -5.012
REMARK INTER:                  -5.012
REMARK INTRA:                   0.000
REMARK UNBOUND:                 0.000
REMARK SMILES O=c1ccc2cc(O)ccc2o1
REMARK SMILES IDX 9 1 10 2 11 3 5 4 4 5 3 6 2 7 1 8 12 9 6 10 7 11 8 12
REMARK H PARENT 8 13
REMARK Flexibility Score: inf
ROOT
ATOM      1  C   UNL     1       5.909   3.034  -7.372  1.00  0.00     0.050 A 
ATOM      2  C   UNL     1       5.030   4.116  -7.487  1.00  0.00     0.052 A 
ATOM      3  C   UNL     1       5.317   5.163  -8.368  1.00  0.00     0.138 A 
ATOM      4  C   UNL     1       6.498   5.124  -9.143  1.00  0.00     0.021 A 
ATOM      5  C   UNL     1       6.758   6.185 -10.015  1.00  0.00     0.019 A 
ATOM      6  C   UNL     1       5.853   7.243 -10.095  1.00  0.00     0.094 A 
ATOM      7  C   UNL     1       4.704   7.215  -9.298  1.00  0.00     0.336 A 
ATOM      8  O   UNL     1       3.875   8.160  -9.356  1.00  0.00    -0.246 OA
ATOM      9  O   UNL     1       4.480   6.192  -8.476  1.00  0.00    -0.423 OA
ATOM     10  C   UNL     1       7.376   4.037  -9.024  1.00  0.00     0.058 A 
ATOM     11  C   UNL     1       7.080   2.990  -8.138  1.00  0.00     0.116 A 
ENDROOT
BRANCH  11  12
ATOM     12  O   UNL     1       7.943   1.904  -8.010  1.00  0.00    -0.508 OA
ATOM     13  H   UNL     1       8.316   1.627  -7.109  1.00  0.00     0.293 HD
ENDBRANCH  11  12
TORSDOF 1
ENDMDL
MODEL 8
REMARK VINA RESULT:    -4.861     16.399     18.755
REMARK INTER + INTRA:          -5.003
REMARK INTER:                  -5.003
REMARK INTRA:                   0.000
REMARK UNBOUND:                 0.000
REMARK SMILES O=c1ccc2cc(O)ccc2o1
REMARK SMILES IDX 9 1 10 2 11 3 5 4 4 5 3 6 2 7 1 8 12 9 6 10 7 11 8 12
REMARK H PARENT 8 13
REMARK Flexibility Score: inf
ROOT
ATOM      1  C   UNL     1      11.723   3.637  -2.875  1.00  0.00     0.050 A 
ATOM      2  C   UNL     1      12.789   4.311  -3.480  1.00  0.00     0.052 A 
ATOM      3  C   UNL     1      13.179   3.982  -4.782  1.00  0.00     0.138 A 
ATOM      4  C   UNL     1      12.492   2.967  -5.485  1.00  0.00     0.021 A 
ATOM      5  C   UNL     1      12.903   2.660  -6.785  1.00  0.00     0.019 A 
ATOM      6  C   UNL     1      13.972   3.358  -7.347  1.00  0.00     0.094 A 
ATOM      7  C   UNL     1      14.605   4.351  -6.593  1.00  0.00     0.336 A 
ATOM      8  O   UNL     1      15.572   4.993  -7.082  1.00  0.00    -0.246 OA
ATOM      9  O   UNL     1      14.193   4.624  -5.357  1.00  0.00    -0.423 OA
ATOM     10  C   UNL     1      11.423   2.294  -4.873  1.00  0.00     0.058 A 
ATOM     11  C   UNL     1      11.039   2.631  -3.567  1.00  0.00     0.116 A 
ENDROOT
BRANCH  11  12
ATOM     12  O   UNL     1       9.980   1.971  -2.948  1.00  0.00    -0.508 OA
ATOM     13  H   UNL     1       9.909   0.960  -2.955  1.00  0.00     0.293 HD
ENDBRANCH  11  12
TORSDOF 1
ENDMDL
MODEL 9
REMARK VINA RESULT:    -4.786     16.553     19.511
REMARK INTER + INTRA:          -4.926
REMARK INTER:                  -4.926
REMARK INTRA:                   0.000
REMARK UNBOUND:                 0.000
REMARK SMILES O=c1ccc2cc(O)ccc2o1
REMARK SMILES IDX 9 1 10 2 11 3 5 4 4 5 3 6 2 7 1 8 12 9 6 10 7 11 8 12
REMARK H PARENT 8 13
REMARK Flexibility Score: inf
ROOT
ATOM      1  C   UNL     1       7.916  -6.740  -5.855  1.00  0.00     0.050 A 
ATOM      2  C   UNL     1       8.928  -6.044  -6.526  1.00  0.00     0.052 A 
ATOM      3  C   UNL     1       9.767  -6.716  -7.419  1.00  0.00     0.138 A 
ATOM      4  C   UNL     1       9.590  -8.100  -7.642  1.00  0.00     0.021 A 
ATOM      5  C   UNL     1      10.445  -8.745  -8.541  1.00  0.00     0.019 A 
ATOM      6  C   UNL     1      11.440  -8.011  -9.186  1.00  0.00     0.094 A 
ATOM      7  C   UNL     1      11.556  -6.643  -8.917  1.00  0.00     0.336 A 
ATOM      8  O   UNL     1      12.448  -5.963  -9.489  1.00  0.00    -0.246 OA
ATOM      9  O   UNL     1      10.729  -6.053  -8.057  1.00  0.00    -0.423 OA
ATOM     10  C   UNL     1       8.574  -8.793  -6.967  1.00  0.00     0.058 A 
ATOM     11  C   UNL     1       7.736  -8.111  -6.073  1.00  0.00     0.116 A 
ENDROOT
BRANCH  11  12
ATOM     12  O   UNL     1       6.723  -8.786  -5.396  1.00  0.00    -0.508 OA
ATOM     13  H   UNL     1       6.301  -9.626  -5.775  1.00  0.00     0.293 HD
ENDBRANCH  11  12
TORSDOF 1
ENDMDL
