MODEL 1
REMARK VINA RESULT:    -2.867      0.000      0.000
REMARK INTER + INTRA:          -3.474
REMARK INTER:                  -3.369
REMARK INTRA:                  -0.104
REMARK UNBOUND:                -0.104
REMARK SMILES O=C([O-])CCC(=O)[O-]
REMARK SMILES IDX 4 1 2 2 1 3 3 4 5 5 6 6 7 7 8 8
REMARK H PARENT
REMARK Flexibility Score: inf
ROOT
ATOM      1  C   UNL     1      41.153  11.186  12.710  1.00  0.00     0.059 C 
ENDROOT
BRANCH   1   2
ATOM      2  C   UNL     1      40.318  12.392  13.015  1.00  0.00     0.042 C 
ATOM      3  O   UNL     1      40.857  13.437  13.465  1.00  0.00    -0.550 OA
ATOM      4  O   UNL     1      38.951  12.375  12.765  1.00  0.00    -0.550 OA
ENDBRANCH   1   2
BRANCH   1   5
ATOM      5  C   UNL     1      40.746  10.539  11.383  1.00  0.00     0.059 C 
BRANCH   5   6
ATOM      6  C   UNL     1      40.001   9.257  11.599  1.00  0.00     0.042 C 
ATOM      7  O   UNL     1      40.627   8.196  11.857  1.00  0.00    -0.550 OA
ATOM      8  O   UNL     1      38.612   9.244  11.554  1.00  0.00    -0.550 OA
ENDBRANCH   5   6
ENDBRANCH   1   5
TORSDOF 3
ENDMDL
MODEL 2
REMARK VINA RESULT:    -2.858      0.034      3.729
REMARK INTER + INTRA:          -3.464
REMARK INTER:                  -3.364
REMARK INTRA:                  -0.100
REMARK UNBOUND:                -0.104
REMARK SMILES O=C([O-])CCC(=O)[O-]
REMARK SMILES IDX 4 1 2 2 1 3 3 4 5 5 6 6 7 7 8 8
REMARK H PARENT
REMARK Flexibility Score: inf
ROOT
ATOM      1  C   UNL     1      40.747  10.520  11.378  1.00  0.00     0.059 C 
ENDROOT
BRANCH   1   2
ATOM      2  C   UNL     1      39.990   9.247  11.602  1.00  0.00     0.042 C 
ATOM      3  O   UNL     1      40.605   8.185  11.881  1.00  0.00    -0.550 OA
ATOM      4  O   UNL     1      38.601   9.242  11.542  1.00  0.00    -0.550 OA
ENDBRANCH   1   2
BRANCH   1   5
ATOM      5  C   UNL     1      41.156  11.175  12.701  1.00  0.00     0.059 C 
BRANCH   5   6
ATOM      6  C   UNL     1      40.318  12.379  13.004  1.00  0.00     0.042 C 
ATOM      7  O   UNL     1      40.844  13.408  13.501  1.00  0.00    -0.550 OA
ATOM      8  O   UNL     1      38.962  12.377  12.699  1.00  0.00    -0.550 OA
ENDBRANCH   5   6
ENDBRANCH   1   5
TORSDOF 3
ENDMDL
MODEL 3
REMARK VINA RESULT:    -2.815      1.302      3.723
REMARK INTER + INTRA:          -3.413
REMARK INTER:                  -3.228
REMARK INTRA:                  -0.185
REMARK UNBOUND:                -0.104
REMARK SMILES O=C([O-])CCC(=O)[O-]
REMARK SMILES IDX 4 1 2 2 1 3 3 4 5 5 6 6 7 7 8 8
REMARK H PARENT
REMARK Flexibility Score: inf
ROOT
ATOM      1  C   UNL     1      40.065  10.890  11.173  1.00  0.00     0.059 C 
ENDROOT
BRANCH   1   2
ATOM      2  C   UNL     1      39.622   9.544  11.657  1.00  0.00     0.042 C 
ATOM      3  O   UNL     1      38.418   9.348  11.968  1.00  0.00    -0.550 OA
ATOM      4  O   UNL     1      40.530   8.495  11.727  1.00  0.00    -0.550 OA
ENDBRANCH   1   2
BRANCH   1   5
ATOM      5  C   UNL     1      39.873  11.968  12.245  1.00  0.00     0.059 C 
BRANCH   5   6
ATOM      6  C   UNL     1      40.731  11.711  13.446  1.00  0.00     0.042 C 
ATOM      7  O   UNL     1      40.207  11.580  14.583  1.00  0.00    -0.550 OA
ATOM      8  O   UNL     1      42.107  11.578  13.303  1.00  0.00    -0.550 OA
ENDBRANCH   5   6
ENDBRANCH   1   5
TORSDOF 3
ENDMDL
MODEL 4
REMARK VINA RESULT:    -2.812      1.284      3.620
REMARK INTER + INTRA:          -3.410
REMARK INTER:                  -3.216
REMARK INTRA:                  -0.193
REMARK UNBOUND:                -0.104
REMARK SMILES O=C([O-])CCC(=O)[O-]
REMARK SMILES IDX 4 1 2 2 1 3 3 4 5 5 6 6 7 7 8 8
REMARK H PARENT
REMARK Flexibility Score: inf
ROOT
ATOM      1  C   UNL     1      40.091  10.829  11.154  1.00  0.00     0.059 C 
ENDROOT
BRANCH   1   2
ATOM      2  C   UNL     1      39.744   9.458  11.647  1.00  0.00     0.042 C 
ATOM      3  O   UNL     1      40.623   8.559  11.686  1.00  0.00    -0.550 OA
ATOM      4  O   UNL     1      38.459   9.185  12.100  1.00  0.00    -0.550 OA
ENDBRANCH   1   2
BRANCH   1   5
ATOM      5  C   UNL     1      39.828  11.897  12.220  1.00  0.00     0.059 C 
BRANCH   5   6
ATOM      6  C   UNL     1      40.682  11.688  13.433  1.00  0.00     0.042 C 
ATOM      7  O   UNL     1      40.150  11.527  14.563  1.00  0.00    -0.550 OA
ATOM      8  O   UNL     1      42.065  11.631  13.309  1.00  0.00    -0.550 OA
ENDBRANCH   5   6
ENDBRANCH   1   5
TORSDOF 3
ENDMDL
MODEL 5
REMARK VINA RESULT:    -2.811      1.431      3.878
REMARK INTER + INTRA:          -3.408
REMARK INTER:                  -3.314
REMARK INTRA:                  -0.093
REMARK UNBOUND:                -0.104
REMARK SMILES O=C([O-])CCC(=O)[O-]
REMARK SMILES IDX 4 1 2 2 1 3 3 4 5 5 6 6 7 7 8 8
REMARK H PARENT
REMARK Flexibility Score: inf
ROOT
ATOM      1  C   UNL     1      39.705  10.613  12.701  1.00  0.00     0.059 C 
ENDROOT
BRANCH   1   2
ATOM      2  C   UNL     1      40.450   9.851  11.649  1.00  0.00     0.042 C 
ATOM      3  O   UNL     1      41.053  10.464  10.730  1.00  0.00    -0.550 OA
ATOM      4  O   UNL     1      40.510   8.463  11.706  1.00  0.00    -0.550 OA
ENDBRANCH   1   2
BRANCH   1   5
ATOM      5  C   UNL     1      39.927  12.123  12.568  1.00  0.00     0.059 C 
BRANCH   5   6
ATOM      6  C   UNL     1      40.818  12.648  13.652  1.00  0.00     0.042 C 
ATOM      7  O   UNL     1      41.664  11.892  14.198  1.00  0.00    -0.550 OA
ATOM      8  O   UNL     1      40.743  13.983  14.029  1.00  0.00    -0.550 OA
ENDBRANCH   5   6
ENDBRANCH   1   5
TORSDOF 3
ENDMDL
MODEL 6
REMARK VINA RESULT:    -2.806      1.342      1.409
REMARK INTER + INTRA:          -3.402
REMARK INTER:                  -3.216
REMARK INTRA:                  -0.186
REMARK UNBOUND:                -0.104
REMARK SMILES O=C([O-])CCC(=O)[O-]
REMARK SMILES IDX 4 1 2 2 1 3 3 4 5 5 6 6 7 7 8 8
REMARK H PARENT
REMARK Flexibility Score: inf
ROOT
ATOM      1  C   UNL     1      39.887  11.939  12.340  1.00  0.00     0.059 C 
ENDROOT
BRANCH   1   2
ATOM      2  C   UNL     1      40.798  11.664  13.496  1.00  0.00     0.042 C 
ATOM      3  O   UNL     1      42.046  11.658  13.333  1.00  0.00    -0.550 OA
ATOM      4  O   UNL     1      40.269  11.452  14.764  1.00  0.00    -0.550 OA
ENDBRANCH   1   2
BRANCH   1   5
ATOM      5  C   UNL     1      40.067  10.908  11.221  1.00  0.00     0.059 C 
BRANCH   5   6
ATOM      6  C   UNL     1      39.724   9.525  11.684  1.00  0.00     0.042 C 
ATOM      7  O   UNL     1      40.592   8.614  11.659  1.00  0.00    -0.550 OA
ATOM      8  O   UNL     1      38.455   9.252  12.181  1.00  0.00    -0.550 OA
ENDBRANCH   5   6
ENDBRANCH   1   5
TORSDOF 3
ENDMDL
MODEL 7
REMARK VINA RESULT:    -2.748      1.813      2.139
REMARK INTER + INTRA:          -3.334
REMARK INTER:                  -3.299
REMARK INTRA:                  -0.036
REMARK UNBOUND:                -0.104
REMARK SMILES O=C([O-])CCC(=O)[O-]
REMARK SMILES IDX 4 1 2 2 1 3 3 4 5 5 6 6 7 7 8 8
REMARK H PARENT
REMARK Flexibility Score: inf
ROOT
ATOM      1  C   UNL     1      41.380  11.796  13.369  1.00  0.00     0.059 C 
ENDROOT
BRANCH   1   2
ATOM      2  C   UNL     1      41.301  12.282  14.783  1.00  0.00     0.042 C 
ATOM      3  O   UNL     1      42.219  12.009  15.599  1.00  0.00    -0.550 OA
ATOM      4  O   UNL     1      40.231  13.071  15.190  1.00  0.00    -0.550 OA
ENDBRANCH   1   2
BRANCH   1   5
ATOM      5  C   UNL     1      40.061  12.014  12.621  1.00  0.00     0.059 C 
BRANCH   5   6
ATOM      6  C   UNL     1      39.855  10.986  11.551  1.00  0.00     0.042 C 
ATOM      7  O   UNL     1      40.842  10.521  10.921  1.00  0.00    -0.550 OA
ATOM      8  O   UNL     1      38.578  10.512  11.277  1.00  0.00    -0.550 OA
ENDBRANCH   5   6
ENDBRANCH   1   5
TORSDOF 3
ENDMDL
MODEL 8
REMARK VINA RESULT:    -2.685      1.700      4.196
REMARK INTER + INTRA:          -3.260
REMARK INTER:                  -3.137
REMARK INTRA:                  -0.123
REMARK UNBOUND:                -0.104
REMARK SMILES O=C([O-])CCC(=O)[O-]
REMARK SMILES IDX 4 1 2 2 1 3 3 4 5 5 6 6 7 7 8 8
REMARK H PARENT
REMARK Flexibility Score: inf
ROOT
ATOM      1  C   UNL     1      39.816  12.385  12.372  1.00  0.00     0.059 C 
ENDROOT
BRANCH   1   2
ATOM      2  C   UNL     1      40.098  11.023  11.818  1.00  0.00     0.042 C 
ATOM      3  O   UNL     1      39.170  10.342  11.309  1.00  0.00    -0.550 OA
ATOM      4  O   UNL     1      41.394  10.520  11.827  1.00  0.00    -0.550 OA
ENDBRANCH   1   2
BRANCH   1   5
ATOM      5  C   UNL     1      39.645  12.351  13.894  1.00  0.00     0.059 C 
BRANCH   5   6
ATOM      6  C   UNL     1      40.871  12.844  14.600  1.00  0.00     0.042 C 
ATOM      7  O   UNL     1      40.951  14.046  14.966  1.00  0.00    -0.550 OA
ATOM      8  O   UNL     1      41.908  11.965  14.889  1.00  0.00    -0.550 OA
ENDBRANCH   5   6
ENDBRANCH   1   5
TORSDOF 3
ENDMDL
MODEL 9
REMARK VINA RESULT:    -2.614      1.918      2.941
REMARK INTER + INTRA:          -3.177
REMARK INTER:                  -3.068
REMARK INTRA:                  -0.108
REMARK UNBOUND:                -0.104
REMARK SMILES O=C([O-])CCC(=O)[O-]
REMARK SMILES IDX 4 1 2 2 1 3 3 4 5 5 6 6 7 7 8 8
REMARK H PARENT
REMARK Flexibility Score: inf
ROOT
ATOM      1  C   UNL     1      40.749  11.972  14.727  1.00  0.00     0.059 C 
ENDROOT
BRANCH   1   2
ATOM      2  C   UNL     1      40.942  13.353  15.273  1.00  0.00     0.042 C 
ATOM      3  O   UNL     1      40.829  14.355  14.519  1.00  0.00    -0.550 OA
ATOM      4  O   UNL     1      41.209  13.537  16.625  1.00  0.00    -0.550 OA
ENDBRANCH   1   2
BRANCH   1   5
ATOM      5  C   UNL     1      41.654  11.711  13.519  1.00  0.00     0.059 C 
BRANCH   5   6
ATOM      6  C   UNL     1      40.866  11.272  12.322  1.00  0.00     0.042 C 
ATOM      7  O   UNL     1      39.809  11.877  12.004  1.00  0.00    -0.550 OA
ATOM      8  O   UNL     1      41.322  10.221  11.536  1.00  0.00    -0.550 OA
ENDBRANCH   5   6
ENDBRANCH   1   5
TORSDOF 3
ENDMDL
