MODEL 1
REMARK VINA RESULT:    -3.977      0.000      0.000
REMARK INTER + INTRA:          -6.159
REMARK INTER:                  -5.721
REMARK INTRA:                  -0.438
REMARK UNBOUND:                -0.438
REMARK SMILES CCCCCCCCCO
REMARK SMILES IDX 6 1 5 2 4 3 3 4 2 5 1 6 7 7 8 8 9 9 10 10
REMARK H PARENT 10 11
REMARK Flexibility Score: inf
ROOT
ATOM      1  C   UNL     1       3.445  27.926  10.534  1.00  0.00     0.000 C 
ENDROOT
BRANCH   1   2
ATOM      2  C   UNL     1       3.611  28.727  11.833  1.00  0.00     0.000 C 
BRANCH   2   3
ATOM      3  C   UNL     1       2.428  29.671  12.114  1.00  0.00    -0.000 C 
BRANCH   3   4
ATOM      4  C   UNL     1       1.464  29.198  13.217  1.00  0.00    -0.000 C 
BRANCH   4   5
ATOM      5  C   UNL     1       2.181  28.501  14.381  1.00  0.00    -0.003 C 
ATOM      6  C   UNL     1       1.397  28.654  15.681  1.00  0.00     0.004 C 
ENDBRANCH   4   5
ENDBRANCH   3   4
ENDBRANCH   2   3
ENDBRANCH   1   2
BRANCH   1   7
ATOM      7  C   UNL     1       3.503  26.416  10.805  1.00  0.00     0.002 C 
BRANCH   7   8
ATOM      8  C   UNL     1       2.426  25.943  11.796  1.00  0.00     0.028 C 
BRANCH   8   9
ATOM      9  C   UNL     1       1.400  24.981  11.175  1.00  0.00     0.156 C 
BRANCH   9  10
ATOM     10  O   UNL     1       0.119  25.195  11.705  1.00  0.00    -0.396 OA
ATOM     11  H   UNL     1       0.218  25.206  12.693  1.00  0.00     0.210 HD
ENDBRANCH   9  10
ENDBRANCH   8   9
ENDBRANCH   7   8
ENDBRANCH   1   7
TORSDOF 8
ENDMDL
MODEL 2
REMARK VINA RESULT:    -3.838      2.006      2.246
REMARK INTER + INTRA:          -5.960
REMARK INTER:                  -5.587
REMARK INTRA:                  -0.373
REMARK UNBOUND:                -0.438
REMARK SMILES CCCCCCCCCO
REMARK SMILES IDX 6 1 5 2 4 3 3 4 2 5 1 6 7 7 8 8 9 9 10 10
REMARK H PARENT 10 11
REMARK Flexibility Score: inf
ROOT
ATOM      1  C   UNL     1       3.612  27.551  10.842  1.00  0.00     0.000 C 
ENDROOT
BRANCH   1   2
ATOM      2  C   UNL     1       3.633  28.710  11.850  1.00  0.00     0.000 C 
BRANCH   2   3
ATOM      3  C   UNL     1       2.298  29.474  11.917  1.00  0.00    -0.000 C 
BRANCH   3   4
ATOM      4  C   UNL     1       1.464  29.218  13.186  1.00  0.00    -0.000 C 
BRANCH   4   5
ATOM      5  C   UNL     1       2.251  28.486  14.283  1.00  0.00    -0.003 C 
ATOM      6  C   UNL     1       1.532  28.573  15.626  1.00  0.00     0.004 C 
ENDBRANCH   4   5
ENDBRANCH   3   4
ENDBRANCH   2   3
ENDBRANCH   1   2
BRANCH   1   7
ATOM      7  C   UNL     1       3.166  26.245  11.513  1.00  0.00     0.002 C 
BRANCH   7   8
ATOM      8  C   UNL     1       3.524  24.995  10.691  1.00  0.00     0.028 C 
BRANCH   8   9
ATOM      9  C   UNL     1       5.024  24.877  10.375  1.00  0.00     0.156 C 
BRANCH   9  10
ATOM     10  O   UNL     1       5.722  24.291  11.441  1.00  0.00    -0.396 OA
ATOM     11  H   UNL     1       6.689  24.403  11.245  1.00  0.00     0.210 HD
ENDBRANCH   9  10
ENDBRANCH   8   9
ENDBRANCH   7   8
ENDBRANCH   1   7
TORSDOF 8
ENDMDL
MODEL 3
REMARK VINA RESULT:    -3.753      0.766      0.999
REMARK INTER + INTRA:          -5.838
REMARK INTER:                  -5.610
REMARK INTRA:                  -0.228
REMARK UNBOUND:                -0.438
REMARK SMILES CCCCCCCCCO
REMARK SMILES IDX 6 1 5 2 4 3 3 4 2 5 1 6 7 7 8 8 9 9 10 10
REMARK H PARENT 10 11
REMARK Flexibility Score: inf
ROOT
ATOM      1  C   UNL     1       3.327  27.484  11.148  1.00  0.00     0.000 C 
ENDROOT
BRANCH   1   2
ATOM      2  C   UNL     1       3.376  28.803  11.932  1.00  0.00     0.000 C 
BRANCH   2   3
ATOM      3  C   UNL     1       2.683  28.714  13.303  1.00  0.00    -0.000 C 
BRANCH   3   4
ATOM      4  C   UNL     1       1.241  29.253  13.341  1.00  0.00    -0.000 C 
BRANCH   4   5
ATOM      5  C   UNL     1       0.608  29.176  14.738  1.00  0.00    -0.003 C 
ATOM      6  C   UNL     1       1.554  28.510  15.733  1.00  0.00     0.004 C 
ENDBRANCH   4   5
ENDBRANCH   3   4
ENDBRANCH   2   3
ENDBRANCH   1   2
BRANCH   1   7
ATOM      7  C   UNL     1       2.521  26.420  11.907  1.00  0.00     0.002 C 
BRANCH   7   8
ATOM      8  C   UNL     1       2.425  25.085  11.149  1.00  0.00     0.028 C 
BRANCH   8   9
ATOM      9  C   UNL     1       0.985  24.687  10.786  1.00  0.00     0.156 C 
BRANCH   9  10
ATOM     10  O   UNL     1       0.076  25.131  11.758  1.00  0.00    -0.396 OA
ATOM     11  H   UNL     1      -0.227  24.326  12.254  1.00  0.00     0.210 HD
ENDBRANCH   9  10
ENDBRANCH   8   9
ENDBRANCH   7   8
ENDBRANCH   1   7
TORSDOF 8
ENDMDL
MODEL 4
REMARK VINA RESULT:    -3.730      2.688      4.257
REMARK INTER + INTRA:          -5.804
REMARK INTER:                  -5.061
REMARK INTRA:                  -0.743
REMARK UNBOUND:                -0.438
REMARK SMILES CCCCCCCCCO
REMARK SMILES IDX 6 1 5 2 4 3 3 4 2 5 1 6 7 7 8 8 9 9 10 10
REMARK H PARENT 10 11
REMARK Flexibility Score: inf
ROOT
ATOM      1  C   UNL     1       1.657  30.792  11.285  1.00  0.00     0.000 C 
ENDROOT
BRANCH   1   2
ATOM      2  C   UNL     1       2.389  32.125  11.501  1.00  0.00     0.000 C 
BRANCH   2   3
ATOM      3  C   UNL     1       3.867  32.076  11.076  1.00  0.00    -0.000 C 
BRANCH   3   4
ATOM      4  C   UNL     1       4.869  31.860  12.225  1.00  0.00    -0.000 C 
BRANCH   4   5
ATOM      5  C   UNL     1       5.413  30.425  12.283  1.00  0.00    -0.003 C 
ATOM      6  C   UNL     1       5.248  29.720  10.940  1.00  0.00     0.004 C 
ENDBRANCH   4   5
ENDBRANCH   3   4
ENDBRANCH   2   3
ENDBRANCH   1   2
BRANCH   1   7
ATOM      7  C   UNL     1       1.406  30.079  12.622  1.00  0.00     0.002 C 
BRANCH   7   8
ATOM      8  C   UNL     1       2.052  28.685  12.689  1.00  0.00     0.028 C 
BRANCH   8   9
ATOM      9  C   UNL     1       2.758  28.399  14.024  1.00  0.00     0.156 C 
BRANCH   9  10
ATOM     10  O   UNL     1       1.946  27.633  14.873  1.00  0.00    -0.396 OA
ATOM     11  H   UNL     1       1.461  28.273  15.457  1.00  0.00     0.210 HD
ENDBRANCH   9  10
ENDBRANCH   8   9
ENDBRANCH   7   8
ENDBRANCH   1   7
TORSDOF 8
ENDMDL
MODEL 5
REMARK VINA RESULT:    -3.727      1.547      2.368
REMARK INTER + INTRA:          -5.800
REMARK INTER:                  -5.470
REMARK INTRA:                  -0.330
REMARK UNBOUND:                -0.438
REMARK SMILES CCCCCCCCCO
REMARK SMILES IDX 6 1 5 2 4 3 3 4 2 5 1 6 7 7 8 8 9 9 10 10
REMARK H PARENT 10 11
REMARK Flexibility Score: inf
ROOT
ATOM      1  C   UNL     1       3.550  27.569  10.783  1.00  0.00     0.000 C 
ENDROOT
BRANCH   1   2
ATOM      2  C   UNL     1       2.960  27.949  12.148  1.00  0.00     0.000 C 
BRANCH   2   3
ATOM      3  C   UNL     1       2.965  29.467  12.405  1.00  0.00    -0.000 C 
BRANCH   3   4
ATOM      4  C   UNL     1       1.609  30.167  12.198  1.00  0.00    -0.000 C 
BRANCH   4   5
ATOM      5  C   UNL     1       1.684  31.338  11.209  1.00  0.00    -0.003 C 
ATOM      6  C   UNL     1       2.993  32.108  11.367  1.00  0.00     0.004 C 
ENDBRANCH   4   5
ENDBRANCH   3   4
ENDBRANCH   2   3
ENDBRANCH   1   2
BRANCH   1   7
ATOM      7  C   UNL     1       3.242  26.105  10.437  1.00  0.00     0.002 C 
BRANCH   7   8
ATOM      8  C   UNL     1       2.406  25.397  11.516  1.00  0.00     0.028 C 
BRANCH   8   9
ATOM      9  C   UNL     1       1.120  24.753  10.974  1.00  0.00     0.156 C 
BRANCH   9  10
ATOM     10  O   UNL     1       0.019  25.056  11.788  1.00  0.00    -0.396 OA
ATOM     11  H   UNL     1      -0.794  24.844  11.258  1.00  0.00     0.210 HD
ENDBRANCH   9  10
ENDBRANCH   8   9
ENDBRANCH   7   8
ENDBRANCH   1   7
TORSDOF 8
ENDMDL
MODEL 6
REMARK VINA RESULT:    -3.717      7.310      9.285
REMARK INTER + INTRA:          -5.786
REMARK INTER:                  -5.541
REMARK INTRA:                  -0.245
REMARK UNBOUND:                -0.438
REMARK SMILES CCCCCCCCCO
REMARK SMILES IDX 6 1 5 2 4 3 3 4 2 5 1 6 7 7 8 8 9 9 10 10
REMARK H PARENT 10 11
REMARK Flexibility Score: inf
ROOT
ATOM      1  C   UNL     1      -2.428  21.763  12.816  1.00  0.00     0.000 C 
ENDROOT
BRANCH   1   2
ATOM      2  C   UNL     1      -1.121  21.972  12.038  1.00  0.00     0.000 C 
BRANCH   2   3
ATOM      3  C   UNL     1      -0.732  20.757  11.177  1.00  0.00    -0.000 C 
BRANCH   3   4
ATOM      4  C   UNL     1       0.139  21.081   9.948  1.00  0.00    -0.000 C 
BRANCH   4   5
ATOM      5  C   UNL     1       0.301  19.887   8.998  1.00  0.00    -0.003 C 
ATOM      6  C   UNL     1       1.486  19.016   9.407  1.00  0.00     0.004 C 
ENDBRANCH   4   5
ENDBRANCH   3   4
ENDBRANCH   2   3
ENDBRANCH   1   2
BRANCH   1   7
ATOM      7  C   UNL     1      -3.409  20.889  12.021  1.00  0.00     0.002 C 
BRANCH   7   8
ATOM      8  C   UNL     1      -4.118  19.838  12.892  1.00  0.00     0.028 C 
BRANCH   8   9
ATOM      9  C   UNL     1      -5.476  19.390  12.330  1.00  0.00     0.156 C 
BRANCH   9  10
ATOM     10  O   UNL     1      -5.395  19.134  10.953  1.00  0.00    -0.396 OA
ATOM     11  H   UNL     1      -4.612  18.538  10.819  1.00  0.00     0.210 HD
ENDBRANCH   9  10
ENDBRANCH   8   9
ENDBRANCH   7   8
ENDBRANCH   1   7
TORSDOF 8
ENDMDL
MODEL 7
REMARK VINA RESULT:    -3.712      2.393      3.257
REMARK INTER + INTRA:          -5.778
REMARK INTER:                  -5.486
REMARK INTRA:                  -0.292
REMARK UNBOUND:                -0.438
REMARK SMILES CCCCCCCCCO
REMARK SMILES IDX 6 1 5 2 4 3 3 4 2 5 1 6 7 7 8 8 9 9 10 10
REMARK H PARENT 10 11
REMARK Flexibility Score: inf
ROOT
ATOM      1  C   UNL     1       2.497  26.477  11.906  1.00  0.00     0.000 C 
ENDROOT
BRANCH   1   2
ATOM      2  C   UNL     1       3.309  27.714  11.495  1.00  0.00     0.000 C 
BRANCH   2   3
ATOM      3  C   UNL     1       3.156  28.888  12.479  1.00  0.00    -0.000 C 
BRANCH   3   4
ATOM      4  C   UNL     1       1.723  29.434  12.625  1.00  0.00    -0.000 C 
BRANCH   4   5
ATOM      5  C   UNL     1       1.496  30.737  11.847  1.00  0.00    -0.003 C 
ATOM      6  C   UNL     1       2.822  31.351  11.404  1.00  0.00     0.004 C 
ENDBRANCH   4   5
ENDBRANCH   3   4
ENDBRANCH   2   3
ENDBRANCH   1   2
BRANCH   1   7
ATOM      7  C   UNL     1       2.958  25.233  11.132  1.00  0.00     0.002 C 
BRANCH   7   8
ATOM      8  C   UNL     1       4.276  25.455  10.371  1.00  0.00     0.028 C 
BRANCH   8   9
ATOM      9  C   UNL     1       5.207  24.232  10.386  1.00  0.00     0.156 C 
BRANCH   9  10
ATOM     10  O   UNL     1       6.002  24.215  11.543  1.00  0.00    -0.396 OA
ATOM     11  H   UNL     1       5.822  23.351  11.999  1.00  0.00     0.210 HD
ENDBRANCH   9  10
ENDBRANCH   8   9
ENDBRANCH   7   8
ENDBRANCH   1   7
TORSDOF 8
ENDMDL
MODEL 8
REMARK VINA RESULT:    -3.576      2.156      3.267
REMARK INTER + INTRA:          -5.583
REMARK INTER:                  -5.107
REMARK INTRA:                  -0.476
REMARK UNBOUND:                -0.438
REMARK SMILES CCCCCCCCCO
REMARK SMILES IDX 6 1 5 2 4 3 3 4 2 5 1 6 7 7 8 8 9 9 10 10
REMARK H PARENT 10 11
REMARK Flexibility Score: inf
ROOT
ATOM      1  C   UNL     1       2.781  28.247  12.939  1.00  0.00     0.000 C 
ENDROOT
BRANCH   1   2
ATOM      2  C   UNL     1       1.517  29.119  12.965  1.00  0.00     0.000 C 
BRANCH   2   3
ATOM      3  C   UNL     1       1.654  30.403  12.127  1.00  0.00    -0.000 C 
BRANCH   3   4
ATOM      4  C   UNL     1       2.888  30.452  11.207  1.00  0.00    -0.000 C 
BRANCH   4   5
ATOM      5  C   UNL     1       3.828  31.623  11.528  1.00  0.00    -0.003 C 
ATOM      6  C   UNL     1       5.015  31.162  12.367  1.00  0.00     0.004 C 
ENDBRANCH   4   5
ENDBRANCH   3   4
ENDBRANCH   2   3
ENDBRANCH   1   2
BRANCH   1   7
ATOM      7  C   UNL     1       2.509  26.902  12.251  1.00  0.00     0.002 C 
BRANCH   7   8
ATOM      8  C   UNL     1       3.518  26.583  11.135  1.00  0.00     0.028 C 
BRANCH   8   9
ATOM      9  C   UNL     1       3.710  25.078  10.892  1.00  0.00     0.156 C 
BRANCH   9  10
ATOM     10  O   UNL     1       4.979  24.654  11.313  1.00  0.00    -0.396 OA
ATOM     11  H   UNL     1       5.285  25.306  11.996  1.00  0.00     0.210 HD
ENDBRANCH   9  10
ENDBRANCH   8   9
ENDBRANCH   7   8
ENDBRANCH   1   7
TORSDOF 8
ENDMDL
MODEL 9
REMARK VINA RESULT:    -3.572      2.992      5.646
REMARK INTER + INTRA:          -5.577
REMARK INTER:                  -5.247
REMARK INTRA:                  -0.331
REMARK UNBOUND:                -0.438
REMARK SMILES CCCCCCCCCO
REMARK SMILES IDX 6 1 5 2 4 3 3 4 2 5 1 6 7 7 8 8 9 9 10 10
REMARK H PARENT 10 11
REMARK Flexibility Score: inf
ROOT
ATOM      1  C   UNL     1       4.172  26.680  10.204  1.00  0.00     0.000 C 
ENDROOT
BRANCH   1   2
ATOM      2  C   UNL     1       3.902  25.271  10.752  1.00  0.00     0.000 C 
BRANCH   2   3
ATOM      3  C   UNL     1       4.667  24.173   9.992  1.00  0.00    -0.000 C 
BRANCH   3   4
ATOM      4  C   UNL     1       6.143  24.007  10.397  1.00  0.00    -0.000 C 
BRANCH   4   5
ATOM      5  C   UNL     1       7.093  23.963   9.191  1.00  0.00    -0.003 C 
ATOM      6  C   UNL     1       7.984  25.202   9.148  1.00  0.00     0.004 C 
ENDBRANCH   4   5
ENDBRANCH   3   4
ENDBRANCH   2   3
ENDBRANCH   1   2
BRANCH   1   7
ATOM      7  C   UNL     1       3.554  27.753  11.112  1.00  0.00     0.002 C 
BRANCH   7   8
ATOM      8  C   UNL     1       2.591  27.170  12.160  1.00  0.00     0.028 C 
BRANCH   8   9
ATOM      9  C   UNL     1       2.527  27.989  13.459  1.00  0.00     0.156 C 
BRANCH   9  10
ATOM     10  O   UNL     1       2.563  27.155  14.586  1.00  0.00    -0.396 OA
ATOM     11  H   UNL     1       3.255  26.466  14.409  1.00  0.00     0.210 HD
ENDBRANCH   9  10
ENDBRANCH   8   9
ENDBRANCH   7   8
ENDBRANCH   1   7
TORSDOF 8
ENDMDL
