MODEL 1
REMARK VINA RESULT:    -4.035      0.000      0.000
REMARK INTER + INTRA:          -4.696
REMARK INTER:                  -4.507
REMARK INTRA:                  -0.189
REMARK UNBOUND:                -0.189
REMARK SMILES O=C([O-])c1ccccc1C(=O)[O-]
REMARK SMILES IDX 4 1 9 2 5 3 8 4 6 5 7 6 2 7 1 8 3 9 10 10 11 11 12 12
REMARK H PARENT
REMARK Flexibility Score: inf
ROOT
ATOM      1  C   UNL     1      56.437  27.180  50.696  1.00  0.00     0.006 A 
ATOM      2  C   UNL     1      56.353  28.582  50.922  1.00  0.00     0.006 A 
ATOM      3  C   UNL     1      55.271  26.472  50.348  1.00  0.00     0.010 A 
ATOM      4  C   UNL     1      55.120  29.234  50.730  1.00  0.00     0.010 A 
ATOM      5  C   UNL     1      54.055  27.135  50.183  1.00  0.00     0.001 A 
ATOM      6  C   UNL     1      53.982  28.515  50.363  1.00  0.00     0.001 A 
ENDROOT
BRANCH   1   7
ATOM      7  C   UNL     1      57.720  26.440  50.739  1.00  0.00     0.072 C 
ATOM      8  O   UNL     1      57.922  25.575  51.631  1.00  0.00    -0.545 OA
ATOM      9  O   UNL     1      58.686  26.641  49.761  1.00  0.00    -0.545 OA
ENDBRANCH   1   7
BRANCH   2  10
ATOM     10  C   UNL     1      57.494  29.379  51.426  1.00  0.00     0.072 C 
ATOM     11  O   UNL     1      57.672  29.520  52.666  1.00  0.00    -0.545 OA
ATOM     12  O   UNL     1      58.419  29.929  50.547  1.00  0.00    -0.545 OA
ENDBRANCH   2  10
TORSDOF 2
ENDMDL
MODEL 2
REMARK VINA RESULT:    -4.034      0.024      2.861
REMARK INTER + INTRA:          -4.694
REMARK INTER:                  -4.501
REMARK INTRA:                  -0.193
REMARK UNBOUND:                -0.189
REMARK SMILES O=C([O-])c1ccccc1C(=O)[O-]
REMARK SMILES IDX 4 1 9 2 5 3 8 4 6 5 7 6 2 7 1 8 3 9 10 10 11 11 12 12
REMARK H PARENT
REMARK Flexibility Score: inf
ROOT
ATOM      1  C   UNL     1      56.348  28.598  50.925  1.00  0.00     0.006 A 
ATOM      2  C   UNL     1      56.422  27.196  50.698  1.00  0.00     0.006 A 
ATOM      3  C   UNL     1      55.120  29.260  50.732  1.00  0.00     0.010 A 
ATOM      4  C   UNL     1      55.251  26.497  50.349  1.00  0.00     0.010 A 
ATOM      5  C   UNL     1      53.977  28.550  50.365  1.00  0.00     0.001 A 
ATOM      6  C   UNL     1      54.040  27.169  50.185  1.00  0.00     0.001 A 
ENDROOT
BRANCH   1   7
ATOM      7  C   UNL     1      57.496  29.387  51.430  1.00  0.00     0.072 C 
ATOM      8  O   UNL     1      57.677  29.520  52.668  1.00  0.00    -0.545 OA
ATOM      9  O   UNL     1      58.423  29.932  50.549  1.00  0.00    -0.545 OA
ENDBRANCH   1   7
BRANCH   2  10
ATOM     10  C   UNL     1      57.698  26.446  50.740  1.00  0.00     0.072 C 
ATOM     11  O   UNL     1      57.900  25.587  51.639  1.00  0.00    -0.545 OA
ATOM     12  O   UNL     1      58.662  26.631  49.756  1.00  0.00    -0.545 OA
ENDBRANCH   2  10
TORSDOF 2
ENDMDL
MODEL 3
REMARK VINA RESULT:    -3.849     12.419     14.184
REMARK INTER + INTRA:          -4.488
REMARK INTER:                  -4.318
REMARK INTRA:                  -0.169
REMARK UNBOUND:                -0.189
REMARK SMILES O=C([O-])c1ccccc1C(=O)[O-]
REMARK SMILES IDX 4 1 9 2 5 3 8 4 6 5 7 6 2 7 1 8 3 9 10 10 11 11 12 12
REMARK H PARENT
REMARK Flexibility Score: inf
ROOT
ATOM      1  C   UNL     1      62.008  35.743  60.721  1.00  0.00     0.006 A 
ATOM      2  C   UNL     1      63.197  35.037  61.052  1.00  0.00     0.006 A 
ATOM      3  C   UNL     1      61.520  36.718  61.611  1.00  0.00     0.010 A 
ATOM      4  C   UNL     1      63.888  35.375  62.231  1.00  0.00     0.010 A 
ATOM      5  C   UNL     1      62.210  37.023  62.784  1.00  0.00     0.001 A 
ATOM      6  C   UNL     1      63.398  36.360  63.088  1.00  0.00     0.001 A 
ENDROOT
BRANCH   1   7
ATOM      7  C   UNL     1      61.297  35.549  59.435  1.00  0.00     0.072 C 
ATOM      8  O   UNL     1      60.278  34.812  59.381  1.00  0.00    -0.545 OA
ATOM      9  O   UNL     1      61.702  36.227  58.292  1.00  0.00    -0.545 OA
ENDBRANCH   1   7
BRANCH   2  10
ATOM     10  C   UNL     1      63.703  33.902  60.246  1.00  0.00     0.072 C 
ATOM     11  O   UNL     1      63.538  32.718  60.644  1.00  0.00    -0.545 OA
ATOM     12  O   UNL     1      64.309  34.121  59.015  1.00  0.00    -0.545 OA
ENDBRANCH   2  10
TORSDOF 2
ENDMDL
MODEL 4
REMARK VINA RESULT:    -3.831     11.908     13.688
REMARK INTER + INTRA:          -4.468
REMARK INTER:                  -4.318
REMARK INTRA:                  -0.150
REMARK UNBOUND:                -0.189
REMARK SMILES O=C([O-])c1ccccc1C(=O)[O-]
REMARK SMILES IDX 4 1 9 2 5 3 8 4 6 5 7 6 2 7 1 8 3 9 10 10 11 11 12 12
REMARK H PARENT
REMARK Flexibility Score: inf
ROOT
ATOM      1  C   UNL     1      63.238  34.644  60.840  1.00  0.00     0.006 A 
ATOM      2  C   UNL     1      62.066  35.338  60.432  1.00  0.00     0.006 A 
ATOM      3  C   UNL     1      63.918  35.068  61.997  1.00  0.00     0.010 A 
ATOM      4  C   UNL     1      61.581  36.391  61.231  1.00  0.00     0.010 A 
ATOM      5  C   UNL     1      63.431  36.127  62.762  1.00  0.00     0.001 A 
ATOM      6  C   UNL     1      62.259  36.780  62.386  1.00  0.00     0.001 A 
ENDROOT
BRANCH   1   7
ATOM      7  C   UNL     1      63.737  33.438  60.136  1.00  0.00     0.072 C 
ATOM      8  O   UNL     1      63.592  32.299  60.652  1.00  0.00    -0.545 OA
ATOM      9  O   UNL     1      64.308  33.541  58.873  1.00  0.00    -0.545 OA
ENDBRANCH   1   7
BRANCH   2  10
ATOM     10  C   UNL     1      61.370  35.051  59.156  1.00  0.00     0.072 C 
ATOM     11  O   UNL     1      61.661  35.698  58.115  1.00  0.00    -0.545 OA
ATOM     12  O   UNL     1      60.435  34.026  59.073  1.00  0.00    -0.545 OA
ENDBRANCH   2  10
TORSDOF 2
ENDMDL
MODEL 5
REMARK VINA RESULT:    -3.757      2.011      4.203
REMARK INTER + INTRA:          -4.385
REMARK INTER:                  -4.210
REMARK INTRA:                  -0.175
REMARK UNBOUND:                -0.189
REMARK SMILES O=C([O-])c1ccccc1C(=O)[O-]
REMARK SMILES IDX 4 1 9 2 5 3 8 4 6 5 7 6 2 7 1 8 3 9 10 10 11 11 12 12
REMARK H PARENT
REMARK Flexibility Score: inf
ROOT
ATOM      1  C   UNL     1      56.952  28.576  50.739  1.00  0.00     0.006 A 
ATOM      2  C   UNL     1      57.121  27.164  50.768  1.00  0.00     0.006 A 
ATOM      3  C   UNL     1      57.987  29.379  50.224  1.00  0.00     0.010 A 
ATOM      4  C   UNL     1      58.291  26.604  50.223  1.00  0.00     0.010 A 
ATOM      5  C   UNL     1      59.148  28.803  49.708  1.00  0.00     0.001 A 
ATOM      6  C   UNL     1      59.295  27.417  49.697  1.00  0.00     0.001 A 
ENDROOT
BRANCH   1   7
ATOM      7  C   UNL     1      55.696  29.239  51.162  1.00  0.00     0.072 C 
ATOM      8  O   UNL     1      55.668  29.928  52.215  1.00  0.00    -0.545 OA
ATOM      9  O   UNL     1      54.555  29.164  50.372  1.00  0.00    -0.545 OA
ENDBRANCH   1   7
BRANCH   2  10
ATOM     10  C   UNL     1      56.147  26.257  51.418  1.00  0.00     0.072 C 
ATOM     11  O   UNL     1      56.346  25.851  52.594  1.00  0.00    -0.545 OA
ATOM     12  O   UNL     1      54.975  25.891  50.768  1.00  0.00    -0.545 OA
ENDBRANCH   2  10
TORSDOF 2
ENDMDL
MODEL 6
REMARK VINA RESULT:    -3.755      2.010      3.146
REMARK INTER + INTRA:          -4.383
REMARK INTER:                  -4.204
REMARK INTRA:                  -0.179
REMARK UNBOUND:                -0.189
REMARK SMILES O=C([O-])c1ccccc1C(=O)[O-]
REMARK SMILES IDX 4 1 9 2 5 3 8 4 6 5 7 6 2 7 1 8 3 9 10 10 11 11 12 12
REMARK H PARENT
REMARK Flexibility Score: inf
ROOT
ATOM      1  C   UNL     1      57.179  27.178  50.770  1.00  0.00     0.006 A 
ATOM      2  C   UNL     1      56.995  28.588  50.736  1.00  0.00     0.006 A 
ATOM      3  C   UNL     1      58.353  26.627  50.222  1.00  0.00     0.010 A 
ATOM      4  C   UNL     1      58.019  29.399  50.212  1.00  0.00     0.010 A 
ATOM      5  C   UNL     1      59.345  27.449  49.689  1.00  0.00     0.001 A 
ATOM      6  C   UNL     1      59.184  28.833  49.694  1.00  0.00     0.001 A 
ENDROOT
BRANCH   1   7
ATOM      7  C   UNL     1      56.217  26.263  51.429  1.00  0.00     0.072 C 
ATOM      8  O   UNL     1      56.427  25.863  52.604  1.00  0.00    -0.545 OA
ATOM      9  O   UNL     1      55.043  25.888  50.786  1.00  0.00    -0.545 OA
ENDBRANCH   1   7
BRANCH   2  10
ATOM     10  C   UNL     1      55.734  29.239  51.160  1.00  0.00     0.072 C 
ATOM     11  O   UNL     1      55.697  29.919  52.220  1.00  0.00    -0.545 OA
ATOM     12  O   UNL     1      54.596  29.165  50.367  1.00  0.00    -0.545 OA
ENDBRANCH   2  10
TORSDOF 2
ENDMDL
MODEL 7
REMARK VINA RESULT:    -3.636      2.281      3.743
REMARK INTER + INTRA:          -4.250
REMARK INTER:                  -4.021
REMARK INTRA:                  -0.229
REMARK UNBOUND:                -0.189
REMARK SMILES O=C([O-])c1ccccc1C(=O)[O-]
REMARK SMILES IDX 4 1 9 2 5 3 8 4 6 5 7 6 2 7 1 8 3 9 10 10 11 11 12 12
REMARK H PARENT
REMARK Flexibility Score: inf
ROOT
ATOM      1  C   UNL     1      55.193  27.835  50.948  1.00  0.00     0.006 A 
ATOM      2  C   UNL     1      53.891  27.394  50.587  1.00  0.00     0.006 A 
ATOM      3  C   UNL     1      55.449  29.217  51.032  1.00  0.00     0.010 A 
ATOM      4  C   UNL     1      52.876  28.348  50.384  1.00  0.00     0.010 A 
ATOM      5  C   UNL     1      54.434  30.146  50.807  1.00  0.00     0.001 A 
ATOM      6  C   UNL     1      53.147  29.712  50.494  1.00  0.00     0.001 A 
ENDROOT
BRANCH   1   7
ATOM      7  C   UNL     1      56.281  26.898  51.316  1.00  0.00     0.072 C 
ATOM      8  O   UNL     1      56.410  26.514  52.508  1.00  0.00    -0.545 OA
ATOM      9  O   UNL     1      57.127  26.379  50.343  1.00  0.00    -0.545 OA
ENDBRANCH   1   7
BRANCH   2  10
ATOM     10  C   UNL     1      53.570  25.969  50.338  1.00  0.00     0.072 C 
ATOM     11  O   UNL     1      53.653  25.494  49.175  1.00  0.00    -0.545 OA
ATOM     12  O   UNL     1      53.237  25.123  51.390  1.00  0.00    -0.545 OA
ENDBRANCH   2  10
TORSDOF 2
ENDMDL
MODEL 8
REMARK VINA RESULT:    -3.486     10.590     12.648
REMARK INTER + INTRA:          -4.083
REMARK INTER:                  -3.889
REMARK INTRA:                  -0.194
REMARK UNBOUND:                -0.189
REMARK SMILES O=C([O-])c1ccccc1C(=O)[O-]
REMARK SMILES IDX 4 1 9 2 5 3 8 4 6 5 7 6 2 7 1 8 3 9 10 10 11 11 12 12
REMARK H PARENT
REMARK Flexibility Score: inf
ROOT
ATOM      1  C   UNL     1      62.055  33.838  59.578  1.00  0.00     0.006 A 
ATOM      2  C   UNL     1      63.204  33.423  60.306  1.00  0.00     0.006 A 
ATOM      3  C   UNL     1      61.434  35.056  59.914  1.00  0.00     0.010 A 
ATOM      4  C   UNL     1      63.727  34.272  61.300  1.00  0.00     0.010 A 
ATOM      5  C   UNL     1      61.957  35.871  60.917  1.00  0.00     0.001 A 
ATOM      6  C   UNL     1      63.108  35.485  61.602  1.00  0.00     0.001 A 
ENDROOT
BRANCH   1   7
ATOM      7  C   UNL     1      61.522  33.075  58.425  1.00  0.00     0.072 C 
ATOM      8  O   UNL     1      61.912  33.338  57.257  1.00  0.00    -0.545 OA
ATOM      9  O   UNL     1      60.640  32.019  58.621  1.00  0.00    -0.545 OA
ENDBRANCH   1   7
BRANCH   2  10
ATOM     10  C   UNL     1      63.835  32.097  60.116  1.00  0.00     0.072 C 
ATOM     11  O   UNL     1      63.597  31.160  60.923  1.00  0.00    -0.545 OA
ATOM     12  O   UNL     1      64.645  31.849  59.014  1.00  0.00    -0.545 OA
ENDBRANCH   2  10
TORSDOF 2
ENDMDL
MODEL 9
REMARK VINA RESULT:    -3.181      8.674      9.557
REMARK INTER + INTRA:          -3.741
REMARK INTER:                  -3.514
REMARK INTRA:                  -0.228
REMARK UNBOUND:                -0.189
REMARK SMILES O=C([O-])c1ccccc1C(=O)[O-]
REMARK SMILES IDX 4 1 9 2 5 3 8 4 6 5 7 6 2 7 1 8 3 9 10 10 11 11 12 12
REMARK H PARENT
REMARK Flexibility Score: inf
ROOT
ATOM      1  C   UNL     1      56.986  18.932  52.724  1.00  0.00     0.006 A 
ATOM      2  C   UNL     1      56.676  18.719  51.353  1.00  0.00     0.006 A 
ATOM      3  C   UNL     1      56.052  19.593  53.543  1.00  0.00     0.010 A 
ATOM      4  C   UNL     1      55.417  19.120  50.866  1.00  0.00     0.010 A 
ATOM      5  C   UNL     1      54.819  19.999  53.035  1.00  0.00     0.001 A 
ATOM      6  C   UNL     1      54.497  19.753  51.701  1.00  0.00     0.001 A 
ENDROOT
BRANCH   1   7
ATOM      7  C   UNL     1      58.227  18.419  53.351  1.00  0.00     0.072 C 
ATOM      8  O   UNL     1      58.259  17.257  53.835  1.00  0.00    -0.545 OA
ATOM      9  O   UNL     1      59.388  19.183  53.352  1.00  0.00    -0.545 OA
ENDBRANCH   1   7
BRANCH   2  10
ATOM     10  C   UNL     1      57.653  18.161  50.390  1.00  0.00     0.072 C 
ATOM     11  O   UNL     1      57.574  16.956  50.033  1.00  0.00    -0.545 OA
ATOM     12  O   UNL     1      58.628  18.970  49.819  1.00  0.00    -0.545 OA
ENDBRANCH   2  10
TORSDOF 2
ENDMDL
