MODEL 1
REMARK VINA RESULT:    -3.958      0.000      0.000
REMARK INTER + INTRA:         -10.272
REMARK INTER:                  -7.428
REMARK INTRA:                  -2.843
REMARK UNBOUND:                -2.843
REMARK SMILES CCCCCC=CCC=CCCCCCCCC(=O)OC
REMARK SMILES IDX 11 1 10 2 9 3 8 4 7 5 6 6 5 7 4 8 3 9 2 10 1 11 12 12 13 13
REMARK SMILES IDX 14 14 15 15 16 16 17 17 18 18 19 19 20 20 21 21
REMARK H PARENT
REMARK Flexibility Score: inf
ROOT
ATOM      1  C   UNL     1     -22.939  33.072  -1.604  1.00  0.00     0.027 C 
ENDROOT
BRANCH   1   2
ATOM      2  C   UNL     1     -23.213  31.646  -1.994  1.00  0.00    -0.031 C 
ATOM      3  C   UNL     1     -22.572  30.623  -1.406  1.00  0.00    -0.027 C 
BRANCH   3   4
ATOM      4  C   UNL     1     -22.877  29.196  -1.760  1.00  0.00     0.054 C 
BRANCH   4   5
ATOM      5  C   UNL     1     -22.504  28.925  -3.192  1.00  0.00    -0.027 C 
ATOM      6  C   UNL     1     -21.226  28.931  -3.602  1.00  0.00    -0.031 C 
BRANCH   6   7
ATOM      7  C   UNL     1     -20.865  28.707  -5.044  1.00  0.00     0.027 C 
BRANCH   7   8
ATOM      8  C   UNL     1     -19.338  28.708  -5.230  1.00  0.00     0.004 C 
BRANCH   8   9
ATOM      9  C   UNL     1     -18.850  29.821  -6.175  1.00  0.00     0.000 C 
BRANCH   9  10
ATOM     10  C   UNL     1     -19.963  30.550  -6.949  1.00  0.00    -0.003 C 
ATOM     11  C   UNL     1     -19.441  31.702  -7.810  1.00  0.00     0.004 C 
ENDBRANCH   9  10
ENDBRANCH   8   9
ENDBRANCH   7   8
ENDBRANCH   6   7
ENDBRANCH   4   5
ENDBRANCH   3   4
ENDBRANCH   1   2
BRANCH   1  12
ATOM     12  C   UNL     1     -21.551  33.520  -2.085  1.00  0.00     0.004 C 
BRANCH  12  13
ATOM     13  C   UNL     1     -21.279  33.098  -3.538  1.00  0.00     0.000 C 
BRANCH  13  14
ATOM     14  C   UNL     1     -19.922  32.386  -3.692  1.00  0.00     0.000 C 
BRANCH  14  15
ATOM     15  C   UNL     1     -19.208  32.194  -2.337  1.00  0.00     0.001 C 
BRANCH  15  16
ATOM     16  C   UNL     1     -18.657  30.773  -2.132  1.00  0.00     0.012 C 
BRANCH  16  17
ATOM     17  C   UNL     1     -17.131  30.737  -2.007  1.00  0.00     0.123 C 
BRANCH  17  18
ATOM     18  C   UNL     1     -16.505  30.452  -3.336  1.00  0.00     0.305 C 
ATOM     19  O   UNL     1     -16.312  31.393  -4.152  1.00  0.00    -0.252 OA
BRANCH  18  20
ATOM     20  O   UNL     1     -16.111  29.147  -3.645  1.00  0.00    -0.469 OA
ATOM     21  C   UNL     1     -15.399  28.826  -4.835  1.00  0.00     0.282 C 
ENDBRANCH  18  20
ENDBRANCH  17  18
ENDBRANCH  16  17
ENDBRANCH  15  16
ENDBRANCH  14  15
ENDBRANCH  13  14
ENDBRANCH  12  13
ENDBRANCH   1  12
TORSDOF 15
ENDMDL
MODEL 2
REMARK VINA RESULT:    -3.878      2.461      5.961
REMARK INTER + INTRA:         -10.123
REMARK INTER:                  -7.887
REMARK INTRA:                  -2.236
REMARK UNBOUND:                -2.843
REMARK SMILES CCCCCC=CCC=CCCCCCCCC(=O)OC
REMARK SMILES IDX 11 1 10 2 9 3 8 4 7 5 6 6 5 7 4 8 3 9 2 10 1 11 12 12 13 13
REMARK SMILES IDX 14 14 15 15 16 16 17 17 18 18 19 19 20 20 21 21
REMARK H PARENT
REMARK Flexibility Score: inf
ROOT
ATOM      1  C   UNL     1     -15.889  29.796  -4.666  1.00  0.00     0.027 C 
ENDROOT
BRANCH   1   2
ATOM      2  C   UNL     1     -16.983  29.870  -3.638  1.00  0.00    -0.031 C 
ATOM      3  C   UNL     1     -16.797  30.487  -2.459  1.00  0.00    -0.027 C 
BRANCH   3   4
ATOM      4  C   UNL     1     -17.903  30.604  -1.450  1.00  0.00     0.054 C 
BRANCH   4   5
ATOM      5  C   UNL     1     -19.171  31.059  -2.119  1.00  0.00    -0.027 C 
ATOM      6  C   UNL     1     -19.344  32.330  -2.515  1.00  0.00    -0.031 C 
BRANCH   6   7
ATOM      7  C   UNL     1     -20.632  32.787  -3.140  1.00  0.00     0.027 C 
BRANCH   7   8
ATOM      8  C   UNL     1     -21.716  31.704  -3.010  1.00  0.00     0.004 C 
BRANCH   8   9
ATOM      9  C   UNL     1     -22.776  32.041  -1.945  1.00  0.00     0.000 C 
BRANCH   9  10
ATOM     10  C   UNL     1     -22.726  33.485  -1.414  1.00  0.00    -0.003 C 
ATOM     11  C   UNL     1     -23.982  33.882  -0.635  1.00  0.00     0.004 C 
ENDBRANCH   9  10
ENDBRANCH   8   9
ENDBRANCH   7   8
ENDBRANCH   6   7
ENDBRANCH   4   5
ENDBRANCH   3   4
ENDBRANCH   1   2
BRANCH   1  12
ATOM     12  C   UNL     1     -15.314  31.189  -4.964  1.00  0.00     0.004 C 
BRANCH  12  13
ATOM     13  C   UNL     1     -16.416  32.213  -5.281  1.00  0.00     0.000 C 
BRANCH  13  14
ATOM     14  C   UNL     1     -17.246  31.812  -6.514  1.00  0.00     0.000 C 
BRANCH  14  15
ATOM     15  C   UNL     1     -18.762  31.967  -6.272  1.00  0.00     0.001 C 
BRANCH  15  16
ATOM     16  C   UNL     1     -19.492  30.626  -6.085  1.00  0.00     0.012 C 
BRANCH  16  17
ATOM     17  C   UNL     1     -20.880  30.608  -6.733  1.00  0.00     0.123 C 
BRANCH  17  18
ATOM     18  C   UNL     1     -20.760  30.549  -8.224  1.00  0.00     0.305 C 
ATOM     19  O   UNL     1     -21.601  31.151  -8.944  1.00  0.00    -0.252 OA
BRANCH  18  20
ATOM     20  O   UNL     1     -19.695  29.852  -8.802  1.00  0.00    -0.469 OA
ATOM     21  C   UNL     1     -18.825  30.444  -9.761  1.00  0.00     0.282 C 
ENDBRANCH  18  20
ENDBRANCH  17  18
ENDBRANCH  16  17
ENDBRANCH  15  16
ENDBRANCH  14  15
ENDBRANCH  13  14
ENDBRANCH  12  13
ENDBRANCH   1  12
TORSDOF 15
ENDMDL
MODEL 3
REMARK VINA RESULT:    -3.737      1.837      4.353
REMARK INTER + INTRA:          -9.856
REMARK INTER:                  -7.111
REMARK INTRA:                  -2.745
REMARK UNBOUND:                -2.843
REMARK SMILES CCCCCC=CCC=CCCCCCCCC(=O)OC
REMARK SMILES IDX 11 1 10 2 9 3 8 4 7 5 6 6 5 7 4 8 3 9 2 10 1 11 12 12 13 13
REMARK SMILES IDX 14 14 15 15 16 16 17 17 18 18 19 19 20 20 21 21
REMARK H PARENT
REMARK Flexibility Score: inf
ROOT
ATOM      1  C   UNL     1     -18.902  32.746  -4.095  1.00  0.00     0.027 C 
ENDROOT
BRANCH   1   2
ATOM      2  C   UNL     1     -19.724  31.983  -5.096  1.00  0.00    -0.031 C 
ATOM      3  C   UNL     1     -20.201  30.757  -4.823  1.00  0.00    -0.027 C 
BRANCH   3   4
ATOM      4  C   UNL     1     -21.061  30.012  -5.803  1.00  0.00     0.054 C 
BRANCH   4   5
ATOM      5  C   UNL     1     -22.435  29.796  -5.229  1.00  0.00    -0.027 C 
ATOM      6  C   UNL     1     -23.166  30.812  -4.745  1.00  0.00    -0.031 C 
BRANCH   6   7
ATOM      7  C   UNL     1     -24.518  30.581  -4.130  1.00  0.00     0.027 C 
BRANCH   7   8
ATOM      8  C   UNL     1     -24.498  30.919  -2.629  1.00  0.00     0.004 C 
BRANCH   8   9
ATOM      9  C   UNL     1     -23.248  31.713  -2.210  1.00  0.00     0.000 C 
BRANCH   9  10
ATOM     10  C   UNL     1     -22.399  31.053  -1.108  1.00  0.00    -0.003 C 
ATOM     11  C   UNL     1     -21.701  29.774  -1.573  1.00  0.00     0.004 C 
ENDBRANCH   9  10
ENDBRANCH   8   9
ENDBRANCH   7   8
ENDBRANCH   6   7
ENDBRANCH   4   5
ENDBRANCH   3   4
ENDBRANCH   1   2
BRANCH   1  12
ATOM     12  C   UNL     1     -19.235  32.311  -2.660  1.00  0.00     0.004 C 
BRANCH  12  13
ATOM     13  C   UNL     1     -17.976  31.918  -1.869  1.00  0.00     0.000 C 
BRANCH  13  14
ATOM     14  C   UNL     1     -17.623  30.429  -2.038  1.00  0.00     0.000 C 
BRANCH  14  15
ATOM     15  C   UNL     1     -16.387  30.222  -2.938  1.00  0.00     0.001 C 
BRANCH  15  16
ATOM     16  C   UNL     1     -16.644  29.274  -4.122  1.00  0.00     0.012 C 
BRANCH  16  17
ATOM     17  C   UNL     1     -16.683  30.001  -5.469  1.00  0.00     0.123 C 
BRANCH  17  18
ATOM     18  C   UNL     1     -15.301  30.150  -6.022  1.00  0.00     0.305 C 
ATOM     19  O   UNL     1     -14.653  29.127  -6.374  1.00  0.00    -0.252 OA
BRANCH  18  20
ATOM     20  O   UNL     1     -14.754  31.428  -6.172  1.00  0.00    -0.469 OA
ATOM     21  C   UNL     1     -15.466  32.609  -5.822  1.00  0.00     0.282 C 
ENDBRANCH  18  20
ENDBRANCH  17  18
ENDBRANCH  16  17
ENDBRANCH  15  16
ENDBRANCH  14  15
ENDBRANCH  13  14
ENDBRANCH  12  13
ENDBRANCH   1  12
TORSDOF 15
ENDMDL
MODEL 4
REMARK VINA RESULT:    -3.696      2.629      5.718
REMARK INTER + INTRA:          -9.780
REMARK INTER:                  -7.016
REMARK INTRA:                  -2.764
REMARK UNBOUND:                -2.843
REMARK SMILES CCCCCC=CCC=CCCCCCCCC(=O)OC
REMARK SMILES IDX 11 1 10 2 9 3 8 4 7 5 6 6 5 7 4 8 3 9 2 10 1 11 12 12 13 13
REMARK SMILES IDX 14 14 15 15 16 16 17 17 18 18 19 19 20 20 21 21
REMARK H PARENT
REMARK Flexibility Score: inf
ROOT
ATOM      1  C   UNL     1     -16.792  30.349  -2.756  1.00  0.00     0.027 C 
ENDROOT
BRANCH   1   2
ATOM      2  C   UNL     1     -16.508  30.695  -4.191  1.00  0.00    -0.031 C 
ATOM      3  C   UNL     1     -16.563  31.963  -4.631  1.00  0.00    -0.027 C 
BRANCH   3   4
ATOM      4  C   UNL     1     -16.233  32.317  -6.052  1.00  0.00     0.054 C 
BRANCH   4   5
ATOM      5  C   UNL     1     -17.227  31.687  -6.989  1.00  0.00    -0.027 C 
ATOM      6  C   UNL     1     -18.492  32.128  -7.075  1.00  0.00    -0.031 C 
BRANCH   6   7
ATOM      7  C   UNL     1     -19.493  31.463  -7.979  1.00  0.00     0.027 C 
BRANCH   7   8
ATOM      8  C   UNL     1     -20.230  30.335  -7.239  1.00  0.00     0.004 C 
BRANCH   8   9
ATOM      9  C   UNL     1     -19.679  28.937  -7.574  1.00  0.00     0.000 C 
BRANCH   9  10
ATOM     10  C   UNL     1     -18.606  28.413  -6.602  1.00  0.00    -0.003 C 
ATOM     11  C   UNL     1     -19.130  28.218  -5.178  1.00  0.00     0.004 C 
ENDBRANCH   9  10
ENDBRANCH   8   9
ENDBRANCH   7   8
ENDBRANCH   6   7
ENDBRANCH   4   5
ENDBRANCH   3   4
ENDBRANCH   1   2
BRANCH   1  12
ATOM     12  C   UNL     1     -17.424  31.537  -2.016  1.00  0.00     0.004 C 
BRANCH  12  13
ATOM     13  C   UNL     1     -18.959  31.445  -1.977  1.00  0.00     0.000 C 
BRANCH  13  14
ATOM     14  C   UNL     1     -19.629  32.595  -2.751  1.00  0.00     0.000 C 
BRANCH  14  15
ATOM     15  C   UNL     1     -20.507  32.082  -3.911  1.00  0.00     0.001 C 
BRANCH  15  16
ATOM     16  C   UNL     1     -21.170  30.723  -3.623  1.00  0.00     0.012 C 
BRANCH  16  17
ATOM     17  C   UNL     1     -22.663  30.843  -3.306  1.00  0.00     0.123 C 
BRANCH  17  18
ATOM     18  C   UNL     1     -22.862  31.438  -1.947  1.00  0.00     0.305 C 
ATOM     19  O   UNL     1     -22.378  30.863  -0.934  1.00  0.00    -0.252 OA
BRANCH  18  20
ATOM     20  O   UNL     1     -23.556  32.644  -1.818  1.00  0.00    -0.469 OA
ATOM     21  C   UNL     1     -22.971  33.804  -1.235  1.00  0.00     0.282 C 
ENDBRANCH  18  20
ENDBRANCH  17  18
ENDBRANCH  16  17
ENDBRANCH  15  16
ENDBRANCH  14  15
ENDBRANCH  13  14
ENDBRANCH  12  13
ENDBRANCH   1  12
TORSDOF 15
ENDMDL
MODEL 5
REMARK VINA RESULT:    -3.689      1.798      4.443
REMARK INTER + INTRA:          -9.767
REMARK INTER:                  -7.053
REMARK INTRA:                  -2.714
REMARK UNBOUND:                -2.843
REMARK SMILES CCCCCC=CCC=CCCCCCCCC(=O)OC
REMARK SMILES IDX 11 1 10 2 9 3 8 4 7 5 6 6 5 7 4 8 3 9 2 10 1 11 12 12 13 13
REMARK SMILES IDX 14 14 15 15 16 16 17 17 18 18 19 19 20 20 21 21
REMARK H PARENT
REMARK Flexibility Score: inf
ROOT
ATOM      1  C   UNL     1     -23.226  29.832  -4.877  1.00  0.00     0.027 C 
ENDROOT
BRANCH   1   2
ATOM      2  C   UNL     1     -22.907  31.238  -4.450  1.00  0.00    -0.031 C 
ATOM      3  C   UNL     1     -22.514  31.518  -3.197  1.00  0.00    -0.027 C 
BRANCH   3   4
ATOM      4  C   UNL     1     -22.149  32.914  -2.781  1.00  0.00     0.054 C 
BRANCH   4   5
ATOM      5  C   UNL     1     -20.655  33.051  -2.673  1.00  0.00    -0.027 C 
ATOM      6  C   UNL     1     -19.868  31.998  -2.400  1.00  0.00    -0.031 C 
BRANCH   6   7
ATOM      7  C   UNL     1     -18.380  32.151  -2.247  1.00  0.00     0.027 C 
BRANCH   7   8
ATOM      8  C   UNL     1     -17.799  31.007  -1.400  1.00  0.00     0.004 C 
BRANCH   8   9
ATOM      9  C   UNL     1     -16.530  30.390  -2.015  1.00  0.00     0.000 C 
BRANCH   9  10
ATOM     10  C   UNL     1     -16.382  30.590  -3.534  1.00  0.00    -0.003 C 
ATOM     11  C   UNL     1     -15.970  29.313  -4.270  1.00  0.00     0.004 C 
ENDBRANCH   9  10
ENDBRANCH   8   9
ENDBRANCH   7   8
ENDBRANCH   6   7
ENDBRANCH   4   5
ENDBRANCH   3   4
ENDBRANCH   1   2
BRANCH   1  12
ATOM     12  C   UNL     1     -22.148  29.284  -5.824  1.00  0.00     0.004 C 
BRANCH  12  13
ATOM     13  C   UNL     1     -21.092  28.451  -5.078  1.00  0.00     0.000 C 
BRANCH  13  14
ATOM     14  C   UNL     1     -19.839  29.276  -4.733  1.00  0.00     0.000 C 
BRANCH  14  15
ATOM     15  C   UNL     1     -19.223  29.947  -5.979  1.00  0.00     0.001 C 
BRANCH  15  16
ATOM     16  C   UNL     1     -19.248  31.484  -5.921  1.00  0.00     0.012 C 
BRANCH  16  17
ATOM     17  C   UNL     1     -18.791  32.137  -7.229  1.00  0.00     0.123 C 
BRANCH  17  18
ATOM     18  C   UNL     1     -17.331  31.897  -7.451  1.00  0.00     0.305 C 
ATOM     19  O   UNL     1     -16.502  32.201  -6.550  1.00  0.00    -0.252 OA
BRANCH  18  20
ATOM     20  O   UNL     1     -16.904  31.307  -8.644  1.00  0.00    -0.469 OA
ATOM     21  C   UNL     1     -16.861  29.896  -8.826  1.00  0.00     0.282 C 
ENDBRANCH  18  20
ENDBRANCH  17  18
ENDBRANCH  16  17
ENDBRANCH  15  16
ENDBRANCH  14  15
ENDBRANCH  13  14
ENDBRANCH  12  13
ENDBRANCH   1  12
TORSDOF 15
ENDMDL
MODEL 6
REMARK VINA RESULT:    -3.678      2.228      4.532
REMARK INTER + INTRA:          -9.746
REMARK INTER:                  -7.479
REMARK INTRA:                  -2.267
REMARK UNBOUND:                -2.843
REMARK SMILES CCCCCC=CCC=CCCCCCCCC(=O)OC
REMARK SMILES IDX 11 1 10 2 9 3 8 4 7 5 6 6 5 7 4 8 3 9 2 10 1 11 12 12 13 13
REMARK SMILES IDX 14 14 15 15 16 16 17 17 18 18 19 19 20 20 21 21
REMARK H PARENT
REMARK Flexibility Score: inf
ROOT
ATOM      1  C   UNL     1     -20.754  33.034  -3.096  1.00  0.00     0.027 C 
ENDROOT
BRANCH   1   2
ATOM      2  C   UNL     1     -19.837  32.324  -2.141  1.00  0.00    -0.031 C 
ATOM      3  C   UNL     1     -18.580  31.999  -2.485  1.00  0.00    -0.027 C 
BRANCH   3   4
ATOM      4  C   UNL     1     -17.648  31.331  -1.515  1.00  0.00     0.054 C 
BRANCH   4   5
ATOM      5  C   UNL     1     -16.632  30.505  -2.257  1.00  0.00    -0.027 C 
ATOM      6  C   UNL     1     -16.768  30.224  -3.562  1.00  0.00    -0.031 C 
BRANCH   6   7
ATOM      7  C   UNL     1     -15.774  29.358  -4.285  1.00  0.00     0.027 C 
BRANCH   7   8
ATOM      8  C   UNL     1     -15.050  30.158  -5.381  1.00  0.00     0.004 C 
BRANCH   8   9
ATOM      9  C   UNL     1     -15.865  31.364  -5.881  1.00  0.00     0.000 C 
BRANCH   9  10
ATOM     10  C   UNL     1     -15.154  32.724  -5.758  1.00  0.00    -0.003 C 
ATOM     11  C   UNL     1     -13.800  32.760  -6.469  1.00  0.00     0.004 C 
ENDBRANCH   9  10
ENDBRANCH   8   9
ENDBRANCH   7   8
ENDBRANCH   6   7
ENDBRANCH   4   5
ENDBRANCH   3   4
ENDBRANCH   1   2
BRANCH   1  12
ATOM     12  C   UNL     1     -22.205  32.561  -2.926  1.00  0.00     0.004 C 
BRANCH  12  13
ATOM     13  C   UNL     1     -22.426  31.845  -1.583  1.00  0.00     0.000 C 
BRANCH  13  14
ATOM     14  C   UNL     1     -23.002  30.429  -1.767  1.00  0.00     0.000 C 
BRANCH  14  15
ATOM     15  C   UNL     1     -21.898  29.378  -2.005  1.00  0.00     0.001 C 
BRANCH  15  16
ATOM     16  C   UNL     1     -21.800  28.914  -3.469  1.00  0.00     0.012 C 
BRANCH  16  17
ATOM     17  C   UNL     1     -20.449  29.244  -4.110  1.00  0.00     0.123 C 
BRANCH  17  18
ATOM     18  C   UNL     1     -20.648  29.979  -5.399  1.00  0.00     0.305 C 
ATOM     19  O   UNL     1     -21.602  29.661  -6.160  1.00  0.00    -0.252 OA
BRANCH  18  20
ATOM     20  O   UNL     1     -19.791  31.032  -5.730  1.00  0.00    -0.469 OA
ATOM     21  C   UNL     1     -19.410  31.314  -7.072  1.00  0.00     0.282 C 
ENDBRANCH  18  20
ENDBRANCH  17  18
ENDBRANCH  16  17
ENDBRANCH  15  16
ENDBRANCH  14  15
ENDBRANCH  13  14
ENDBRANCH  12  13
ENDBRANCH   1  12
TORSDOF 15
ENDMDL
MODEL 7
REMARK VINA RESULT:    -3.647      2.078      4.371
REMARK INTER + INTRA:          -9.688
REMARK INTER:                  -7.132
REMARK INTRA:                  -2.557
REMARK UNBOUND:                -2.843
REMARK SMILES CCCCCC=CCC=CCCCCCCCC(=O)OC
REMARK SMILES IDX 11 1 10 2 9 3 8 4 7 5 6 6 5 7 4 8 3 9 2 10 1 11 12 12 13 13
REMARK SMILES IDX 14 14 15 15 16 16 17 17 18 18 19 19 20 20 21 21
REMARK H PARENT
REMARK Flexibility Score: inf
ROOT
ATOM      1  C   UNL     1     -25.184  30.510  -2.123  1.00  0.00     0.027 C 
ENDROOT
BRANCH   1   2
ATOM      2  C   UNL     1     -24.257  31.665  -2.375  1.00  0.00    -0.031 C 
ATOM      3  C   UNL     1     -23.502  32.185  -1.393  1.00  0.00    -0.027 C 
BRANCH   3   4
ATOM      4  C   UNL     1     -22.540  33.309  -1.653  1.00  0.00     0.054 C 
BRANCH   4   5
ATOM      5  C   UNL     1     -21.713  33.013  -2.874  1.00  0.00    -0.027 C 
ATOM      6  C   UNL     1     -20.375  33.125  -2.863  1.00  0.00    -0.031 C 
BRANCH   6   7
ATOM      7  C   UNL     1     -19.559  32.874  -4.100  1.00  0.00     0.027 C 
BRANCH   7   8
ATOM      8  C   UNL     1     -18.164  32.340  -3.734  1.00  0.00     0.004 C 
BRANCH   8   9
ATOM      9  C   UNL     1     -18.033  31.979  -2.243  1.00  0.00     0.000 C 
BRANCH   9  10
ATOM     10  C   UNL     1     -17.536  30.549  -1.963  1.00  0.00    -0.003 C 
ATOM     11  C   UNL     1     -16.563  30.032  -3.025  1.00  0.00     0.004 C 
ENDBRANCH   9  10
ENDBRANCH   8   9
ENDBRANCH   7   8
ENDBRANCH   6   7
ENDBRANCH   4   5
ENDBRANCH   3   4
ENDBRANCH   1   2
BRANCH   1  12
ATOM     12  C   UNL     1     -25.376  29.667  -3.394  1.00  0.00     0.004 C 
BRANCH  12  13
ATOM     13  C   UNL     1     -24.961  30.432  -4.662  1.00  0.00     0.000 C 
BRANCH  13  14
ATOM     14  C   UNL     1     -23.885  29.682  -5.468  1.00  0.00     0.000 C 
BRANCH  14  15
ATOM     15  C   UNL     1     -22.458  30.124  -5.086  1.00  0.00     0.001 C 
BRANCH  15  16
ATOM     16  C   UNL     1     -21.802  29.227  -4.022  1.00  0.00     0.012 C 
BRANCH  16  17
ATOM     17  C   UNL     1     -20.272  29.283  -4.055  1.00  0.00     0.123 C 
BRANCH  17  18
ATOM     18  C   UNL     1     -19.767  28.980  -5.431  1.00  0.00     0.305 C 
ATOM     19  O   UNL     1     -19.031  29.813  -6.026  1.00  0.00    -0.252 OA
BRANCH  18  20
ATOM     20  O   UNL     1     -20.093  27.760  -6.030  1.00  0.00    -0.469 OA
ATOM     21  C   UNL     1     -19.162  27.021  -6.814  1.00  0.00     0.282 C 
ENDBRANCH  18  20
ENDBRANCH  17  18
ENDBRANCH  16  17
ENDBRANCH  15  16
ENDBRANCH  14  15
ENDBRANCH  13  14
ENDBRANCH  12  13
ENDBRANCH   1  12
TORSDOF 15
ENDMDL
MODEL 8
REMARK VINA RESULT:    -3.634      2.136      5.307
REMARK INTER + INTRA:          -9.665
REMARK INTER:                  -6.685
REMARK INTRA:                  -2.979
REMARK UNBOUND:                -2.843
REMARK SMILES CCCCCC=CCC=CCCCCCCCC(=O)OC
REMARK SMILES IDX 11 1 10 2 9 3 8 4 7 5 6 6 5 7 4 8 3 9 2 10 1 11 12 12 13 13
REMARK SMILES IDX 14 14 15 15 16 16 17 17 18 18 19 19 20 20 21 21
REMARK H PARENT
REMARK Flexibility Score: inf
ROOT
ATOM      1  C   UNL     1     -16.298  29.088  -4.308  1.00  0.00     0.027 C 
ENDROOT
BRANCH   1   2
ATOM      2  C   UNL     1     -17.012  29.859  -3.234  1.00  0.00    -0.031 C 
ATOM      3  C   UNL     1     -16.648  31.110  -2.908  1.00  0.00    -0.027 C 
BRANCH   3   4
ATOM      4  C   UNL     1     -17.389  31.900  -1.868  1.00  0.00     0.054 C 
BRANCH   4   5
ATOM      5  C   UNL     1     -18.848  31.535  -1.881  1.00  0.00    -0.027 C 
ATOM      6  C   UNL     1     -19.777  32.358  -2.392  1.00  0.00    -0.031 C 
BRANCH   6   7
ATOM      7  C   UNL     1     -21.238  32.008  -2.358  1.00  0.00     0.027 C 
BRANCH   7   8
ATOM      8  C   UNL     1     -21.440  30.556  -1.893  1.00  0.00     0.004 C 
BRANCH   8   9
ATOM      9  C   UNL     1     -21.864  29.614  -3.035  1.00  0.00     0.000 C 
BRANCH   9  10
ATOM     10  C   UNL     1     -23.169  30.009  -3.751  1.00  0.00    -0.003 C 
ATOM     11  C   UNL     1     -23.014  30.106  -5.270  1.00  0.00     0.004 C 
ENDBRANCH   9  10
ENDBRANCH   8   9
ENDBRANCH   7   8
ENDBRANCH   6   7
ENDBRANCH   4   5
ENDBRANCH   3   4
ENDBRANCH   1   2
BRANCH   1  12
ATOM     12  C   UNL     1     -17.295  28.344  -5.210  1.00  0.00     0.004 C 
BRANCH  12  13
ATOM     13  C   UNL     1     -18.744  28.799  -4.969  1.00  0.00     0.000 C 
BRANCH  13  14
ATOM     14  C   UNL     1     -19.269  29.693  -6.107  1.00  0.00     0.000 C 
BRANCH  14  15
ATOM     15  C   UNL     1     -19.537  31.138  -5.636  1.00  0.00     0.001 C 
BRANCH  15  16
ATOM     16  C   UNL     1     -18.785  32.199  -6.458  1.00  0.00     0.012 C 
BRANCH  16  17
ATOM     17  C   UNL     1     -17.299  31.875  -6.633  1.00  0.00     0.123 C 
BRANCH  17  18
ATOM     18  C   UNL     1     -16.925  31.902  -8.082  1.00  0.00     0.305 C 
ATOM     19  O   UNL     1     -15.777  32.294  -8.426  1.00  0.00    -0.252 OA
BRANCH  18  20
ATOM     20  O   UNL     1     -17.844  31.459  -9.038  1.00  0.00    -0.469 OA
ATOM     21  C   UNL     1     -17.442  30.843 -10.257  1.00  0.00     0.282 C 
ENDBRANCH  18  20
ENDBRANCH  17  18
ENDBRANCH  16  17
ENDBRANCH  15  16
ENDBRANCH  14  15
ENDBRANCH  13  14
ENDBRANCH  12  13
ENDBRANCH   1  12
TORSDOF 15
ENDMDL
MODEL 9
REMARK VINA RESULT:    -3.628      2.365      5.120
REMARK INTER + INTRA:          -9.653
REMARK INTER:                  -7.135
REMARK INTRA:                  -2.518
REMARK UNBOUND:                -2.843
REMARK SMILES CCCCCC=CCC=CCCCCCCCC(=O)OC
REMARK SMILES IDX 11 1 10 2 9 3 8 4 7 5 6 6 5 7 4 8 3 9 2 10 1 11 12 12 13 13
REMARK SMILES IDX 14 14 15 15 16 16 17 17 18 18 19 19 20 20 21 21
REMARK H PARENT
REMARK Flexibility Score: inf
ROOT
ATOM      1  C   UNL     1     -22.489  28.740  -1.635  1.00  0.00     0.027 C 
ENDROOT
BRANCH   1   2
ATOM      2  C   UNL     1     -22.184  30.167  -1.992  1.00  0.00    -0.031 C 
ATOM      3  C   UNL     1     -22.806  31.191  -1.386  1.00  0.00    -0.027 C 
BRANCH   3   4
ATOM      4  C   UNL     1     -22.470  32.619  -1.708  1.00  0.00     0.054 C 
BRANCH   4   5
ATOM      5  C   UNL     1     -21.652  32.688  -2.969  1.00  0.00    -0.027 C 
ATOM      6  C   UNL     1     -20.347  33.005  -2.947  1.00  0.00    -0.031 C 
BRANCH   6   7
ATOM      7  C   UNL     1     -19.548  33.118  -4.215  1.00  0.00     0.027 C 
BRANCH   7   8
ATOM      8  C   UNL     1     -18.492  32.003  -4.295  1.00  0.00     0.004 C 
BRANCH   8   9
ATOM      9  C   UNL     1     -17.419  32.113  -3.196  1.00  0.00     0.000 C 
BRANCH   9  10
ATOM     10  C   UNL     1     -17.206  30.833  -2.367  1.00  0.00    -0.003 C 
ATOM     11  C   UNL     1     -18.286  30.619  -1.304  1.00  0.00     0.004 C 
ENDBRANCH   9  10
ENDBRANCH   8   9
ENDBRANCH   7   8
ENDBRANCH   6   7
ENDBRANCH   4   5
ENDBRANCH   3   4
ENDBRANCH   1   2
BRANCH   1  12
ATOM     12  C   UNL     1     -24.004  28.504  -1.545  1.00  0.00     0.004 C 
BRANCH  12  13
ATOM     13  C   UNL     1     -24.649  28.353  -2.933  1.00  0.00     0.000 C 
BRANCH  13  14
ATOM     14  C   UNL     1     -25.581  29.530  -3.272  1.00  0.00     0.000 C 
BRANCH  14  15
ATOM     15  C   UNL     1     -25.021  30.407  -4.411  1.00  0.00     0.001 C 
BRANCH  15  16
ATOM     16  C   UNL     1     -24.027  29.665  -5.322  1.00  0.00     0.012 C 
BRANCH  16  17
ATOM     17  C   UNL     1     -22.729  30.445  -5.548  1.00  0.00     0.123 C 
BRANCH  17  18
ATOM     18  C   UNL     1     -21.609  29.510  -5.885  1.00  0.00     0.305 C 
ATOM     19  O   UNL     1     -20.535  29.967  -6.361  1.00  0.00    -0.252 OA
BRANCH  18  20
ATOM     20  O   UNL     1     -21.756  28.143  -5.637  1.00  0.00    -0.469 OA
ATOM     21  C   UNL     1     -20.958  27.449  -4.684  1.00  0.00     0.282 C 
ENDBRANCH  18  20
ENDBRANCH  17  18
ENDBRANCH  16  17
ENDBRANCH  15  16
ENDBRANCH  14  15
ENDBRANCH  13  14
ENDBRANCH  12  13
ENDBRANCH   1  12
TORSDOF 15
ENDMDL
