MODEL 1
REMARK VINA RESULT:     4.021      0.000      0.000
REMARK INTER + INTRA:           6.754
REMARK INTER:                   7.312
REMARK INTRA:                  -0.559
REMARK UNBOUND:                -0.559
REMARK SMILES CCCCCCCCCCCCCCCC(=O)[O-]
REMARK SMILES IDX 9 1 10 2 11 3 12 4 13 5 14 6 15 7 16 8 17 9 18 10 8 11 7 12
REMARK SMILES IDX 6 13 5 14 4 15 3 16 2 17 1 18
REMARK H PARENT
REMARK Flexibility Score: inf
ROOT
ATOM      1  C   UNL     1     -35.038  23.154   6.447  1.00  0.00     0.000 C 
ENDROOT
BRANCH   1   2
ATOM      2  C   UNL     1     -35.335  22.822   7.917  1.00  0.00     0.000 C 
BRANCH   2   3
ATOM      3  C   UNL     1     -35.981  21.437   8.050  1.00  0.00     0.000 C 
BRANCH   3   4
ATOM      4  C   UNL     1     -37.513  21.545   8.081  1.00  0.00     0.000 C 
BRANCH   4   5
ATOM      5  C   UNL     1     -38.006  23.000   8.027  1.00  0.00     0.000 C 
BRANCH   5   6
ATOM      6  C   UNL     1     -39.125  23.207   6.993  1.00  0.00     0.006 C 
BRANCH   6   7
ATOM      7  C   UNL     1     -39.091  24.613   6.377  1.00  0.00     0.053 C 
BRANCH   7   8
ATOM      8  C   UNL     1     -38.814  24.569   4.904  1.00  0.00     0.041 C 
ATOM      9  O   UNL     1     -39.091  25.560   4.179  1.00  0.00    -0.550 OA
ATOM     10  O   UNL     1     -38.279  23.423   4.330  1.00  0.00    -0.550 OA
ENDBRANCH   7   8
ENDBRANCH   6   7
ENDBRANCH   5   6
ENDBRANCH   4   5
ENDBRANCH   3   4
ENDBRANCH   2   3
ENDBRANCH   1   2
BRANCH   1  11
ATOM     11  C   UNL     1     -33.526  23.129   6.138  1.00  0.00     0.000 C 
BRANCH  11  12
ATOM     12  C   UNL     1     -33.016  24.403   5.443  1.00  0.00    -0.000 C 
BRANCH  12  13
ATOM     13  C   UNL     1     -32.786  25.564   6.423  1.00  0.00    -0.000 C 
BRANCH  13  14
ATOM     14  C   UNL     1     -31.705  25.255   7.473  1.00  0.00    -0.000 C 
BRANCH  14  15
ATOM     15  C   UNL     1     -30.699  24.157   7.074  1.00  0.00    -0.000 C 
BRANCH  15  16
ATOM     16  C   UNL     1     -29.585  23.924   8.115  1.00  0.00    -0.000 C 
BRANCH  16  17
ATOM     17  C   UNL     1     -28.183  23.980   7.491  1.00  0.00    -0.003 C 
ATOM     18  C   UNL     1     -27.767  25.418   7.198  1.00  0.00     0.004 C 
ENDBRANCH  16  17
ENDBRANCH  15  16
ENDBRANCH  14  15
ENDBRANCH  13  14
ENDBRANCH  12  13
ENDBRANCH  11  12
ENDBRANCH   1  11
TORSDOF 14
ENDMDL
MODEL 2
REMARK VINA RESULT:     5.605     12.702     14.579
REMARK INTER + INTRA:           9.634
REMARK INTER:                  10.480
REMARK INTRA:                  -0.845
REMARK UNBOUND:                -0.559
REMARK SMILES CCCCCCCCCCCCCCCC(=O)[O-]
REMARK SMILES IDX 9 1 10 2 11 3 12 4 13 5 14 6 15 7 16 8 17 9 18 10 8 11 7 12
REMARK SMILES IDX 6 13 5 14 4 15 3 16 2 17 1 18
REMARK H PARENT
REMARK Flexibility Score: inf
ROOT
ATOM      1  C   UNL     1     -28.281  33.070  -3.078  1.00  0.00     0.000 C 
ENDROOT
BRANCH   1   2
ATOM      2  C   UNL     1     -29.708  33.057  -2.508  1.00  0.00     0.000 C 
BRANCH   2   3
ATOM      3  C   UNL     1     -29.792  32.183  -1.251  1.00  0.00     0.000 C 
BRANCH   3   4
ATOM      4  C   UNL     1     -30.994  31.229  -1.324  1.00  0.00     0.000 C 
BRANCH   4   5
ATOM      5  C   UNL     1     -31.663  31.224  -2.708  1.00  0.00     0.000 C 
BRANCH   5   6
ATOM      6  C   UNL     1     -32.657  30.062  -2.880  1.00  0.00     0.006 C 
BRANCH   6   7
ATOM      7  C   UNL     1     -34.046  30.548  -3.316  1.00  0.00     0.053 C 
BRANCH   7   8
ATOM      8  C   UNL     1     -35.117  30.099  -2.368  1.00  0.00     0.041 C 
ATOM      9  O   UNL     1     -36.086  30.857  -2.102  1.00  0.00    -0.550 OA
ATOM     10  O   UNL     1     -35.028  28.855  -1.757  1.00  0.00    -0.550 OA
ENDBRANCH   7   8
ENDBRANCH   6   7
ENDBRANCH   5   6
ENDBRANCH   4   5
ENDBRANCH   3   4
ENDBRANCH   2   3
ENDBRANCH   1   2
BRANCH   1  11
ATOM     11  C   UNL     1     -27.628  31.673  -3.043  1.00  0.00     0.000 C 
BRANCH  11  12
ATOM     12  C   UNL     1     -26.179  31.656  -3.558  1.00  0.00    -0.000 C 
BRANCH  12  13
ATOM     13  C   UNL     1     -26.006  30.797  -4.821  1.00  0.00    -0.000 C 
BRANCH  13  14
ATOM     14  C   UNL     1     -26.326  31.565  -6.114  1.00  0.00    -0.000 C 
BRANCH  14  15
ATOM     15  C   UNL     1     -26.838  30.698  -7.281  1.00  0.00    -0.000 C 
BRANCH  15  16
ATOM     16  C   UNL     1     -25.924  30.725  -8.525  1.00  0.00    -0.000 C 
BRANCH  16  17
ATOM     17  C   UNL     1     -25.081  32.006  -8.600  1.00  0.00    -0.003 C 
ATOM     18  C   UNL     1     -23.591  31.685  -8.636  1.00  0.00     0.004 C 
ENDBRANCH  16  17
ENDBRANCH  15  16
ENDBRANCH  14  15
ENDBRANCH  13  14
ENDBRANCH  12  13
ENDBRANCH  11  12
ENDBRANCH   1  11
TORSDOF 14
ENDMDL
MODEL 3
REMARK VINA RESULT:     5.819     14.272     17.130
REMARK INTER + INTRA:          10.023
REMARK INTER:                  10.878
REMARK INTRA:                  -0.855
REMARK UNBOUND:                -0.559
REMARK SMILES CCCCCCCCCCCCCCCC(=O)[O-]
REMARK SMILES IDX 9 1 10 2 11 3 12 4 13 5 14 6 15 7 16 8 17 9 18 10 8 11 7 12
REMARK SMILES IDX 6 13 5 14 4 15 3 16 2 17 1 18
REMARK H PARENT
REMARK Flexibility Score: inf
ROOT
ATOM      1  C   UNL     1     -27.512  31.648  -3.220  1.00  0.00     0.000 C 
ENDROOT
BRANCH   1   2
ATOM      2  C   UNL     1     -26.033  31.675  -3.632  1.00  0.00     0.000 C 
BRANCH   2   3
ATOM      3  C   UNL     1     -25.807  30.892  -4.932  1.00  0.00     0.000 C 
BRANCH   3   4
ATOM      4  C   UNL     1     -26.626  31.493  -6.084  1.00  0.00     0.000 C 
BRANCH   4   5
ATOM      5  C   UNL     1     -26.946  30.467  -7.182  1.00  0.00     0.000 C 
BRANCH   5   6
ATOM      6  C   UNL     1     -26.261  30.799  -8.520  1.00  0.00     0.006 C 
BRANCH   6   7
ATOM      7  C   UNL     1     -25.309  31.997  -8.401  1.00  0.00     0.053 C 
BRANCH   7   8
ATOM      8  C   UNL     1     -23.874  31.581  -8.516  1.00  0.00     0.041 C 
ATOM      9  O   UNL     1     -23.501  30.463  -8.074  1.00  0.00    -0.550 OA
ATOM     10  O   UNL     1     -22.943  32.441  -9.086  1.00  0.00    -0.550 OA
ENDBRANCH   7   8
ENDBRANCH   6   7
ENDBRANCH   5   6
ENDBRANCH   4   5
ENDBRANCH   3   4
ENDBRANCH   2   3
ENDBRANCH   1   2
BRANCH   1  11
ATOM     11  C   UNL     1     -28.132  33.060  -3.180  1.00  0.00     0.000 C 
BRANCH  11  12
ATOM     12  C   UNL     1     -29.600  33.079  -2.721  1.00  0.00    -0.000 C 
BRANCH  12  13
ATOM     13  C   UNL     1     -29.815  32.349  -1.385  1.00  0.00    -0.000 C 
BRANCH  13  14
ATOM     14  C   UNL     1     -30.817  31.188  -1.493  1.00  0.00    -0.000 C 
BRANCH  14  15
ATOM     15  C   UNL     1     -31.809  31.287  -2.669  1.00  0.00    -0.000 C 
BRANCH  15  16
ATOM     16  C   UNL     1     -32.785  30.095  -2.763  1.00  0.00    -0.000 C 
BRANCH  16  17
ATOM     17  C   UNL     1     -34.150  30.504  -3.334  1.00  0.00    -0.003 C 
ATOM     18  C   UNL     1     -35.241  30.420  -2.271  1.00  0.00     0.004 C 
ENDBRANCH  16  17
ENDBRANCH  15  16
ENDBRANCH  14  15
ENDBRANCH  13  14
ENDBRANCH  12  13
ENDBRANCH  11  12
ENDBRANCH   1  11
TORSDOF 14
ENDMDL
MODEL 4
REMARK VINA RESULT:     6.401     14.441     15.499
REMARK INTER + INTRA:          11.081
REMARK INTER:                  11.264
REMARK INTRA:                  -0.183
REMARK UNBOUND:                -0.559
REMARK SMILES CCCCCCCCCCCCCCCC(=O)[O-]
REMARK SMILES IDX 9 1 10 2 11 3 12 4 13 5 14 6 15 7 16 8 17 9 18 10 8 11 7 12
REMARK SMILES IDX 6 13 5 14 4 15 3 16 2 17 1 18
REMARK H PARENT
REMARK Flexibility Score: inf
ROOT
ATOM      1  C   UNL     1     -33.390  22.284  -8.634  1.00  0.00     0.000 C 
ENDROOT
BRANCH   1   2
ATOM      2  C   UNL     1     -34.863  21.874  -8.783  1.00  0.00     0.000 C 
BRANCH   2   3
ATOM      3  C   UNL     1     -35.730  23.071  -9.192  1.00  0.00     0.000 C 
BRANCH   3   4
ATOM      4  C   UNL     1     -36.530  23.605  -7.994  1.00  0.00     0.000 C 
BRANCH   4   5
ATOM      5  C   UNL     1     -37.897  22.921  -7.841  1.00  0.00     0.000 C 
BRANCH   5   6
ATOM      6  C   UNL     1     -38.957  23.847  -7.221  1.00  0.00     0.006 C 
BRANCH   6   7
ATOM      7  C   UNL     1     -39.125  25.149  -8.017  1.00  0.00     0.053 C 
BRANCH   7   8
ATOM      8  C   UNL     1     -38.181  26.214  -7.549  1.00  0.00     0.041 C 
ATOM      9  O   UNL     1     -37.420  26.792  -8.370  1.00  0.00    -0.550 OA
ATOM     10  O   UNL     1     -38.121  26.549  -6.202  1.00  0.00    -0.550 OA
ENDBRANCH   7   8
ENDBRANCH   6   7
ENDBRANCH   5   6
ENDBRANCH   4   5
ENDBRANCH   3   4
ENDBRANCH   2   3
ENDBRANCH   1   2
BRANCH   1  11
ATOM     11  C   UNL     1     -32.487  21.088  -8.263  1.00  0.00     0.000 C 
BRANCH  11  12
ATOM     12  C   UNL     1     -31.016  21.473  -8.031  1.00  0.00    -0.000 C 
BRANCH  12  13
ATOM     13  C   UNL     1     -30.205  20.349  -7.367  1.00  0.00    -0.000 C 
BRANCH  13  14
ATOM     14  C   UNL     1     -29.844  19.216  -8.343  1.00  0.00    -0.000 C 
BRANCH  14  15
ATOM     15  C   UNL     1     -30.695  17.938  -8.206  1.00  0.00    -0.000 C 
BRANCH  15  16
ATOM     16  C   UNL     1     -29.886  16.633  -8.355  1.00  0.00    -0.000 C 
BRANCH  16  17
ATOM     17  C   UNL     1     -28.398  16.897  -8.627  1.00  0.00    -0.003 C 
ATOM     18  C   UNL     1     -27.516  15.881  -7.907  1.00  0.00     0.004 C 
ENDBRANCH  16  17
ENDBRANCH  15  16
ENDBRANCH  14  15
ENDBRANCH  13  14
ENDBRANCH  12  13
ENDBRANCH  11  12
ENDBRANCH   1  11
TORSDOF 14
ENDMDL
MODEL 5
REMARK VINA RESULT:     6.413     15.032     17.415
REMARK INTER + INTRA:          11.103
REMARK INTER:                  11.081
REMARK INTRA:                   0.022
REMARK UNBOUND:                -0.559
REMARK SMILES CCCCCCCCCCCCCCCC(=O)[O-]
REMARK SMILES IDX 9 1 10 2 11 3 12 4 13 5 14 6 15 7 16 8 17 9 18 10 8 11 7 12
REMARK SMILES IDX 6 13 5 14 4 15 3 16 2 17 1 18
REMARK H PARENT
REMARK Flexibility Score: inf
ROOT
ATOM      1  C   UNL     1     -33.074  22.101  -8.706  1.00  0.00     0.000 C 
ENDROOT
BRANCH   1   2
ATOM      2  C   UNL     1     -32.314  20.811  -8.362  1.00  0.00     0.000 C 
BRANCH   2   3
ATOM      3  C   UNL     1     -30.877  21.117  -7.924  1.00  0.00     0.000 C 
BRANCH   3   4
ATOM      4  C   UNL     1     -30.127  19.828  -7.557  1.00  0.00     0.000 C 
BRANCH   4   5
ATOM      5  C   UNL     1     -29.876  18.922  -8.772  1.00  0.00     0.000 C 
BRANCH   5   6
ATOM      6  C   UNL     1     -30.554  17.548  -8.636  1.00  0.00     0.006 C 
BRANCH   6   7
ATOM      7  C   UNL     1     -29.656  16.526  -7.924  1.00  0.00     0.053 C 
BRANCH   7   8
ATOM      8  C   UNL     1     -28.274  16.501  -8.502  1.00  0.00     0.041 C 
ATOM      9  O   UNL     1     -27.330  15.965  -7.863  1.00  0.00    -0.550 OA
ATOM     10  O   UNL     1     -28.023  17.093  -9.733  1.00  0.00    -0.550 OA
ENDBRANCH   7   8
ENDBRANCH   6   7
ENDBRANCH   5   6
ENDBRANCH   4   5
ENDBRANCH   3   4
ENDBRANCH   2   3
ENDBRANCH   1   2
BRANCH   1  11
ATOM     11  C   UNL     1     -34.597  21.873  -8.801  1.00  0.00     0.000 C 
BRANCH  11  12
ATOM     12  C   UNL     1     -35.402  23.163  -9.030  1.00  0.00    -0.000 C 
BRANCH  12  13
ATOM     13  C   UNL     1     -36.534  23.348  -8.006  1.00  0.00    -0.000 C 
BRANCH  13  14
ATOM     14  C   UNL     1     -37.930  23.124  -8.611  1.00  0.00    -0.000 C 
BRANCH  14  15
ATOM     15  C   UNL     1     -39.048  24.008  -8.024  1.00  0.00    -0.000 C 
BRANCH  15  16
ATOM     16  C   UNL     1     -38.775  24.480  -6.580  1.00  0.00    -0.000 C 
BRANCH  16  17
ATOM     17  C   UNL     1     -38.272  25.931  -6.528  1.00  0.00    -0.003 C 
ATOM     18  C   UNL     1     -38.452  26.626  -7.873  1.00  0.00     0.004 C 
ENDBRANCH  16  17
ENDBRANCH  15  16
ENDBRANCH  14  15
ENDBRANCH  13  14
ENDBRANCH  12  13
ENDBRANCH  11  12
ENDBRANCH   1  11
TORSDOF 14
ENDMDL
MODEL 6
REMARK VINA RESULT:     6.484     16.066     19.536
REMARK INTER + INTRA:          11.232
REMARK INTER:                  12.142
REMARK INTRA:                  -0.911
REMARK UNBOUND:                -0.559
REMARK SMILES CCCCCCCCCCCCCCCC(=O)[O-]
REMARK SMILES IDX 9 1 10 2 11 3 12 4 13 5 14 6 15 7 16 8 17 9 18 10 8 11 7 12
REMARK SMILES IDX 6 13 5 14 4 15 3 16 2 17 1 18
REMARK H PARENT
REMARK Flexibility Score: inf
ROOT
ATOM      1  C   UNL     1     -23.598  29.662  -8.333  1.00  0.00     0.000 C 
ENDROOT
BRANCH   1   2
ATOM      2  C   UNL     1     -22.315  29.256  -7.591  1.00  0.00     0.000 C 
BRANCH   2   3
ATOM      3  C   UNL     1     -22.499  27.917  -6.865  1.00  0.00     0.000 C 
BRANCH   3   4
ATOM      4  C   UNL     1     -21.141  27.312  -6.477  1.00  0.00     0.000 C 
BRANCH   4   5
ATOM      5  C   UNL     1     -21.130  26.749  -5.047  1.00  0.00     0.000 C 
BRANCH   5   6
ATOM      6  C   UNL     1     -19.819  26.019  -4.709  1.00  0.00     0.006 C 
BRANCH   6   7
ATOM      7  C   UNL     1     -19.127  25.461  -5.960  1.00  0.00     0.053 C 
BRANCH   7   8
ATOM      8  C   UNL     1     -19.085  23.963  -5.952  1.00  0.00     0.041 C 
ATOM      9  O   UNL     1     -19.213  23.332  -4.870  1.00  0.00    -0.550 OA
ATOM     10  O   UNL     1     -18.876  23.266  -7.135  1.00  0.00    -0.550 OA
ENDBRANCH   7   8
ENDBRANCH   6   7
ENDBRANCH   5   6
ENDBRANCH   4   5
ENDBRANCH   3   4
ENDBRANCH   2   3
ENDBRANCH   1   2
BRANCH   1  11
ATOM     11  C   UNL     1     -23.887  31.173  -8.213  1.00  0.00     0.000 C 
BRANCH  11  12
ATOM     12  C   UNL     1     -25.177  31.614  -8.925  1.00  0.00    -0.000 C 
BRANCH  12  13
ATOM     13  C   UNL     1     -26.293  32.006  -7.945  1.00  0.00    -0.000 C 
BRANCH  13  14
ATOM     14  C   UNL     1     -27.046  30.790  -7.379  1.00  0.00    -0.000 C 
BRANCH  14  15
ATOM     15  C   UNL     1     -26.683  30.412  -5.930  1.00  0.00    -0.000 C 
BRANCH  15  16
ATOM     16  C   UNL     1     -26.024  31.557  -5.133  1.00  0.00    -0.000 C 
BRANCH  16  17
ATOM     17  C   UNL     1     -25.965  31.260  -3.628  1.00  0.00    -0.003 C 
ATOM     18  C   UNL     1     -26.912  30.125  -3.251  1.00  0.00     0.004 C 
ENDBRANCH  16  17
ENDBRANCH  15  16
ENDBRANCH  14  15
ENDBRANCH  13  14
ENDBRANCH  12  13
ENDBRANCH  11  12
ENDBRANCH   1  11
TORSDOF 14
ENDMDL
