MODEL 1
REMARK VINA RESULT:    16.590      0.000      0.000
REMARK INTER + INTRA:          20.542
REMARK INTER:                  20.954
REMARK INTRA:                  -0.413
REMARK UNBOUND:                -0.413
REMARK SMILES Oc1cc(O)cc(CCc2ccccc2O)c1
REMARK SMILES IDX 9 1 10 2 12 3 13 4 11 5 14 6 15 7 16 8 8 10 7 11 6 12 17 13
REMARK SMILES IDX 4 14 2 15 3 16 5 17 1 19
REMARK H PARENT 16 9 5 18 1 20
REMARK Flexibility Score: inf
ROOT
ATOM      1  C   UNL     1       9.387  10.765  31.809  1.00  0.00     0.044 C 
ENDROOT
BRANCH   1   2
ATOM      2  C   UNL     1      10.507  11.266  30.932  1.00  0.00    -0.006 A 
ATOM      3  C   UNL     1      12.735  10.963  30.006  1.00  0.00     0.001 A 
ATOM      4  C   UNL     1      12.643  12.200  29.367  1.00  0.00     0.004 A 
ATOM      5  C   UNL     1      11.675  10.499  30.791  1.00  0.00     0.007 A 
ATOM      6  C   UNL     1      11.494  12.979  29.513  1.00  0.00     0.046 A 
ATOM      7  C   UNL     1      10.424  12.523  30.298  1.00  0.00     0.118 A 
BRANCH   7   8
ATOM      8  O   UNL     1       9.285  13.314  30.451  1.00  0.00    -0.508 OA
ATOM      9  H   UNL     1       8.355  12.940  30.306  1.00  0.00     0.293 HD
ENDBRANCH   7   8
ENDBRANCH   1   2
BRANCH   1  10
ATOM     10  C   UNL     1       9.367   9.234  31.835  1.00  0.00     0.040 C 
BRANCH  10  11
ATOM     11  C   UNL     1       7.999   8.730  32.216  1.00  0.00    -0.040 A 
ATOM     12  C   UNL     1       7.374   7.733  31.450  1.00  0.00     0.050 A 
ATOM     13  C   UNL     1       7.317   9.293  33.306  1.00  0.00     0.050 A 
ATOM     14  C   UNL     1       6.087   7.288  31.785  1.00  0.00     0.119 A 
ATOM     15  C   UNL     1       6.033   8.850  33.642  1.00  0.00     0.119 A 
ATOM     16  C   UNL     1       5.422   7.844  32.881  1.00  0.00     0.092 A 
BRANCH  14  17
ATOM     17  O   UNL     1       5.463   6.294  31.034  1.00  0.00    -0.508 OA
ATOM     18  H   UNL     1       5.281   5.375  31.420  1.00  0.00     0.293 HD
ENDBRANCH  14  17
BRANCH  15  19
ATOM     19  O   UNL     1       5.374   9.416  34.731  1.00  0.00    -0.508 OA
ATOM     20  H   UNL     1       4.480   9.883  34.625  1.00  0.00     0.293 HD
ENDBRANCH  15  19
ENDBRANCH  10  11
ENDBRANCH   1  10
TORSDOF 6
ENDMDL
MODEL 2
REMARK VINA RESULT:    16.665      0.037      2.035
REMARK INTER + INTRA:          20.636
REMARK INTER:                  21.041
REMARK INTRA:                  -0.405
REMARK UNBOUND:                -0.413
REMARK SMILES Oc1cc(O)cc(CCc2ccccc2O)c1
REMARK SMILES IDX 9 1 10 2 12 3 13 4 11 5 14 6 15 7 16 8 8 10 7 11 6 12 17 13
REMARK SMILES IDX 4 14 2 15 3 16 5 17 1 19
REMARK H PARENT 16 9 5 18 1 20
REMARK Flexibility Score: inf
ROOT
ATOM      1  C   UNL     1       9.403  10.785  31.843  1.00  0.00     0.044 C 
ENDROOT
BRANCH   1   2
ATOM      2  C   UNL     1      10.514  11.284  30.952  1.00  0.00    -0.006 A 
ATOM      3  C   UNL     1      12.744  10.993  30.028  1.00  0.00     0.001 A 
ATOM      4  C   UNL     1      12.633  12.214  29.361  1.00  0.00     0.004 A 
ATOM      5  C   UNL     1      11.693  10.531  30.825  1.00  0.00     0.007 A 
ATOM      6  C   UNL     1      11.472  12.979  29.492  1.00  0.00     0.046 A 
ATOM      7  C   UNL     1      10.411  12.524  30.291  1.00  0.00     0.118 A 
BRANCH   7   8
ATOM      8  O   UNL     1       9.260  13.301  30.428  1.00  0.00    -0.508 OA
ATOM      9  H   UNL     1       8.856  13.496  31.337  1.00  0.00     0.293 HD
ENDBRANCH   7   8
ENDBRANCH   1   2
BRANCH   1  10
ATOM     10  C   UNL     1       9.346   9.255  31.828  1.00  0.00     0.040 C 
BRANCH  10  11
ATOM     11  C   UNL     1       7.963   8.775  32.183  1.00  0.00    -0.040 A 
ATOM     12  C   UNL     1       7.296   9.302  33.301  1.00  0.00     0.050 A 
ATOM     13  C   UNL     1       7.354   7.758  31.433  1.00  0.00     0.050 A 
ATOM     14  C   UNL     1       6.023   8.832  33.652  1.00  0.00     0.119 A 
ATOM     15  C   UNL     1       6.083   7.287  31.781  1.00  0.00     0.119 A 
ATOM     16  C   UNL     1       5.418   7.829  32.889  1.00  0.00     0.092 A 
BRANCH  14  17
ATOM     17  O   UNL     1       5.353   9.355  34.755  1.00  0.00    -0.508 OA
ATOM     18  H   UNL     1       4.867  10.243  34.708  1.00  0.00     0.293 HD
ENDBRANCH  14  17
BRANCH  15  19
ATOM     19  O   UNL     1       5.491   6.281  31.020  1.00  0.00    -0.508 OA
ATOM     20  H   UNL     1       6.001   5.443  30.763  1.00  0.00     0.293 HD
ENDBRANCH  15  19
ENDBRANCH  10  11
ENDBRANCH   1  10
TORSDOF 6
ENDMDL
MODEL 3
REMARK VINA RESULT:    17.136      1.172      1.542
REMARK INTER + INTRA:          21.231
REMARK INTER:                  21.626
REMARK INTRA:                  -0.394
REMARK UNBOUND:                -0.413
REMARK SMILES Oc1cc(O)cc(CCc2ccccc2O)c1
REMARK SMILES IDX 9 1 10 2 12 3 13 4 11 5 14 6 15 7 16 8 8 10 7 11 6 12 17 13
REMARK SMILES IDX 4 14 2 15 3 16 5 17 1 19
REMARK H PARENT 16 9 5 18 1 20
REMARK Flexibility Score: inf
ROOT
ATOM      1  C   UNL     1       9.482  10.868  31.923  1.00  0.00     0.044 C 
ENDROOT
BRANCH   1   2
ATOM      2  C   UNL     1      10.424  11.515  30.939  1.00  0.00    -0.006 A 
ATOM      3  C   UNL     1      10.777  12.651  28.819  1.00  0.00     0.001 A 
ATOM      4  C   UNL     1      12.153  12.664  29.049  1.00  0.00     0.004 A 
ATOM      5  C   UNL     1       9.915  12.075  29.755  1.00  0.00     0.007 A 
ATOM      6  C   UNL     1      12.673  12.097  30.215  1.00  0.00     0.046 A 
ATOM      7  C   UNL     1      11.816  11.515  31.161  1.00  0.00     0.118 A 
BRANCH   7   8
ATOM      8  O   UNL     1      12.344  10.937  32.316  1.00  0.00    -0.508 OA
ATOM      9  H   UNL     1      11.747  10.540  33.032  1.00  0.00     0.293 HD
ENDBRANCH   7   8
ENDBRANCH   1   2
BRANCH   1  10
ATOM     10  C   UNL     1       9.395   9.359  31.674  1.00  0.00     0.040 C 
BRANCH  10  11
ATOM     11  C   UNL     1       8.057   8.827  32.115  1.00  0.00    -0.040 A 
ATOM     12  C   UNL     1       7.418   7.817  31.377  1.00  0.00     0.050 A 
ATOM     13  C   UNL     1       7.412   9.377  33.234  1.00  0.00     0.050 A 
ATOM     14  C   UNL     1       6.158   7.346  31.768  1.00  0.00     0.119 A 
ATOM     15  C   UNL     1       6.153   8.907  33.626  1.00  0.00     0.119 A 
ATOM     16  C   UNL     1       5.530   7.888  32.893  1.00  0.00     0.092 A 
BRANCH  14  17
ATOM     17  O   UNL     1       5.522   6.339  31.045  1.00  0.00    -0.508 OA
ATOM     18  H   UNL     1       5.151   5.513  31.500  1.00  0.00     0.293 HD
ENDBRANCH  14  17
BRANCH  15  19
ATOM     19  O   UNL     1       5.531   9.460  34.743  1.00  0.00    -0.508 OA
ATOM     20  H   UNL     1       4.767   8.988  35.212  1.00  0.00     0.293 HD
ENDBRANCH  15  19
ENDBRANCH  10  11
ENDBRANCH   1  10
TORSDOF 6
ENDMDL
MODEL 4
REMARK VINA RESULT:    17.323      1.836      2.523
REMARK INTER + INTRA:          21.468
REMARK INTER:                  21.861
REMARK INTRA:                  -0.394
REMARK UNBOUND:                -0.413
REMARK SMILES Oc1cc(O)cc(CCc2ccccc2O)c1
REMARK SMILES IDX 9 1 10 2 12 3 13 4 11 5 14 6 15 7 16 8 8 10 7 11 6 12 17 13
REMARK SMILES IDX 4 14 2 15 3 16 5 17 1 19
REMARK H PARENT 16 9 5 18 1 20
REMARK Flexibility Score: inf
ROOT
ATOM      1  C   UNL     1      10.047   9.801  31.330  1.00  0.00     0.044 C 
ENDROOT
BRANCH   1   2
ATOM      2  C   UNL     1      10.697  11.010  30.706  1.00  0.00    -0.006 A 
ATOM      3  C   UNL     1      10.828  12.603  28.873  1.00  0.00     0.001 A 
ATOM      4  C   UNL     1      11.927  13.215  29.477  1.00  0.00     0.004 A 
ATOM      5  C   UNL     1      10.218  11.502  29.480  1.00  0.00     0.007 A 
ATOM      6  C   UNL     1      12.422  12.727  30.688  1.00  0.00     0.046 A 
ATOM      7  C   UNL     1      11.818  11.621  31.306  1.00  0.00     0.118 A 
BRANCH   7   8
ATOM      8  O   UNL     1      12.327  11.130  32.507  1.00  0.00    -0.508 OA
ATOM      9  H   UNL     1      13.198  10.612  32.544  1.00  0.00     0.293 HD
ENDBRANCH   7   8
ENDBRANCH   1   2
BRANCH   1  10
ATOM     10  C   UNL     1       8.593  10.102  31.703  1.00  0.00     0.040 C 
BRANCH  10  11
ATOM     11  C   UNL     1       7.889   8.846  32.143  1.00  0.00    -0.040 A 
ATOM     12  C   UNL     1       8.362   8.119  33.248  1.00  0.00     0.050 A 
ATOM     13  C   UNL     1       6.789   8.361  31.418  1.00  0.00     0.050 A 
ATOM     14  C   UNL     1       7.728   6.932  33.637  1.00  0.00     0.119 A 
ATOM     15  C   UNL     1       6.154   7.176  31.806  1.00  0.00     0.119 A 
ATOM     16  C   UNL     1       6.623   6.465  32.918  1.00  0.00     0.092 A 
BRANCH  14  17
ATOM     17  O   UNL     1       8.187   6.210  34.737  1.00  0.00    -0.508 OA
ATOM     18  H   UNL     1       9.164   6.216  35.004  1.00  0.00     0.293 HD
ENDBRANCH  14  17
BRANCH  15  19
ATOM     19  O   UNL     1       5.060   6.714  31.078  1.00  0.00    -0.508 OA
ATOM     20  H   UNL     1       4.904   6.998  30.117  1.00  0.00     0.293 HD
ENDBRANCH  15  19
ENDBRANCH  10  11
ENDBRANCH   1  10
TORSDOF 6
ENDMDL
