MODEL 1
REMARK VINA RESULT:    -4.440      0.000      0.000
REMARK INTER + INTRA:          -6.449
REMARK INTER:                  -5.998
REMARK INTRA:                  -0.451
REMARK UNBOUND:                -0.451
REMARK SMILES CCCCCCCC(=O)[O-]
REMARK SMILES IDX 5 1 6 2 7 3 8 4 9 5 10 6 4 7 3 8 2 9 1 10
REMARK H PARENT
REMARK Flexibility Score: inf
ROOT
ATOM      1  C   UNL     1      62.835  61.065  69.246  1.00  0.00     0.000 C 
ENDROOT
BRANCH   1   2
ATOM      2  C   UNL     1      63.199  59.738  69.936  1.00  0.00     0.006 C 
BRANCH   2   3
ATOM      3  C   UNL     1      62.278  59.373  71.113  1.00  0.00     0.053 C 
BRANCH   3   4
ATOM      4  C   UNL     1      61.363  58.229  70.799  1.00  0.00     0.041 C 
ATOM      5  O   UNL     1      60.856  57.546  71.728  1.00  0.00    -0.550 OA
ATOM      6  O   UNL     1      61.094  57.896  69.478  1.00  0.00    -0.550 OA
ENDBRANCH   3   4
ENDBRANCH   2   3
ENDBRANCH   1   2
BRANCH   1   7
ATOM      7  C   UNL     1      64.065  61.887  68.834  1.00  0.00     0.000 C 
BRANCH   7   8
ATOM      8  C   UNL     1      65.292  61.494  69.666  1.00  0.00    -0.000 C 
BRANCH   8   9
ATOM      9  C   UNL     1      65.626  62.577  70.698  1.00  0.00    -0.003 C 
ATOM     10  C   UNL     1      64.986  62.269  72.048  1.00  0.00     0.004 C 
ENDBRANCH   8   9
ENDBRANCH   7   8
ENDBRANCH   1   7
TORSDOF 6
ENDMDL
MODEL 2
REMARK VINA RESULT:    -4.364      2.154      2.903
REMARK INTER + INTRA:          -6.346
REMARK INTER:                  -5.953
REMARK INTRA:                  -0.392
REMARK UNBOUND:                -0.451
REMARK SMILES CCCCCCCC(=O)[O-]
REMARK SMILES IDX 5 1 6 2 7 3 8 4 9 5 10 6 4 7 3 8 2 9 1 10
REMARK H PARENT
REMARK Flexibility Score: inf
ROOT
ATOM      1  C   UNL     1      63.191  59.743  70.026  1.00  0.00     0.000 C 
ENDROOT
BRANCH   1   2
ATOM      2  C   UNL     1      62.425  58.426  70.244  1.00  0.00     0.006 C 
BRANCH   2   3
ATOM      3  C   UNL     1      61.150  58.297  69.392  1.00  0.00     0.053 C 
BRANCH   3   4
ATOM      4  C   UNL     1      59.925  58.044  70.216  1.00  0.00     0.041 C 
ATOM      5  O   UNL     1      59.963  57.232  71.179  1.00  0.00    -0.550 OA
ATOM      6  O   UNL     1      58.732  58.681  69.903  1.00  0.00    -0.550 OA
ENDBRANCH   3   4
ENDBRANCH   2   3
ENDBRANCH   1   2
BRANCH   1   7
ATOM      7  C   UNL     1      62.334  60.837  69.374  1.00  0.00     0.000 C 
BRANCH   7   8
ATOM      8  C   UNL     1      62.027  61.962  70.370  1.00  0.00    -0.000 C 
BRANCH   8   9
ATOM      9  C   UNL     1      60.692  61.716  71.084  1.00  0.00    -0.003 C 
ATOM     10  C   UNL     1      60.247  62.950  71.862  1.00  0.00     0.004 C 
ENDBRANCH   8   9
ENDBRANCH   7   8
ENDBRANCH   1   7
TORSDOF 6
ENDMDL
MODEL 3
REMARK VINA RESULT:    -4.320      1.779      2.789
REMARK INTER + INTRA:          -6.287
REMARK INTER:                  -5.912
REMARK INTRA:                  -0.375
REMARK UNBOUND:                -0.451
REMARK SMILES CCCCCCCC(=O)[O-]
REMARK SMILES IDX 5 1 6 2 7 3 8 4 9 5 10 6 4 7 3 8 2 9 1 10
REMARK H PARENT
REMARK Flexibility Score: inf
ROOT
ATOM      1  C   UNL     1      61.838  59.294  71.861  1.00  0.00     0.000 C 
ENDROOT
BRANCH   1   2
ATOM      2  C   UNL     1      61.675  58.143  70.852  1.00  0.00     0.006 C 
BRANCH   2   3
ATOM      3  C   UNL     1      60.214  57.856  70.463  1.00  0.00     0.053 C 
BRANCH   3   4
ATOM      4  C   UNL     1      59.617  58.938  69.615  1.00  0.00     0.041 C 
ATOM      5  O   UNL     1      58.487  59.416  69.897  1.00  0.00    -0.550 OA
ATOM      6  O   UNL     1      60.295  59.396  68.493  1.00  0.00    -0.550 OA
ENDBRANCH   3   4
ENDBRANCH   2   3
ENDBRANCH   1   2
BRANCH   1   7
ATOM      7  C   UNL     1      62.634  60.480  71.298  1.00  0.00     0.000 C 
BRANCH   7   8
ATOM      8  C   UNL     1      63.384  60.081  70.020  1.00  0.00    -0.000 C 
BRANCH   8   9
ATOM      9  C   UNL     1      64.516  61.070  69.716  1.00  0.00    -0.003 C 
ATOM     10  C   UNL     1      64.110  62.055  68.624  1.00  0.00     0.004 C 
ENDBRANCH   8   9
ENDBRANCH   7   8
ENDBRANCH   1   7
TORSDOF 6
ENDMDL
MODEL 4
REMARK VINA RESULT:    -4.291      1.674      2.837
REMARK INTER + INTRA:          -6.247
REMARK INTER:                  -5.792
REMARK INTRA:                  -0.455
REMARK UNBOUND:                -0.451
REMARK SMILES CCCCCCCC(=O)[O-]
REMARK SMILES IDX 5 1 6 2 7 3 8 4 9 5 10 6 4 7 3 8 2 9 1 10
REMARK H PARENT
REMARK Flexibility Score: inf
ROOT
ATOM      1  C   UNL     1      60.161  60.956  70.955  1.00  0.00     0.000 C 
ENDROOT
BRANCH   1   2
ATOM      2  C   UNL     1      59.558  60.171  69.776  1.00  0.00     0.006 C 
BRANCH   2   3
ATOM      3  C   UNL     1      59.316  58.681  70.077  1.00  0.00     0.053 C 
BRANCH   3   4
ATOM      4  C   UNL     1      60.582  57.936  70.372  1.00  0.00     0.041 C 
ATOM      5  O   UNL     1      61.390  57.663  69.445  1.00  0.00    -0.550 OA
ATOM      6  O   UNL     1      60.855  57.515  71.666  1.00  0.00    -0.550 OA
ENDBRANCH   3   4
ENDBRANCH   2   3
ENDBRANCH   1   2
BRANCH   1   7
ATOM      7  C   UNL     1      61.503  61.619  70.613  1.00  0.00     0.000 C 
BRANCH   7   8
ATOM      8  C   UNL     1      62.678  60.783  71.135  1.00  0.00    -0.000 C 
BRANCH   8   9
ATOM      9  C   UNL     1      63.591  60.338  69.987  1.00  0.00    -0.003 C 
ATOM     10  C   UNL     1      64.691  61.362  69.727  1.00  0.00     0.004 C 
ENDBRANCH   8   9
ENDBRANCH   7   8
ENDBRANCH   1   7
TORSDOF 6
ENDMDL
MODEL 5
REMARK VINA RESULT:    -4.277      5.091      6.739
REMARK INTER + INTRA:          -6.228
REMARK INTER:                  -6.028
REMARK INTRA:                  -0.200
REMARK UNBOUND:                -0.451
REMARK SMILES CCCCCCCC(=O)[O-]
REMARK SMILES IDX 5 1 6 2 7 3 8 4 9 5 10 6 4 7 3 8 2 9 1 10
REMARK H PARENT
REMARK Flexibility Score: inf
ROOT
ATOM      1  C   UNL     1      65.314  62.366  71.534  1.00  0.00     0.000 C 
ENDROOT
BRANCH   1   2
ATOM      2  C   UNL     1      66.450  63.229  72.111  1.00  0.00     0.006 C 
BRANCH   2   3
ATOM      3  C   UNL     1      67.750  63.180  71.288  1.00  0.00     0.053 C 
BRANCH   3   4
ATOM      4  C   UNL     1      68.629  64.371  71.523  1.00  0.00     0.041 C 
ATOM      5  O   UNL     1      69.530  64.670  70.695  1.00  0.00    -0.550 OA
ATOM      6  O   UNL     1      68.474  65.133  72.673  1.00  0.00    -0.550 OA
ENDBRANCH   3   4
ENDBRANCH   2   3
ENDBRANCH   1   2
BRANCH   1   7
ATOM      7  C   UNL     1      65.554  61.949  70.077  1.00  0.00     0.000 C 
BRANCH   7   8
ATOM      8  C   UNL     1      64.229  61.649  69.364  1.00  0.00    -0.000 C 
BRANCH   8   9
ATOM      9  C   UNL     1      63.631  60.324  69.850  1.00  0.00    -0.003 C 
ATOM     10  C   UNL     1      62.177  60.181  69.410  1.00  0.00     0.004 C 
ENDBRANCH   8   9
ENDBRANCH   7   8
ENDBRANCH   1   7
TORSDOF 6
ENDMDL
MODEL 6
REMARK VINA RESULT:    -4.266      1.883      2.623
REMARK INTER + INTRA:          -6.214
REMARK INTER:                  -5.820
REMARK INTRA:                  -0.394
REMARK UNBOUND:                -0.451
REMARK SMILES CCCCCCCC(=O)[O-]
REMARK SMILES IDX 5 1 6 2 7 3 8 4 9 5 10 6 4 7 3 8 2 9 1 10
REMARK H PARENT
REMARK Flexibility Score: inf
ROOT
ATOM      1  C   UNL     1      62.051  60.464  71.411  1.00  0.00     0.000 C 
ENDROOT
BRANCH   1   2
ATOM      2  C   UNL     1      60.857  61.205  70.784  1.00  0.00     0.006 C 
BRANCH   2   3
ATOM      3  C   UNL     1      59.505  60.497  70.987  1.00  0.00     0.053 C 
BRANCH   3   4
ATOM      4  C   UNL     1      59.242  59.444  69.955  1.00  0.00     0.041 C 
ATOM      5  O   UNL     1      59.319  58.223  70.257  1.00  0.00    -0.550 OA
ATOM      6  O   UNL     1      58.940  59.810  68.650  1.00  0.00    -0.550 OA
ENDBRANCH   3   4
ENDBRANCH   2   3
ENDBRANCH   1   2
BRANCH   1   7
ATOM      7  C   UNL     1      63.157  60.138  70.398  1.00  0.00     0.000 C 
BRANCH   7   8
ATOM      8  C   UNL     1      62.953  60.917  69.092  1.00  0.00    -0.000 C 
BRANCH   8   9
ATOM      9  C   UNL     1      64.023  62.003  68.927  1.00  0.00    -0.003 C 
ATOM     10  C   UNL     1      65.338  61.587  69.581  1.00  0.00     0.004 C 
ENDBRANCH   8   9
ENDBRANCH   7   8
ENDBRANCH   1   7
TORSDOF 6
ENDMDL
MODEL 7
REMARK VINA RESULT:    -4.161      1.346      1.998
REMARK INTER + INTRA:          -6.071
REMARK INTER:                  -5.823
REMARK INTRA:                  -0.249
REMARK UNBOUND:                -0.451
REMARK SMILES CCCCCCCC(=O)[O-]
REMARK SMILES IDX 5 1 6 2 7 3 8 4 9 5 10 6 4 7 3 8 2 9 1 10
REMARK H PARENT
REMARK Flexibility Score: inf
ROOT
ATOM      1  C   UNL     1      63.742  60.196  69.881  1.00  0.00     0.000 C 
ENDROOT
BRANCH   1   2
ATOM      2  C   UNL     1      62.289  59.699  69.989  1.00  0.00     0.006 C 
BRANCH   2   3
ATOM      3  C   UNL     1      62.165  58.201  70.321  1.00  0.00     0.053 C 
BRANCH   3   4
ATOM      4  C   UNL     1      60.855  57.857  70.962  1.00  0.00     0.041 C 
ATOM      5  O   UNL     1      59.798  57.836  70.278  1.00  0.00    -0.550 OA
ATOM      6  O   UNL     1      60.796  57.590  72.324  1.00  0.00    -0.550 OA
ENDBRANCH   3   4
ENDBRANCH   2   3
ENDBRANCH   1   2
BRANCH   1   7
ATOM      7  C   UNL     1      64.029  61.412  70.773  1.00  0.00     0.000 C 
BRANCH   7   8
ATOM      8  C   UNL     1      63.454  61.209  72.181  1.00  0.00    -0.000 C 
BRANCH   8   9
ATOM      9  C   UNL     1      64.271  61.979  73.226  1.00  0.00    -0.003 C 
ATOM     10  C   UNL     1      65.357  62.823  72.565  1.00  0.00     0.004 C 
ENDBRANCH   8   9
ENDBRANCH   7   8
ENDBRANCH   1   7
TORSDOF 6
ENDMDL
MODEL 8
REMARK VINA RESULT:    -4.122      2.192      2.712
REMARK INTER + INTRA:          -6.019
REMARK INTER:                  -5.627
REMARK INTRA:                  -0.392
REMARK UNBOUND:                -0.451
REMARK SMILES CCCCCCCC(=O)[O-]
REMARK SMILES IDX 5 1 6 2 7 3 8 4 9 5 10 6 4 7 3 8 2 9 1 10
REMARK H PARENT
REMARK Flexibility Score: inf
ROOT
ATOM      1  C   UNL     1      62.917  58.854  70.240  1.00  0.00     0.000 C 
ENDROOT
BRANCH   1   2
ATOM      2  C   UNL     1      61.512  58.365  69.846  1.00  0.00     0.006 C 
BRANCH   2   3
ATOM      3  C   UNL     1      60.675  59.413  69.092  1.00  0.00     0.053 C 
BRANCH   3   4
ATOM      4  C   UNL     1      59.397  59.752  69.797  1.00  0.00     0.041 C 
ATOM      5  O   UNL     1      59.378  60.644  70.685  1.00  0.00    -0.550 OA
ATOM      6  O   UNL     1      58.232  59.058  69.496  1.00  0.00    -0.550 OA
ENDBRANCH   3   4
ENDBRANCH   2   3
ENDBRANCH   1   2
BRANCH   1   7
ATOM      7  C   UNL     1      63.166  60.325  69.879  1.00  0.00     0.000 C 
BRANCH   7   8
ATOM      8  C   UNL     1      63.749  61.093  71.071  1.00  0.00    -0.000 C 
BRANCH   8   9
ATOM      9  C   UNL     1      62.943  60.824  72.347  1.00  0.00    -0.003 C 
ATOM     10  C   UNL     1      63.558  61.533  73.550  1.00  0.00     0.004 C 
ENDBRANCH   8   9
ENDBRANCH   7   8
ENDBRANCH   1   7
TORSDOF 6
ENDMDL
MODEL 9
REMARK VINA RESULT:    -4.107      3.971      5.413
REMARK INTER + INTRA:          -5.998
REMARK INTER:                  -5.614
REMARK INTRA:                  -0.384
REMARK UNBOUND:                -0.451
REMARK SMILES CCCCCCCC(=O)[O-]
REMARK SMILES IDX 5 1 6 2 7 3 8 4 9 5 10 6 4 7 3 8 2 9 1 10
REMARK H PARENT
REMARK Flexibility Score: inf
ROOT
ATOM      1  C   UNL     1      63.955  61.688  68.937  1.00  0.00     0.000 C 
ENDROOT
BRANCH   1   2
ATOM      2  C   UNL     1      65.354  61.566  69.568  1.00  0.00     0.006 C 
BRANCH   2   3
ATOM      3  C   UNL     1      65.507  62.322  70.900  1.00  0.00     0.053 C 
BRANCH   3   4
ATOM      4  C   UNL     1      66.686  63.245  70.911  1.00  0.00     0.041 C 
ATOM      5  O   UNL     1      67.776  62.880  71.426  1.00  0.00    -0.550 OA
ATOM      6  O   UNL     1      66.573  64.523  70.379  1.00  0.00    -0.550 OA
ENDBRANCH   3   4
ENDBRANCH   2   3
ENDBRANCH   1   2
BRANCH   1   7
ATOM      7  C   UNL     1      62.912  62.277  69.897  1.00  0.00     0.000 C 
BRANCH   7   8
ATOM      8  C   UNL     1      61.904  61.207  70.336  1.00  0.00    -0.000 C 
BRANCH   8   9
ATOM      9  C   UNL     1      61.983  59.971  69.432  1.00  0.00    -0.003 C 
ATOM     10  C   UNL     1      62.311  58.718  70.238  1.00  0.00     0.004 C 
ENDBRANCH   8   9
ENDBRANCH   7   8
ENDBRANCH   1   7
TORSDOF 6
ENDMDL
