MODEL 1
REMARK VINA RESULT:    -4.116      0.000      0.000
REMARK INTER + INTRA:          -6.729
REMARK INTER:                  -6.282
REMARK INTRA:                  -0.447
REMARK UNBOUND:                -0.447
REMARK SMILES CC1=CCC[C@@H](C)C(=O)C[C@@H](C(C)C)C(=O)C1
REMARK SMILES IDX 8 1 9 2 6 3 7 4 5 5 4 6 3 7 2 8 1 9 10 11 11 12 15 13 16 14
REMARK SMILES IDX 17 15 12 17 13 18 14 19
REMARK H PARENT
REMARK Flexibility Score: 70.00
ROOT
ATOM      1  C   UNL     1       8.316  -3.707  38.702  1.00  0.00     0.136 C 
ATOM      2  O   UNL     1       8.597  -3.939  37.536  1.00  0.00    -0.299 OA
ENDROOT
BRANCH   1   3
ATOM      3  C   UNL     1       7.284  -2.614  39.012  1.00  0.00     0.053 C 
ATOM      4  C   UNL     1       6.320  -2.414  37.837  1.00  0.00     0.016 C 
BRANCH   3   5
ATOM      5  C   UNL     1       8.110  -1.382  39.315  1.00  0.00     0.015 C 
BRANCH   5   6
ATOM      6  C   UNL     1       8.199  -0.616  40.601  1.00  0.00     0.028 C 
BRANCH   6   7
ATOM      7  C   UNL     1       9.656  -0.655  41.082  1.00  0.00    -0.028 C 
ATOM      8  C   UNL     1      10.240  -1.382  42.105  1.00  0.00    -0.070 CG0
ATOM      9  C   UNL     1      11.705  -1.094  42.350  1.00  0.00     0.039 C 
ATOM     10  G   UNL     1       9.585  -2.461  43.016  1.00  0.00     0.000 G0
ENDBRANCH   6   7
ENDBRANCH   5   6
ENDBRANCH   3   5
ENDBRANCH   1   3
BRANCH   1  11
ATOM     11  C   UNL     1       8.997  -4.532  39.809  1.00  0.00     0.087 C 
BRANCH  11  12
ATOM     12  C   UNL     1       8.468  -4.274  41.270  1.00  0.00     0.066 C 
BRANCH  12  13
ATOM     13  C   UNL     1       9.484  -3.857  42.370  1.00  0.00     0.140 C 
ATOM     14  O   UNL     1      10.330  -4.681  42.687  1.00  0.00    -0.299 OA
BRANCH  13  15
ATOM     15  C   UNL     1       9.589  -2.468  43.013  1.00  0.00     0.106 CG0
ATOM     16  G   UNL     1      10.238  -1.383  42.104  1.00  0.00     0.000 G0
ENDBRANCH  13  15
ENDBRANCH  12  13
BRANCH  12  17
ATOM     17  C   UNL     1       7.529  -5.428  41.744  1.00  0.00    -0.006 C 
ATOM     18  C   UNL     1       7.147  -5.289  43.226  1.00  0.00     0.008 C 
ATOM     19  C   UNL     1       8.081  -6.837  41.469  1.00  0.00     0.008 C 
ENDBRANCH  12  17
ENDBRANCH  11  12
ENDBRANCH   1  11
TORSDOF 1
ENDMDL
MODEL 2
REMARK VINA RESULT:    -3.470     15.667     17.597
REMARK INTER + INTRA:          -5.743
REMARK INTER:                  -4.887
REMARK INTRA:                  -0.855
REMARK UNBOUND:                -0.447
REMARK SMILES CC1=CCC[C@@H](C)C(=O)C[C@@H](C(C)C)C(=O)C1
REMARK SMILES IDX 8 1 9 2 6 3 7 4 5 5 4 6 3 7 2 8 1 9 10 11 11 12 15 13 16 14
REMARK SMILES IDX 17 15 12 17 13 18 14 19
REMARK H PARENT
REMARK Flexibility Score: 70.00
ROOT
ATOM      1  C   UNL     1      22.595 -13.217  46.050  1.00  0.00     0.136 C 
ATOM      2  O   UNL     1      22.450 -13.514  47.226  1.00  0.00    -0.299 OA
ENDROOT
BRANCH   1   3
ATOM      3  C   UNL     1      23.689 -13.922  45.237  1.00  0.00     0.053 C 
ATOM      4  C   UNL     1      25.076 -13.663  45.836  1.00  0.00     0.016 C 
BRANCH   3   5
ATOM      5  C   UNL     1      23.540 -13.371  43.834  1.00  0.00     0.015 C 
BRANCH   5   6
ATOM      6  C   UNL     1      23.000 -14.062  42.618  1.00  0.00     0.028 C 
BRANCH   6   7
ATOM      7  C   UNL     1      22.503 -15.452  43.035  1.00  0.00    -0.028 C 
ATOM      8  C   UNL     1      21.270 -15.852  43.521  1.00  0.00    -0.070 CG0
ATOM      9  C   UNL     1      21.169 -17.309  43.914  1.00  0.00     0.039 C 
ATOM     10  G   UNL     1      19.980 -14.996  43.697  1.00  0.00     0.000 G0
ENDBRANCH   6   7
ENDBRANCH   5   6
ENDBRANCH   3   5
ENDBRANCH   1   3
BRANCH   1  11
ATOM     11  C   UNL     1      21.661 -12.161  45.430  1.00  0.00     0.087 C 
BRANCH  11  12
ATOM     12  C   UNL     1      20.193 -12.645  45.133  1.00  0.00     0.066 C 
BRANCH  12  13
ATOM     13  C   UNL     1      19.919 -14.170  45.009  1.00  0.00     0.140 C 
ATOM     14  O   UNL     1      19.547 -14.753  46.018  1.00  0.00    -0.299 OA
BRANCH  13  15
ATOM     15  C   UNL     1      19.965 -14.987  43.711  1.00  0.00     0.106 CG0
ATOM     16  G   UNL     1      21.250 -15.850  43.536  1.00  0.00     0.000 G0
ENDBRANCH  13  15
ENDBRANCH  12  13
BRANCH  12  17
ATOM     17  C   UNL     1      19.558 -11.838  43.957  1.00  0.00    -0.006 C 
ATOM     18  C   UNL     1      20.624 -11.247  43.021  1.00  0.00     0.008 C 
ATOM     19  C   UNL     1      18.581 -10.738  44.407  1.00  0.00     0.008 C 
ENDBRANCH  12  17
ENDBRANCH  11  12
ENDBRANCH   1  11
TORSDOF 1
ENDMDL
MODEL 3
REMARK VINA RESULT:    -3.408     16.669     18.196
REMARK INTER + INTRA:          -5.648
REMARK INTER:                  -5.307
REMARK INTRA:                  -0.340
REMARK UNBOUND:                -0.447
REMARK SMILES CC1=CCC[C@@H](C)C(=O)C[C@@H](C(C)C)C(=O)C1
REMARK SMILES IDX 8 1 9 2 6 3 7 4 5 5 4 6 3 7 2 8 1 9 10 11 11 12 15 13 16 14
REMARK SMILES IDX 17 15 12 17 13 18 14 19
REMARK H PARENT
REMARK Flexibility Score: 70.00
ROOT
ATOM      1  C   UNL     1      23.665 -13.489  46.890  1.00  0.00     0.136 C 
ATOM      2  O   UNL     1      24.701 -14.133  46.842  1.00  0.00    -0.299 OA
ENDROOT
BRANCH   1   3
ATOM      3  C   UNL     1      23.745 -11.971  47.102  1.00  0.00     0.053 C 
ATOM      4  C   UNL     1      22.391 -11.303  46.835  1.00  0.00     0.016 C 
BRANCH   3   5
ATOM      5  C   UNL     1      24.829 -11.507  46.152  1.00  0.00     0.015 C 
BRANCH   5   6
ATOM      6  C   UNL     1      24.707 -10.569  44.989  1.00  0.00     0.028 C 
BRANCH   6   7
ATOM      7  C   UNL     1      25.084 -11.333  43.713  1.00  0.00    -0.028 C 
ATOM      8  C   UNL     1      24.393 -12.312  43.021  1.00  0.00    -0.070 CG0
ATOM      9  C   UNL     1      25.125 -12.908  41.838  1.00  0.00     0.039 C 
ATOM     10  G   UNL     1      22.963 -12.861  43.298  1.00  0.00     0.000 G0
ENDBRANCH   6   7
ENDBRANCH   5   6
ENDBRANCH   3   5
ENDBRANCH   1   3
BRANCH   1  11
ATOM     11  C   UNL     1      22.323 -14.225  46.720  1.00  0.00     0.087 C 
BRANCH  11  12
ATOM     12  C   UNL     1      21.887 -14.503  45.232  1.00  0.00     0.066 C 
BRANCH  12  13
ATOM     13  C   UNL     1      22.890 -14.188  44.088  1.00  0.00     0.140 C 
ATOM     14  O   UNL     1      23.639 -15.089  43.739  1.00  0.00    -0.299 OA
BRANCH  13  15
ATOM     15  C   UNL     1      22.948 -12.884  43.280  1.00  0.00     0.106 CG0
ATOM     16  G   UNL     1      24.387 -12.339  43.037  1.00  0.00     0.000 G0
ENDBRANCH  13  15
ENDBRANCH  12  13
BRANCH  12  17
ATOM     17  C   UNL     1      20.466 -13.926  44.943  1.00  0.00    -0.006 C 
ATOM     18  C   UNL     1      19.487 -14.196  46.097  1.00  0.00     0.008 C 
ATOM     19  C   UNL     1      19.857 -14.397  43.611  1.00  0.00     0.008 C 
ENDBRANCH  12  17
ENDBRANCH  11  12
ENDBRANCH   1  11
TORSDOF 1
ENDMDL
MODEL 4
REMARK VINA RESULT:    -3.397      1.561      2.440
REMARK INTER + INTRA:          -5.631
REMARK INTER:                  -5.172
REMARK INTRA:                  -0.459
REMARK UNBOUND:                -0.447
REMARK SMILES CC1=CCC[C@@H](C)C(=O)C[C@@H](C(C)C)C(=O)C1
REMARK SMILES IDX 8 1 9 2 6 3 7 4 5 5 4 6 3 7 2 8 1 9 10 11 11 12 15 13 16 14
REMARK SMILES IDX 17 15 12 17 13 18 14 19
REMARK H PARENT
REMARK Flexibility Score: 70.00
ROOT
ATOM      1  C   UNL     1       9.946  -4.095  38.996  1.00  0.00     0.136 C 
ATOM      2  O   UNL     1       9.230  -3.429  38.265  1.00  0.00    -0.299 OA
ENDROOT
BRANCH   1   3
ATOM      3  C   UNL     1      11.469  -3.940  38.886  1.00  0.00     0.053 C 
ATOM      4  C   UNL     1      12.195  -4.959  39.771  1.00  0.00     0.016 C 
BRANCH   3   5
ATOM      5  C   UNL     1      11.739  -2.506  39.293  1.00  0.00     0.015 C 
BRANCH   5   6
ATOM      6  C   UNL     1      11.850  -1.938  40.676  1.00  0.00     0.028 C 
BRANCH   6   7
ATOM      7  C   UNL     1      10.669  -0.984  40.900  1.00  0.00    -0.028 C 
ATOM      8  C   UNL     1       9.579  -1.095  41.746  1.00  0.00    -0.070 CG0
ATOM      9  C   UNL     1       8.555   0.014  41.633  1.00  0.00     0.039 C 
ATOM     10  G   UNL     1       9.286  -2.202  42.801  1.00  0.00     0.000 G0
ENDBRANCH   6   7
ENDBRANCH   5   6
ENDBRANCH   3   5
ENDBRANCH   1   3
BRANCH   1  11
ATOM     11  C   UNL     1       9.289  -5.050  40.009  1.00  0.00     0.087 C 
BRANCH  11  12
ATOM     12  C   UNL     1       8.576  -4.357  41.230  1.00  0.00     0.066 C 
BRANCH  12  13
ATOM     13  C   UNL     1       9.450  -3.653  42.305  1.00  0.00     0.140 C 
ATOM     14  O   UNL     1      10.424  -4.266  42.720  1.00  0.00    -0.299 OA
BRANCH  13  15
ATOM     15  C   UNL     1       9.265  -2.216  42.811  1.00  0.00     0.106 CG0
ATOM     16  G   UNL     1       9.577  -1.115  41.754  1.00  0.00     0.000 G0
ENDBRANCH  13  15
ENDBRANCH  12  13
BRANCH  12  17
ATOM     17  C   UNL     1       7.505  -5.297  41.868  1.00  0.00    -0.006 C 
ATOM     18  C   UNL     1       7.162  -4.888  43.310  1.00  0.00     0.008 C 
ATOM     19  C   UNL     1       7.870  -6.791  41.814  1.00  0.00     0.008 C 
ENDBRANCH  12  17
ENDBRANCH  11  12
ENDBRANCH   1  11
TORSDOF 1
ENDMDL
MODEL 5
REMARK VINA RESULT:    -3.362     17.154     18.891
REMARK INTER + INTRA:          -5.577
REMARK INTER:                  -5.013
REMARK INTRA:                  -0.565
REMARK UNBOUND:                -0.447
REMARK SMILES CC1=CCC[C@@H](C)C(=O)C[C@@H](C(C)C)C(=O)C1
REMARK SMILES IDX 8 1 9 2 6 3 7 4 5 5 4 6 3 7 2 8 1 9 10 11 11 12 15 13 16 14
REMARK SMILES IDX 17 15 12 17 13 18 14 19
REMARK H PARENT
REMARK Flexibility Score: 70.00
ROOT
ATOM      1  C   UNL     1      21.201 -13.393  45.842  1.00  0.00     0.136 C 
ATOM      2  O   UNL     1      20.457 -14.290  46.207  1.00  0.00    -0.299 OA
ENDROOT
BRANCH   1   3
ATOM      3  C   UNL     1      20.868 -12.632  44.552  1.00  0.00     0.053 C 
ATOM      4  C   UNL     1      19.469 -12.011  44.621  1.00  0.00     0.016 C 
BRANCH   3   5
ATOM      5  C   UNL     1      21.003 -13.664  43.452  1.00  0.00     0.015 C 
BRANCH   5   6
ATOM      6  C   UNL     1      22.257 -14.214  42.842  1.00  0.00     0.028 C 
BRANCH   6   7
ATOM      7  C   UNL     1      22.458 -15.644  43.362  1.00  0.00    -0.028 C 
ATOM      8  C   UNL     1      23.502 -16.192  44.087  1.00  0.00    -0.070 CG0
ATOM      9  C   UNL     1      23.398 -17.678  44.351  1.00  0.00     0.039 C 
ATOM     10  G   UNL     1      24.753 -15.471  44.671  1.00  0.00     0.000 G0
ENDBRANCH   6   7
ENDBRANCH   5   6
ENDBRANCH   3   5
ENDBRANCH   1   3
BRANCH   1  11
ATOM     11  C   UNL     1      22.432 -13.053  46.703  1.00  0.00     0.087 C 
BRANCH  11  12
ATOM     12  C   UNL     1      23.826 -13.245  45.997  1.00  0.00     0.066 C 
BRANCH  12  13
ATOM     13  C   UNL     1      24.456 -14.666  45.960  1.00  0.00     0.140 C 
ATOM     14  O   UNL     1      24.649 -15.218  47.034  1.00  0.00    -0.299 OA
BRANCH  13  15
ATOM     15  C   UNL     1      24.752 -15.482  44.694  1.00  0.00     0.106 CG0
ATOM     16  G   UNL     1      23.509 -16.183  44.072  1.00  0.00     0.000 G0
ENDBRANCH  13  15
ENDBRANCH  12  13
BRANCH  12  17
ATOM     17  C   UNL     1      24.850 -12.162  46.462  1.00  0.00    -0.006 C 
ATOM     18  C   UNL     1      24.864 -12.000  47.991  1.00  0.00     0.008 C 
ATOM     19  C   UNL     1      24.665 -10.793  45.786  1.00  0.00     0.008 C 
ENDBRANCH  12  17
ENDBRANCH  11  12
ENDBRANCH   1  11
TORSDOF 1
ENDMDL
MODEL 6
REMARK VINA RESULT:    -3.336     15.995     17.658
REMARK INTER + INTRA:          -5.539
REMARK INTER:                  -4.968
REMARK INTRA:                  -0.570
REMARK UNBOUND:                -0.447
REMARK SMILES CC1=CCC[C@@H](C)C(=O)C[C@@H](C(C)C)C(=O)C1
REMARK SMILES IDX 8 1 9 2 6 3 7 4 5 5 4 6 3 7 2 8 1 9 10 11 11 12 15 13 16 14
REMARK SMILES IDX 17 15 12 17 13 18 14 19
REMARK H PARENT
REMARK Flexibility Score: 70.00
ROOT
ATOM      1  C   UNL     1      20.764 -14.458  45.583  1.00  0.00     0.136 C 
ATOM      2  O   UNL     1      19.732 -14.206  46.185  1.00  0.00    -0.299 OA
ENDROOT
BRANCH   1   3
ATOM      3  C   UNL     1      20.693 -14.749  44.078  1.00  0.00     0.053 C 
ATOM      4  C   UNL     1      19.637 -15.816  43.770  1.00  0.00     0.016 C 
BRANCH   3   5
ATOM      5  C   UNL     1      22.095 -15.181  43.704  1.00  0.00     0.015 C 
BRANCH   5   6
ATOM      6  C   UNL     1      23.057 -14.511  42.769  1.00  0.00     0.028 C 
BRANCH   6   7
ATOM      7  C   UNL     1      22.497 -13.126  42.416  1.00  0.00    -0.028 C 
ATOM      8  C   UNL     1      22.550 -11.935  43.118  1.00  0.00    -0.070 CG0
ATOM      9  C   UNL     1      21.801 -10.779  42.492  1.00  0.00     0.039 C 
ATOM     10  G   UNL     1      23.292 -11.636  44.455  1.00  0.00     0.000 G0
ENDBRANCH   6   7
ENDBRANCH   5   6
ENDBRANCH   3   5
ENDBRANCH   1   3
BRANCH   1  11
ATOM     11  C   UNL     1      22.095 -14.456  46.358  1.00  0.00     0.087 C 
BRANCH  11  12
ATOM     12  C   UNL     1      22.659 -13.035  46.733  1.00  0.00     0.066 C 
BRANCH  12  13
ATOM     13  C   UNL     1      22.460 -11.864  45.731  1.00  0.00     0.140 C 
ATOM     14  O   UNL     1      21.629 -11.015  46.023  1.00  0.00    -0.299 OA
BRANCH  13  15
ATOM     15  C   UNL     1      23.291 -11.617  44.464  1.00  0.00     0.106 CG0
ATOM     16  G   UNL     1      22.548 -11.935  43.133  1.00  0.00     0.000 G0
ENDBRANCH  13  15
ENDBRANCH  12  13
BRANCH  12  17
ATOM     17  C   UNL     1      24.132 -13.127  47.243  1.00  0.00    -0.006 C 
ATOM     18  C   UNL     1      24.729 -11.742  47.539  1.00  0.00     0.008 C 
ATOM     19  C   UNL     1      25.068 -13.920  46.315  1.00  0.00     0.008 C 
ENDBRANCH  12  17
ENDBRANCH  11  12
ENDBRANCH   1  11
TORSDOF 1
ENDMDL
MODEL 7
REMARK VINA RESULT:    -3.280     17.643     19.488
REMARK INTER + INTRA:          -5.453
REMARK INTER:                  -5.027
REMARK INTRA:                  -0.426
REMARK UNBOUND:                -0.447
REMARK SMILES CC1=CCC[C@@H](C)C(=O)C[C@@H](C(C)C)C(=O)C1
REMARK SMILES IDX 8 1 9 2 6 3 7 4 5 5 4 6 3 7 2 8 1 9 10 11 11 12 15 13 16 14
REMARK SMILES IDX 17 15 12 17 13 18 14 19
REMARK H PARENT
REMARK Flexibility Score: 70.00
ROOT
ATOM      1  C   UNL     1      24.123 -12.483  45.439  1.00  0.00     0.136 C 
ATOM      2  O   UNL     1      25.073 -11.805  45.077  1.00  0.00    -0.299 OA
ENDROOT
BRANCH   1   3
ATOM      3  C   UNL     1      24.160 -13.130  46.829  1.00  0.00     0.053 C 
ATOM      4  C   UNL     1      24.912 -12.246  47.831  1.00  0.00     0.016 C 
BRANCH   3   5
ATOM      5  C   UNL     1      24.826 -14.472  46.611  1.00  0.00     0.015 C 
BRANCH   5   6
ATOM      6  C   UNL     1      24.333 -15.830  47.011  1.00  0.00     0.028 C 
BRANCH   6   7
ATOM      7  C   UNL     1      24.662 -16.814  45.880  1.00  0.00    -0.028 C 
ATOM      8  C   UNL     1      23.908 -17.202  44.787  1.00  0.00    -0.070 CG0
ATOM      9  C   UNL     1      24.531 -18.273  43.917  1.00  0.00     0.039 C 
ATOM     10  G   UNL     1      22.516 -16.668  44.336  1.00  0.00     0.000 G0
ENDBRANCH   6   7
ENDBRANCH   5   6
ENDBRANCH   3   5
ENDBRANCH   1   3
BRANCH   1  11
ATOM     11  C   UNL     1      22.922 -12.645  44.488  1.00  0.00     0.087 C 
BRANCH  11  12
ATOM     12  C   UNL     1      22.096 -13.974  44.661  1.00  0.00     0.066 C 
BRANCH  12  13
ATOM     13  C   UNL     1      22.504 -15.221  43.827  1.00  0.00     0.140 C 
ATOM     14  O   UNL     1      22.934 -15.021  42.700  1.00  0.00    -0.299 OA
BRANCH  13  15
ATOM     15  C   UNL     1      22.520 -16.671  44.332  1.00  0.00     0.106 CG0
ATOM     16  G   UNL     1      23.924 -17.188  44.764  1.00  0.00     0.000 G0
ENDBRANCH  13  15
ENDBRANCH  12  13
BRANCH  12  17
ATOM     17  C   UNL     1      20.561 -13.699  44.592  1.00  0.00    -0.006 C 
ATOM     18  C   UNL     1      20.252 -12.220  44.309  1.00  0.00     0.008 C 
ATOM     19  C   UNL     1      19.782 -14.176  45.830  1.00  0.00     0.008 C 
ENDBRANCH  12  17
ENDBRANCH  11  12
ENDBRANCH   1  11
TORSDOF 1
ENDMDL
MODEL 8
REMARK VINA RESULT:    -3.154     17.596     19.336
REMARK INTER + INTRA:          -5.260
REMARK INTER:                  -4.714
REMARK INTRA:                  -0.546
REMARK UNBOUND:                -0.447
REMARK SMILES CC1=CCC[C@@H](C)C(=O)C[C@@H](C(C)C)C(=O)C1
REMARK SMILES IDX 8 1 9 2 6 3 7 4 5 5 4 6 3 7 2 8 1 9 10 11 11 12 15 13 16 14
REMARK SMILES IDX 17 15 12 17 13 18 14 19
REMARK H PARENT
REMARK Flexibility Score: 70.00
ROOT
ATOM      1  C   UNL     1      21.365 -13.915  45.615  1.00  0.00     0.136 C 
ATOM      2  O   UNL     1      20.227 -13.897  46.058  1.00  0.00    -0.299 OA
ENDROOT
BRANCH   1   3
ATOM      3  C   UNL     1      22.484 -13.237  46.418  1.00  0.00     0.053 C 
ATOM      4  C   UNL     1      22.132 -11.780  46.737  1.00  0.00     0.016 C 
BRANCH   3   5
ATOM      5  C   UNL     1      23.715 -13.370  45.548  1.00  0.00     0.015 C 
BRANCH   5   6
ATOM      6  C   UNL     1      25.086 -13.833  45.942  1.00  0.00     0.028 C 
BRANCH   6   7
ATOM      7  C   UNL     1      24.957 -15.216  46.595  1.00  0.00    -0.028 C 
ATOM      8  C   UNL     1      24.490 -16.410  46.074  1.00  0.00    -0.070 CG0
ATOM      9  C   UNL     1      24.427 -17.563  47.052  1.00  0.00     0.039 C 
ATOM     10  G   UNL     1      24.039 -16.714  44.615  1.00  0.00     0.000 G0
ENDBRANCH   6   7
ENDBRANCH   5   6
ENDBRANCH   3   5
ENDBRANCH   1   3
BRANCH   1  11
ATOM     11  C   UNL     1      21.631 -14.631  44.278  1.00  0.00     0.087 C 
BRANCH  11  12
ATOM     12  C   UNL     1      21.360 -16.182  44.275  1.00  0.00     0.066 C 
BRANCH  12  13
ATOM     13  C   UNL     1      22.557 -17.151  44.488  1.00  0.00     0.140 C 
ATOM     14  O   UNL     1      22.315 -18.349  44.463  1.00  0.00    -0.299 OA
BRANCH  13  15
ATOM     15  C   UNL     1      24.030 -16.740  44.615  1.00  0.00     0.106 CG0
ATOM     16  G   UNL     1      24.485 -16.410  46.068  1.00  0.00     0.000 G0
ENDBRANCH  13  15
ENDBRANCH  12  13
BRANCH  12  17
ATOM     17  C   UNL     1      20.477 -16.599  43.057  1.00  0.00    -0.006 C 
ATOM     18  C   UNL     1      20.837 -15.811  41.787  1.00  0.00     0.008 C 
ATOM     19  C   UNL     1      18.964 -16.517  43.321  1.00  0.00     0.008 C 
ENDBRANCH  12  17
ENDBRANCH  11  12
ENDBRANCH   1  11
TORSDOF 1
ENDMDL
MODEL 9
REMARK VINA RESULT:    -3.148     15.811     17.424
REMARK INTER + INTRA:          -5.251
REMARK INTER:                  -4.573
REMARK INTRA:                  -0.678
REMARK UNBOUND:                -0.447
REMARK SMILES CC1=CCC[C@@H](C)C(=O)C[C@@H](C(C)C)C(=O)C1
REMARK SMILES IDX 8 1 9 2 6 3 7 4 5 5 4 6 3 7 2 8 1 9 10 11 11 12 15 13 16 14
REMARK SMILES IDX 17 15 12 17 13 18 14 19
REMARK H PARENT
REMARK Flexibility Score: 70.00
ROOT
ATOM      1  C   UNL     1      21.270 -11.183  44.487  1.00  0.00     0.136 C 
ATOM      2  O   UNL     1      21.315 -10.443  45.458  1.00  0.00    -0.299 OA
ENDROOT
BRANCH   1   3
ATOM      3  C   UNL     1      19.988 -11.983  44.222  1.00  0.00     0.053 C 
ATOM      4  C   UNL     1      18.783 -11.053  44.040  1.00  0.00     0.016 C 
BRANCH   3   5
ATOM      5  C   UNL     1      19.851 -12.897  45.422  1.00  0.00     0.015 C 
BRANCH   5   6
ATOM      6  C   UNL     1      20.178 -14.357  45.519  1.00  0.00     0.028 C 
BRANCH   6   7
ATOM      7  C   UNL     1      21.520 -14.502  46.248  1.00  0.00    -0.028 C 
ATOM      8  C   UNL     1      22.780 -14.791  45.752  1.00  0.00    -0.070 CG0
ATOM      9  C   UNL     1      23.868 -14.943  46.792  1.00  0.00     0.039 C 
ATOM     10  G   UNL     1      23.213 -14.965  44.266  1.00  0.00     0.000 G0
ENDBRANCH   6   7
ENDBRANCH   5   6
ENDBRANCH   3   5
ENDBRANCH   1   3
BRANCH   1  11
ATOM     11  C   UNL     1      22.498 -11.268  43.561  1.00  0.00     0.087 C 
BRANCH  11  12
ATOM     12  C   UNL     1      22.729 -12.664  42.868  1.00  0.00     0.066 C 
BRANCH  12  13
ATOM     13  C   UNL     1      23.669 -13.693  43.555  1.00  0.00     0.140 C 
ATOM     14  O   UNL     1      24.857 -13.410  43.613  1.00  0.00    -0.299 OA
BRANCH  13  15
ATOM     15  C   UNL     1      23.224 -14.979  44.266  1.00  0.00     0.106 CG0
ATOM     16  G   UNL     1      22.778 -14.777  45.745  1.00  0.00     0.000 G0
ENDBRANCH  13  15
ENDBRANCH  12  13
BRANCH  12  17
ATOM     17  C   UNL     1      23.053 -12.495  41.350  1.00  0.00    -0.006 C 
ATOM     18  C   UNL     1      22.869 -11.043  40.879  1.00  0.00     0.008 C 
ATOM     19  C   UNL     1      22.274 -13.453  40.433  1.00  0.00     0.008 C 
ENDBRANCH  12  17
ENDBRANCH  11  12
ENDBRANCH   1  11
TORSDOF 1
ENDMDL
