MODEL 1
REMARK VINA RESULT:    -5.846      0.000      0.000
REMARK INTER + INTRA:          -8.721
REMARK INTER:                  -7.896
REMARK INTRA:                  -0.824
REMARK UNBOUND:                -0.824
REMARK SMILES C=CC(C)=CCC=C(C)CCC=C(C)C
REMARK SMILES IDX 8 1 7 2 9 3 10 4 11 5 12 6 14 7 13 8 15 9 6 10 5 11 3 12
REMARK SMILES IDX 4 13 2 14 1 15
REMARK H PARENT
REMARK Flexibility Score: inf
ROOT
ATOM      1  C   UNL     1       3.790   9.634  11.824  1.00  0.00    -0.077 C 
ATOM      2  C   UNL     1       4.602   8.553  11.905  1.00  0.00    -0.024 C 
ATOM      3  C   UNL     1       4.166  10.742  10.876  1.00  0.00     0.039 C 
ENDROOT
BRANCH   1   4
ATOM      4  C   UNL     1       2.552   9.806  12.682  1.00  0.00     0.034 C 
BRANCH   4   5
ATOM      5  C   UNL     1       2.023  11.243  12.595  1.00  0.00     0.032 C 
BRANCH   5   6
ATOM      6  C   UNL     1       2.274  11.984  13.884  1.00  0.00    -0.028 C 
ATOM      7  C   UNL     1       3.244  13.688  15.364  1.00  0.00     0.039 C 
ATOM      8  C   UNL     1       3.130  13.021  14.018  1.00  0.00    -0.080 C 
ATOM      9  C   UNL     1       3.977  13.512  12.868  1.00  0.00     0.039 C 
ENDBRANCH   5   6
ENDBRANCH   4   5
ENDBRANCH   1   4
BRANCH   2  10
ATOM     10  C   UNL     1       4.373   7.367  12.808  1.00  0.00     0.055 C 
BRANCH  10  11
ATOM     11  C   UNL     1       5.356   6.267  12.497  1.00  0.00    -0.020 C 
ATOM     12  C   UNL     1       6.568   6.103  13.065  1.00  0.00    -0.055 C 
ATOM     13  C   UNL     1       7.383   4.895  12.670  1.00  0.00     0.044 C 
BRANCH  12  14
ATOM     14  C   UNL     1       7.111   7.043  14.082  1.00  0.00    -0.005 C 
ATOM     15  C   UNL     1       8.148   7.846  13.838  1.00  0.00     0.009 C 
ENDBRANCH  12  14
ENDBRANCH  10  11
ENDBRANCH   2  10
TORSDOF 6
ENDMDL
MODEL 2
REMARK VINA RESULT:    -5.521      1.317      2.509
REMARK INTER + INTRA:          -8.281
REMARK INTER:                  -7.517
REMARK INTRA:                  -0.764
REMARK UNBOUND:                -0.824
REMARK SMILES C=CC(C)=CCC=C(C)CCC=C(C)C
REMARK SMILES IDX 8 1 7 2 9 3 10 4 11 5 12 6 14 7 13 8 15 9 6 10 5 11 3 12
REMARK SMILES IDX 4 13 2 14 1 15
REMARK H PARENT
REMARK Flexibility Score: inf
ROOT
ATOM      1  C   UNL     1       3.406  10.217  11.946  1.00  0.00    -0.077 C 
ATOM      2  C   UNL     1       4.000   9.001  11.994  1.00  0.00    -0.024 C 
ATOM      3  C   UNL     1       2.148  10.431  12.746  1.00  0.00     0.039 C 
ENDROOT
BRANCH   1   4
ATOM      4  C   UNL     1       3.916  11.355  11.082  1.00  0.00     0.034 C 
BRANCH   4   5
ATOM      5  C   UNL     1       2.832  12.423  10.892  1.00  0.00     0.032 C 
BRANCH   5   6
ATOM      6  C   UNL     1       3.429  13.806  10.949  1.00  0.00    -0.028 C 
ATOM      7  C   UNL     1       4.392  15.816  11.984  1.00  0.00     0.039 C 
ATOM      8  C   UNL     1       3.765  14.450  12.089  1.00  0.00    -0.080 C 
ATOM      9  C   UNL     1       3.515  13.846  13.451  1.00  0.00     0.039 C 
ENDBRANCH   5   6
ENDBRANCH   4   5
ENDBRANCH   1   4
BRANCH   2  10
ATOM     10  C   UNL     1       5.255   8.623  11.247  1.00  0.00     0.055 C 
BRANCH  10  11
ATOM     11  C   UNL     1       6.425   8.527  12.192  1.00  0.00    -0.020 C 
ATOM     12  C   UNL     1       6.864   7.405  12.799  1.00  0.00    -0.055 C 
ATOM     13  C   UNL     1       8.101   7.498  13.661  1.00  0.00     0.044 C 
BRANCH  12  14
ATOM     14  C   UNL     1       6.198   6.086  12.625  1.00  0.00    -0.005 C 
ATOM     15  C   UNL     1       6.850   4.930  12.754  1.00  0.00     0.009 C 
ENDBRANCH  12  14
ENDBRANCH  10  11
ENDBRANCH   2  10
TORSDOF 6
ENDMDL
MODEL 3
REMARK VINA RESULT:    -4.929      2.162      3.221
REMARK INTER + INTRA:          -7.483
REMARK INTER:                  -6.984
REMARK INTRA:                  -0.499
REMARK UNBOUND:                -0.824
REMARK SMILES C=CC(C)=CCC=C(C)CCC=C(C)C
REMARK SMILES IDX 8 1 7 2 9 3 10 4 11 5 12 6 14 7 13 8 15 9 6 10 5 11 3 12
REMARK SMILES IDX 4 13 2 14 1 15
REMARK H PARENT
REMARK Flexibility Score: inf
ROOT
ATOM      1  C   UNL     1       2.923  11.507  11.448  1.00  0.00    -0.077 C 
ATOM      2  C   UNL     1       3.197  10.195  11.640  1.00  0.00    -0.024 C 
ATOM      3  C   UNL     1       1.485  11.952  11.502  1.00  0.00     0.039 C 
ENDROOT
BRANCH   1   4
ATOM      4  C   UNL     1       3.987  12.538  11.126  1.00  0.00     0.034 C 
BRANCH   4   5
ATOM      5  C   UNL     1       3.357  13.914  10.879  1.00  0.00     0.032 C 
BRANCH   5   6
ATOM      6  C   UNL     1       4.356  15.014  11.135  1.00  0.00    -0.028 C 
ATOM      7  C   UNL     1       5.157  17.311  11.472  1.00  0.00     0.039 C 
ATOM      8  C   UNL     1       4.056  16.331  11.162  1.00  0.00    -0.080 C 
ATOM      9  C   UNL     1       2.663  16.839  10.875  1.00  0.00     0.039 C 
ENDBRANCH   5   6
ENDBRANCH   4   5
ENDBRANCH   1   4
BRANCH   2  10
ATOM     10  C   UNL     1       4.579   9.589  11.609  1.00  0.00     0.055 C 
BRANCH  10  11
ATOM     11  C   UNL     1       4.517   8.116  11.924  1.00  0.00    -0.020 C 
ATOM     12  C   UNL     1       5.567   7.325  12.230  1.00  0.00    -0.055 C 
ATOM     13  C   UNL     1       5.294   5.884  12.585  1.00  0.00     0.044 C 
BRANCH  12  14
ATOM     14  C   UNL     1       6.967   7.828  12.260  1.00  0.00    -0.005 C 
ATOM     15  C   UNL     1       7.622   8.063  13.398  1.00  0.00     0.009 C 
ENDBRANCH  12  14
ENDBRANCH  10  11
ENDBRANCH   2  10
TORSDOF 6
ENDMDL
MODEL 4
REMARK VINA RESULT:    -4.906      1.271      6.204
REMARK INTER + INTRA:          -7.452
REMARK INTER:                  -6.392
REMARK INTRA:                  -1.060
REMARK UNBOUND:                -0.824
REMARK SMILES C=CC(C)=CCC=C(C)CCC=C(C)C
REMARK SMILES IDX 8 1 7 2 9 3 10 4 11 5 12 6 14 7 13 8 15 9 6 10 5 11 3 12
REMARK SMILES IDX 4 13 2 14 1 15
REMARK H PARENT
REMARK Flexibility Score: inf
ROOT
ATOM      1  C   UNL     1       4.584   7.151  12.425  1.00  0.00    -0.077 C 
ATOM      2  C   UNL     1       4.337   8.029  11.424  1.00  0.00    -0.024 C 
ATOM      3  C   UNL     1       4.378   5.683  12.156  1.00  0.00     0.039 C 
ENDROOT
BRANCH   1   4
ATOM      4  C   UNL     1       5.003   7.579  13.818  1.00  0.00     0.034 C 
BRANCH   4   5
ATOM      5  C   UNL     1       6.148   6.700  14.337  1.00  0.00     0.032 C 
BRANCH   5   6
ATOM      6  C   UNL     1       7.448   7.463  14.341  1.00  0.00    -0.028 C 
ATOM      7  C   UNL     1       9.601   8.272  13.476  1.00  0.00     0.039 C 
ATOM      8  C   UNL     1       8.365   7.420  13.348  1.00  0.00    -0.080 C 
ATOM      9  C   UNL     1       8.190   6.537  12.136  1.00  0.00     0.039 C 
ENDBRANCH   5   6
ENDBRANCH   4   5
ENDBRANCH   1   4
BRANCH   2  10
ATOM     10  C   UNL     1       4.485   9.527  11.533  1.00  0.00     0.055 C 
BRANCH  10  11
ATOM     11  C   UNL     1       3.143  10.176  11.752  1.00  0.00    -0.020 C 
ATOM     12  C   UNL     1       2.929  11.473  12.055  1.00  0.00    -0.055 C 
ATOM     13  C   UNL     1       1.502  11.953  12.168  1.00  0.00     0.044 C 
BRANCH  12  14
ATOM     14  C   UNL     1       4.039  12.446  12.246  1.00  0.00    -0.005 C 
ATOM     15  C   UNL     1       4.115  13.250  13.307  1.00  0.00     0.009 C 
ENDBRANCH  12  14
ENDBRANCH  10  11
ENDBRANCH   2  10
TORSDOF 6
ENDMDL
MODEL 5
REMARK VINA RESULT:    -4.873      1.032      6.581
REMARK INTER + INTRA:          -7.407
REMARK INTER:                  -6.942
REMARK INTRA:                  -0.465
REMARK UNBOUND:                -0.824
REMARK SMILES C=CC(C)=CCC=C(C)CCC=C(C)C
REMARK SMILES IDX 8 1 7 2 9 3 10 4 11 5 12 6 14 7 13 8 15 9 6 10 5 11 3 12
REMARK SMILES IDX 4 13 2 14 1 15
REMARK H PARENT
REMARK Flexibility Score: inf
ROOT
ATOM      1  C   UNL     1       4.805   8.948  11.391  1.00  0.00    -0.077 C 
ATOM      2  C   UNL     1       4.338  10.210  11.244  1.00  0.00    -0.024 C 
ATOM      3  C   UNL     1       6.187   8.633  10.881  1.00  0.00     0.039 C 
ENDROOT
BRANCH   1   4
ATOM      4  C   UNL     1       3.983   7.825  11.994  1.00  0.00     0.034 C 
BRANCH   4   5
ATOM      5  C   UNL     1       4.713   7.196  13.187  1.00  0.00     0.032 C 
BRANCH   5   6
ATOM      6  C   UNL     1       5.644   6.102  12.727  1.00  0.00    -0.028 C 
ATOM      7  C   UNL     1       7.761   4.875  12.506  1.00  0.00     0.039 C 
ATOM      8  C   UNL     1       6.967   6.055  13.002  1.00  0.00    -0.080 C 
ATOM      9  C   UNL     1       7.663   7.154  13.770  1.00  0.00     0.039 C 
ENDBRANCH   5   6
ENDBRANCH   4   5
ENDBRANCH   1   4
BRANCH   2  10
ATOM     10  C   UNL     1       2.977  10.685  11.691  1.00  0.00     0.055 C 
BRANCH  10  11
ATOM     11  C   UNL     1       3.094  11.542  12.925  1.00  0.00    -0.020 C 
ATOM     12  C   UNL     1       3.273  12.879  12.948  1.00  0.00    -0.055 C 
ATOM     13  C   UNL     1       3.296  13.572  14.289  1.00  0.00     0.044 C 
BRANCH  12  14
ATOM     14  C   UNL     1       3.412  13.691  11.709  1.00  0.00    -0.005 C 
ATOM     15  C   UNL     1       4.035  14.870  11.689  1.00  0.00     0.009 C 
ENDBRANCH  12  14
ENDBRANCH  10  11
ENDBRANCH   2  10
TORSDOF 6
ENDMDL
MODEL 6
REMARK VINA RESULT:    -4.663      1.203      6.560
REMARK INTER + INTRA:          -7.122
REMARK INTER:                  -6.907
REMARK INTRA:                  -0.215
REMARK UNBOUND:                -0.824
REMARK SMILES C=CC(C)=CCC=C(C)CCC=C(C)C
REMARK SMILES IDX 8 1 7 2 9 3 10 4 11 5 12 6 14 7 13 8 15 9 6 10 5 11 3 12
REMARK SMILES IDX 4 13 2 14 1 15
REMARK H PARENT
REMARK Flexibility Score: inf
ROOT
ATOM      1  C   UNL     1       3.279   9.977  11.987  1.00  0.00    -0.077 C 
ATOM      2  C   UNL     1       3.347  11.326  11.887  1.00  0.00    -0.024 C 
ATOM      3  C   UNL     1       2.407   9.383  13.062  1.00  0.00     0.039 C 
ENDROOT
BRANCH   1   4
ATOM      4  C   UNL     1       4.080   9.039  11.105  1.00  0.00     0.034 C 
BRANCH   4   5
ATOM      5  C   UNL     1       4.668   7.886  11.928  1.00  0.00     0.032 C 
BRANCH   5   6
ATOM      6  C   UNL     1       6.071   8.209  12.375  1.00  0.00    -0.028 C 
ATOM      7  C   UNL     1       8.265   7.816  13.408  1.00  0.00     0.039 C 
ATOM      8  C   UNL     1       6.869   7.365  13.067  1.00  0.00    -0.080 C 
ATOM      9  C   UNL     1       6.393   6.004  13.516  1.00  0.00     0.039 C 
ENDBRANCH   5   6
ENDBRANCH   4   5
ENDBRANCH   1   4
BRANCH   2  10
ATOM     10  C   UNL     1       4.179  12.075  10.875  1.00  0.00     0.055 C 
BRANCH  10  11
ATOM     11  C   UNL     1       3.940  13.560  10.989  1.00  0.00    -0.020 C 
ATOM     12  C   UNL     1       4.005  14.289  12.122  1.00  0.00    -0.055 C 
ATOM     13  C   UNL     1       3.802  15.781  12.022  1.00  0.00     0.044 C 
BRANCH  12  14
ATOM     14  C   UNL     1       4.301  13.684  13.450  1.00  0.00    -0.005 C 
ATOM     15  C   UNL     1       3.386  13.587  14.415  1.00  0.00     0.009 C 
ENDBRANCH  12  14
ENDBRANCH  10  11
ENDBRANCH   2  10
TORSDOF 6
ENDMDL
MODEL 7
REMARK VINA RESULT:    -4.638      1.293      6.421
REMARK INTER + INTRA:          -7.089
REMARK INTER:                  -6.353
REMARK INTRA:                  -0.735
REMARK UNBOUND:                -0.824
REMARK SMILES C=CC(C)=CCC=C(C)CCC=C(C)C
REMARK SMILES IDX 8 1 7 2 9 3 10 4 11 5 12 6 14 7 13 8 15 9 6 10 5 11 3 12
REMARK SMILES IDX 4 13 2 14 1 15
REMARK H PARENT
REMARK Flexibility Score: inf
ROOT
ATOM      1  C   UNL     1       4.863   7.913  11.962  1.00  0.00    -0.077 C 
ATOM      2  C   UNL     1       4.027   8.968  11.814  1.00  0.00    -0.024 C 
ATOM      3  C   UNL     1       4.379   6.721  12.745  1.00  0.00     0.039 C 
ENDROOT
BRANCH   1   4
ATOM      4  C   UNL     1       6.281   7.897  11.425  1.00  0.00     0.034 C 
BRANCH   4   5
ATOM      5  C   UNL     1       7.080   6.736  12.029  1.00  0.00     0.032 C 
BRANCH   5   6
ATOM      6  C   UNL     1       8.418   7.214  12.534  1.00  0.00    -0.028 C 
ATOM      7  C   UNL     1      10.010   8.260  14.086  1.00  0.00     0.039 C 
ATOM      8  C   UNL     1       8.605   7.882  13.695  1.00  0.00    -0.080 C 
ATOM      9  C   UNL     1       7.451   8.269  14.589  1.00  0.00     0.039 C 
ENDBRANCH   5   6
ENDBRANCH   4   5
ENDBRANCH   1   4
BRANCH   2  10
ATOM     10  C   UNL     1       4.363  10.237  11.070  1.00  0.00     0.055 C 
BRANCH  10  11
ATOM     11  C   UNL     1       3.169  11.156  11.027  1.00  0.00    -0.020 C 
ATOM     12  C   UNL     1       2.993  12.265  11.775  1.00  0.00    -0.055 C 
ATOM     13  C   UNL     1       1.757  13.098  11.537  1.00  0.00     0.044 C 
BRANCH  12  14
ATOM     14  C   UNL     1       3.983  12.710  12.794  1.00  0.00    -0.005 C 
ATOM     15  C   UNL     1       3.658  13.510  13.810  1.00  0.00     0.009 C 
ENDBRANCH  12  14
ENDBRANCH  10  11
ENDBRANCH   2  10
TORSDOF 6
ENDMDL
MODEL 8
REMARK VINA RESULT:    -4.354      1.752      6.291
REMARK INTER + INTRA:          -6.705
REMARK INTER:                  -6.165
REMARK INTRA:                  -0.540
REMARK UNBOUND:                -0.824
REMARK SMILES C=CC(C)=CCC=C(C)CCC=C(C)C
REMARK SMILES IDX 8 1 7 2 9 3 10 4 11 5 12 6 14 7 13 8 15 9 6 10 5 11 3 12
REMARK SMILES IDX 4 13 2 14 1 15
REMARK H PARENT
REMARK Flexibility Score: inf
ROOT
ATOM      1  C   UNL     1       7.183   8.170  12.470  1.00  0.00    -0.077 C 
ATOM      2  C   UNL     1       6.257   9.071  12.063  1.00  0.00    -0.024 C 
ATOM      3  C   UNL     1       8.025   8.505  13.673  1.00  0.00     0.039 C 
ENDROOT
BRANCH   1   4
ATOM      4  C   UNL     1       7.449   6.868  11.740  1.00  0.00     0.034 C 
BRANCH   4   5
ATOM      5  C   UNL     1       7.195   5.667  12.659  1.00  0.00     0.032 C 
BRANCH   5   6
ATOM      6  C   UNL     1       5.843   5.059  12.382  1.00  0.00    -0.028 C 
ATOM      7  C   UNL     1       3.394   4.875  12.416  1.00  0.00     0.039 C 
ATOM      8  C   UNL     1       4.669   5.575  12.808  1.00  0.00    -0.080 C 
ATOM      9  C   UNL     1       4.606   6.813  13.671  1.00  0.00     0.039 C 
ENDBRANCH   5   6
ENDBRANCH   4   5
ENDBRANCH   1   4
BRANCH   2  10
ATOM     10  C   UNL     1       5.344   8.892  10.875  1.00  0.00     0.055 C 
BRANCH  10  11
ATOM     11  C   UNL     1       3.919   9.208  11.252  1.00  0.00    -0.020 C 
ATOM     12  C   UNL     1       3.348  10.431  11.242  1.00  0.00    -0.055 C 
ATOM     13  C   UNL     1       1.882  10.536  11.587  1.00  0.00     0.044 C 
BRANCH  12  14
ATOM     14  C   UNL     1       4.098  11.663  10.875  1.00  0.00    -0.005 C 
ATOM     15  C   UNL     1       3.972  12.807  11.548  1.00  0.00     0.009 C 
ENDBRANCH  12  14
ENDBRANCH  10  11
ENDBRANCH   2  10
TORSDOF 6
ENDMDL
MODEL 9
REMARK VINA RESULT:    -3.625      1.248      2.157
REMARK INTER + INTRA:          -5.721
REMARK INTER:                  -5.262
REMARK INTRA:                  -0.459
REMARK UNBOUND:                -0.824
REMARK SMILES C=CC(C)=CCC=C(C)CCC=C(C)C
REMARK SMILES IDX 8 1 7 2 9 3 10 4 11 5 12 6 14 7 13 8 15 9 6 10 5 11 3 12
REMARK SMILES IDX 4 13 2 14 1 15
REMARK H PARENT
REMARK Flexibility Score: inf
ROOT
ATOM      1  C   UNL     1       3.874  10.838  10.986  1.00  0.00    -0.077 C 
ATOM      2  C   UNL     1       4.968  10.078  11.227  1.00  0.00    -0.024 C 
ATOM      3  C   UNL     1       4.050  12.330  10.875  1.00  0.00     0.039 C 
ENDROOT
BRANCH   1   4
ATOM      4  C   UNL     1       2.475  10.265  10.877  1.00  0.00     0.034 C 
BRANCH   4   5
ATOM      5  C   UNL     1       1.957   9.825  12.252  1.00  0.00     0.032 C 
BRANCH   5   6
ATOM      6  C   UNL     1       2.479  10.736  13.336  1.00  0.00    -0.028 C 
ATOM      7  C   UNL     1       2.495  12.661  14.861  1.00  0.00     0.039 C 
ATOM      8  C   UNL     1       1.873  11.876  13.736  1.00  0.00    -0.080 C 
ATOM      9  C   UNL     1       0.612  12.384  13.079  1.00  0.00     0.039 C 
ENDBRANCH   5   6
ENDBRANCH   4   5
ENDBRANCH   1   4
BRANCH   2  10
ATOM     10  C   UNL     1       4.961   8.576  11.375  1.00  0.00     0.055 C 
BRANCH  10  11
ATOM     11  C   UNL     1       6.251   8.099  11.992  1.00  0.00    -0.020 C 
ATOM     12  C   UNL     1       6.404   7.001  12.761  1.00  0.00    -0.055 C 
ATOM     13  C   UNL     1       7.794   6.648  13.231  1.00  0.00     0.044 C 
BRANCH  12  14
ATOM     14  C   UNL     1       5.266   6.115  13.130  1.00  0.00    -0.005 C 
ATOM     15  C   UNL     1       5.138   4.875  12.657  1.00  0.00     0.009 C 
ENDBRANCH  12  14
ENDBRANCH  10  11
ENDBRANCH   2  10
TORSDOF 6
ENDMDL
