MODEL 1
REMARK VINA RESULT:    -5.114      0.000      0.000
REMARK INTER + INTRA:          -4.921
REMARK INTER:                  -5.563
REMARK INTRA:                   0.641
REMARK UNBOUND:                 0.641
REMARK SMILES CC1(C)CC[C@]2(C(=O)[O-])CC[C@]3(C)C(=CC[C@@H]4[C@]5(C)CC[C@H](O)C(C)(C)[C@@H]5CC[C@@]43C)[C@H]2C1
REMARK SMILES IDX 6 1 5 2 10 3 32 4 4 5 11 6 14 7 33 8 2 9 12 10 15 11 1 12
REMARK SMILES IDX 3 13 13 14 30 15 16 16 17 17 29 18 31 19 18 20 28 21 27 22
REMARK SMILES IDX 20 23 19 24 24 25 21 26 22 27 25 28 26 29 7 30 8 31 9 32
REMARK SMILES IDX 23 33
REMARK H PARENT 23 34
REMARK Flexibility Score: inf
ROOT
ATOM      1  C   UNL     1      -6.940   6.712  -0.826  1.00  0.00     0.017 C 
ATOM      2  C   UNL     1      -7.044   6.272   0.657  1.00  0.00     0.014 C 
ATOM      3  C   UNL     1      -6.644   8.226  -0.856  1.00  0.00     0.014 C 
ATOM      4  C   UNL     1      -8.310   6.484  -1.535  1.00  0.00     0.028 C 
ATOM      5  C   UNL     1      -7.472   4.806   0.798  1.00  0.00     0.007 C 
ATOM      6  C   UNL     1      -6.542   8.772  -2.287  1.00  0.00     0.013 C 
ATOM      7  C   UNL     1      -8.277   7.035  -2.983  1.00  0.00    -0.064 C 
ATOM      8  C   UNL     1      -8.800   5.012  -1.371  1.00  0.00     0.015 C 
ATOM      9  C   UNL     1      -8.823   4.509   0.101  1.00  0.00    -0.035 C 
ATOM     10  C   UNL     1      -7.786   8.480  -3.212  1.00  0.00    -0.006 C 
ATOM     11  C   UNL     1      -8.912   6.378  -3.973  1.00  0.00    -0.027 C 
ATOM     12  C   UNL     1      -9.995   5.150   0.884  1.00  0.00     0.011 C 
ATOM     13  C   UNL     1      -9.044   2.980   0.096  1.00  0.00     0.011 C 
ATOM     14  C   UNL     1      -8.949   9.407  -2.739  1.00  0.00     0.017 C 
ATOM     15  C   UNL     1      -7.418   8.761  -4.767  1.00  0.00    -0.020 C 
ATOM     16  C   UNL     1      -8.924   6.791  -5.406  1.00  0.00     0.032 C 
ATOM     17  C   UNL     1      -8.575   8.275  -5.717  1.00  0.00     0.006 C 
ATOM     18  C   UNL     1      -6.114   8.001  -5.192  1.00  0.00     0.008 C 
ATOM     19  C   UNL     1      -7.190  10.302  -4.937  1.00  0.00     0.012 C 
ATOM     20  C   UNL     1      -8.323   8.556  -7.296  1.00  0.00    -0.025 C 
ATOM     21  C   UNL     1      -5.999   7.569  -6.680  1.00  0.00     0.005 C 
ATOM     22  C   UNL     1      -6.768   8.479  -7.674  1.00  0.00     0.003 C 
ATOM     23  C   UNL     1      -9.172   7.557  -8.169  1.00  0.00     0.010 C 
ATOM     24  C   UNL     1      -8.874   9.989  -7.616  1.00  0.00     0.012 C 
ATOM     25  C   UNL     1      -6.417   8.223  -9.215  1.00  0.00    -0.006 C 
ATOM     26  C   UNL     1      -8.838   7.544  -9.659  1.00  0.00     0.033 C 
ATOM     27  C   UNL     1      -7.366   7.184  -9.874  1.00  0.00     0.120 C 
ATOM     28  C   UNL     1      -4.956   7.729  -9.419  1.00  0.00     0.014 C 
ATOM     29  C   UNL     1      -6.487   9.562 -10.008  1.00  0.00     0.014 C 
ENDROOT
BRANCH   1  30
ATOM     30  C   UNL     1      -5.780   5.963  -1.484  1.00  0.00     0.048 C 
ATOM     31  O   UNL     1      -5.699   5.841  -2.733  1.00  0.00    -0.550 OA
ATOM     32  O   UNL     1      -4.768   5.430  -0.692  1.00  0.00    -0.550 OA
ENDBRANCH   1  30
BRANCH  27  33
ATOM     33  O   UNL     1      -7.112   5.896  -9.364  1.00  0.00    -0.393 OA
ATOM     34  H   UNL     1      -7.644   5.258  -9.907  1.00  0.00     0.210 HD
ENDBRANCH  27  33
TORSDOF 2
ENDMDL
MODEL 2
REMARK VINA RESULT:    -4.451      2.732      8.167
REMARK INTER + INTRA:          -4.200
REMARK INTER:                  -5.421
REMARK INTRA:                   1.222
REMARK UNBOUND:                 0.641
REMARK SMILES CC1(C)CC[C@]2(C(=O)[O-])CC[C@]3(C)C(=CC[C@@H]4[C@]5(C)CC[C@H](O)C(C)(C)[C@@H]5CC[C@@]43C)[C@H]2C1
REMARK SMILES IDX 6 1 5 2 10 3 32 4 4 5 11 6 14 7 33 8 2 9 12 10 15 11 1 12
REMARK SMILES IDX 3 13 13 14 30 15 16 16 17 17 29 18 31 19 18 20 28 21 27 22
REMARK SMILES IDX 20 23 19 24 24 25 21 26 22 27 25 28 26 29 7 30 8 31 9 32
REMARK SMILES IDX 23 33
REMARK H PARENT 23 34
REMARK Flexibility Score: inf
ROOT
ATOM      1  C   UNL     1      -7.005   9.345  -4.659  1.00  0.00     0.017 C 
ATOM      2  C   UNL     1      -6.365   9.703  -6.026  1.00  0.00     0.014 C 
ATOM      3  C   UNL     1      -5.916   9.476  -3.574  1.00  0.00     0.014 C 
ATOM      4  C   UNL     1      -7.479   7.860  -4.678  1.00  0.00     0.028 C 
ATOM      5  C   UNL     1      -7.330   9.472  -7.196  1.00  0.00     0.007 C 
ATOM      6  C   UNL     1      -6.443   9.121  -2.176  1.00  0.00     0.013 C 
ATOM      7  C   UNL     1      -8.004   7.435  -3.284  1.00  0.00    -0.064 C 
ATOM      8  C   UNL     1      -8.426   7.578  -5.885  1.00  0.00     0.015 C 
ATOM      9  C   UNL     1      -7.851   8.015  -7.262  1.00  0.00    -0.035 C 
ATOM     10  C   UNL     1      -7.120   7.702  -2.048  1.00  0.00    -0.006 C 
ATOM     11  C   UNL     1      -9.068   6.614  -3.181  1.00  0.00    -0.027 C 
ATOM     12  C   UNL     1      -6.727   7.053  -7.720  1.00  0.00     0.011 C 
ATOM     13  C   UNL     1      -8.981   7.948  -8.312  1.00  0.00     0.011 C 
ATOM     14  C   UNL     1      -5.982   6.634  -2.098  1.00  0.00     0.017 C 
ATOM     15  C   UNL     1      -7.956   7.592  -0.662  1.00  0.00    -0.020 C 
ATOM     16  C   UNL     1      -9.683   6.162  -1.900  1.00  0.00     0.032 C 
ATOM     17  C   UNL     1      -8.805   6.267  -0.619  1.00  0.00     0.006 C 
ATOM     18  C   UNL     1      -8.953   8.792  -0.499  1.00  0.00     0.008 C 
ATOM     19  C   UNL     1      -6.930   7.615   0.523  1.00  0.00     0.012 C 
ATOM     20  C   UNL     1      -9.644   6.041   0.753  1.00  0.00    -0.025 C 
ATOM     21  C   UNL     1     -10.254   8.527   0.306  1.00  0.00     0.005 C 
ATOM     22  C   UNL     1     -10.124   7.428   1.393  1.00  0.00     0.003 C 
ATOM     23  C   UNL     1     -10.865   5.081   0.491  1.00  0.00     0.010 C 
ATOM     24  C   UNL     1      -8.708   5.288   1.761  1.00  0.00     0.012 C 
ATOM     25  C   UNL     1     -11.353   7.357   2.416  1.00  0.00    -0.006 C 
ATOM     26  C   UNL     1     -11.877   4.984   1.630  1.00  0.00     0.033 C 
ATOM     27  C   UNL     1     -12.455   6.365   1.949  1.00  0.00     0.120 C 
ATOM     28  C   UNL     1     -12.025   8.743   2.637  1.00  0.00     0.014 C 
ATOM     29  C   UNL     1     -10.849   6.941   3.830  1.00  0.00     0.014 C 
ENDROOT
BRANCH   1  30
ATOM     30  C   UNL     1      -8.127  10.341  -4.364  1.00  0.00     0.048 C 
ATOM     31  O   UNL     1      -8.582  10.494  -3.201  1.00  0.00    -0.550 OA
ATOM     32  O   UNL     1      -8.640  11.125  -5.392  1.00  0.00    -0.550 OA
ENDBRANCH   1  30
BRANCH  27  33
ATOM     33  O   UNL     1     -13.125   6.873   0.820  1.00  0.00    -0.393 OA
ATOM     34  H   UNL     1     -14.095   6.714   0.961  1.00  0.00     0.210 HD
ENDBRANCH  27  33
TORSDOF 2
ENDMDL
MODEL 3
REMARK VINA RESULT:    -4.276      1.876      3.164
REMARK INTER + INTRA:          -4.009
REMARK INTER:                  -4.317
REMARK INTRA:                   0.307
REMARK UNBOUND:                 0.641
REMARK SMILES CC1(C)CC[C@]2(C(=O)[O-])CC[C@]3(C)C(=CC[C@@H]4[C@]5(C)CC[C@H](O)C(C)(C)[C@@H]5CC[C@@]43C)[C@H]2C1
REMARK SMILES IDX 6 1 5 2 10 3 32 4 4 5 11 6 14 7 33 8 2 9 12 10 15 11 1 12
REMARK SMILES IDX 3 13 13 14 30 15 16 16 17 17 29 18 31 19 18 20 28 21 27 22
REMARK SMILES IDX 20 23 19 24 24 25 21 26 22 27 25 28 26 29 7 30 8 31 9 32
REMARK SMILES IDX 23 33
REMARK H PARENT 23 34
REMARK Flexibility Score: inf
ROOT
ATOM      1  C   UNL     1      -8.791   5.915   0.568  1.00  0.00     0.017 C 
ATOM      2  C   UNL     1      -9.333   5.337   1.901  1.00  0.00     0.014 C 
ATOM      3  C   UNL     1      -7.305   6.275   0.773  1.00  0.00     0.014 C 
ATOM      4  C   UNL     1      -9.553   7.230   0.221  1.00  0.00     0.028 C 
ATOM      5  C   UNL     1     -10.843   5.073   1.845  1.00  0.00     0.007 C 
ATOM      6  C   UNL     1      -6.672   6.879  -0.488  1.00  0.00     0.013 C 
ATOM      7  C   UNL     1      -8.945   7.901  -1.036  1.00  0.00    -0.064 C 
ATOM      8  C   UNL     1     -11.097   7.008   0.203  1.00  0.00     0.015 C 
ATOM      9  C   UNL     1     -11.659   6.340   1.490  1.00  0.00    -0.035 C 
ATOM     10  C   UNL     1      -7.420   8.133  -1.086  1.00  0.00    -0.006 C 
ATOM     11  C   UNL     1      -9.744   8.511  -1.934  1.00  0.00    -0.027 C 
ATOM     12  C   UNL     1     -11.661   7.339   2.674  1.00  0.00     0.011 C 
ATOM     13  C   UNL     1     -13.123   5.922   1.229  1.00  0.00     0.011 C 
ATOM     14  C   UNL     1      -7.140   9.341  -0.137  1.00  0.00     0.017 C 
ATOM     15  C   UNL     1      -6.897   8.446  -2.589  1.00  0.00    -0.020 C 
ATOM     16  C   UNL     1      -9.281   9.160  -3.194  1.00  0.00     0.032 C 
ATOM     17  C   UNL     1      -7.778   9.556  -3.274  1.00  0.00     0.006 C 
ATOM     18  C   UNL     1      -6.968   7.168  -3.496  1.00  0.00     0.008 C 
ATOM     19  C   UNL     1      -5.407   8.921  -2.492  1.00  0.00     0.012 C 
ATOM     20  C   UNL     1      -7.305   9.975  -4.769  1.00  0.00    -0.025 C 
ATOM     21  C   UNL     1      -7.199   7.391  -5.016  1.00  0.00     0.005 C 
ATOM     22  C   UNL     1      -6.658   8.739  -5.557  1.00  0.00     0.003 C 
ATOM     23  C   UNL     1      -8.513  10.592  -5.569  1.00  0.00     0.010 C 
ATOM     24  C   UNL     1      -6.247  11.123  -4.626  1.00  0.00     0.012 C 
ATOM     25  C   UNL     1      -6.623   8.848  -7.154  1.00  0.00    -0.006 C 
ATOM     26  C   UNL     1      -8.273  10.795  -7.063  1.00  0.00     0.033 C 
ATOM     27  C   UNL     1      -7.926   9.463  -7.734  1.00  0.00     0.120 C 
ATOM     28  C   UNL     1      -6.403   7.469  -7.840  1.00  0.00     0.014 C 
ATOM     29  C   UNL     1      -5.402   9.704  -7.605  1.00  0.00     0.014 C 
ENDROOT
BRANCH   1  30
ATOM     30  C   UNL     1      -8.900   4.842  -0.516  1.00  0.00     0.048 C 
ATOM     31  O   UNL     1      -9.193   5.134  -1.705  1.00  0.00    -0.550 OA
ATOM     32  O   UNL     1      -8.637   3.514  -0.199  1.00  0.00    -0.550 OA
ENDBRANCH   1  30
BRANCH  27  33
ATOM     33  O   UNL     1      -9.000   8.564  -7.589  1.00  0.00    -0.393 OA
ATOM     34  H   UNL     1      -8.670   7.801  -7.046  1.00  0.00     0.210 HD
ENDBRANCH  27  33
TORSDOF 2
ENDMDL
MODEL 4
REMARK VINA RESULT:    -4.161      1.754      7.856
REMARK INTER + INTRA:          -3.885
REMARK INTER:                  -4.068
REMARK INTRA:                   0.183
REMARK UNBOUND:                 0.641
REMARK SMILES CC1(C)CC[C@]2(C(=O)[O-])CC[C@]3(C)C(=CC[C@@H]4[C@]5(C)CC[C@H](O)C(C)(C)[C@@H]5CC[C@@]43C)[C@H]2C1
REMARK SMILES IDX 6 1 5 2 10 3 32 4 4 5 11 6 14 7 33 8 2 9 12 10 15 11 1 12
REMARK SMILES IDX 3 13 13 14 30 15 16 16 17 17 29 18 31 19 18 20 28 21 27 22
REMARK SMILES IDX 20 23 19 24 24 25 21 26 22 27 25 28 26 29 7 30 8 31 9 32
REMARK SMILES IDX 23 33
REMARK H PARENT 23 34
REMARK Flexibility Score: inf
ROOT
ATOM      1  C   UNL     1      -7.647   9.891  -7.490  1.00  0.00     0.017 C 
ATOM      2  C   UNL     1      -7.305  10.392  -8.917  1.00  0.00     0.014 C 
ATOM      3  C   UNL     1      -7.896  11.125  -6.598  1.00  0.00     0.014 C 
ATOM      4  C   UNL     1      -6.426   9.120  -6.902  1.00  0.00     0.028 C 
ATOM      5  C   UNL     1      -6.905   9.244  -9.854  1.00  0.00     0.007 C 
ATOM      6  C   UNL     1      -8.223  10.739  -5.149  1.00  0.00     0.013 C 
ATOM      7  C   UNL     1      -6.689   8.720  -5.428  1.00  0.00    -0.064 C 
ATOM      8  C   UNL     1      -5.962   7.973  -7.853  1.00  0.00     0.015 C 
ATOM      9  C   UNL     1      -5.704   8.427  -9.318  1.00  0.00    -0.035 C 
ATOM     10  C   UNL     1      -7.166   9.806  -4.441  1.00  0.00    -0.006 C 
ATOM     11  C   UNL     1      -6.254   7.533  -4.959  1.00  0.00    -0.027 C 
ATOM     12  C   UNL     1      -4.395   9.249  -9.417  1.00  0.00     0.011 C 
ATOM     13  C   UNL     1      -5.535   7.171 -10.200  1.00  0.00     0.011 C 
ATOM     14  C   UNL     1      -5.910  10.678  -4.125  1.00  0.00     0.017 C 
ATOM     15  C   UNL     1      -7.785   9.170  -3.084  1.00  0.00    -0.020 C 
ATOM     16  C   UNL     1      -6.474   7.026  -3.574  1.00  0.00     0.032 C 
ATOM     17  C   UNL     1      -6.824   8.078  -2.483  1.00  0.00     0.006 C 
ATOM     18  C   UNL     1      -9.167   8.478  -3.355  1.00  0.00     0.008 C 
ATOM     19  C   UNL     1      -7.990  10.335  -2.055  1.00  0.00     0.012 C 
ATOM     20  C   UNL     1      -7.334   7.413  -1.092  1.00  0.00    -0.025 C 
ATOM     21  C   UNL     1      -9.547   7.277  -2.446  1.00  0.00     0.005 C 
ATOM     22  C   UNL     1      -8.932   7.328  -1.023  1.00  0.00     0.003 C 
ATOM     23  C   UNL     1      -6.678   5.994  -0.896  1.00  0.00     0.010 C 
ATOM     24  C   UNL     1      -6.800   8.304   0.082  1.00  0.00     0.012 C 
ATOM     25  C   UNL     1      -9.549   6.268   0.005  1.00  0.00    -0.006 C 
ATOM     26  C   UNL     1      -7.262   5.155   0.239  1.00  0.00     0.033 C 
ATOM     27  C   UNL     1      -8.760   4.929   0.020  1.00  0.00     0.120 C 
ATOM     28  C   UNL     1     -11.038   5.938  -0.302  1.00  0.00     0.014 C 
ATOM     29  C   UNL     1      -9.574   6.869   1.442  1.00  0.00     0.014 C 
ENDROOT
BRANCH   1  30
ATOM     30  C   UNL     1      -8.925   9.054  -7.553  1.00  0.00     0.048 C 
ATOM     31  O   UNL     1      -8.989   7.909  -7.036  1.00  0.00    -0.550 OA
ATOM     32  O   UNL     1     -10.060   9.576  -8.165  1.00  0.00    -0.550 OA
ENDBRANCH   1  30
BRANCH  27  33
ATOM     33  O   UNL     1      -8.964   4.227  -1.183  1.00  0.00    -0.393 OA
ATOM     34  H   UNL     1      -8.806   3.266  -0.990  1.00  0.00     0.210 HD
ENDBRANCH  27  33
TORSDOF 2
ENDMDL
MODEL 5
REMARK VINA RESULT:    -3.993      1.611      8.105
REMARK INTER + INTRA:          -3.702
REMARK INTER:                  -3.900
REMARK INTRA:                   0.198
REMARK UNBOUND:                 0.641
REMARK SMILES CC1(C)CC[C@]2(C(=O)[O-])CC[C@]3(C)C(=CC[C@@H]4[C@]5(C)CC[C@H](O)C(C)(C)[C@@H]5CC[C@@]43C)[C@H]2C1
REMARK SMILES IDX 6 1 5 2 10 3 32 4 4 5 11 6 14 7 33 8 2 9 12 10 15 11 1 12
REMARK SMILES IDX 3 13 13 14 30 15 16 16 17 17 29 18 31 19 18 20 28 21 27 22
REMARK SMILES IDX 20 23 19 24 24 25 21 26 22 27 25 28 26 29 7 30 8 31 9 32
REMARK SMILES IDX 23 33
REMARK H PARENT 23 34
REMARK Flexibility Score: inf
ROOT
ATOM      1  C   UNL     1      -7.281   8.787  -9.956  1.00  0.00     0.017 C 
ATOM      2  C   UNL     1      -6.959   9.002 -11.458  1.00  0.00     0.014 C 
ATOM      3  C   UNL     1      -7.673  10.151  -9.352  1.00  0.00     0.014 C 
ATOM      4  C   UNL     1      -6.003   8.290  -9.215  1.00  0.00     0.028 C 
ATOM      5  C   UNL     1      -6.425   7.727 -12.124  1.00  0.00     0.007 C 
ATOM      6  C   UNL     1      -7.993  10.054  -7.854  1.00  0.00     0.013 C 
ATOM      7  C   UNL     1      -6.257   8.192  -7.690  1.00  0.00    -0.064 C 
ATOM      8  C   UNL     1      -5.404   7.021  -9.896  1.00  0.00     0.015 C 
ATOM      9  C   UNL     1      -5.160   7.173 -11.424  1.00  0.00    -0.035 C 
ATOM     10  C   UNL     1      -6.863   9.410  -6.961  1.00  0.00    -0.006 C 
ATOM     11  C   UNL     1      -5.715   7.185  -6.975  1.00  0.00    -0.027 C 
ATOM     12  C   UNL     1      -3.939   8.085 -11.699  1.00  0.00     0.011 C 
ATOM     13  C   UNL     1      -4.846   5.780 -12.014  1.00  0.00     0.011 C 
ATOM     14  C   UNL     1      -5.709  10.454  -6.841  1.00  0.00     0.017 C 
ATOM     15  C   UNL     1      -7.445   9.020  -5.498  1.00  0.00    -0.020 C 
ATOM     16  C   UNL     1      -5.914   6.967  -5.514  1.00  0.00     0.032 C 
ATOM     17  C   UNL     1      -6.392   8.188  -4.675  1.00  0.00     0.006 C 
ATOM     18  C   UNL     1      -8.743   8.147  -5.614  1.00  0.00     0.008 C 
ATOM     19  C   UNL     1      -7.789  10.351  -4.746  1.00  0.00     0.012 C 
ATOM     20  C   UNL     1      -6.864   7.788  -3.174  1.00  0.00    -0.025 C 
ATOM     21  C   UNL     1      -9.021   7.137  -4.467  1.00  0.00     0.005 C 
ATOM     22  C   UNL     1      -8.446   7.556  -3.088  1.00  0.00     0.003 C 
ATOM     23  C   UNL     1      -6.073   6.520  -2.675  1.00  0.00     0.010 C 
ATOM     24  C   UNL     1      -6.449   8.962  -2.220  1.00  0.00     0.012 C 
ATOM     25  C   UNL     1      -8.977   6.684  -1.855  1.00  0.00    -0.006 C 
ATOM     26  C   UNL     1      -6.595   5.890  -1.386  1.00  0.00     0.033 C 
ATOM     27  C   UNL     1      -8.057   5.468  -1.551  1.00  0.00     0.120 C 
ATOM     28  C   UNL     1     -10.417   6.143  -2.084  1.00  0.00     0.014 C 
ATOM     29  C   UNL     1      -9.094   7.574  -0.582  1.00  0.00     0.014 C 
ENDROOT
BRANCH   1  30
ATOM     30  C   UNL     1      -8.466   7.829  -9.837  1.00  0.00     0.048 C 
ATOM     31  O   UNL     1      -8.324   6.655  -9.407  1.00  0.00    -0.550 OA
ATOM     32  O   UNL     1      -9.742   8.266 -10.178  1.00  0.00    -0.550 OA
ENDBRANCH   1  30
BRANCH  27  33
ATOM     33  O   UNL     1      -8.162   4.506  -2.574  1.00  0.00    -0.393 OA
ATOM     34  H   UNL     1      -7.277   4.063  -2.649  1.00  0.00     0.210 HD
ENDBRANCH  27  33
TORSDOF 2
ENDMDL
MODEL 6
REMARK VINA RESULT:    -3.149      2.356      7.955
REMARK INTER + INTRA:          -2.783
REMARK INTER:                  -3.829
REMARK INTRA:                   1.045
REMARK UNBOUND:                 0.641
REMARK SMILES CC1(C)CC[C@]2(C(=O)[O-])CC[C@]3(C)C(=CC[C@@H]4[C@]5(C)CC[C@H](O)C(C)(C)[C@@H]5CC[C@@]43C)[C@H]2C1
REMARK SMILES IDX 6 1 5 2 10 3 32 4 4 5 11 6 14 7 33 8 2 9 12 10 15 11 1 12
REMARK SMILES IDX 3 13 13 14 30 15 16 16 17 17 29 18 31 19 18 20 28 21 27 22
REMARK SMILES IDX 20 23 19 24 24 25 21 26 22 27 25 28 26 29 7 30 8 31 9 32
REMARK SMILES IDX 23 33
REMARK H PARENT 23 34
REMARK Flexibility Score: inf
ROOT
ATOM      1  C   UNL     1      -7.932   9.749  -8.216  1.00  0.00     0.017 C 
ATOM      2  C   UNL     1      -7.812  10.124  -9.715  1.00  0.00     0.014 C 
ATOM      3  C   UNL     1      -6.611  10.138  -7.519  1.00  0.00     0.014 C 
ATOM      4  C   UNL     1      -8.105   8.206  -8.076  1.00  0.00     0.028 C 
ATOM      5  C   UNL     1      -9.024   9.654 -10.529  1.00  0.00     0.007 C 
ATOM      6  C   UNL     1      -6.616   9.787  -6.024  1.00  0.00     0.013 C 
ATOM      7  C   UNL     1      -8.097   7.786  -6.584  1.00  0.00    -0.064 C 
ATOM      8  C   UNL     1      -9.303   7.686  -8.930  1.00  0.00     0.015 C 
ATOM      9  C   UNL     1      -9.261   8.127 -10.421  1.00  0.00    -0.035 C 
ATOM     10  C   UNL     1      -6.947   8.283  -5.683  1.00  0.00    -0.006 C 
ATOM     11  C   UNL     1      -8.908   6.800  -6.153  1.00  0.00    -0.027 C 
ATOM     12  C   UNL     1      -8.169   7.349 -11.195  1.00  0.00     0.011 C 
ATOM     13  C   UNL     1     -10.622   7.796 -11.071  1.00  0.00     0.011 C 
ATOM     14  C   UNL     1      -5.699   7.429  -6.073  1.00  0.00     0.017 C 
ATOM     15  C   UNL     1      -7.290   8.118  -4.107  1.00  0.00    -0.020 C 
ATOM     16  C   UNL     1      -9.013   6.332  -4.741  1.00  0.00     0.032 C 
ATOM     17  C   UNL     1      -7.826   6.671  -3.794  1.00  0.00     0.006 C 
ATOM     18  C   UNL     1      -8.397   9.133  -3.654  1.00  0.00     0.008 C 
ATOM     19  C   UNL     1      -5.978   8.397  -3.296  1.00  0.00     0.012 C 
ATOM     20  C   UNL     1      -8.154   6.390  -2.229  1.00  0.00    -0.025 C 
ATOM     21  C   UNL     1      -9.321   8.697  -2.484  1.00  0.00     0.005 C 
ATOM     22  C   UNL     1      -8.668   7.711  -1.482  1.00  0.00     0.003 C 
ATOM     23  C   UNL     1      -9.197   5.217  -2.094  1.00  0.00     0.010 C 
ATOM     24  C   UNL     1      -6.835   5.879  -1.552  1.00  0.00     0.012 C 
ATOM     25  C   UNL     1      -9.496   7.493  -0.130  1.00  0.00    -0.006 C 
ATOM     26  C   UNL     1      -9.782   5.019  -0.698  1.00  0.00     0.033 C 
ATOM     27  C   UNL     1     -10.482   6.295  -0.227  1.00  0.00     0.120 C 
ATOM     28  C   UNL     1     -10.315   8.751   0.277  1.00  0.00     0.014 C 
ATOM     29  C   UNL     1      -8.521   7.263   1.063  1.00  0.00     0.014 C 
ENDROOT
BRANCH   1  30
ATOM     30  C   UNL     1      -9.077  10.551  -7.597  1.00  0.00     0.048 C 
ATOM     31  O   UNL     1      -8.954  11.124  -6.483  1.00  0.00    -0.550 OA
ATOM     32  O   UNL     1     -10.277  10.684  -8.288  1.00  0.00    -0.550 OA
ENDBRANCH   1  30
BRANCH  27  33
ATOM     33  O   UNL     1     -11.544   6.605  -1.098  1.00  0.00    -0.393 OA
ATOM     34  H   UNL     1     -12.014   5.754  -1.299  1.00  0.00     0.210 HD
ENDBRANCH  27  33
TORSDOF 2
ENDMDL
MODEL 7
REMARK VINA RESULT:    -2.490      2.275      4.063
REMARK INTER + INTRA:          -2.067
REMARK INTER:                  -2.823
REMARK INTRA:                   0.756
REMARK UNBOUND:                 0.641
REMARK SMILES CC1(C)CC[C@]2(C(=O)[O-])CC[C@]3(C)C(=CC[C@@H]4[C@]5(C)CC[C@H](O)C(C)(C)[C@@H]5CC[C@@]43C)[C@H]2C1
REMARK SMILES IDX 6 1 5 2 10 3 32 4 4 5 11 6 14 7 33 8 2 9 12 10 15 11 1 12
REMARK SMILES IDX 3 13 13 14 30 15 16 16 17 17 29 18 31 19 18 20 28 21 27 22
REMARK SMILES IDX 20 23 19 24 24 25 21 26 22 27 25 28 26 29 7 30 8 31 9 32
REMARK SMILES IDX 23 33
REMARK H PARENT 23 34
REMARK Flexibility Score: inf
ROOT
ATOM      1  C   UNL     1      -7.891   9.598  -3.572  1.00  0.00     0.017 C 
ATOM      2  C   UNL     1      -8.628   9.438  -2.217  1.00  0.00     0.014 C 
ATOM      3  C   UNL     1      -8.539  10.774  -4.332  1.00  0.00     0.014 C 
ATOM      4  C   UNL     1      -8.091   8.312  -4.430  1.00  0.00     0.028 C 
ATOM      5  C   UNL     1      -8.150   8.205  -1.439  1.00  0.00     0.007 C 
ATOM      6  C   UNL     1      -7.893  11.006  -5.705  1.00  0.00     0.013 C 
ATOM      7  C   UNL     1      -7.476   8.493  -5.841  1.00  0.00    -0.064 C 
ATOM      8  C   UNL     1      -7.659   7.032  -3.651  1.00  0.00     0.015 C 
ATOM      9  C   UNL     1      -8.309   6.892  -2.245  1.00  0.00    -0.035 C 
ATOM     10  C   UNL     1      -7.853   9.748  -6.656  1.00  0.00    -0.006 C 
ATOM     11  C   UNL     1      -6.855   7.462  -6.448  1.00  0.00    -0.027 C 
ATOM     12  C   UNL     1      -9.802   6.501  -2.365  1.00  0.00     0.011 C 
ATOM     13  C   UNL     1      -7.589   5.759  -1.479  1.00  0.00     0.011 C 
ATOM     14  C   UNL     1      -9.307   9.504  -7.169  1.00  0.00     0.017 C 
ATOM     15  C   UNL     1      -6.837  10.002  -7.894  1.00  0.00    -0.020 C 
ATOM     16  C   UNL     1      -6.199   7.524  -7.785  1.00  0.00     0.032 C 
ATOM     17  C   UNL     1      -6.626   8.684  -8.729  1.00  0.00     0.006 C 
ATOM     18  C   UNL     1      -5.426  10.465  -7.390  1.00  0.00     0.008 C 
ATOM     19  C   UNL     1      -7.450  11.124  -8.799  1.00  0.00     0.012 C 
ATOM     20  C   UNL     1      -5.659   8.846 -10.024  1.00  0.00    -0.025 C 
ATOM     21  C   UNL     1      -4.201  10.085  -8.266  1.00  0.00     0.005 C 
ATOM     22  C   UNL     1      -4.513   9.937  -9.778  1.00  0.00     0.003 C 
ATOM     23  C   UNL     1      -5.043   7.451 -10.419  1.00  0.00     0.010 C 
ATOM     24  C   UNL     1      -6.556   9.284 -11.233  1.00  0.00     0.012 C 
ATOM     25  C   UNL     1      -3.219   9.842 -10.716  1.00  0.00    -0.006 C 
ATOM     26  C   UNL     1      -3.924   7.502 -11.457  1.00  0.00     0.033 C 
ATOM     27  C   UNL     1      -2.770   8.374 -10.957  1.00  0.00     0.120 C 
ATOM     28  C   UNL     1      -2.004  10.622 -10.137  1.00  0.00     0.014 C 
ATOM     29  C   UNL     1      -3.502  10.527 -12.086  1.00  0.00     0.014 C 
ENDROOT
BRANCH   1  30
ATOM     30  C   UNL     1      -6.423   9.928  -3.299  1.00  0.00     0.048 C 
ATOM     31  O   UNL     1      -5.947  11.066  -3.545  1.00  0.00    -0.550 OA
ATOM     32  O   UNL     1      -5.595   8.964  -2.734  1.00  0.00    -0.550 OA
ENDBRANCH   1  30
BRANCH  27  33
ATOM     33  O   UNL     1      -2.237   7.825  -9.775  1.00  0.00    -0.393 OA
ATOM     34  H   UNL     1      -2.978   7.356  -9.311  1.00  0.00     0.210 HD
ENDBRANCH  27  33
TORSDOF 2
ENDMDL
MODEL 8
REMARK VINA RESULT:    -2.244      4.096      7.063
REMARK INTER + INTRA:          -1.799
REMARK INTER:                  -2.761
REMARK INTRA:                   0.961
REMARK UNBOUND:                 0.641
REMARK SMILES CC1(C)CC[C@]2(C(=O)[O-])CC[C@]3(C)C(=CC[C@@H]4[C@]5(C)CC[C@H](O)C(C)(C)[C@@H]5CC[C@@]43C)[C@H]2C1
REMARK SMILES IDX 6 1 5 2 10 3 32 4 4 5 11 6 14 7 33 8 2 9 12 10 15 11 1 12
REMARK SMILES IDX 3 13 13 14 30 15 16 16 17 17 29 18 31 19 18 20 28 21 27 22
REMARK SMILES IDX 20 23 19 24 24 25 21 26 22 27 25 28 26 29 7 30 8 31 9 32
REMARK SMILES IDX 23 33
REMARK H PARENT 23 34
REMARK Flexibility Score: inf
ROOT
ATOM      1  C   UNL     1     -12.127   7.669   3.956  1.00  0.00     0.017 C 
ATOM      2  C   UNL     1     -12.764   7.614   5.369  1.00  0.00     0.014 C 
ATOM      3  C   UNL     1     -13.125   7.048   2.957  1.00  0.00     0.014 C 
ATOM      4  C   UNL     1     -10.832   6.801   3.933  1.00  0.00     0.028 C 
ATOM      5  C   UNL     1     -11.795   8.084   6.461  1.00  0.00     0.007 C 
ATOM      6  C   UNL     1     -12.579   7.035   1.522  1.00  0.00     0.013 C 
ATOM      7  C   UNL     1     -10.244   6.732   2.502  1.00  0.00    -0.064 C 
ATOM      8  C   UNL     1      -9.842   7.222   5.064  1.00  0.00     0.015 C 
ATOM      9  C   UNL     1     -10.478   7.269   6.482  1.00  0.00    -0.035 C 
ATOM     10  C   UNL     1     -11.176   6.337   1.338  1.00  0.00    -0.006 C 
ATOM     11  C   UNL     1      -8.908   6.744   2.316  1.00  0.00    -0.027 C 
ATOM     12  C   UNL     1     -10.729   5.839   7.021  1.00  0.00     0.011 C 
ATOM     13  C   UNL     1      -9.489   7.964   7.443  1.00  0.00     0.011 C 
ATOM     14  C   UNL     1     -11.398   4.798   1.471  1.00  0.00     0.017 C 
ATOM     15  C   UNL     1     -10.541   6.708  -0.108  1.00  0.00    -0.020 C 
ATOM     16  C   UNL     1      -8.227   6.714   0.990  1.00  0.00     0.032 C 
ATOM     17  C   UNL     1      -9.057   6.195  -0.220  1.00  0.00     0.006 C 
ATOM     18  C   UNL     1     -10.519   8.259  -0.342  1.00  0.00     0.008 C 
ATOM     19  C   UNL     1     -11.430   6.037  -1.211  1.00  0.00     0.012 C 
ATOM     20  C   UNL     1      -8.346   6.476  -1.652  1.00  0.00    -0.025 C 
ATOM     21  C   UNL     1      -9.387   8.822  -1.245  1.00  0.00     0.005 C 
ATOM     22  C   UNL     1      -8.873   7.832  -2.323  1.00  0.00     0.003 C 
ATOM     23  C   UNL     1      -6.780   6.493  -1.488  1.00  0.00     0.010 C 
ATOM     24  C   UNL     1      -8.671   5.261  -2.589  1.00  0.00     0.012 C 
ATOM     25  C   UNL     1      -7.932   8.493  -3.437  1.00  0.00    -0.006 C 
ATOM     26  C   UNL     1      -6.000   6.994  -2.701  1.00  0.00     0.033 C 
ATOM     27  C   UNL     1      -6.427   8.420  -3.059  1.00  0.00     0.120 C 
ATOM     28  C   UNL     1      -8.283   9.985  -3.703  1.00  0.00     0.014 C 
ATOM     29  C   UNL     1      -8.155   7.792  -4.809  1.00  0.00     0.014 C 
ENDROOT
BRANCH   1  30
ATOM     30  C   UNL     1     -11.888   9.132   3.580  1.00  0.00     0.048 C 
ATOM     31  O   UNL     1     -11.274   9.450   2.528  1.00  0.00    -0.550 OA
ATOM     32  O   UNL     1     -12.386  10.143   4.395  1.00  0.00    -0.550 OA
ENDBRANCH   1  30
BRANCH  27  33
ATOM     33  O   UNL     1      -6.150   9.284  -1.982  1.00  0.00    -0.393 OA
ATOM     34  H   UNL     1      -7.002   9.423  -1.493  1.00  0.00     0.210 HD
ENDBRANCH  27  33
TORSDOF 2
ENDMDL
