MODEL 1
REMARK VINA RESULT:    -4.422      0.000      0.000
REMARK INTER + INTRA:          -4.702
REMARK INTER:                  -4.681
REMARK INTRA:                  -0.021
REMARK UNBOUND:                -0.021
REMARK SMILES O=C([O-])c1cccnc1
REMARK SMILES IDX 4 1 5 2 9 3 6 4 8 5 7 6 2 7 1 8 3 9
REMARK H PARENT
REMARK Flexibility Score: inf
ROOT
ATOM      1  C   UNL     1      -0.245   8.873  40.530  1.00  0.00     0.016 A 
ATOM      2  C   UNL     1      -0.236   8.706  39.136  1.00  0.00     0.013 A 
ATOM      3  C   UNL     1      -0.538  10.146  41.049  1.00  0.00     0.120 A 
ATOM      4  C   UNL     1      -0.513   9.789  38.298  1.00  0.00     0.021 A 
ATOM      5  N   UNL     1      -0.805  11.184  40.212  1.00  0.00    -0.264 NA
ATOM      6  C   UNL     1      -0.798  11.033  38.862  1.00  0.00     0.111 A 
ENDROOT
BRANCH   1   7
ATOM      7  C   UNL     1       0.047   7.733  41.427  1.00  0.00     0.073 C 
ATOM      8  O   UNL     1       0.936   6.893  41.125  1.00  0.00    -0.545 OA
ATOM      9  O   UNL     1      -0.655   7.575  42.616  1.00  0.00    -0.545 OA
ENDBRANCH   1   7
TORSDOF 1
ENDMDL
MODEL 2
REMARK VINA RESULT:    -4.108      3.233      4.806
REMARK INTER + INTRA:          -4.369
REMARK INTER:                  -4.345
REMARK INTRA:                  -0.023
REMARK UNBOUND:                -0.021
REMARK SMILES O=C([O-])c1cccnc1
REMARK SMILES IDX 4 1 5 2 9 3 6 4 8 5 7 6 2 7 1 8 3 9
REMARK H PARENT
REMARK Flexibility Score: inf
ROOT
ATOM      1  C   UNL     1      -0.123   7.235  42.407  1.00  0.00     0.016 A 
ATOM      2  C   UNL     1      -1.182   7.663  43.224  1.00  0.00     0.013 A 
ATOM      3  C   UNL     1       0.643   6.134  42.829  1.00  0.00     0.120 A 
ATOM      4  C   UNL     1      -1.454   7.002  44.424  1.00  0.00     0.021 A 
ATOM      5  N   UNL     1       0.357   5.507  44.001  1.00  0.00    -0.264 NA
ATOM      6  C   UNL     1      -0.664   5.915  44.799  1.00  0.00     0.111 A 
ENDROOT
BRANCH   1   7
ATOM      7  C   UNL     1       0.174   7.927  41.135  1.00  0.00     0.073 C 
ATOM      8  O   UNL     1       0.980   7.426  40.306  1.00  0.00    -0.545 OA
ATOM      9  O   UNL     1      -0.434   9.141  40.835  1.00  0.00    -0.545 OA
ENDBRANCH   1   7
TORSDOF 1
ENDMDL
MODEL 3
REMARK VINA RESULT:    -4.094     13.410     13.912
REMARK INTER + INTRA:          -4.354
REMARK INTER:                  -4.335
REMARK INTRA:                  -0.019
REMARK UNBOUND:                -0.021
REMARK SMILES O=C([O-])c1cccnc1
REMARK SMILES IDX 4 1 5 2 9 3 6 4 8 5 7 6 2 7 1 8 3 9
REMARK H PARENT
REMARK Flexibility Score: inf
ROOT
ATOM      1  C   UNL     1      12.833   6.316  37.781  1.00  0.00     0.016 A 
ATOM      2  C   UNL     1      13.775   5.451  37.200  1.00  0.00     0.013 A 
ATOM      3  C   UNL     1      11.827   6.855  36.961  1.00  0.00     0.120 A 
ATOM      4  C   UNL     1      13.700   5.144  35.839  1.00  0.00     0.021 A 
ATOM      5  N   UNL     1      11.775   6.540  35.638  1.00  0.00    -0.264 NA
ATOM      6  C   UNL     1      12.683   5.706  35.067  1.00  0.00     0.111 A 
ENDROOT
BRANCH   1   7
ATOM      7  C   UNL     1      12.901   6.647  39.220  1.00  0.00     0.073 C 
ATOM      8  O   UNL     1      13.000   5.735  40.083  1.00  0.00    -0.545 OA
ATOM      9  O   UNL     1      12.860   7.972  39.640  1.00  0.00    -0.545 OA
ENDBRANCH   1   7
TORSDOF 1
ENDMDL
MODEL 4
REMARK VINA RESULT:    -4.086     11.795     12.221
REMARK INTER + INTRA:          -4.346
REMARK INTER:                  -4.328
REMARK INTRA:                  -0.018
REMARK UNBOUND:                -0.021
REMARK SMILES O=C([O-])c1cccnc1
REMARK SMILES IDX 4 1 5 2 9 3 6 4 8 5 7 6 2 7 1 8 3 9
REMARK H PARENT
REMARK Flexibility Score: inf
ROOT
ATOM      1  C   UNL     1      10.895  10.564  38.279  1.00  0.00     0.016 A 
ATOM      2  C   UNL     1      11.864  11.289  38.992  1.00  0.00     0.013 A 
ATOM      3  C   UNL     1      10.982   9.162  38.270  1.00  0.00     0.120 A 
ATOM      4  C   UNL     1      12.884  10.617  39.670  1.00  0.00     0.021 A 
ATOM      5  N   UNL     1      11.985   8.531  38.939  1.00  0.00    -0.264 NA
ATOM      6  C   UNL     1      12.927   9.223  39.631  1.00  0.00     0.111 A 
ENDROOT
BRANCH   1   7
ATOM      7  C   UNL     1       9.810  11.265  37.558  1.00  0.00     0.073 C 
ATOM      8  O   UNL     1      10.078  12.101  36.655  1.00  0.00    -0.545 OA
ATOM      9  O   UNL     1       8.479  11.008  37.866  1.00  0.00    -0.545 OA
ENDBRANCH   1   7
TORSDOF 1
ENDMDL
MODEL 5
REMARK VINA RESULT:    -4.063     11.861     12.169
REMARK INTER + INTRA:          -4.321
REMARK INTER:                  -4.303
REMARK INTRA:                  -0.019
REMARK UNBOUND:                -0.021
REMARK SMILES O=C([O-])c1cccnc1
REMARK SMILES IDX 4 1 5 2 9 3 6 4 8 5 7 6 2 7 1 8 3 9
REMARK H PARENT
REMARK Flexibility Score: inf
ROOT
ATOM      1  C   UNL     1      11.587  10.385  39.056  1.00  0.00     0.016 A 
ATOM      2  C   UNL     1      11.463  11.580  38.328  1.00  0.00     0.013 A 
ATOM      3  C   UNL     1      11.081   9.203  38.489  1.00  0.00     0.120 A 
ATOM      4  C   UNL     1      10.849  11.577  37.073  1.00  0.00     0.021 A 
ATOM      5  N   UNL     1      10.487   9.226  37.266  1.00  0.00    -0.264 NA
ATOM      6  C   UNL     1      10.362  10.377  36.554  1.00  0.00     0.111 A 
ENDROOT
BRANCH   1   7
ATOM      7  C   UNL     1      12.236  10.377  40.384  1.00  0.00     0.073 C 
ATOM      8  O   UNL     1      11.829  11.140  41.301  1.00  0.00    -0.545 OA
ATOM      9  O   UNL     1      13.304   9.525  40.641  1.00  0.00    -0.545 OA
ENDBRANCH   1   7
TORSDOF 1
ENDMDL
MODEL 6
REMARK VINA RESULT:    -4.061      2.726      3.612
REMARK INTER + INTRA:          -4.320
REMARK INTER:                  -4.297
REMARK INTRA:                  -0.022
REMARK UNBOUND:                -0.021
REMARK SMILES O=C([O-])c1cccnc1
REMARK SMILES IDX 4 1 5 2 9 3 6 4 8 5 7 6 2 7 1 8 3 9
REMARK H PARENT
REMARK Flexibility Score: inf
ROOT
ATOM      1  C   UNL     1      -0.151   9.136  40.392  1.00  0.00     0.016 A 
ATOM      2  C   UNL     1       0.945   8.363  39.975  1.00  0.00     0.013 A 
ATOM      3  C   UNL     1      -0.866   8.722  41.530  1.00  0.00     0.120 A 
ATOM      4  C   UNL     1       1.304   7.214  40.684  1.00  0.00     0.021 A 
ATOM      5  N   UNL     1      -0.496   7.599  42.203  1.00  0.00    -0.264 NA
ATOM      6  C   UNL     1       0.563   6.845  41.807  1.00  0.00     0.111 A 
ENDROOT
BRANCH   1   7
ATOM      7  C   UNL     1      -0.540  10.353  39.650  1.00  0.00     0.073 C 
ATOM      8  O   UNL     1      -0.255  10.478  38.429  1.00  0.00    -0.545 OA
ATOM      9  O   UNL     1      -1.228  11.379  40.289  1.00  0.00    -0.545 OA
ENDBRANCH   1   7
TORSDOF 1
ENDMDL
MODEL 7
REMARK VINA RESULT:    -3.967     13.509     14.169
REMARK INTER + INTRA:          -4.219
REMARK INTER:                  -4.198
REMARK INTRA:                  -0.021
REMARK UNBOUND:                -0.021
REMARK SMILES O=C([O-])c1cccnc1
REMARK SMILES IDX 4 1 5 2 9 3 6 4 8 5 7 6 2 7 1 8 3 9
REMARK H PARENT
REMARK Flexibility Score: inf
ROOT
ATOM      1  C   UNL     1      12.699   6.098  36.415  1.00  0.00     0.016 A 
ATOM      2  C   UNL     1      13.617   5.517  37.305  1.00  0.00     0.013 A 
ATOM      3  C   UNL     1      11.762   7.012  36.925  1.00  0.00     0.120 A 
ATOM      4  C   UNL     1      13.586   5.850  38.661  1.00  0.00     0.021 A 
ATOM      5  N   UNL     1      11.752   7.320  38.250  1.00  0.00    -0.264 NA
ATOM      6  C   UNL     1      12.635   6.763  39.119  1.00  0.00     0.111 A 
ENDROOT
BRANCH   1   7
ATOM      7  C   UNL     1      12.723   5.753  34.978  1.00  0.00     0.073 C 
ATOM      8  O   UNL     1      13.815   5.526  34.391  1.00  0.00    -0.545 OA
ATOM      9  O   UNL     1      11.539   5.673  34.253  1.00  0.00    -0.545 OA
ENDBRANCH   1   7
TORSDOF 1
ENDMDL
MODEL 8
REMARK VINA RESULT:    -3.949     14.069     14.769
REMARK INTER + INTRA:          -4.201
REMARK INTER:                  -4.183
REMARK INTRA:                  -0.017
REMARK UNBOUND:                -0.021
REMARK SMILES O=C([O-])c1cccnc1
REMARK SMILES IDX 4 1 5 2 9 3 6 4 8 5 7 6 2 7 1 8 3 9
REMARK H PARENT
REMARK Flexibility Score: inf
ROOT
ATOM      1  C   UNL     1      13.789   6.648  39.621  1.00  0.00     0.016 A 
ATOM      2  C   UNL     1      13.792   6.010  40.873  1.00  0.00     0.013 A 
ATOM      3  C   UNL     1      14.378   7.920  39.519  1.00  0.00     0.120 A 
ATOM      4  C   UNL     1      14.369   6.637  41.979  1.00  0.00     0.021 A 
ATOM      5  N   UNL     1      14.934   8.510  40.612  1.00  0.00    -0.264 NA
ATOM      6  C   UNL     1      14.941   7.901  41.826  1.00  0.00     0.111 A 
ENDROOT
BRANCH   1   7
ATOM      7  C   UNL     1      13.182   5.993  38.443  1.00  0.00     0.073 C 
ATOM      8  O   UNL     1      12.186   6.507  37.867  1.00  0.00    -0.545 OA
ATOM      9  O   UNL     1      13.702   4.800  37.954  1.00  0.00    -0.545 OA
ENDBRANCH   1   7
TORSDOF 1
ENDMDL
MODEL 9
REMARK VINA RESULT:    -3.853     10.269     11.573
REMARK INTER + INTRA:          -4.099
REMARK INTER:                  -4.079
REMARK INTRA:                  -0.020
REMARK UNBOUND:                -0.021
REMARK SMILES O=C([O-])c1cccnc1
REMARK SMILES IDX 4 1 5 2 9 3 6 4 8 5 7 6 2 7 1 8 3 9
REMARK H PARENT
REMARK Flexibility Score: inf
ROOT
ATOM      1  C   UNL     1       8.002   6.862  46.748  1.00  0.00     0.016 A 
ATOM      2  C   UNL     1       8.106   5.492  46.457  1.00  0.00     0.013 A 
ATOM      3  C   UNL     1       8.545   7.330  47.957  1.00  0.00     0.120 A 
ATOM      4  C   UNL     1       8.736   4.629  47.356  1.00  0.00     0.021 A 
ATOM      5  N   UNL     1       9.154   6.469  48.816  1.00  0.00    -0.264 NA
ATOM      6  C   UNL     1       9.258   5.142  48.543  1.00  0.00     0.111 A 
ENDROOT
BRANCH   1   7
ATOM      7  C   UNL     1       7.337   7.785  45.803  1.00  0.00     0.073 C 
ATOM      8  O   UNL     1       6.620   8.729  46.228  1.00  0.00    -0.545 OA
ATOM      9  O   UNL     1       7.496   7.623  44.432  1.00  0.00    -0.545 OA
ENDBRANCH   1   7
TORSDOF 1
ENDMDL
