MODEL 1
REMARK VINA RESULT:    -5.546      0.000      0.000
REMARK INTER + INTRA:          -8.146
REMARK INTER:                  -7.491
REMARK INTRA:                  -0.655
REMARK UNBOUND:                -0.655
REMARK SMILES CC(=O)CCC=C(C)CCC=C(C)C
REMARK SMILES IDX 7 1 6 2 8 3 9 4 10 5 11 6 13 7 12 8 14 9 5 10 4 11 2 12 3 13
REMARK SMILES IDX 1 14
REMARK H PARENT
REMARK Flexibility Score: inf
ROOT
ATOM      1  C   UNL     1      28.838  17.939  28.035  1.00  0.00    -0.077 C 
ATOM      2  C   UNL     1      27.693  18.251  27.387  1.00  0.00    -0.028 C 
ATOM      3  C   UNL     1      28.876  17.727  29.530  1.00  0.00     0.039 C 
ENDROOT
BRANCH   1   4
ATOM      4  C   UNL     1      30.116  17.742  27.244  1.00  0.00     0.034 C 
BRANCH   4   5
ATOM      5  C   UNL     1      30.200  18.696  26.045  1.00  0.00     0.032 C 
BRANCH   5   6
ATOM      6  C   UNL     1      31.476  18.516  25.255  1.00  0.00    -0.028 C 
ATOM      7  C   UNL     1      32.952  18.748  23.302  1.00  0.00     0.039 C 
ATOM      8  C   UNL     1      31.638  18.985  24.000  1.00  0.00    -0.080 C 
ATOM      9  C   UNL     1      30.537  19.737  23.289  1.00  0.00     0.039 C 
ENDBRANCH   5   6
ENDBRANCH   4   5
ENDBRANCH   1   4
BRANCH   2  10
ATOM     10  C   UNL     1      26.366  18.485  28.065  1.00  0.00     0.035 C 
BRANCH  10  11
ATOM     11  C   UNL     1      25.755  19.818  27.620  1.00  0.00     0.079 C 
BRANCH  11  12
ATOM     12  C   UNL     1      26.337  20.959  28.411  1.00  0.00     0.130 C 
ATOM     13  O   UNL     1      26.494  22.045  27.873  1.00  0.00    -0.300 OA
ATOM     14  C   UNL     1      26.716  20.798  29.854  1.00  0.00     0.087 C 
ENDBRANCH  11  12
ENDBRANCH  10  11
ENDBRANCH   2  10
TORSDOF 6
ENDMDL
MODEL 2
REMARK VINA RESULT:    -5.334      2.355      5.940
REMARK INTER + INTRA:          -7.860
REMARK INTER:                  -7.117
REMARK INTRA:                  -0.742
REMARK UNBOUND:                -0.655
REMARK SMILES CC(=O)CCC=C(C)CCC=C(C)C
REMARK SMILES IDX 7 1 6 2 8 3 9 4 10 5 11 6 13 7 12 8 14 9 5 10 4 11 2 12 3 13
REMARK SMILES IDX 1 14
REMARK H PARENT
REMARK Flexibility Score: inf
ROOT
ATOM      1  C   UNL     1      27.555  18.501  26.773  1.00  0.00    -0.077 C 
ATOM      2  C   UNL     1      27.928  19.318  25.763  1.00  0.00    -0.028 C 
ATOM      3  C   UNL     1      28.539  18.015  27.811  1.00  0.00     0.039 C 
ENDROOT
BRANCH   1   4
ATOM      4  C   UNL     1      26.100  18.095  26.910  1.00  0.00     0.034 C 
BRANCH   4   5
ATOM      5  C   UNL     1      25.266  19.183  27.601  1.00  0.00     0.032 C 
BRANCH   5   6
ATOM      6  C   UNL     1      25.946  19.729  28.837  1.00  0.00    -0.028 C 
ATOM      7  C   UNL     1      27.085  21.431  30.198  1.00  0.00     0.039 C 
ATOM      8  C   UNL     1      26.422  20.989  28.919  1.00  0.00    -0.080 C 
ATOM      9  C   UNL     1      26.305  21.955  27.763  1.00  0.00     0.039 C 
ENDBRANCH   5   6
ENDBRANCH   4   5
ENDBRANCH   1   4
BRANCH   2  10
ATOM     10  C   UNL     1      29.343  19.778  25.515  1.00  0.00     0.035 C 
BRANCH  10  11
ATOM     11  C   UNL     1      29.697  19.677  24.028  1.00  0.00     0.079 C 
BRANCH  11  12
ATOM     12  C   UNL     1      31.106  19.180  23.850  1.00  0.00     0.130 C 
ATOM     13  O   UNL     1      31.651  19.293  22.762  1.00  0.00    -0.300 OA
ATOM     14  C   UNL     1      31.867  18.559  24.985  1.00  0.00     0.087 C 
ENDBRANCH  11  12
ENDBRANCH  10  11
ENDBRANCH   2  10
TORSDOF 6
ENDMDL
MODEL 3
REMARK VINA RESULT:    -5.326      1.443      2.206
REMARK INTER + INTRA:          -7.849
REMARK INTER:                  -7.152
REMARK INTRA:                  -0.697
REMARK UNBOUND:                -0.655
REMARK SMILES CC(=O)CCC=C(C)CCC=C(C)C
REMARK SMILES IDX 7 1 6 2 8 3 9 4 10 5 11 6 13 7 12 8 14 9 5 10 4 11 2 12 3 13
REMARK SMILES IDX 1 14
REMARK H PARENT
REMARK Flexibility Score: inf
ROOT
ATOM      1  C   UNL     1      29.959  18.594  26.392  1.00  0.00    -0.077 C 
ATOM      2  C   UNL     1      29.021  19.497  26.025  1.00  0.00    -0.028 C 
ATOM      3  C   UNL     1      29.812  17.754  27.638  1.00  0.00     0.039 C 
ENDROOT
BRANCH   1   4
ATOM      4  C   UNL     1      31.171  18.372  25.508  1.00  0.00     0.034 C 
BRANCH   4   5
ATOM      5  C   UNL     1      31.432  19.571  24.584  1.00  0.00     0.032 C 
BRANCH   5   6
ATOM      6  C   UNL     1      31.643  19.153  23.147  1.00  0.00    -0.028 C 
ATOM      7  C   UNL     1      31.042  18.911  20.775  1.00  0.00     0.039 C 
ATOM      8  C   UNL     1      30.732  19.370  22.176  1.00  0.00    -0.080 C 
ATOM      9  C   UNL     1      29.418  20.059  22.464  1.00  0.00     0.039 C 
ENDBRANCH   5   6
ENDBRANCH   4   5
ENDBRANCH   1   4
BRANCH   2  10
ATOM     10  C   UNL     1      27.783  19.814  26.825  1.00  0.00     0.035 C 
BRANCH  10  11
ATOM     11  C   UNL     1      28.067  20.914  27.854  1.00  0.00     0.079 C 
BRANCH  11  12
ATOM     12  C   UNL     1      26.782  21.507  28.366  1.00  0.00     0.130 C 
ATOM     13  O   UNL     1      26.584  21.563  29.570  1.00  0.00    -0.300 OA
ATOM     14  C   UNL     1      25.741  22.047  27.430  1.00  0.00     0.087 C 
ENDBRANCH  11  12
ENDBRANCH  10  11
ENDBRANCH   2  10
TORSDOF 6
ENDMDL
MODEL 4
REMARK VINA RESULT:    -5.308      6.820     11.023
REMARK INTER + INTRA:          -7.825
REMARK INTER:                  -7.231
REMARK INTRA:                  -0.594
REMARK UNBOUND:                -0.655
REMARK SMILES CC(=O)CCC=C(C)CCC=C(C)C
REMARK SMILES IDX 7 1 6 2 8 3 9 4 10 5 11 6 13 7 12 8 14 9 5 10 4 11 2 12 3 13
REMARK SMILES IDX 1 14
REMARK H PARENT
REMARK Flexibility Score: inf
ROOT
ATOM      1  C   UNL     1      33.777  21.258  17.614  1.00  0.00    -0.077 C 
ATOM      2  C   UNL     1      32.553  21.094  17.063  1.00  0.00    -0.028 C 
ATOM      3  C   UNL     1      35.039  21.185  16.788  1.00  0.00     0.039 C 
ENDROOT
BRANCH   1   4
ATOM      4  C   UNL     1      33.896  21.577  19.092  1.00  0.00     0.034 C 
BRANCH   4   5
ATOM      5  C   UNL     1      33.487  20.385  19.969  1.00  0.00     0.032 C 
BRANCH   5   6
ATOM      6  C   UNL     1      33.501  20.724  21.442  1.00  0.00    -0.028 C 
ATOM      7  C   UNL     1      32.748  20.587  23.778  1.00  0.00     0.039 C 
ATOM      8  C   UNL     1      32.649  20.176  22.332  1.00  0.00    -0.080 C 
ATOM      9  C   UNL     1      31.606  19.167  21.910  1.00  0.00     0.039 C 
ENDBRANCH   5   6
ENDBRANCH   4   5
ENDBRANCH   1   4
BRANCH   2  10
ATOM     10  C   UNL     1      32.308  20.762  15.612  1.00  0.00     0.035 C 
BRANCH  10  11
ATOM     11  C   UNL     1      31.289  19.626  15.479  1.00  0.00     0.079 C 
BRANCH  11  12
ATOM     12  C   UNL     1      31.961  18.288  15.637  1.00  0.00     0.130 C 
ATOM     13  O   UNL     1      31.306  17.327  16.012  1.00  0.00    -0.300 OA
ATOM     14  C   UNL     1      33.417  18.102  15.329  1.00  0.00     0.087 C 
ENDBRANCH  11  12
ENDBRANCH  10  11
ENDBRANCH   2  10
TORSDOF 6
ENDMDL
MODEL 5
REMARK VINA RESULT:    -5.274      1.683      2.179
REMARK INTER + INTRA:          -7.780
REMARK INTER:                  -7.025
REMARK INTRA:                  -0.755
REMARK UNBOUND:                -0.655
REMARK SMILES CC(=O)CCC=C(C)CCC=C(C)C
REMARK SMILES IDX 7 1 6 2 8 3 9 4 10 5 11 6 13 7 12 8 14 9 5 10 4 11 2 12 3 13
REMARK SMILES IDX 1 14
REMARK H PARENT
REMARK Flexibility Score: inf
ROOT
ATOM      1  C   UNL     1      29.444  18.492  27.399  1.00  0.00    -0.077 C 
ATOM      2  C   UNL     1      28.782  19.619  27.052  1.00  0.00    -0.028 C 
ATOM      3  C   UNL     1      29.126  17.739  28.669  1.00  0.00     0.039 C 
ENDROOT
BRANCH   1   4
ATOM      4  C   UNL     1      30.502  17.929  26.470  1.00  0.00     0.034 C 
BRANCH   4   5
ATOM      5  C   UNL     1      30.832  18.898  25.326  1.00  0.00     0.032 C 
BRANCH   5   6
ATOM      6  C   UNL     1      32.306  18.909  24.990  1.00  0.00    -0.028 C 
ATOM      7  C   UNL     1      34.380  19.829  24.042  1.00  0.00     0.039 C 
ATOM      8  C   UNL     1      32.903  19.921  24.327  1.00  0.00    -0.080 C 
ATOM      9  C   UNL     1      32.125  21.133  23.869  1.00  0.00     0.039 C 
ENDBRANCH   5   6
ENDBRANCH   4   5
ENDBRANCH   1   4
BRANCH   2  10
ATOM     10  C   UNL     1      27.722  20.280  27.897  1.00  0.00     0.035 C 
BRANCH  10  11
ATOM     11  C   UNL     1      26.339  20.123  27.257  1.00  0.00     0.079 C 
BRANCH  11  12
ATOM     12  C   UNL     1      25.760  18.768  27.568  1.00  0.00     0.130 C 
ATOM     13  O   UNL     1      25.339  18.538  28.691  1.00  0.00    -0.300 OA
ATOM     14  C   UNL     1      25.675  17.695  26.523  1.00  0.00     0.087 C 
ENDBRANCH  11  12
ENDBRANCH  10  11
ENDBRANCH   2  10
TORSDOF 6
ENDMDL
MODEL 6
REMARK VINA RESULT:    -5.253      5.777      8.229
REMARK INTER + INTRA:          -7.751
REMARK INTER:                  -6.884
REMARK INTRA:                  -0.867
REMARK UNBOUND:                -0.655
REMARK SMILES CC(=O)CCC=C(C)CCC=C(C)C
REMARK SMILES IDX 7 1 6 2 8 3 9 4 10 5 11 6 13 7 12 8 14 9 5 10 4 11 2 12 3 13
REMARK SMILES IDX 1 14
REMARK H PARENT
REMARK Flexibility Score: inf
ROOT
ATOM      1  C   UNL     1      36.269  19.585  25.196  1.00  0.00    -0.077 C 
ATOM      2  C   UNL     1      35.077  19.775  24.588  1.00  0.00    -0.028 C 
ATOM      3  C   UNL     1      36.411  18.707  26.417  1.00  0.00     0.039 C 
ENDROOT
BRANCH   1   4
ATOM      4  C   UNL     1      37.516  20.223  24.615  1.00  0.00     0.034 C 
BRANCH   4   5
ATOM      5  C   UNL     1      38.286  21.034  25.666  1.00  0.00     0.032 C 
BRANCH   5   6
ATOM      6  C   UNL     1      37.521  22.255  26.123  1.00  0.00    -0.028 C 
ATOM      7  C   UNL     1      36.478  23.757  27.766  1.00  0.00     0.039 C 
ATOM      8  C   UNL     1      37.251  22.511  27.420  1.00  0.00    -0.080 C 
ATOM      9  C   UNL     1      37.704  21.581  28.521  1.00  0.00     0.039 C 
ENDBRANCH   5   6
ENDBRANCH   4   5
ENDBRANCH   1   4
BRANCH   2  10
ATOM     10  C   UNL     1      33.768  19.206  25.078  1.00  0.00     0.035 C 
BRANCH  10  11
ATOM     11  C   UNL     1      32.592  19.784  24.285  1.00  0.00     0.079 C 
BRANCH  11  12
ATOM     12  C   UNL     1      32.541  19.190  22.902  1.00  0.00     0.130 C 
ATOM     13  O   UNL     1      32.664  19.920  21.930  1.00  0.00    -0.300 OA
ATOM     14  C   UNL     1      32.356  17.716  22.689  1.00  0.00     0.087 C 
ENDBRANCH  11  12
ENDBRANCH  10  11
ENDBRANCH   2  10
TORSDOF 6
ENDMDL
MODEL 7
REMARK VINA RESULT:    -5.160      6.590     10.968
REMARK INTER + INTRA:          -7.626
REMARK INTER:                  -7.012
REMARK INTRA:                  -0.614
REMARK UNBOUND:                -0.655
REMARK SMILES CC(=O)CCC=C(C)CCC=C(C)C
REMARK SMILES IDX 7 1 6 2 8 3 9 4 10 5 11 6 13 7 12 8 14 9 5 10 4 11 2 12 3 13
REMARK SMILES IDX 1 14
REMARK H PARENT
REMARK Flexibility Score: inf
ROOT
ATOM      1  C   UNL     1      33.190  20.369  18.756  1.00  0.00    -0.077 C 
ATOM      2  C   UNL     1      32.579  20.089  17.583  1.00  0.00    -0.028 C 
ATOM      3  C   UNL     1      34.249  21.439  18.867  1.00  0.00     0.039 C 
ENDROOT
BRANCH   1   4
ATOM      4  C   UNL     1      32.771  19.631  20.013  1.00  0.00     0.034 C 
BRANCH   4   5
ATOM      5  C   UNL     1      33.167  20.396  21.283  1.00  0.00     0.032 C 
BRANCH   5   6
ATOM      6  C   UNL     1      32.610  19.757  22.535  1.00  0.00    -0.028 C 
ATOM      7  C   UNL     1      32.705  18.854  24.820  1.00  0.00     0.039 C 
ATOM      8  C   UNL     1      33.361  19.496  23.625  1.00  0.00    -0.080 C 
ATOM      9  C   UNL     1      34.834  19.832  23.669  1.00  0.00     0.039 C 
ENDBRANCH   5   6
ENDBRANCH   4   5
ENDBRANCH   1   4
BRANCH   2  10
ATOM     10  C   UNL     1      32.917  20.744  16.267  1.00  0.00     0.035 C 
BRANCH  10  11
ATOM     11  C   UNL     1      33.114  19.693  15.170  1.00  0.00     0.079 C 
BRANCH  11  12
ATOM     12  C   UNL     1      34.423  18.973  15.354  1.00  0.00     0.130 C 
ATOM     13  O   UNL     1      34.451  17.753  15.300  1.00  0.00    -0.300 OA
ATOM     14  C   UNL     1      35.702  19.722  15.588  1.00  0.00     0.087 C 
ENDBRANCH  11  12
ENDBRANCH  10  11
ENDBRANCH   2  10
TORSDOF 6
ENDMDL
MODEL 8
REMARK VINA RESULT:    -5.148      8.446     11.813
REMARK INTER + INTRA:          -7.609
REMARK INTER:                  -6.632
REMARK INTRA:                  -0.977
REMARK UNBOUND:                -0.655
REMARK SMILES CC(=O)CCC=C(C)CCC=C(C)C
REMARK SMILES IDX 7 1 6 2 8 3 9 4 10 5 11 6 13 7 12 8 14 9 5 10 4 11 2 12 3 13
REMARK SMILES IDX 1 14
REMARK H PARENT
REMARK Flexibility Score: inf
ROOT
ATOM      1  C   UNL     1      38.647  17.198  25.371  1.00  0.00    -0.077 C 
ATOM      2  C   UNL     1      39.690  18.058  25.367  1.00  0.00    -0.028 C 
ATOM      3  C   UNL     1      38.440  16.189  24.267  1.00  0.00     0.039 C 
ENDROOT
BRANCH   1   4
ATOM      4  C   UNL     1      37.680  17.202  26.539  1.00  0.00     0.034 C 
BRANCH   4   5
ATOM      5  C   UNL     1      37.016  18.573  26.728  1.00  0.00     0.032 C 
BRANCH   5   6
ATOM      6  C   UNL     1      35.938  18.835  25.700  1.00  0.00    -0.028 C 
ATOM      7  C   UNL     1      34.893  19.987  23.796  1.00  0.00     0.039 C 
ATOM      8  C   UNL     1      36.027  19.811  24.772  1.00  0.00    -0.080 C 
ATOM      9  C   UNL     1      37.231  20.721  24.695  1.00  0.00     0.039 C 
ENDBRANCH   5   6
ENDBRANCH   4   5
ENDBRANCH   1   4
BRANCH   2  10
ATOM     10  C   UNL     1      40.708  18.158  24.258  1.00  0.00     0.035 C 
BRANCH  10  11
ATOM     11  C   UNL     1      41.127  19.615  24.033  1.00  0.00     0.079 C 
BRANCH  11  12
ATOM     12  C   UNL     1      42.521  19.686  23.469  1.00  0.00     0.130 C 
ATOM     13  O   UNL     1      43.214  20.665  23.700  1.00  0.00    -0.300 OA
ATOM     14  C   UNL     1      43.087  18.572  22.637  1.00  0.00     0.087 C 
ENDBRANCH  11  12
ENDBRANCH  10  11
ENDBRANCH   2  10
TORSDOF 6
ENDMDL
MODEL 9
REMARK VINA RESULT:    -5.147      5.218      8.433
REMARK INTER + INTRA:          -7.608
REMARK INTER:                  -6.951
REMARK INTRA:                  -0.657
REMARK UNBOUND:                -0.655
REMARK SMILES CC(=O)CCC=C(C)CCC=C(C)C
REMARK SMILES IDX 7 1 6 2 8 3 9 4 10 5 11 6 13 7 12 8 14 9 5 10 4 11 2 12 3 13
REMARK SMILES IDX 1 14
REMARK H PARENT
REMARK Flexibility Score: inf
ROOT
ATOM      1  C   UNL     1      32.273  19.681  19.610  1.00  0.00    -0.077 C 
ATOM      2  C   UNL     1      32.209  19.372  20.925  1.00  0.00    -0.028 C 
ATOM      3  C   UNL     1      31.169  19.309  18.649  1.00  0.00     0.039 C 
ENDROOT
BRANCH   1   4
ATOM      4  C   UNL     1      33.457  20.468  19.083  1.00  0.00     0.034 C 
BRANCH   4   5
ATOM      5  C   UNL     1      33.213  20.980  17.656  1.00  0.00     0.032 C 
BRANCH   5   6
ATOM      6  C   UNL     1      34.434  20.831  16.776  1.00  0.00    -0.028 C 
ATOM      7  C   UNL     1      35.959  19.659  15.244  1.00  0.00     0.039 C 
ATOM      8  C   UNL     1      34.714  19.702  16.091  1.00  0.00    -0.080 C 
ATOM      9  C   UNL     1      33.811  18.493  16.158  1.00  0.00     0.039 C 
ENDBRANCH   5   6
ENDBRANCH   4   5
ENDBRANCH   1   4
BRANCH   2  10
ATOM     10  C   UNL     1      31.092  18.584  21.563  1.00  0.00     0.035 C 
BRANCH  10  11
ATOM     11  C   UNL     1      30.287  19.463  22.526  1.00  0.00     0.079 C 
BRANCH  11  12
ATOM     12  C   UNL     1      31.140  19.896  23.689  1.00  0.00     0.130 C 
ATOM     13  O   UNL     1      31.405  21.080  23.832  1.00  0.00    -0.300 OA
ATOM     14  C   UNL     1      31.663  18.906  24.688  1.00  0.00     0.087 C 
ENDBRANCH  11  12
ENDBRANCH  10  11
ENDBRANCH   2  10
TORSDOF 6
ENDMDL
