MODEL 1
REMARK VINA RESULT:    -4.893      0.000      0.000
REMARK INTER + INTRA:          -7.547
REMARK INTER:                  -7.038
REMARK INTRA:                  -0.509
REMARK UNBOUND:                -0.509
REMARK SMILES O=C(CO)[C@H](O)[C@@H](O)[C@@H](O)CO
REMARK SMILES IDX 7 1 9 2 11 3 12 4 10 6 5 8 2 9 1 10 3 11 4 12 6 14 8 16
REMARK H PARENT 12 5 10 7 4 13 6 15 8 17
REMARK Flexibility Score: inf
ROOT
ATOM      1  C   UNL     1      -8.446  16.560 -12.480  1.00  0.00     0.181 C 
ENDROOT
BRANCH   1   2
ATOM      2  C   UNL     1      -8.074  17.562 -13.605  1.00  0.00     0.171 C 
BRANCH   2   3
ATOM      3  C   UNL     1      -8.083  19.035 -13.149  1.00  0.00     0.190 C 
BRANCH   3   4
ATOM      4  O   UNL     1      -8.578  19.857 -14.172  1.00  0.00    -0.394 OA
ATOM      5  H   UNL     1      -7.907  20.574 -14.315  1.00  0.00     0.210 HD
ENDBRANCH   3   4
ENDBRANCH   2   3
BRANCH   2   6
ATOM      6  O   UNL     1      -8.983  17.395 -14.664  1.00  0.00    -0.388 OA
ATOM      7  H   UNL     1      -9.824  17.036 -14.275  1.00  0.00     0.211 HD
ENDBRANCH   2   6
ENDBRANCH   1   2
BRANCH   1   8
ATOM      8  C   UNL     1      -7.482  15.343 -12.345  1.00  0.00     0.214 C 
BRANCH   8   9
ATOM      9  C   UNL     1      -7.762  14.255 -13.363  1.00  0.00     0.189 C 
ATOM     10  O   UNL     1      -8.775  14.329 -14.045  1.00  0.00    -0.294 OA
BRANCH   9  11
ATOM     11  C   UNL     1      -6.842  13.068 -13.519  1.00  0.00     0.234 C 
BRANCH  11  12
ATOM     12  O   UNL     1      -5.666  13.237 -12.772  1.00  0.00    -0.388 OA
ATOM     13  H   UNL     1      -5.917  13.748 -11.959  1.00  0.00     0.211 HD
ENDBRANCH  11  12
ENDBRANCH   9  11
ENDBRANCH   8   9
BRANCH   8  14
ATOM     14  O   UNL     1      -7.522  14.809 -11.044  1.00  0.00    -0.382 OA
ATOM     15  H   UNL     1      -8.418  14.410 -10.901  1.00  0.00     0.211 HD
ENDBRANCH   8  14
ENDBRANCH   1   8
BRANCH   1  16
ATOM     16  O   UNL     1      -8.592  17.224 -11.247  1.00  0.00    -0.387 OA
ATOM     17  H   UNL     1      -8.095  16.711 -10.560  1.00  0.00     0.211 HD
ENDBRANCH   1  16
TORSDOF 10
ENDMDL
MODEL 2
REMARK VINA RESULT:    -4.843      2.084      4.952
REMARK INTER + INTRA:          -7.476
REMARK INTER:                  -6.439
REMARK INTRA:                  -1.037
REMARK UNBOUND:                -0.509
REMARK SMILES O=C(CO)[C@H](O)[C@@H](O)[C@@H](O)CO
REMARK SMILES IDX 7 1 9 2 11 3 12 4 10 6 5 8 2 9 1 10 3 11 4 12 6 14 8 16
REMARK H PARENT 12 5 10 7 4 13 6 15 8 17
REMARK Flexibility Score: inf
ROOT
ATOM      1  C   UNL     1      -7.372  17.470 -13.752  1.00  0.00     0.181 C 
ENDROOT
BRANCH   1   2
ATOM      2  C   UNL     1      -8.445  16.935 -12.766  1.00  0.00     0.171 C 
BRANCH   2   3
ATOM      3  C   UNL     1      -8.109  15.548 -12.181  1.00  0.00     0.190 C 
BRANCH   3   4
ATOM      4  O   UNL     1      -7.243  15.681 -11.085  1.00  0.00    -0.394 OA
ATOM      5  H   UNL     1      -7.541  15.025 -10.402  1.00  0.00     0.210 HD
ENDBRANCH   3   4
ENDBRANCH   2   3
BRANCH   2   6
ATOM      6  O   UNL     1      -9.674  16.871 -13.444  1.00  0.00    -0.388 OA
ATOM      7  H   UNL     1      -9.518  17.196 -14.369  1.00  0.00     0.211 HD
ENDBRANCH   2   6
ENDBRANCH   1   2
BRANCH   1   8
ATOM      8  C   UNL     1      -7.579  18.947 -14.203  1.00  0.00     0.214 C 
BRANCH   8   9
ATOM      9  C   UNL     1      -6.283  19.730 -14.266  1.00  0.00     0.189 C 
ATOM     10  O   UNL     1      -5.379  19.322 -14.982  1.00  0.00    -0.294 OA
BRANCH   9  11
ATOM     11  C   UNL     1      -6.073  20.972 -13.433  1.00  0.00     0.234 C 
BRANCH  11  12
ATOM     12  O   UNL     1      -6.059  20.668 -12.063  1.00  0.00    -0.388 OA
ATOM     13  H   UNL     1      -6.046  21.535 -11.580  1.00  0.00     0.211 HD
ENDBRANCH  11  12
ENDBRANCH   9  11
ENDBRANCH   8   9
BRANCH   8  14
ATOM     14  O   UNL     1      -8.501  19.605 -13.368  1.00  0.00    -0.382 OA
ATOM     15  H   UNL     1      -7.998  20.230 -12.785  1.00  0.00     0.211 HD
ENDBRANCH   8  14
ENDBRANCH   1   8
BRANCH   1  16
ATOM     16  O   UNL     1      -6.077  17.279 -13.233  1.00  0.00    -0.387 OA
ATOM     17  H   UNL     1      -5.427  17.410 -13.971  1.00  0.00     0.211 HD
ENDBRANCH   1  16
TORSDOF 10
ENDMDL
MODEL 3
REMARK VINA RESULT:    -4.739      1.761      2.545
REMARK INTER + INTRA:          -7.327
REMARK INTER:                  -6.278
REMARK INTRA:                  -1.049
REMARK UNBOUND:                -0.509
REMARK SMILES O=C(CO)[C@H](O)[C@@H](O)[C@@H](O)CO
REMARK SMILES IDX 7 1 9 2 11 3 12 4 10 6 5 8 2 9 1 10 3 11 4 12 6 14 8 16
REMARK H PARENT 12 5 10 7 4 13 6 15 8 17
REMARK Flexibility Score: inf
ROOT
ATOM      1  C   UNL     1      -8.050  18.442 -13.519  1.00  0.00     0.181 C 
ENDROOT
BRANCH   1   2
ATOM      2  C   UNL     1      -7.561  19.815 -14.052  1.00  0.00     0.171 C 
BRANCH   2   3
ATOM      3  C   UNL     1      -7.025  20.749 -12.948  1.00  0.00     0.190 C 
BRANCH   3   4
ATOM      4  O   UNL     1      -5.789  20.282 -12.474  1.00  0.00    -0.394 OA
ATOM      5  H   UNL     1      -5.115  20.976 -12.695  1.00  0.00     0.210 HD
ENDBRANCH   3   4
ENDBRANCH   2   3
BRANCH   2   6
ATOM      6  O   UNL     1      -8.631  20.440 -14.714  1.00  0.00    -0.388 OA
ATOM      7  H   UNL     1      -9.236  20.806 -14.016  1.00  0.00     0.211 HD
ENDBRANCH   2   6
ENDBRANCH   1   2
BRANCH   1   8
ATOM      8  C   UNL     1      -7.139  17.234 -13.894  1.00  0.00     0.214 C 
BRANCH   8   9
ATOM      9  C   UNL     1      -7.821  15.897 -13.686  1.00  0.00     0.189 C 
ATOM     10  O   UNL     1      -8.676  15.537 -14.483  1.00  0.00    -0.294 OA
BRANCH   9  11
ATOM     11  C   UNL     1      -7.494  15.025 -12.497  1.00  0.00     0.234 C 
BRANCH  11  12
ATOM     12  O   UNL     1      -7.377  15.789 -11.325  1.00  0.00    -0.388 OA
ATOM     13  H   UNL     1      -6.951  15.202 -10.646  1.00  0.00     0.211 HD
ENDBRANCH  11  12
ENDBRANCH   9  11
ENDBRANCH   8   9
BRANCH   8  14
ATOM     14  O   UNL     1      -5.928  17.276 -13.181  1.00  0.00    -0.382 OA
ATOM     15  H   UNL     1      -5.189  17.081 -13.813  1.00  0.00     0.211 HD
ENDBRANCH   8  14
ENDBRANCH   1   8
BRANCH   1  16
ATOM     16  O   UNL     1      -8.270  18.494 -12.130  1.00  0.00    -0.387 OA
ATOM     17  H   UNL     1      -8.760  17.673 -11.865  1.00  0.00     0.211 HD
ENDBRANCH   1  16
TORSDOF 10
ENDMDL
MODEL 4
REMARK VINA RESULT:    -4.718      0.530      4.376
REMARK INTER + INTRA:          -7.296
REMARK INTER:                  -6.797
REMARK INTRA:                  -0.499
REMARK UNBOUND:                -0.509
REMARK SMILES O=C(CO)[C@H](O)[C@@H](O)[C@@H](O)CO
REMARK SMILES IDX 7 1 9 2 11 3 12 4 10 6 5 8 2 9 1 10 3 11 4 12 6 14 8 16
REMARK H PARENT 12 5 10 7 4 13 6 15 8 17
REMARK Flexibility Score: inf
ROOT
ATOM      1  C   UNL     1      -7.506  15.222 -12.309  1.00  0.00     0.181 C 
ENDROOT
BRANCH   1   2
ATOM      2  C   UNL     1      -7.771  13.902 -13.082  1.00  0.00     0.171 C 
BRANCH   2   3
ATOM      3  C   UNL     1      -6.509  13.305 -13.736  1.00  0.00     0.190 C 
BRANCH   3   4
ATOM      4  O   UNL     1      -5.498  13.138 -12.778  1.00  0.00    -0.394 OA
ATOM      5  H   UNL     1      -5.584  13.890 -12.135  1.00  0.00     0.210 HD
ENDBRANCH   3   4
ENDBRANCH   2   3
BRANCH   2   6
ATOM      6  O   UNL     1      -8.736  14.156 -14.072  1.00  0.00    -0.388 OA
ATOM      7  H   UNL     1      -9.588  14.364 -13.607  1.00  0.00     0.211 HD
ENDBRANCH   2   6
ENDBRANCH   1   2
BRANCH   1   8
ATOM      8  C   UNL     1      -8.606  16.312 -12.484  1.00  0.00     0.214 C 
BRANCH   8   9
ATOM      9  C   UNL     1      -8.375  17.190 -13.698  1.00  0.00     0.189 C 
ATOM     10  O   UNL     1      -8.709  16.776 -14.800  1.00  0.00    -0.294 OA
BRANCH   9  11
ATOM     11  C   UNL     1      -7.707  18.538 -13.578  1.00  0.00     0.234 C 
BRANCH  11  12
ATOM     12  O   UNL     1      -8.591  19.499 -13.064  1.00  0.00    -0.388 OA
ATOM     13  H   UNL     1      -8.034  20.261 -12.756  1.00  0.00     0.211 HD
ENDBRANCH  11  12
ENDBRANCH   9  11
ENDBRANCH   8   9
BRANCH   8  14
ATOM     14  O   UNL     1      -8.717  17.107 -11.328  1.00  0.00    -0.382 OA
ATOM     15  H   UNL     1      -8.565  18.052 -11.587  1.00  0.00     0.211 HD
ENDBRANCH   8  14
ENDBRANCH   1   8
BRANCH   1  16
ATOM     16  O   UNL     1      -7.267  14.963 -10.946  1.00  0.00    -0.387 OA
ATOM     17  H   UNL     1      -6.451  15.460 -10.677  1.00  0.00     0.211 HD
ENDBRANCH   1  16
TORSDOF 10
ENDMDL
MODEL 5
REMARK VINA RESULT:    -4.611      1.567      4.705
REMARK INTER + INTRA:          -7.142
REMARK INTER:                  -6.163
REMARK INTRA:                  -0.979
REMARK UNBOUND:                -0.509
REMARK SMILES O=C(CO)[C@H](O)[C@@H](O)[C@@H](O)CO
REMARK SMILES IDX 7 1 9 2 11 3 12 4 10 6 5 8 2 9 1 10 3 11 4 12 6 14 8 16
REMARK H PARENT 12 5 10 7 4 13 6 15 8 17
REMARK Flexibility Score: inf
ROOT
ATOM      1  C   UNL     1      -7.061  16.329 -13.959  1.00  0.00     0.181 C 
ENDROOT
BRANCH   1   2
ATOM      2  C   UNL     1      -7.626  15.042 -13.300  1.00  0.00     0.171 C 
BRANCH   2   3
ATOM      3  C   UNL     1      -7.528  15.042 -11.762  1.00  0.00     0.190 C 
BRANCH   3   4
ATOM      4  O   UNL     1      -7.946  16.279 -11.248  1.00  0.00    -0.394 OA
ATOM      5  H   UNL     1      -7.150  16.703 -10.834  1.00  0.00     0.210 HD
ENDBRANCH   3   4
ENDBRANCH   2   3
BRANCH   2   6
ATOM      6  O   UNL     1      -6.924  13.938 -13.814  1.00  0.00    -0.388 OA
ATOM      7  H   UNL     1      -7.583  13.207 -13.949  1.00  0.00     0.211 HD
ENDBRANCH   2   6
ENDBRANCH   1   2
BRANCH   1   8
ATOM      8  C   UNL     1      -8.129  17.413 -14.295  1.00  0.00     0.214 C 
BRANCH   8   9
ATOM      9  C   UNL     1      -7.788  18.773 -13.720  1.00  0.00     0.189 C 
ATOM     10  O   UNL     1      -7.813  18.925 -12.506  1.00  0.00    -0.294 OA
BRANCH   9  11
ATOM     11  C   UNL     1      -7.462  19.945 -14.613  1.00  0.00     0.234 C 
BRANCH  11  12
ATOM     12  O   UNL     1      -8.611  20.696 -14.904  1.00  0.00    -0.388 OA
ATOM     13  H   UNL     1      -9.228  20.580 -14.134  1.00  0.00     0.211 HD
ENDBRANCH  11  12
ENDBRANCH   9  11
ENDBRANCH   8   9
BRANCH   8  14
ATOM     14  O   UNL     1      -9.407  17.012 -13.865  1.00  0.00    -0.382 OA
ATOM     15  H   UNL     1      -9.541  17.347 -12.941  1.00  0.00     0.211 HD
ENDBRANCH   8  14
ENDBRANCH   1   8
BRANCH   1  16
ATOM     16  O   UNL     1      -6.020  16.872 -13.182  1.00  0.00    -0.387 OA
ATOM     17  H   UNL     1      -6.378  17.062 -12.277  1.00  0.00     0.211 HD
ENDBRANCH   1  16
TORSDOF 10
ENDMDL
MODEL 6
REMARK VINA RESULT:    -4.587      1.242      4.791
REMARK INTER + INTRA:          -7.107
REMARK INTER:                  -6.134
REMARK INTRA:                  -0.973
REMARK UNBOUND:                -0.509
REMARK SMILES O=C(CO)[C@H](O)[C@@H](O)[C@@H](O)CO
REMARK SMILES IDX 7 1 9 2 11 3 12 4 10 6 5 8 2 9 1 10 3 11 4 12 6 14 8 16
REMARK H PARENT 12 5 10 7 4 13 6 15 8 17
REMARK Flexibility Score: inf
ROOT
ATOM      1  C   UNL     1      -7.243  15.725 -13.448  1.00  0.00     0.181 C 
ENDROOT
BRANCH   1   2
ATOM      2  C   UNL     1      -8.031  14.417 -13.728  1.00  0.00     0.171 C 
BRANCH   2   3
ATOM      3  C   UNL     1      -7.158  13.147 -13.676  1.00  0.00     0.190 C 
BRANCH   3   4
ATOM      4  O   UNL     1      -6.002  13.383 -12.917  1.00  0.00    -0.394 OA
ATOM      5  H   UNL     1      -5.318  13.746 -13.539  1.00  0.00     0.210 HD
ENDBRANCH   3   4
ENDBRANCH   2   3
BRANCH   2   6
ATOM      6  O   UNL     1      -8.627  14.523 -14.996  1.00  0.00    -0.388 OA
ATOM      7  H   UNL     1      -8.884  15.474 -15.122  1.00  0.00     0.211 HD
ENDBRANCH   2   6
ENDBRANCH   1   2
BRANCH   1   8
ATOM      8  C   UNL     1      -7.795  16.987 -14.177  1.00  0.00     0.214 C 
BRANCH   8   9
ATOM      9  C   UNL     1      -7.112  18.266 -13.735  1.00  0.00     0.189 C 
ATOM     10  O   UNL     1      -5.893  18.285 -13.640  1.00  0.00    -0.294 OA
BRANCH   9  11
ATOM     11  C   UNL     1      -7.908  19.497 -13.370  1.00  0.00     0.234 C 
BRANCH  11  12
ATOM     12  O   UNL     1      -8.583  20.014 -14.487  1.00  0.00    -0.388 OA
ATOM     13  H   UNL     1      -7.902  20.482 -15.037  1.00  0.00     0.211 HD
ENDBRANCH  11  12
ENDBRANCH   9  11
ENDBRANCH   8   9
BRANCH   8  14
ATOM     14  O   UNL     1      -9.187  17.099 -14.008  1.00  0.00    -0.382 OA
ATOM     15  H   UNL     1      -9.614  16.308 -14.427  1.00  0.00     0.211 HD
ENDBRANCH   8  14
ENDBRANCH   1   8
BRANCH   1  16
ATOM     16  O   UNL     1      -7.128  15.953 -12.064  1.00  0.00    -0.387 OA
ATOM     17  H   UNL     1      -7.051  15.073 -11.613  1.00  0.00     0.211 HD
ENDBRANCH   1  16
TORSDOF 10
ENDMDL
MODEL 7
REMARK VINA RESULT:    -4.317      1.226      2.086
REMARK INTER + INTRA:          -6.719
REMARK INTER:                  -6.337
REMARK INTRA:                  -0.382
REMARK UNBOUND:                -0.509
REMARK SMILES O=C(CO)[C@H](O)[C@@H](O)[C@@H](O)CO
REMARK SMILES IDX 7 1 9 2 11 3 12 4 10 6 5 8 2 9 1 10 3 11 4 12 6 14 8 16
REMARK H PARENT 12 5 10 7 4 13 6 15 8 17
REMARK Flexibility Score: inf
ROOT
ATOM      1  C   UNL     1      -8.303  17.055 -13.688  1.00  0.00     0.181 C 
ENDROOT
BRANCH   1   2
ATOM      2  C   UNL     1      -7.852  18.440 -14.223  1.00  0.00     0.171 C 
BRANCH   2   3
ATOM      3  C   UNL     1      -6.328  18.665 -14.147  1.00  0.00     0.190 C 
BRANCH   3   4
ATOM      4  O   UNL     1      -6.029  19.649 -13.192  1.00  0.00    -0.394 OA
ATOM      5  H   UNL     1      -5.771  19.174 -12.360  1.00  0.00     0.210 HD
ENDBRANCH   3   4
ENDBRANCH   2   3
BRANCH   2   6
ATOM      6  O   UNL     1      -8.509  19.436 -13.480  1.00  0.00    -0.388 OA
ATOM      7  H   UNL     1      -8.023  19.530 -12.619  1.00  0.00     0.211 HD
ENDBRANCH   2   6
ENDBRANCH   1   2
BRANCH   1   8
ATOM      8  C   UNL     1      -7.684  16.652 -12.315  1.00  0.00     0.214 C 
BRANCH   8   9
ATOM      9  C   UNL     1      -7.471  15.157 -12.182  1.00  0.00     0.189 C 
ATOM     10  O   UNL     1      -7.324  14.677 -11.067  1.00  0.00    -0.294 OA
BRANCH   9  11
ATOM     11  C   UNL     1      -7.395  14.263 -13.397  1.00  0.00     0.234 C 
BRANCH  11  12
ATOM     12  O   UNL     1      -6.065  13.940 -13.706  1.00  0.00    -0.388 OA
ATOM     13  H   UNL     1      -6.073  13.010 -14.054  1.00  0.00     0.211 HD
ENDBRANCH  11  12
ENDBRANCH   9  11
ENDBRANCH   8   9
BRANCH   8  14
ATOM     14  O   UNL     1      -8.470  17.125 -11.249  1.00  0.00    -0.382 OA
ATOM     15  H   UNL     1      -9.242  17.618 -11.629  1.00  0.00     0.211 HD
ENDBRANCH   8  14
ENDBRANCH   1   8
BRANCH   1  16
ATOM     16  O   UNL     1      -9.708  16.966 -13.651  1.00  0.00    -0.387 OA
ATOM     17  H   UNL     1     -10.008  16.498 -14.472  1.00  0.00     0.211 HD
ENDBRANCH   1  16
TORSDOF 10
ENDMDL
MODEL 8
REMARK VINA RESULT:    -4.298      1.301      1.817
REMARK INTER + INTRA:          -6.692
REMARK INTER:                  -5.926
REMARK INTRA:                  -0.766
REMARK UNBOUND:                -0.509
REMARK SMILES O=C(CO)[C@H](O)[C@@H](O)[C@@H](O)CO
REMARK SMILES IDX 7 1 9 2 11 3 12 4 10 6 5 8 2 9 1 10 3 11 4 12 6 14 8 16
REMARK H PARENT 12 5 10 7 4 13 6 15 8 17
REMARK Flexibility Score: inf
ROOT
ATOM      1  C   UNL     1      -8.115  15.815 -12.526  1.00  0.00     0.181 C 
ENDROOT
BRANCH   1   2
ATOM      2  C   UNL     1      -8.815  17.198 -12.613  1.00  0.00     0.171 C 
BRANCH   2   3
ATOM      3  C   UNL     1      -8.125  18.179 -13.581  1.00  0.00     0.190 C 
BRANCH   3   4
ATOM      4  O   UNL     1      -6.830  18.476 -13.130  1.00  0.00    -0.394 OA
ATOM      5  H   UNL     1      -6.254  17.707 -13.384  1.00  0.00     0.210 HD
ENDBRANCH   3   4
ENDBRANCH   2   3
BRANCH   2   6
ATOM      6  O   UNL     1      -8.850  17.758 -11.325  1.00  0.00    -0.388 OA
ATOM      7  H   UNL     1      -8.281  17.190 -10.742  1.00  0.00     0.211 HD
ENDBRANCH   2   6
ENDBRANCH   1   2
BRANCH   1   8
ATOM      8  C   UNL     1      -7.461  15.330 -13.854  1.00  0.00     0.214 C 
BRANCH   8   9
ATOM      9  C   UNL     1      -7.689  13.855 -14.118  1.00  0.00     0.189 C 
ATOM     10  O   UNL     1      -8.766  13.494 -14.571  1.00  0.00    -0.294 OA
BRANCH   9  11
ATOM     11  C   UNL     1      -6.633  12.826 -13.792  1.00  0.00     0.234 C 
BRANCH  11  12
ATOM     12  O   UNL     1      -5.887  13.203 -12.665  1.00  0.00    -0.388 OA
ATOM     13  H   UNL     1      -5.834  14.194 -12.679  1.00  0.00     0.211 HD
ENDBRANCH  11  12
ENDBRANCH   9  11
ENDBRANCH   8   9
BRANCH   8  14
ATOM     14  O   UNL     1      -6.084  15.617 -13.872  1.00  0.00    -0.382 OA
ATOM     15  H   UNL     1      -5.960  16.557 -13.581  1.00  0.00     0.211 HD
ENDBRANCH   8  14
ENDBRANCH   1   8
BRANCH   1  16
ATOM     16  O   UNL     1      -7.185  15.792 -11.469  1.00  0.00    -0.387 OA
ATOM     17  H   UNL     1      -6.600  15.000 -11.591  1.00  0.00     0.211 HD
ENDBRANCH   1  16
TORSDOF 10
ENDMDL
MODEL 9
REMARK VINA RESULT:    -4.183      1.722      2.944
REMARK INTER + INTRA:          -6.527
REMARK INTER:                  -5.556
REMARK INTRA:                  -0.971
REMARK UNBOUND:                -0.509
REMARK SMILES O=C(CO)[C@H](O)[C@@H](O)[C@@H](O)CO
REMARK SMILES IDX 7 1 9 2 11 3 12 4 10 6 5 8 2 9 1 10 3 11 4 12 6 14 8 16
REMARK H PARENT 12 5 10 7 4 13 6 15 8 17
REMARK Flexibility Score: inf
ROOT
ATOM      1  C   UNL     1      -7.214  18.402 -13.490  1.00  0.00     0.181 C 
ENDROOT
BRANCH   1   2
ATOM      2  C   UNL     1      -7.467  19.329 -14.709  1.00  0.00     0.171 C 
BRANCH   2   3
ATOM      3  C   UNL     1      -6.302  20.297 -15.001  1.00  0.00     0.190 C 
BRANCH   3   4
ATOM      4  O   UNL     1      -5.673  20.675 -13.804  1.00  0.00    -0.394 OA
ATOM      5  H   UNL     1      -6.391  20.805 -13.131  1.00  0.00     0.210 HD
ENDBRANCH   3   4
ENDBRANCH   2   3
BRANCH   2   6
ATOM      6  O   UNL     1      -8.638  20.067 -14.468  1.00  0.00    -0.388 OA
ATOM      7  H   UNL     1      -9.122  20.142 -15.332  1.00  0.00     0.211 HD
ENDBRANCH   2   6
ENDBRANCH   1   2
BRANCH   1   8
ATOM      8  C   UNL     1      -8.311  17.321 -13.255  1.00  0.00     0.214 C 
BRANCH   8   9
ATOM      9  C   UNL     1      -7.742  15.998 -12.782  1.00  0.00     0.189 C 
ATOM     10  O   UNL     1      -7.300  15.917 -11.644  1.00  0.00    -0.294 OA
BRANCH   9  11
ATOM     11  C   UNL     1      -7.672  14.800 -13.698  1.00  0.00     0.234 C 
BRANCH  11  12
ATOM     12  O   UNL     1      -8.955  14.361 -14.058  1.00  0.00    -0.388 OA
ATOM     13  H   UNL     1      -9.119  14.690 -14.980  1.00  0.00     0.211 HD
ENDBRANCH  11  12
ENDBRANCH   9  11
ENDBRANCH   8   9
BRANCH   8  14
ATOM     14  O   UNL     1      -9.085  17.127 -14.414  1.00  0.00    -0.382 OA
ATOM     15  H   UNL     1      -8.577  17.482 -15.188  1.00  0.00     0.211 HD
ENDBRANCH   8  14
ENDBRANCH   1   8
BRANCH   1  16
ATOM     16  O   UNL     1      -5.937  17.814 -13.565  1.00  0.00    -0.387 OA
ATOM     17  H   UNL     1      -5.960  17.117 -14.270  1.00  0.00     0.211 HD
ENDBRANCH   1  16
TORSDOF 10
ENDMDL
