MODEL 1
REMARK VINA RESULT:    -3.494      0.000      0.000
REMARK INTER + INTRA:          -6.910
REMARK INTER:                  -5.536
REMARK INTRA:                  -1.374
REMARK UNBOUND:                -1.374
REMARK SMILES CCCCCCCCCCCC(=O)[O-]
REMARK SMILES IDX 7 1 8 2 9 3 10 4 11 5 12 6 13 7 14 8 6 9 5 10 4 11 3 12 2 13
REMARK SMILES IDX 1 14
REMARK H PARENT
REMARK Flexibility Score: inf
ROOT
ATOM      1  C   UNL     1     181.632 184.177 202.125  1.00  0.00     0.000 C 
ENDROOT
BRANCH   1   2
ATOM      2  C   UNL     1     181.903 185.643 201.749  1.00  0.00     0.000 C 
BRANCH   2   3
ATOM      3  C   UNL     1     182.518 185.791 200.348  1.00  0.00     0.000 C 
BRANCH   3   4
ATOM      4  C   UNL     1     183.329 187.087 200.239  1.00  0.00     0.006 C 
BRANCH   4   5
ATOM      5  C   UNL     1     183.727 187.367 198.787  1.00  0.00     0.053 C 
BRANCH   5   6
ATOM      6  C   UNL     1     185.097 186.837 198.508  1.00  0.00     0.041 C 
ATOM      7  O   UNL     1     186.054 187.119 199.277  1.00  0.00    -0.550 OA
ATOM      8  O   UNL     1     185.309 185.992 197.426  1.00  0.00    -0.550 OA
ENDBRANCH   5   6
ENDBRANCH   4   5
ENDBRANCH   3   4
ENDBRANCH   2   3
ENDBRANCH   1   2
BRANCH   1   9
ATOM      9  C   UNL     1     181.499 183.264 200.896  1.00  0.00     0.000 C 
BRANCH   9  10
ATOM     10  C   UNL     1     182.049 181.861 201.194  1.00  0.00    -0.000 C 
BRANCH  10  11
ATOM     11  C   UNL     1     183.579 181.783 201.057  1.00  0.00    -0.000 C 
BRANCH  11  12
ATOM     12  C   UNL     1     184.081 182.316 199.707  1.00  0.00    -0.000 C 
BRANCH  12  13
ATOM     13  C   UNL     1     185.130 183.416 199.908  1.00  0.00    -0.003 C 
ATOM     14  C   UNL     1     185.484 183.576 201.383  1.00  0.00     0.004 C 
ENDBRANCH  12  13
ENDBRANCH  11  12
ENDBRANCH  10  11
ENDBRANCH   9  10
ENDBRANCH   1   9
TORSDOF 10
ENDMDL
MODEL 2
REMARK VINA RESULT:    -3.484      1.396      3.285
REMARK INTER + INTRA:          -6.894
REMARK INTER:                  -5.692
REMARK INTRA:                  -1.202
REMARK UNBOUND:                -1.374
REMARK SMILES CCCCCCCCCCCC(=O)[O-]
REMARK SMILES IDX 7 1 8 2 9 3 10 4 11 5 12 6 13 7 14 8 6 9 5 10 4 11 3 12 2 13
REMARK SMILES IDX 1 14
REMARK H PARENT
REMARK Flexibility Score: inf
ROOT
ATOM      1  C   UNL     1     184.137 182.258 198.826  1.00  0.00     0.000 C 
ENDROOT
BRANCH   1   2
ATOM      2  C   UNL     1     184.829 183.582 199.190  1.00  0.00     0.000 C 
BRANCH   2   3
ATOM      3  C   UNL     1     184.824 184.590 198.030  1.00  0.00     0.000 C 
BRANCH   3   4
ATOM      4  C   UNL     1     184.585 186.015 198.544  1.00  0.00     0.006 C 
BRANCH   4   5
ATOM      5  C   UNL     1     185.417 186.296 199.798  1.00  0.00     0.053 C 
BRANCH   5   6
ATOM      6  C   UNL     1     186.331 187.458 199.571  1.00  0.00     0.041 C 
ATOM      7  O   UNL     1     186.619 187.818 198.399  1.00  0.00    -0.550 OA
ATOM      8  O   UNL     1     186.826 188.175 200.654  1.00  0.00    -0.550 OA
ENDBRANCH   5   6
ENDBRANCH   4   5
ENDBRANCH   3   4
ENDBRANCH   2   3
ENDBRANCH   1   2
BRANCH   1   9
ATOM      9  C   UNL     1     182.832 182.037 199.606  1.00  0.00     0.000 C 
BRANCH   9  10
ATOM     10  C   UNL     1     182.988 182.477 201.069  1.00  0.00    -0.000 C 
BRANCH  10  11
ATOM     11  C   UNL     1     181.647 182.858 201.720  1.00  0.00    -0.000 C 
BRANCH  11  12
ATOM     12  C   UNL     1     181.062 184.159 201.153  1.00  0.00    -0.000 C 
BRANCH  12  13
ATOM     13  C   UNL     1     182.073 185.307 201.261  1.00  0.00    -0.003 C 
ATOM     14  C   UNL     1     181.542 186.574 200.596  1.00  0.00     0.004 C 
ENDBRANCH  12  13
ENDBRANCH  11  12
ENDBRANCH  10  11
ENDBRANCH   9  10
ENDBRANCH   1   9
TORSDOF 10
ENDMDL
MODEL 3
REMARK VINA RESULT:    -3.443      1.315      2.310
REMARK INTER + INTRA:          -6.829
REMARK INTER:                  -5.568
REMARK INTRA:                  -1.261
REMARK UNBOUND:                -1.374
REMARK SMILES CCCCCCCCCCCC(=O)[O-]
REMARK SMILES IDX 7 1 8 2 9 3 10 4 11 5 12 6 13 7 14 8 6 9 5 10 4 11 3 12 2 13
REMARK SMILES IDX 1 14
REMARK H PARENT
REMARK Flexibility Score: inf
ROOT
ATOM      1  C   UNL     1     180.458 186.314 200.794  1.00  0.00     0.000 C 
ENDROOT
BRANCH   1   2
ATOM      2  C   UNL     1     181.508 187.128 200.018  1.00  0.00     0.000 C 
BRANCH   2   3
ATOM      3  C   UNL     1     182.948 186.736 200.382  1.00  0.00     0.000 C 
BRANCH   3   4
ATOM      4  C   UNL     1     183.744 186.349 199.130  1.00  0.00     0.006 C 
BRANCH   4   5
ATOM      5  C   UNL     1     185.220 186.117 199.466  1.00  0.00     0.053 C 
BRANCH   5   6
ATOM      6  C   UNL     1     186.016 187.358 199.215  1.00  0.00     0.041 C 
ATOM      7  O   UNL     1     186.232 187.745 198.036  1.00  0.00    -0.550 OA
ATOM      8  O   UNL     1     186.479 188.115 200.284  1.00  0.00    -0.550 OA
ENDBRANCH   5   6
ENDBRANCH   4   5
ENDBRANCH   3   4
ENDBRANCH   2   3
ENDBRANCH   1   2
BRANCH   1   9
ATOM      9  C   UNL     1     181.031 185.669 202.065  1.00  0.00     0.000 C 
BRANCH   9  10
ATOM     10  C   UNL     1     180.794 184.151 202.063  1.00  0.00    -0.000 C 
BRANCH  10  11
ATOM     11  C   UNL     1     182.090 183.349 201.861  1.00  0.00    -0.000 C 
BRANCH  11  12
ATOM     12  C   UNL     1     182.379 183.051 200.383  1.00  0.00    -0.000 C 
BRANCH  12  13
ATOM     13  C   UNL     1     183.867 182.750 200.165  1.00  0.00    -0.003 C 
ATOM     14  C   UNL     1     184.140 182.333 198.723  1.00  0.00     0.004 C 
ENDBRANCH  12  13
ENDBRANCH  11  12
ENDBRANCH  10  11
ENDBRANCH   9  10
ENDBRANCH   1   9
TORSDOF 10
ENDMDL
MODEL 4
REMARK VINA RESULT:    -3.440     12.941     15.735
REMARK INTER + INTRA:          -6.825
REMARK INTER:                  -5.513
REMARK INTRA:                  -1.311
REMARK UNBOUND:                -1.374
REMARK SMILES CCCCCCCCCCCC(=O)[O-]
REMARK SMILES IDX 7 1 8 2 9 3 10 4 11 5 12 6 13 7 14 8 6 9 5 10 4 11 3 12 2 13
REMARK SMILES IDX 1 14
REMARK H PARENT
REMARK Flexibility Score: inf
ROOT
ATOM      1  C   UNL     1     197.374 192.802 201.235  1.00  0.00     0.000 C 
ENDROOT
BRANCH   1   2
ATOM      2  C   UNL     1     195.993 192.723 201.905  1.00  0.00     0.000 C 
BRANCH   2   3
ATOM      3  C   UNL     1     194.841 192.719 200.889  1.00  0.00     0.000 C 
BRANCH   3   4
ATOM      4  C   UNL     1     195.361 192.454 199.471  1.00  0.00     0.006 C 
BRANCH   4   5
ATOM      5  C   UNL     1     194.892 191.089 198.958  1.00  0.00     0.053 C 
BRANCH   5   6
ATOM      6  C   UNL     1     193.467 191.161 198.507  1.00  0.00     0.041 C 
ATOM      7  O   UNL     1     193.168 191.773 197.448  1.00  0.00    -0.550 OA
ATOM      8  O   UNL     1     192.475 190.510 199.230  1.00  0.00    -0.550 OA
ENDBRANCH   5   6
ENDBRANCH   4   5
ENDBRANCH   3   4
ENDBRANCH   2   3
ENDBRANCH   1   2
BRANCH   1   9
ATOM      9  C   UNL     1     198.403 193.561 202.087  1.00  0.00     0.000 C 
BRANCH   9  10
ATOM     10  C   UNL     1     198.140 195.073 202.047  1.00  0.00    -0.000 C 
BRANCH  10  11
ATOM     11  C   UNL     1     198.213 195.650 200.624  1.00  0.00    -0.000 C 
BRANCH  11  12
ATOM     12  C   UNL     1     197.169 196.749 200.375  1.00  0.00    -0.000 C 
BRANCH  12  13
ATOM     13  C   UNL     1     195.844 196.146 199.892  1.00  0.00    -0.003 C 
ATOM     14  C   UNL     1     194.710 196.457 200.865  1.00  0.00     0.004 C 
ENDBRANCH  12  13
ENDBRANCH  11  12
ENDBRANCH  10  11
ENDBRANCH   9  10
ENDBRANCH   1   9
TORSDOF 10
ENDMDL
MODEL 5
REMARK VINA RESULT:    -3.422      1.988      4.292
REMARK INTER + INTRA:          -6.796
REMARK INTER:                  -5.525
REMARK INTRA:                  -1.271
REMARK UNBOUND:                -1.374
REMARK SMILES CCCCCCCCCCCC(=O)[O-]
REMARK SMILES IDX 7 1 8 2 9 3 10 4 11 5 12 6 13 7 14 8 6 9 5 10 4 11 3 12 2 13
REMARK SMILES IDX 1 14
REMARK H PARENT
REMARK Flexibility Score: inf
ROOT
ATOM      1  C   UNL     1     180.162 184.174 201.367  1.00  0.00     0.000 C 
ENDROOT
BRANCH   1   2
ATOM      2  C   UNL     1     181.510 184.383 202.077  1.00  0.00     0.000 C 
BRANCH   2   3
ATOM      3  C   UNL     1     182.551 183.319 201.695  1.00  0.00     0.000 C 
BRANCH   3   4
ATOM      4  C   UNL     1     182.498 183.013 200.194  1.00  0.00     0.006 C 
BRANCH   4   5
ATOM      5  C   UNL     1     183.727 182.214 199.751  1.00  0.00     0.053 C 
BRANCH   5   6
ATOM      6  C   UNL     1     184.811 183.135 199.288  1.00  0.00     0.041 C 
ATOM      7  O   UNL     1     185.692 183.533 200.097  1.00  0.00    -0.550 OA
ATOM      8  O   UNL     1     184.879 183.515 197.953  1.00  0.00    -0.550 OA
ENDBRANCH   5   6
ENDBRANCH   4   5
ENDBRANCH   3   4
ENDBRANCH   2   3
ENDBRANCH   1   2
BRANCH   1   9
ATOM      9  C   UNL     1     179.309 185.452 201.329  1.00  0.00     0.000 C 
BRANCH   9  10
ATOM     10  C   UNL     1     180.162 186.690 201.641  1.00  0.00    -0.000 C 
BRANCH  10  11
ATOM     11  C   UNL     1     180.000 187.801 200.590  1.00  0.00    -0.000 C 
BRANCH  11  12
ATOM     12  C   UNL     1     181.127 187.799 199.547  1.00  0.00    -0.000 C 
BRANCH  12  13
ATOM     13  C   UNL     1     182.474 187.454 200.196  1.00  0.00    -0.003 C 
ATOM     14  C   UNL     1     183.278 186.496 199.322  1.00  0.00     0.004 C 
ENDBRANCH  12  13
ENDBRANCH  11  12
ENDBRANCH  10  11
ENDBRANCH   9  10
ENDBRANCH   1   9
TORSDOF 10
ENDMDL
MODEL 6
REMARK VINA RESULT:    -3.413      1.934      2.254
REMARK INTER + INTRA:          -6.782
REMARK INTER:                  -5.260
REMARK INTRA:                  -1.522
REMARK UNBOUND:                -1.374
REMARK SMILES CCCCCCCCCCCC(=O)[O-]
REMARK SMILES IDX 7 1 8 2 9 3 10 4 11 5 12 6 13 7 14 8 6 9 5 10 4 11 3 12 2 13
REMARK SMILES IDX 1 14
REMARK H PARENT
REMARK Flexibility Score: inf
ROOT
ATOM      1  C   UNL     1     181.681 184.620 202.107  1.00  0.00     0.000 C 
ENDROOT
BRANCH   1   2
ATOM      2  C   UNL     1     182.009 186.075 201.736  1.00  0.00     0.000 C 
BRANCH   2   3
ATOM      3  C   UNL     1     181.326 186.523 200.435  1.00  0.00     0.000 C 
BRANCH   3   4
ATOM      4  C   UNL     1     182.306 187.287 199.536  1.00  0.00     0.006 C 
BRANCH   4   5
ATOM      5  C   UNL     1     183.453 187.885 200.355  1.00  0.00     0.053 C 
BRANCH   5   6
ATOM      6  C   UNL     1     183.457 189.377 200.239  1.00  0.00     0.041 C 
ATOM      7  O   UNL     1     182.850 190.080 201.090  1.00  0.00    -0.550 OA
ATOM      8  O   UNL     1     184.173 189.993 199.220  1.00  0.00    -0.550 OA
ENDBRANCH   5   6
ENDBRANCH   4   5
ENDBRANCH   3   4
ENDBRANCH   2   3
ENDBRANCH   1   2
BRANCH   1   9
ATOM      9  C   UNL     1     180.690 183.968 201.130  1.00  0.00     0.000 C 
BRANCH   9  10
ATOM     10  C   UNL     1     181.247 182.643 200.589  1.00  0.00    -0.000 C 
BRANCH  10  11
ATOM     11  C   UNL     1     182.774 182.536 200.739  1.00  0.00    -0.000 C 
BRANCH  11  12
ATOM     12  C   UNL     1     183.507 182.574 199.391  1.00  0.00    -0.000 C 
BRANCH  12  13
ATOM     13  C   UNL     1     184.017 183.987 199.085  1.00  0.00    -0.003 C 
ATOM     14  C   UNL     1     185.004 184.459 200.149  1.00  0.00     0.004 C 
ENDBRANCH  12  13
ENDBRANCH  11  12
ENDBRANCH  10  11
ENDBRANCH   9  10
ENDBRANCH   1   9
TORSDOF 10
ENDMDL
MODEL 7
REMARK VINA RESULT:    -3.390      1.397      3.103
REMARK INTER + INTRA:          -6.746
REMARK INTER:                  -5.667
REMARK INTRA:                  -1.079
REMARK UNBOUND:                -1.374
REMARK SMILES CCCCCCCCCCCC(=O)[O-]
REMARK SMILES IDX 7 1 8 2 9 3 10 4 11 5 12 6 13 7 14 8 6 9 5 10 4 11 3 12 2 13
REMARK SMILES IDX 1 14
REMARK H PARENT
REMARK Flexibility Score: inf
ROOT
ATOM      1  C   UNL     1     184.761 183.884 199.414  1.00  0.00     0.000 C 
ENDROOT
BRANCH   1   2
ATOM      2  C   UNL     1     183.765 184.985 199.014  1.00  0.00     0.000 C 
BRANCH   2   3
ATOM      3  C   UNL     1     183.685 186.116 200.051  1.00  0.00     0.000 C 
BRANCH   3   4
ATOM      4  C   UNL     1     184.155 187.446 199.448  1.00  0.00     0.006 C 
BRANCH   4   5
ATOM      5  C   UNL     1     185.680 187.565 199.498  1.00  0.00     0.053 C 
BRANCH   5   6
ATOM      6  C   UNL     1     186.225 187.889 198.143  1.00  0.00     0.041 C 
ATOM      7  O   UNL     1     185.883 187.204 197.143  1.00  0.00    -0.550 OA
ATOM      8  O   UNL     1     187.073 188.977 197.976  1.00  0.00    -0.550 OA
ENDBRANCH   5   6
ENDBRANCH   4   5
ENDBRANCH   3   4
ENDBRANCH   2   3
ENDBRANCH   1   2
BRANCH   1   9
ATOM      9  C   UNL     1     184.072 182.549 199.736  1.00  0.00     0.000 C 
BRANCH   9  10
ATOM     10  C   UNL     1     184.185 182.222 201.232  1.00  0.00    -0.000 C 
BRANCH  10  11
ATOM     11  C   UNL     1     183.213 183.045 202.094  1.00  0.00    -0.000 C 
BRANCH  11  12
ATOM     12  C   UNL     1     181.765 182.972 201.588  1.00  0.00    -0.000 C 
BRANCH  12  13
ATOM     13  C   UNL     1     180.937 184.146 202.125  1.00  0.00    -0.003 C 
ATOM     14  C   UNL     1     180.041 184.732 201.038  1.00  0.00     0.004 C 
ENDBRANCH  12  13
ENDBRANCH  11  12
ENDBRANCH  10  11
ENDBRANCH   9  10
ENDBRANCH   1   9
TORSDOF 10
ENDMDL
MODEL 8
REMARK VINA RESULT:    -3.362     11.023     13.280
REMARK INTER + INTRA:          -6.702
REMARK INTER:                  -4.997
REMARK INTRA:                  -1.705
REMARK UNBOUND:                -1.374
REMARK SMILES CCCCCCCCCCCC(=O)[O-]
REMARK SMILES IDX 7 1 8 2 9 3 10 4 11 5 12 6 13 7 14 8 6 9 5 10 4 11 3 12 2 13
REMARK SMILES IDX 1 14
REMARK H PARENT
REMARK Flexibility Score: inf
ROOT
ATOM      1  C   UNL     1     196.352 190.756 199.130  1.00  0.00     0.000 C 
ENDROOT
BRANCH   1   2
ATOM      2  C   UNL     1     196.901 189.396 198.669  1.00  0.00     0.000 C 
BRANCH   2   3
ATOM      3  C   UNL     1     195.923 188.641 197.755  1.00  0.00     0.000 C 
BRANCH   3   4
ATOM      4  C   UNL     1     195.363 187.399 198.458  1.00  0.00     0.006 C 
BRANCH   4   5
ATOM      5  C   UNL     1     196.212 187.026 199.677  1.00  0.00     0.053 C 
BRANCH   5   6
ATOM      6  C   UNL     1     196.748 185.636 199.536  1.00  0.00     0.041 C 
ATOM      7  O   UNL     1     197.365 185.298 198.490  1.00  0.00    -0.550 OA
ATOM      8  O   UNL     1     196.611 184.729 200.579  1.00  0.00    -0.550 OA
ENDBRANCH   5   6
ENDBRANCH   4   5
ENDBRANCH   3   4
ENDBRANCH   2   3
ENDBRANCH   1   2
BRANCH   1   9
ATOM      9  C   UNL     1     196.234 190.861 200.658  1.00  0.00     0.000 C 
BRANCH   9  10
ATOM     10  C   UNL     1     194.854 190.383 201.135  1.00  0.00    -0.000 C 
BRANCH  10  11
ATOM     11  C   UNL     1     193.720 190.807 200.187  1.00  0.00    -0.000 C 
BRANCH  11  12
ATOM     12  C   UNL     1     192.765 189.653 199.851  1.00  0.00    -0.000 C 
BRANCH  12  13
ATOM     13  C   UNL     1     192.350 189.697 198.375  1.00  0.00    -0.003 C 
ATOM     14  C   UNL     1     192.916 190.932 197.681  1.00  0.00     0.004 C 
ENDBRANCH  12  13
ENDBRANCH  11  12
ENDBRANCH  10  11
ENDBRANCH   9  10
ENDBRANCH   1   9
TORSDOF 10
ENDMDL
