MODEL 1
REMARK VINA RESULT:     1.266      0.000      0.000
REMARK INTER + INTRA:           1.610
REMARK INTER:                   1.710
REMARK INTRA:                  -0.100
REMARK UNBOUND:                -0.100
REMARK SMILES [NH3+]CCCC[C@H]([NH3+])C(=O)[O-]
REMARK SMILES IDX 4 1 3 2 2 3 1 4 5 8 6 9 7 10 8 14 9 15 10 16
REMARK H PARENT 1 5 1 6 1 7 7 11 7 12 7 13
REMARK Flexibility Score: inf
ROOT
ATOM      1  C   UNL     1      20.533  45.311 -12.151  1.00  0.00     0.012 C 
ENDROOT
BRANCH   1   2
ATOM      2  C   UNL     1      21.907  45.756 -11.635  1.00  0.00     0.061 C 
BRANCH   2   3
ATOM      3  C   UNL     1      22.069  47.278 -11.742  1.00  0.00     0.258 C 
BRANCH   3   4
ATOM      4  N   UNL     1      23.208  47.624 -12.591  1.00  0.00    -0.358 N 
ATOM      5  H   UNL     1      23.452  46.801 -13.189  1.00  0.00     0.344 HD
ATOM      6  H   UNL     1      24.036  47.869 -12.001  1.00  0.00     0.344 HD
ATOM      7  H   UNL     1      22.963  48.431 -13.211  1.00  0.00     0.344 HD
ENDBRANCH   3   4
ENDBRANCH   2   3
ENDBRANCH   1   2
BRANCH   1   8
ATOM      8  C   UNL     1      20.627  44.800 -13.597  1.00  0.00     0.072 C 
BRANCH   8   9
ATOM      9  C   UNL     1      20.348  43.285 -13.714  1.00  0.00     0.227 C 
BRANCH   9  10
ATOM     10  N   UNL     1      19.269  42.858 -12.812  1.00  0.00    -0.350 N 
ATOM     11  H   UNL     1      18.971  41.884 -13.044  1.00  0.00     0.345 HD
ATOM     12  H   UNL     1      18.446  43.500 -12.886  1.00  0.00     0.345 HD
ATOM     13  H   UNL     1      19.610  42.855 -11.824  1.00  0.00     0.345 HD
ENDBRANCH   9  10
BRANCH   9  14
ATOM     14  C   UNL     1      21.607  42.514 -13.418  1.00  0.00     0.099 C 
ATOM     15  O   UNL     1      22.732  43.077 -13.488  1.00  0.00    -0.544 OA
ATOM     16  O   UNL     1      21.535  41.168 -13.086  1.00  0.00    -0.544 OA
ENDBRANCH   9  14
ENDBRANCH   8   9
ENDBRANCH   1   8
TORSDOF 7
ENDMDL
MODEL 2
REMARK VINA RESULT:     1.302      3.233      3.824
REMARK INTER + INTRA:           1.659
REMARK INTER:                   1.763
REMARK INTRA:                  -0.104
REMARK UNBOUND:                -0.100
REMARK SMILES [NH3+]CCCC[C@H]([NH3+])C(=O)[O-]
REMARK SMILES IDX 4 1 3 2 2 3 1 4 5 8 6 9 7 10 8 14 9 15 10 16
REMARK H PARENT 1 5 1 6 1 7 7 11 7 12 7 13
REMARK Flexibility Score: inf
ROOT
ATOM      1  C   UNL     1      19.660  46.696 -14.374  1.00  0.00     0.012 C 
ENDROOT
BRANCH   1   2
ATOM      2  C   UNL     1      19.759  48.013 -15.154  1.00  0.00     0.061 C 
BRANCH   2   3
ATOM      3  C   UNL     1      18.713  48.069 -16.275  1.00  0.00     0.258 C 
BRANCH   3   4
ATOM      4  N   UNL     1      19.017  49.145 -17.219  1.00  0.00    -0.358 N 
ATOM      5  H   UNL     1      20.024  49.409 -17.124  1.00  0.00     0.344 HD
ATOM      6  H   UNL     1      18.426  49.982 -17.012  1.00  0.00     0.344 HD
ATOM      7  H   UNL     1      18.844  48.822 -18.199  1.00  0.00     0.344 HD
ENDBRANCH   3   4
ENDBRANCH   2   3
ENDBRANCH   1   2
BRANCH   1   8
ATOM      8  C   UNL     1      20.950  46.425 -13.585  1.00  0.00     0.072 C 
BRANCH   8   9
ATOM      9  C   UNL     1      20.771  45.335 -12.505  1.00  0.00     0.227 C 
BRANCH   9  10
ATOM     10  N   UNL     1      21.926  45.272 -11.598  1.00  0.00    -0.350 N 
ATOM     11  H   UNL     1      22.777  44.963 -12.119  1.00  0.00     0.345 HD
ATOM     12  H   UNL     1      21.744  44.611 -10.808  1.00  0.00     0.345 HD
ATOM     13  H   UNL     1      22.125  46.222 -11.207  1.00  0.00     0.345 HD
ENDBRANCH   9  10
BRANCH   9  14
ATOM     14  C   UNL     1      20.555  44.000 -13.164  1.00  0.00     0.099 C 
ATOM     15  O   UNL     1      19.419  43.456 -13.147  1.00  0.00    -0.544 OA
ATOM     16  O   UNL     1      21.617  43.348 -13.778  1.00  0.00    -0.544 OA
ENDBRANCH   9  14
ENDBRANCH   8   9
ENDBRANCH   1   8
TORSDOF 7
ENDMDL
MODEL 3
REMARK VINA RESULT:     1.403      2.389      4.419
REMARK INTER + INTRA:           1.795
REMARK INTER:                   1.931
REMARK INTRA:                  -0.136
REMARK UNBOUND:                -0.100
REMARK SMILES [NH3+]CCCC[C@H]([NH3+])C(=O)[O-]
REMARK SMILES IDX 4 1 3 2 2 3 1 4 5 8 6 9 7 10 8 14 9 15 10 16
REMARK H PARENT 1 5 1 6 1 7 7 11 7 12 7 13
REMARK Flexibility Score: inf
ROOT
ATOM      1  C   UNL     1      20.880  43.583 -14.039  1.00  0.00     0.012 C 
ENDROOT
BRANCH   1   2
ATOM      2  C   UNL     1      22.045  42.676 -13.625  1.00  0.00     0.061 C 
BRANCH   2   3
ATOM      3  C   UNL     1      21.569  41.235 -13.398  1.00  0.00     0.258 C 
BRANCH   3   4
ATOM      4  N   UNL     1      21.921  40.774 -12.056  1.00  0.00    -0.358 N 
ATOM      5  H   UNL     1      22.414  39.855 -12.128  1.00  0.00     0.344 HD
ATOM      6  H   UNL     1      21.058  40.650 -11.480  1.00  0.00     0.344 HD
ATOM      7  H   UNL     1      22.559  41.464 -11.594  1.00  0.00     0.344 HD
ENDBRANCH   3   4
ENDBRANCH   2   3
ENDBRANCH   1   2
BRANCH   1   8
ATOM      8  C   UNL     1      20.219  44.226 -12.810  1.00  0.00     0.072 C 
BRANCH   8   9
ATOM      9  C   UNL     1      20.442  45.753 -12.743  1.00  0.00     0.227 C 
BRANCH   9  10
ATOM     10  N   UNL     1      20.496  46.355 -14.083  1.00  0.00    -0.350 N 
ATOM     11  H   UNL     1      19.528  46.526 -14.440  1.00  0.00     0.345 HD
ATOM     12  H   UNL     1      21.007  45.734 -14.751  1.00  0.00     0.345 HD
ATOM     13  H   UNL     1      20.982  47.281 -14.038  1.00  0.00     0.345 HD
ENDBRANCH   9  10
BRANCH   9  14
ATOM     14  C   UNL     1      21.712  46.047 -11.991  1.00  0.00     0.099 C 
ATOM     15  O   UNL     1      22.276  45.147 -11.313  1.00  0.00    -0.544 OA
ATOM     16  O   UNL     1      22.259  47.323 -12.023  1.00  0.00    -0.544 OA
ENDBRANCH   9  14
ENDBRANCH   8   9
ENDBRANCH   1   8
TORSDOF 7
ENDMDL
MODEL 4
REMARK VINA RESULT:     1.763      3.024      5.241
REMARK INTER + INTRA:           2.282
REMARK INTER:                   2.373
REMARK INTRA:                  -0.092
REMARK UNBOUND:                -0.100
REMARK SMILES [NH3+]CCCC[C@H]([NH3+])C(=O)[O-]
REMARK SMILES IDX 4 1 3 2 2 3 1 4 5 8 6 9 7 10 8 14 9 15 10 16
REMARK H PARENT 1 5 1 6 1 7 7 11 7 12 7 13
REMARK Flexibility Score: inf
ROOT
ATOM      1  C   UNL     1      18.484  42.829 -13.238  1.00  0.00     0.012 C 
ENDROOT
BRANCH   1   2
ATOM      2  C   UNL     1      17.638  41.617 -12.829  1.00  0.00     0.061 C 
BRANCH   2   3
ATOM      3  C   UNL     1      16.195  42.033 -12.515  1.00  0.00     0.258 C 
BRANCH   3   4
ATOM      4  N   UNL     1      15.416  40.893 -12.033  1.00  0.00    -0.358 N 
ATOM      5  H   UNL     1      16.061  40.092 -11.844  1.00  0.00     0.344 HD
ATOM      6  H   UNL     1      14.719  40.602 -12.756  1.00  0.00     0.344 HD
ATOM      7  H   UNL     1      14.922  41.144 -11.145  1.00  0.00     0.344 HD
ENDBRANCH   3   4
ENDBRANCH   2   3
ENDBRANCH   1   2
BRANCH   1   8
ATOM      8  C   UNL     1      19.962  42.614 -12.878  1.00  0.00     0.072 C 
BRANCH   8   9
ATOM      9  C   UNL     1      20.905  43.582 -13.628  1.00  0.00     0.227 C 
BRANCH   9  10
ATOM     10  N   UNL     1      22.318  43.224 -13.437  1.00  0.00    -0.350 N 
ATOM     11  H   UNL     1      22.394  42.353 -12.864  1.00  0.00     0.345 HD
ATOM     12  H   UNL     1      22.838  43.998 -12.963  1.00  0.00     0.345 HD
ATOM     13  H   UNL     1      22.764  43.030 -14.363  1.00  0.00     0.345 HD
ENDBRANCH   9  10
BRANCH   9  14
ATOM     14  C   UNL     1      20.659  44.992 -13.161  1.00  0.00     0.099 C 
ATOM     15  O   UNL     1      20.047  45.811 -13.897  1.00  0.00    -0.544 OA
ATOM     16  O   UNL     1      21.127  45.404 -11.920  1.00  0.00    -0.544 OA
ENDBRANCH   9  14
ENDBRANCH   8   9
ENDBRANCH   1   8
TORSDOF 7
ENDMDL
MODEL 5
REMARK VINA RESULT:     1.824      2.995      4.584
REMARK INTER + INTRA:           2.364
REMARK INTER:                   2.465
REMARK INTRA:                  -0.101
REMARK UNBOUND:                -0.100
REMARK SMILES [NH3+]CCCC[C@H]([NH3+])C(=O)[O-]
REMARK SMILES IDX 4 1 3 2 2 3 1 4 5 8 6 9 7 10 8 14 9 15 10 16
REMARK H PARENT 1 5 1 6 1 7 7 11 7 12 7 13
REMARK Flexibility Score: inf
ROOT
ATOM      1  C   UNL     1      20.007  44.448 -13.603  1.00  0.00     0.012 C 
ENDROOT
BRANCH   1   2
ATOM      2  C   UNL     1      20.111  42.984 -13.159  1.00  0.00     0.061 C 
BRANCH   2   3
ATOM      3  C   UNL     1      21.471  42.386 -13.545  1.00  0.00     0.258 C 
BRANCH   3   4
ATOM      4  N   UNL     1      21.790  41.230 -12.709  1.00  0.00    -0.358 N 
ATOM      5  H   UNL     1      21.191  40.422 -12.998  1.00  0.00     0.344 HD
ATOM      6  H   UNL     1      21.600  41.449 -11.705  1.00  0.00     0.344 HD
ATOM      7  H   UNL     1      22.795  40.965 -12.830  1.00  0.00     0.344 HD
ENDBRANCH   3   4
ENDBRANCH   2   3
ENDBRANCH   1   2
BRANCH   1   8
ATOM      8  C   UNL     1      20.392  45.399 -12.459  1.00  0.00     0.072 C 
BRANCH   8   9
ATOM      9  C   UNL     1      21.914  45.652 -12.380  1.00  0.00     0.227 C 
BRANCH   9  10
ATOM     10  N   UNL     1      22.523  44.960 -11.235  1.00  0.00    -0.350 N 
ATOM     11  H   UNL     1      21.799  44.757 -10.510  1.00  0.00     0.345 HD
ATOM     12  H   UNL     1      23.286  45.538 -10.812  1.00  0.00     0.345 HD
ATOM     13  H   UNL     1      22.922  44.043 -11.544  1.00  0.00     0.345 HD
ENDBRANCH   9  10
BRANCH   9  14
ATOM     14  C   UNL     1      22.178  47.131 -12.292  1.00  0.00     0.099 C 
ATOM     15  O   UNL     1      21.895  47.889 -13.258  1.00  0.00    -0.544 OA
ATOM     16  O   UNL     1      22.755  47.667 -11.148  1.00  0.00    -0.544 OA
ENDBRANCH   9  14
ENDBRANCH   8   9
ENDBRANCH   1   8
TORSDOF 7
ENDMDL
MODEL 6
REMARK VINA RESULT:     2.286     12.226     13.121
REMARK INTER + INTRA:           2.989
REMARK INTER:                   2.610
REMARK INTRA:                   0.379
REMARK UNBOUND:                -0.100
REMARK SMILES [NH3+]CCCC[C@H]([NH3+])C(=O)[O-]
REMARK SMILES IDX 4 1 3 2 2 3 1 4 5 8 6 9 7 10 8 14 9 15 10 16
REMARK H PARENT 1 5 1 6 1 7 7 11 7 12 7 13
REMARK Flexibility Score: inf
ROOT
ATOM      1  C   UNL     1      13.819  55.124  -6.957  1.00  0.00     0.012 C 
ENDROOT
BRANCH   1   2
ATOM      2  C   UNL     1      14.813  55.125  -5.789  1.00  0.00     0.061 C 
BRANCH   2   3
ATOM      3  C   UNL     1      15.210  53.694  -5.402  1.00  0.00     0.258 C 
BRANCH   3   4
ATOM      4  N   UNL     1      16.665  53.553  -5.343  1.00  0.00    -0.358 N 
ATOM      5  H   UNL     1      16.945  52.678  -5.842  1.00  0.00     0.344 HD
ATOM      6  H   UNL     1      16.981  53.492  -4.349  1.00  0.00     0.344 HD
ATOM      7  H   UNL     1      17.124  54.369  -5.811  1.00  0.00     0.344 HD
ENDBRANCH   3   4
ENDBRANCH   2   3
ENDBRANCH   1   2
BRANCH   1   8
ATOM      8  C   UNL     1      13.015  53.816  -6.994  1.00  0.00     0.072 C 
BRANCH   8   9
ATOM      9  C   UNL     1      13.671  52.737  -7.884  1.00  0.00     0.227 C 
BRANCH   9  10
ATOM     10  N   UNL     1      14.732  53.301  -8.731  1.00  0.00    -0.350 N 
ATOM     11  H   UNL     1      15.195  52.542  -9.281  1.00  0.00     0.345 HD
ATOM     12  H   UNL     1      15.449  53.796  -8.151  1.00  0.00     0.345 HD
ATOM     13  H   UNL     1      14.321  53.978  -9.414  1.00  0.00     0.345 HD
ENDBRANCH   9  10
BRANCH   9  14
ATOM     14  C   UNL     1      12.622  52.078  -8.738  1.00  0.00     0.099 C 
ATOM     15  O   UNL     1      12.748  50.875  -9.090  1.00  0.00    -0.544 OA
ATOM     16  O   UNL     1      11.514  52.802  -9.161  1.00  0.00    -0.544 OA
ENDBRANCH   9  14
ENDBRANCH   8   9
ENDBRANCH   1   8
TORSDOF 7
ENDMDL
MODEL 7
REMARK VINA RESULT:     2.344      2.908      5.199
REMARK INTER + INTRA:           3.066
REMARK INTER:                   3.008
REMARK INTRA:                   0.058
REMARK UNBOUND:                -0.100
REMARK SMILES [NH3+]CCCC[C@H]([NH3+])C(=O)[O-]
REMARK SMILES IDX 4 1 3 2 2 3 1 4 5 8 6 9 7 10 8 14 9 15 10 16
REMARK H PARENT 1 5 1 6 1 7 7 11 7 12 7 13
REMARK Flexibility Score: inf
ROOT
ATOM      1  C   UNL     1      18.121  42.034 -12.748  1.00  0.00     0.012 C 
ENDROOT
BRANCH   1   2
ATOM      2  C   UNL     1      16.615  42.011 -13.038  1.00  0.00     0.061 C 
BRANCH   2   3
ATOM      3  C   UNL     1      15.867  41.158 -12.005  1.00  0.00     0.258 C 
BRANCH   3   4
ATOM      4  N   UNL     1      15.526  39.848 -12.558  1.00  0.00    -0.358 N 
ATOM      5  H   UNL     1      15.573  39.893 -13.602  1.00  0.00     0.344 HD
ATOM      6  H   UNL     1      14.556  39.579 -12.276  1.00  0.00     0.344 HD
ATOM      7  H   UNL     1      16.205  39.127 -12.222  1.00  0.00     0.344 HD
ENDBRANCH   3   4
ENDBRANCH   2   3
ENDBRANCH   1   2
BRANCH   1   8
ATOM      8  C   UNL     1      18.806  43.194 -13.486  1.00  0.00     0.072 C 
BRANCH   8   9
ATOM      9  C   UNL     1      20.142  43.611 -12.831  1.00  0.00     0.227 C 
BRANCH   9  10
ATOM     10  N   UNL     1      20.465  45.019 -13.102  1.00  0.00    -0.350 N 
ATOM     11  H   UNL     1      20.379  45.219 -14.124  1.00  0.00     0.345 HD
ATOM     12  H   UNL     1      21.435  45.247 -12.784  1.00  0.00     0.345 HD
ATOM     13  H   UNL     1      19.788  45.642 -12.603  1.00  0.00     0.345 HD
ENDBRANCH   9  10
BRANCH   9  14
ATOM     14  C   UNL     1      21.249  42.720 -13.327  1.00  0.00     0.099 C 
ATOM     15  O   UNL     1      22.188  43.194 -14.021  1.00  0.00    -0.544 OA
ATOM     16  O   UNL     1      21.229  41.362 -13.039  1.00  0.00    -0.544 OA
ENDBRANCH   9  14
ENDBRANCH   8   9
ENDBRANCH   1   8
TORSDOF 7
ENDMDL
MODEL 8
REMARK VINA RESULT:     2.444      3.674      4.399
REMARK INTER + INTRA:           3.202
REMARK INTER:                   3.147
REMARK INTRA:                   0.055
REMARK UNBOUND:                -0.100
REMARK SMILES [NH3+]CCCC[C@H]([NH3+])C(=O)[O-]
REMARK SMILES IDX 4 1 3 2 2 3 1 4 5 8 6 9 7 10 8 14 9 15 10 16
REMARK H PARENT 1 5 1 6 1 7 7 11 7 12 7 13
REMARK Flexibility Score: inf
ROOT
ATOM      1  C   UNL     1      20.015  47.330 -15.020  1.00  0.00     0.012 C 
ENDROOT
BRANCH   1   2
ATOM      2  C   UNL     1      18.832  48.084 -15.637  1.00  0.00     0.061 C 
BRANCH   2   3
ATOM      3  C   UNL     1      19.252  48.815 -16.919  1.00  0.00     0.258 C 
BRANCH   3   4
ATOM      4  N   UNL     1      18.953  50.244 -16.828  1.00  0.00    -0.358 N 
ATOM      5  H   UNL     1      19.715  50.784 -17.300  1.00  0.00     0.344 HD
ATOM      6  H   UNL     1      18.902  50.537 -15.826  1.00  0.00     0.344 HD
ATOM      7  H   UNL     1      18.046  50.453 -17.306  1.00  0.00     0.344 HD
ENDBRANCH   3   4
ENDBRANCH   2   3
ENDBRANCH   1   2
BRANCH   1   8
ATOM      8  C   UNL     1      19.535  46.323 -13.963  1.00  0.00     0.072 C 
BRANCH   8   9
ATOM      9  C   UNL     1      20.640  45.330 -13.540  1.00  0.00     0.227 C 
BRANCH   9  10
ATOM     10  N   UNL     1      20.085  44.020 -13.174  1.00  0.00    -0.350 N 
ATOM     11  H   UNL     1      20.849  43.379 -12.861  1.00  0.00     0.345 HD
ATOM     12  H   UNL     1      19.581  43.589 -13.983  1.00  0.00     0.345 HD
ATOM     13  H   UNL     1      19.418  44.126 -12.375  1.00  0.00     0.345 HD
ENDBRANCH   9  10
BRANCH   9  14
ATOM     14  C   UNL     1      21.422  45.903 -12.387  1.00  0.00     0.099 C 
ATOM     15  O   UNL     1      21.588  45.233 -11.333  1.00  0.00    -0.544 OA
ATOM     16  O   UNL     1      21.947  47.186 -12.474  1.00  0.00    -0.544 OA
ENDBRANCH   9  14
ENDBRANCH   8   9
ENDBRANCH   1   8
TORSDOF 7
ENDMDL
MODEL 9
REMARK VINA RESULT:     2.577     12.432     13.291
REMARK INTER + INTRA:           3.382
REMARK INTER:                   3.507
REMARK INTRA:                  -0.125
REMARK UNBOUND:                -0.100
REMARK SMILES [NH3+]CCCC[C@H]([NH3+])C(=O)[O-]
REMARK SMILES IDX 4 1 3 2 2 3 1 4 5 8 6 9 7 10 8 14 9 15 10 16
REMARK H PARENT 1 5 1 6 1 7 7 11 7 12 7 13
REMARK Flexibility Score: inf
ROOT
ATOM      1  C   UNL     1      15.183  54.159  -5.590  1.00  0.00     0.012 C 
ENDROOT
BRANCH   1   2
ATOM      2  C   UNL     1      16.217  53.034  -5.468  1.00  0.00     0.061 C 
BRANCH   2   3
ATOM      3  C   UNL     1      15.924  52.145  -4.252  1.00  0.00     0.258 C 
BRANCH   3   4
ATOM      4  N   UNL     1      15.949  50.730  -4.621  1.00  0.00    -0.358 N 
ATOM      5  H   UNL     1      14.990  50.436  -4.918  1.00  0.00     0.344 HD
ATOM      6  H   UNL     1      16.242  50.150  -3.803  1.00  0.00     0.344 HD
ATOM      7  H   UNL     1      16.609  50.578  -5.419  1.00  0.00     0.344 HD
ENDBRANCH   3   4
ENDBRANCH   2   3
ENDBRANCH   1   2
BRANCH   1   8
ATOM      8  C   UNL     1      14.898  54.487  -7.064  1.00  0.00     0.072 C 
BRANCH   8   9
ATOM      9  C   UNL     1      13.400  54.371  -7.422  1.00  0.00     0.227 C 
BRANCH   9  10
ATOM     10  N   UNL     1      12.543  54.512  -6.237  1.00  0.00    -0.350 N 
ATOM     11  H   UNL     1      12.013  55.412  -6.281  1.00  0.00     0.345 HD
ATOM     12  H   UNL     1      13.113  54.488  -5.360  1.00  0.00     0.345 HD
ATOM     13  H   UNL     1      11.842  53.736  -6.209  1.00  0.00     0.345 HD
ENDBRANCH   9  10
BRANCH   9  14
ATOM     14  C   UNL     1      13.141  53.049  -8.095  1.00  0.00     0.099 C 
ATOM     15  O   UNL     1      13.970  52.106  -7.990  1.00  0.00    -0.544 OA
ATOM     16  O   UNL     1      11.992  52.869  -8.854  1.00  0.00    -0.544 OA
ENDBRANCH   9  14
ENDBRANCH   8   9
ENDBRANCH   1   8
TORSDOF 7
ENDMDL
