MODEL 1
REMARK VINA RESULT:     2.474      0.000      0.000
REMARK INTER + INTRA:          10.494
REMARK INTER:                   3.775
REMARK INTRA:                   6.719
REMARK UNBOUND:                 6.719
REMARK SMILES CC1=CCC[C@H](C)C(=O)C[C@@H](C(C)C)C(=O)C1
REMARK SMILES IDX 8 1 9 2 6 3 7 4 5 5 4 6 3 7 2 8 1 9 10 11 11 12 15 13 16 14
REMARK SMILES IDX 17 15 12 17 13 18 14 19
REMARK H PARENT
REMARK Flexibility Score: 70.00
ROOT
ATOM      1  C   UNL     1      25.440 -16.567   0.442  1.00  0.00     0.136 C 
ATOM      2  O   UNL     1      24.939 -16.040  -0.542  1.00  0.00    -0.299 OA
ENDROOT
BRANCH   1   3
ATOM      3  C   UNL     1      26.221 -17.857   0.287  1.00  0.00     0.053 C 
ATOM      4  C   UNL     1      26.956 -18.145   1.602  1.00  0.00     0.016 C 
BRANCH   3   5
ATOM      5  C   UNL     1      25.318 -19.057  -0.094  1.00  0.00     0.015 C 
BRANCH   5   6
ATOM      6  C   UNL     1      25.833 -20.419   0.400  1.00  0.00     0.028 C 
BRANCH   6   7
ATOM      7  C   UNL     1      25.456 -20.705   1.835  1.00  0.00    -0.028 C 
ATOM      8  C   UNL     1      24.461 -20.107   2.531  1.00  0.00    -0.070 CG0
ATOM      9  C   UNL     1      24.140 -20.648   3.903  1.00  0.00     0.039 C 
ATOM     10  G   UNL     1      23.598 -18.993   1.967  1.00  0.00     0.000 G0
ENDBRANCH   6   7
ENDBRANCH   5   6
ENDBRANCH   3   5
ENDBRANCH   1   3
BRANCH   1  11
ATOM     11  C   UNL     1      25.150 -15.990   1.809  1.00  0.00     0.087 C 
BRANCH  11  12
ATOM     12  C   UNL     1      23.728 -16.348   2.320  1.00  0.00     0.066 C 
BRANCH  12  13
ATOM     13  C   UNL     1      23.695 -17.764   2.898  1.00  0.00     0.140 C 
ATOM     14  O   UNL     1      23.663 -17.940   4.106  1.00  0.00    -0.299 OA
BRANCH  13  15
ATOM     15  C   UNL     1      23.592 -18.979   2.009  1.00  0.00     0.106 CG0
ATOM     16  G   UNL     1      24.423 -20.148   2.506  1.00  0.00     0.000 G0
ENDBRANCH  13  15
ENDBRANCH  12  13
BRANCH  12  17
ATOM     17  C   UNL     1      22.641 -16.056   1.233  1.00  0.00    -0.006 C 
ATOM     18  C   UNL     1      22.923 -16.697  -0.138  1.00  0.00     0.008 C 
ATOM     19  C   UNL     1      21.226 -16.409   1.720  1.00  0.00     0.008 C 
ENDBRANCH  12  17
ENDBRANCH  11  12
ENDBRANCH   1  11
TORSDOF 1
ENDMDL
MODEL 2
REMARK VINA RESULT:     4.456      2.096      4.075
REMARK INTER + INTRA:          13.520
REMARK INTER:                  10.156
REMARK INTRA:                   3.363
REMARK UNBOUND:                 6.719
REMARK SMILES CC1=CCC[C@H](C)C(=O)C[C@@H](C(C)C)C(=O)C1
REMARK SMILES IDX 8 1 9 2 6 3 7 4 5 5 4 6 3 7 2 8 1 9 10 11 11 12 15 13 16 14
REMARK SMILES IDX 17 15 12 17 13 18 14 19
REMARK H PARENT
REMARK Flexibility Score: 70.00
ROOT
ATOM      1  C   UNL     1      25.987 -20.016   1.359  1.00  0.00     0.136 C 
ATOM      2  O   UNL     1      25.863 -20.930   2.163  1.00  0.00    -0.299 OA
ENDROOT
BRANCH   1   3
ATOM      3  C   UNL     1      26.300 -20.329  -0.090  1.00  0.00     0.053 C 
ATOM      4  C   UNL     1      26.348 -21.851  -0.264  1.00  0.00     0.016 C 
BRANCH   3   5
ATOM      5  C   UNL     1      25.269 -19.712  -1.068  1.00  0.00     0.015 C 
BRANCH   5   6
ATOM      6  C   UNL     1      25.153 -18.182  -0.985  1.00  0.00     0.028 C 
BRANCH   6   7
ATOM      7  C   UNL     1      23.868 -17.656  -1.579  1.00  0.00    -0.028 C 
ATOM      8  C   UNL     1      23.071 -16.704  -1.038  1.00  0.00    -0.070 CG0
ATOM      9  C   UNL     1      21.914 -16.201  -1.865  1.00  0.00     0.039 C 
ATOM     10  G   UNL     1      23.338 -16.058   0.310  1.00  0.00     0.000 G0
ENDBRANCH   6   7
ENDBRANCH   5   6
ENDBRANCH   3   5
ENDBRANCH   1   3
BRANCH   1  11
ATOM     11  C   UNL     1      25.962 -18.591   1.862  1.00  0.00     0.087 C 
BRANCH  11  12
ATOM     12  C   UNL     1      24.555 -17.944   1.756  1.00  0.00     0.066 C 
BRANCH  12  13
ATOM     13  C   UNL     1      24.626 -16.597   1.034  1.00  0.00     0.140 C 
ATOM     14  O   UNL     1      25.660 -15.947   1.033  1.00  0.00    -0.299 OA
BRANCH  13  15
ATOM     15  C   UNL     1      23.471 -16.080   0.211  1.00  0.00     0.106 CG0
ATOM     16  G   UNL     1      23.304 -16.818  -1.105  1.00  0.00     0.000 G0
ENDBRANCH  13  15
ENDBRANCH  12  13
BRANCH  12  17
ATOM     17  C   UNL     1      23.838 -17.907   3.146  1.00  0.00    -0.006 C 
ATOM     18  C   UNL     1      23.891 -19.235   3.925  1.00  0.00     0.008 C 
ATOM     19  C   UNL     1      24.328 -16.742   4.020  1.00  0.00     0.008 C 
ENDBRANCH  12  17
ENDBRANCH  11  12
ENDBRANCH   1  11
TORSDOF 1
ENDMDL
