MODEL 1
REMARK VINA RESULT:    -6.923      0.000      0.000
REMARK INTER + INTRA:          -7.530
REMARK INTER:                  -7.530
REMARK INTRA:                   0.000
REMARK UNBOUND:                 0.000
REMARK SMILES Cc1cc(O)c2c(c1)C(=O)c1cc(O)cc(O)c1C2=O
REMARK SMILES IDX 1 1 2 2 8 3 7 4 6 5 4 6 3 7 19 8 20 9 18 10 11 11 9 12 10 13
REMARK SMILES IDX 12 14 13 15 15 16 16 17 5 18 17 20 14 22
REMARK H PARENT 5 19 17 21 14 23
REMARK Flexibility Score: inf
ROOT
ATOM      1  C   UNL     1      58.267   5.379  82.003  1.00  0.00     0.044 C 
ATOM      2  C   UNL     1      56.804   5.062  81.912  1.00  0.00    -0.047 A 
ATOM      3  C   UNL     1      56.283   4.474  80.754  1.00  0.00     0.016 A 
ATOM      4  C   UNL     1      54.908   4.199  80.647  1.00  0.00     0.038 A 
ATOM      5  C   UNL     1      54.043   4.517  81.717  1.00  0.00     0.076 A 
ATOM      6  C   UNL     1      54.564   5.190  82.852  1.00  0.00     0.127 A 
ATOM      7  C   UNL     1      55.937   5.435  82.944  1.00  0.00     0.050 A 
ATOM      8  C   UNL     1      52.626   4.078  81.628  1.00  0.00     0.201 C 
ATOM      9  O   UNL     1      51.987   3.808  82.681  1.00  0.00    -0.288 OA
ATOM     10  C   UNL     1      52.027   3.779  80.302  1.00  0.00     0.076 A 
ATOM     11  C   UNL     1      52.896   3.463  79.233  1.00  0.00     0.041 A 
ATOM     12  C   UNL     1      54.363   3.582  79.414  1.00  0.00     0.194 C 
ATOM     13  O   UNL     1      55.146   3.183  78.509  1.00  0.00    -0.289 OA
ATOM     14  C   UNL     1      52.367   3.040  78.002  1.00  0.00     0.059 A 
ATOM     15  C   UNL     1      50.985   2.945  77.821  1.00  0.00     0.120 A 
ATOM     16  C   UNL     1      50.123   3.295  78.859  1.00  0.00     0.093 A 
ATOM     17  C   UNL     1      50.625   3.737  80.088  1.00  0.00     0.131 A 
ENDROOT
BRANCH   6  18
ATOM     18  O   UNL     1      53.754   5.662  83.887  1.00  0.00    -0.507 OA
ATOM     19  H   UNL     1      53.984   5.564  84.867  1.00  0.00     0.293 HD
ENDBRANCH   6  18
BRANCH  17  20
ATOM     20  O   UNL     1      49.701   4.156  81.048  1.00  0.00    -0.507 OA
ATOM     21  H   UNL     1      49.169   5.012  80.975  1.00  0.00     0.293 HD
ENDBRANCH  17  20
BRANCH  15  22
ATOM     22  O   UNL     1      50.456   2.514  76.606  1.00  0.00    -0.508 OA
ATOM     23  H   UNL     1      50.348   3.146  75.821  1.00  0.00     0.293 HD
ENDBRANCH  15  22
TORSDOF 3
ENDMDL
MODEL 2
REMARK VINA RESULT:    -6.776      2.744      6.136
REMARK INTER + INTRA:          -7.371
REMARK INTER:                  -7.371
REMARK INTRA:                   0.000
REMARK UNBOUND:                 0.000
REMARK SMILES Cc1cc(O)c2c(c1)C(=O)c1cc(O)cc(O)c1C2=O
REMARK SMILES IDX 1 1 2 2 8 3 7 4 6 5 4 6 3 7 19 8 20 9 18 10 11 11 9 12 10 13
REMARK SMILES IDX 12 14 13 15 15 16 16 17 5 18 17 20 14 22
REMARK H PARENT 5 19 17 21 14 23
REMARK Flexibility Score: inf
ROOT
ATOM      1  C   UNL     1      50.836   3.338  77.782  1.00  0.00     0.044 C 
ATOM      2  C   UNL     1      52.132   3.564  78.501  1.00  0.00    -0.047 A 
ATOM      3  C   UNL     1      53.086   4.442  77.974  1.00  0.00     0.016 A 
ATOM      4  C   UNL     1      54.316   4.638  78.626  1.00  0.00     0.038 A 
ATOM      5  C   UNL     1      54.594   3.946  79.825  1.00  0.00     0.076 A 
ATOM      6  C   UNL     1      53.659   2.995  80.309  1.00  0.00     0.127 A 
ATOM      7  C   UNL     1      52.434   2.831  79.653  1.00  0.00     0.050 A 
ATOM      8  C   UNL     1      55.837   4.289  80.562  1.00  0.00     0.201 C 
ATOM      9  O   UNL     1      55.874   4.177  81.817  1.00  0.00    -0.288 OA
ATOM     10  C   UNL     1      56.965   4.940  79.845  1.00  0.00     0.076 A 
ATOM     11  C   UNL     1      56.683   5.630  78.644  1.00  0.00     0.041 A 
ATOM     12  C   UNL     1      55.324   5.564  78.057  1.00  0.00     0.194 C 
ATOM     13  O   UNL     1      55.033   6.277  77.057  1.00  0.00    -0.289 OA
ATOM     14  C   UNL     1      57.694   6.372  78.010  1.00  0.00     0.059 A 
ATOM     15  C   UNL     1      58.982   6.420  78.550  1.00  0.00     0.120 A 
ATOM     16  C   UNL     1      59.275   5.708  79.712  1.00  0.00     0.093 A 
ATOM     17  C   UNL     1      58.291   4.946  80.351  1.00  0.00     0.131 A 
ENDROOT
BRANCH   6  18
ATOM     18  O   UNL     1      53.918   2.171  81.406  1.00  0.00    -0.507 OA
ATOM     19  H   UNL     1      54.047   2.517  82.347  1.00  0.00     0.293 HD
ENDBRANCH   6  18
BRANCH  17  20
ATOM     20  O   UNL     1      58.682   4.188  81.458  1.00  0.00    -0.507 OA
ATOM     21  H   UNL     1      59.606   3.794  81.566  1.00  0.00     0.293 HD
ENDBRANCH  17  20
BRANCH  15  22
ATOM     22  O   UNL     1      59.983   7.165  77.932  1.00  0.00    -0.508 OA
ATOM     23  H   UNL     1      59.765   7.914  77.284  1.00  0.00     0.293 HD
ENDBRANCH  15  22
TORSDOF 3
ENDMDL
MODEL 3
REMARK VINA RESULT:    -6.577     10.394     12.222
REMARK INTER + INTRA:          -7.153
REMARK INTER:                  -7.153
REMARK INTRA:                   0.000
REMARK UNBOUND:                 0.000
REMARK SMILES Cc1cc(O)c2c(c1)C(=O)c1cc(O)cc(O)c1C2=O
REMARK SMILES IDX 1 1 2 2 8 3 7 4 6 5 4 6 3 7 19 8 20 9 18 10 11 11 9 12 10 13
REMARK SMILES IDX 12 14 13 15 15 16 16 17 5 18 17 20 14 22
REMARK H PARENT 5 19 17 21 14 23
REMARK Flexibility Score: inf
ROOT
ATOM      1  C   UNL     1      44.444  -0.498  72.977  1.00  0.00     0.044 C 
ATOM      2  C   UNL     1      44.799   0.957  73.038  1.00  0.00    -0.047 A 
ATOM      3  C   UNL     1      44.942   1.697  71.859  1.00  0.00     0.016 A 
ATOM      4  C   UNL     1      45.302   3.055  71.905  1.00  0.00     0.038 A 
ATOM      5  C   UNL     1      45.523   3.682  73.151  1.00  0.00     0.076 A 
ATOM      6  C   UNL     1      45.459   2.906  74.338  1.00  0.00     0.127 A 
ATOM      7  C   UNL     1      45.079   1.562  74.268  1.00  0.00     0.050 A 
ATOM      8  C   UNL     1      45.755   5.149  73.168  1.00  0.00     0.201 C 
ATOM      9  O   UNL     1      45.397   5.829  74.167  1.00  0.00    -0.288 OA
ATOM     10  C   UNL     1      46.234   5.835  71.939  1.00  0.00     0.076 A 
ATOM     11  C   UNL     1      46.014   5.204  70.694  1.00  0.00     0.041 A 
ATOM     12  C   UNL     1      45.459   3.829  70.651  1.00  0.00     0.194 C 
ATOM     13  O   UNL     1      45.143   3.311  69.545  1.00  0.00    -0.289 OA
ATOM     14  C   UNL     1      46.326   5.880  69.503  1.00  0.00     0.059 A 
ATOM     15  C   UNL     1      46.867   7.167  69.540  1.00  0.00     0.120 A 
ATOM     16  C   UNL     1      47.124   7.777  70.766  1.00  0.00     0.093 A 
ATOM     17  C   UNL     1      46.840   7.118  71.967  1.00  0.00     0.131 A 
ENDROOT
BRANCH   6  18
ATOM     18  O   UNL     1      45.798   3.416  75.592  1.00  0.00    -0.507 OA
ATOM     19  H   UNL     1      45.122   3.612  76.318  1.00  0.00     0.293 HD
ENDBRANCH   6  18
BRANCH  17  20
ATOM     20  O   UNL     1      47.208   7.755  73.154  1.00  0.00    -0.507 OA
ATOM     21  H   UNL     1      46.818   8.636  73.459  1.00  0.00     0.293 HD
ENDBRANCH  17  20
BRANCH  15  22
ATOM     22  O   UNL     1      47.167   7.845  68.360  1.00  0.00    -0.508 OA
ATOM     23  H   UNL     1      48.048   8.329  68.235  1.00  0.00     0.293 HD
ENDBRANCH  15  22
TORSDOF 3
ENDMDL
MODEL 4
REMARK VINA RESULT:    -6.445      2.467      5.420
REMARK INTER + INTRA:          -7.010
REMARK INTER:                  -7.010
REMARK INTRA:                   0.000
REMARK UNBOUND:                 0.000
REMARK SMILES Cc1cc(O)c2c(c1)C(=O)c1cc(O)cc(O)c1C2=O
REMARK SMILES IDX 1 1 2 2 8 3 7 4 6 5 4 6 3 7 19 8 20 9 18 10 11 11 9 12 10 13
REMARK SMILES IDX 12 14 13 15 15 16 16 17 5 18 17 20 14 22
REMARK H PARENT 5 19 17 21 14 23
REMARK Flexibility Score: inf
ROOT
ATOM      1  C   UNL     1      51.359   3.100  83.740  1.00  0.00     0.044 C 
ATOM      2  C   UNL     1      51.970   3.553  82.449  1.00  0.00    -0.047 A 
ATOM      3  C   UNL     1      53.361   3.647  82.323  1.00  0.00     0.016 A 
ATOM      4  C   UNL     1      53.943   4.098  81.125  1.00  0.00     0.038 A 
ATOM      5  C   UNL     1      53.119   4.461  80.037  1.00  0.00     0.076 A 
ATOM      6  C   UNL     1      51.710   4.445  80.199  1.00  0.00     0.127 A 
ATOM      7  C   UNL     1      51.155   3.973  81.393  1.00  0.00     0.050 A 
ATOM      8  C   UNL     1      53.771   4.790  78.743  1.00  0.00     0.201 C 
ATOM      9  O   UNL     1      53.166   4.561  77.661  1.00  0.00    -0.288 OA
ATOM     10  C   UNL     1      55.196   5.209  78.719  1.00  0.00     0.076 A 
ATOM     11  C   UNL     1      56.017   4.846  79.811  1.00  0.00     0.041 A 
ATOM     12  C   UNL     1      55.417   4.201  81.003  1.00  0.00     0.194 C 
ATOM     13  O   UNL     1      56.159   3.762  81.924  1.00  0.00    -0.289 OA
ATOM     14  C   UNL     1      57.398   5.103  79.763  1.00  0.00     0.059 A 
ATOM     15  C   UNL     1      57.964   5.729  78.650  1.00  0.00     0.120 A 
ATOM     16  C   UNL     1      57.152   6.125  77.589  1.00  0.00     0.093 A 
ATOM     17  C   UNL     1      55.772   5.899  77.620  1.00  0.00     0.131 A 
ENDROOT
BRANCH   6  18
ATOM     18  O   UNL     1      50.832   4.919  79.223  1.00  0.00    -0.507 OA
ATOM     19  H   UNL     1      50.417   5.841  79.244  1.00  0.00     0.293 HD
ENDBRANCH   6  18
BRANCH  17  20
ATOM     20  O   UNL     1      55.012   6.404  76.563  1.00  0.00    -0.507 OA
ATOM     21  H   UNL     1      54.409   7.211  76.644  1.00  0.00     0.293 HD
ENDBRANCH  17  20
BRANCH  15  22
ATOM     22  O   UNL     1      59.334   5.973  78.594  1.00  0.00    -0.508 OA
ATOM     23  H   UNL     1      60.012   5.248  78.797  1.00  0.00     0.293 HD
ENDBRANCH  15  22
TORSDOF 3
ENDMDL
MODEL 5
REMARK VINA RESULT:    -6.347      2.563      4.776
REMARK INTER + INTRA:          -6.903
REMARK INTER:                  -6.903
REMARK INTRA:                   0.000
REMARK UNBOUND:                 0.000
REMARK SMILES Cc1cc(O)c2c(c1)C(=O)c1cc(O)cc(O)c1C2=O
REMARK SMILES IDX 1 1 2 2 8 3 7 4 6 5 4 6 3 7 19 8 20 9 18 10 11 11 9 12 10 13
REMARK SMILES IDX 12 14 13 15 15 16 16 17 5 18 17 20 14 22
REMARK H PARENT 5 19 17 21 14 23
REMARK Flexibility Score: inf
ROOT
ATOM      1  C   UNL     1      51.007   1.643  84.124  1.00  0.00     0.044 C 
ATOM      2  C   UNL     1      52.190   2.274  83.452  1.00  0.00    -0.047 A 
ATOM      3  C   UNL     1      52.018   3.024  82.283  1.00  0.00     0.016 A 
ATOM      4  C   UNL     1      53.124   3.595  81.630  1.00  0.00     0.038 A 
ATOM      5  C   UNL     1      54.422   3.413  82.156  1.00  0.00     0.076 A 
ATOM      6  C   UNL     1      54.599   2.582  83.292  1.00  0.00     0.127 A 
ATOM      7  C   UNL     1      53.481   2.040  83.936  1.00  0.00     0.050 A 
ATOM      8  C   UNL     1      55.546   4.152  81.524  1.00  0.00     0.201 C 
ATOM      9  O   UNL     1      56.539   4.496  82.220  1.00  0.00    -0.288 OA
ATOM     10  C   UNL     1      55.413   4.647  80.129  1.00  0.00     0.076 A 
ATOM     11  C   UNL     1      54.113   4.826  79.606  1.00  0.00     0.041 A 
ATOM     12  C   UNL     1      52.934   4.382  80.388  1.00  0.00     0.194 C 
ATOM     13  O   UNL     1      51.770   4.652  79.984  1.00  0.00    -0.289 OA
ATOM     14  C   UNL     1      53.942   5.420  78.344  1.00  0.00     0.059 A 
ATOM     15  C   UNL     1      55.051   5.822  77.595  1.00  0.00     0.120 A 
ATOM     16  C   UNL     1      56.337   5.610  78.090  1.00  0.00     0.093 A 
ATOM     17  C   UNL     1      56.534   5.003  79.335  1.00  0.00     0.131 A 
ENDROOT
BRANCH   6  18
ATOM     18  O   UNL     1      55.858   2.239  83.789  1.00  0.00    -0.507 OA
ATOM     19  H   UNL     1      56.702   2.256  83.232  1.00  0.00     0.293 HD
ENDBRANCH   6  18
BRANCH  17  20
ATOM     20  O   UNL     1      57.850   4.742  79.723  1.00  0.00    -0.507 OA
ATOM     21  H   UNL     1      58.430   4.036  79.290  1.00  0.00     0.293 HD
ENDBRANCH  17  20
BRANCH  15  22
ATOM     22  O   UNL     1      54.886   6.423  76.349  1.00  0.00    -0.508 OA
ATOM     23  H   UNL     1      55.600   6.365  75.633  1.00  0.00     0.293 HD
ENDBRANCH  15  22
TORSDOF 3
ENDMDL
MODEL 6
REMARK VINA RESULT:    -6.321      2.308      3.899
REMARK INTER + INTRA:          -6.875
REMARK INTER:                  -6.875
REMARK INTRA:                   0.000
REMARK UNBOUND:                 0.000
REMARK SMILES Cc1cc(O)c2c(c1)C(=O)c1cc(O)cc(O)c1C2=O
REMARK SMILES IDX 1 1 2 2 8 3 7 4 6 5 4 6 3 7 19 8 20 9 18 10 11 11 9 12 10 13
REMARK SMILES IDX 12 14 13 15 15 16 16 17 5 18 17 20 14 22
REMARK H PARENT 5 19 17 21 14 23
REMARK Flexibility Score: inf
ROOT
ATOM      1  C   UNL     1      59.372   5.695  78.856  1.00  0.00     0.044 C 
ATOM      2  C   UNL     1      57.874   5.650  78.889  1.00  0.00    -0.047 A 
ATOM      3  C   UNL     1      57.210   5.127  80.004  1.00  0.00     0.016 A 
ATOM      4  C   UNL     1      55.806   5.054  80.032  1.00  0.00     0.038 A 
ATOM      5  C   UNL     1      55.056   5.514  78.927  1.00  0.00     0.076 A 
ATOM      6  C   UNL     1      55.738   5.964  77.767  1.00  0.00     0.127 A 
ATOM      7  C   UNL     1      57.134   6.045  77.770  1.00  0.00     0.050 A 
ATOM      8  C   UNL     1      53.576   5.559  79.052  1.00  0.00     0.201 C 
ATOM      9  O   UNL     1      52.920   6.428  78.418  1.00  0.00    -0.288 OA
ATOM     10  C   UNL     1      52.894   4.709  80.062  1.00  0.00     0.076 A 
ATOM     11  C   UNL     1      53.648   4.249  81.166  1.00  0.00     0.041 A 
ATOM     12  C   UNL     1      55.110   4.491  81.214  1.00  0.00     0.194 C 
ATOM     13  O   UNL     1      55.766   4.195  82.251  1.00  0.00    -0.289 OA
ATOM     14  C   UNL     1      53.010   3.560  82.211  1.00  0.00     0.059 A 
ATOM     15  C   UNL     1      51.636   3.312  82.160  1.00  0.00     0.120 A 
ATOM     16  C   UNL     1      50.896   3.728  81.054  1.00  0.00     0.093 A 
ATOM     17  C   UNL     1      51.511   4.398  79.992  1.00  0.00     0.131 A 
ENDROOT
BRANCH   6  18
ATOM     18  O   UNL     1      55.075   6.303  76.585  1.00  0.00    -0.507 OA
ATOM     19  H   UNL     1      54.270   5.803  76.233  1.00  0.00     0.293 HD
ENDBRANCH   6  18
BRANCH  17  20
ATOM     20  O   UNL     1      50.723   4.703  78.880  1.00  0.00    -0.507 OA
ATOM     21  H   UNL     1      49.741   4.475  78.813  1.00  0.00     0.293 HD
ENDBRANCH  17  20
BRANCH  15  22
ATOM     22  O   UNL     1      50.997   2.640  83.200  1.00  0.00    -0.508 OA
ATOM     23  H   UNL     1      50.766   1.656  83.133  1.00  0.00     0.293 HD
ENDBRANCH  15  22
TORSDOF 3
ENDMDL
MODEL 7
REMARK VINA RESULT:    -6.309      1.950      3.050
REMARK INTER + INTRA:          -6.863
REMARK INTER:                  -6.863
REMARK INTRA:                   0.000
REMARK UNBOUND:                 0.000
REMARK SMILES Cc1cc(O)c2c(c1)C(=O)c1cc(O)cc(O)c1C2=O
REMARK SMILES IDX 1 1 2 2 8 3 7 4 6 5 4 6 3 7 19 8 20 9 18 10 11 11 9 12 10 13
REMARK SMILES IDX 12 14 13 15 15 16 16 17 5 18 17 20 14 22
REMARK H PARENT 5 19 17 21 14 23
REMARK Flexibility Score: inf
ROOT
ATOM      1  C   UNL     1      59.261   5.797  78.878  1.00  0.00     0.044 C 
ATOM      2  C   UNL     1      58.198   5.199  79.751  1.00  0.00    -0.047 A 
ATOM      3  C   UNL     1      56.872   5.146  79.309  1.00  0.00     0.016 A 
ATOM      4  C   UNL     1      55.864   4.614  80.132  1.00  0.00     0.038 A 
ATOM      5  C   UNL     1      56.190   4.126  81.417  1.00  0.00     0.076 A 
ATOM      6  C   UNL     1      57.520   4.260  81.891  1.00  0.00     0.127 A 
ATOM      7  C   UNL     1      58.509   4.775  81.047  1.00  0.00     0.050 A 
ATOM      8  C   UNL     1      55.129   3.438  82.196  1.00  0.00     0.201 C 
ATOM      9  O   UNL     1      55.441   2.529  83.012  1.00  0.00    -0.288 OA
ATOM     10  C   UNL     1      53.699   3.687  81.879  1.00  0.00     0.076 A 
ATOM     11  C   UNL     1      53.377   4.177  80.593  1.00  0.00     0.041 A 
ATOM     12  C   UNL     1      54.460   4.568  79.659  1.00  0.00     0.194 C 
ATOM     13  O   UNL     1      54.183   4.886  78.469  1.00  0.00    -0.289 OA
ATOM     14  C   UNL     1      52.031   4.296  80.207  1.00  0.00     0.059 A 
ATOM     15  C   UNL     1      51.007   3.947  81.091  1.00  0.00     0.120 A 
ATOM     16  C   UNL     1      51.319   3.502  82.374  1.00  0.00     0.093 A 
ATOM     17  C   UNL     1      52.651   3.394  82.790  1.00  0.00     0.131 A 
ENDROOT
BRANCH   6  18
ATOM     18  O   UNL     1      57.893   3.932  83.196  1.00  0.00    -0.507 OA
ATOM     19  H   UNL     1      58.834   4.034  83.552  1.00  0.00     0.293 HD
ENDBRANCH   6  18
BRANCH  17  20
ATOM     20  O   UNL     1      52.883   3.029  84.118  1.00  0.00    -0.507 OA
ATOM     21  H   UNL     1      52.155   2.717  84.747  1.00  0.00     0.293 HD
ENDBRANCH  17  20
BRANCH  15  22
ATOM     22  O   UNL     1      49.672   4.051  80.707  1.00  0.00    -0.508 OA
ATOM     23  H   UNL     1      48.917   3.836  81.348  1.00  0.00     0.293 HD
ENDBRANCH  15  22
TORSDOF 3
ENDMDL
MODEL 8
REMARK VINA RESULT:    -6.162      2.999      4.810
REMARK INTER + INTRA:          -6.702
REMARK INTER:                  -6.702
REMARK INTRA:                   0.000
REMARK UNBOUND:                 0.000
REMARK SMILES Cc1cc(O)c2c(c1)C(=O)c1cc(O)cc(O)c1C2=O
REMARK SMILES IDX 1 1 2 2 8 3 7 4 6 5 4 6 3 7 19 8 20 9 18 10 11 11 9 12 10 13
REMARK SMILES IDX 12 14 13 15 15 16 16 17 5 18 17 20 14 22
REMARK H PARENT 5 19 17 21 14 23
REMARK Flexibility Score: inf
ROOT
ATOM      1  C   UNL     1      58.498   7.800  77.022  1.00  0.00     0.044 C 
ATOM      2  C   UNL     1      57.358   7.057  77.651  1.00  0.00    -0.047 A 
ATOM      3  C   UNL     1      57.522   6.439  78.897  1.00  0.00     0.016 A 
ATOM      4  C   UNL     1      56.468   5.716  79.481  1.00  0.00     0.038 A 
ATOM      5  C   UNL     1      55.230   5.609  78.809  1.00  0.00     0.076 A 
ATOM      6  C   UNL     1      55.098   6.165  77.510  1.00  0.00     0.127 A 
ATOM      7  C   UNL     1      56.154   6.897  76.958  1.00  0.00     0.050 A 
ATOM      8  C   UNL     1      54.097   4.965  79.522  1.00  0.00     0.201 C 
ATOM      9  O   UNL     1      52.915   5.323  79.272  1.00  0.00    -0.288 OA
ATOM     10  C   UNL     1      54.366   4.041  80.654  1.00  0.00     0.076 A 
ATOM     11  C   UNL     1      55.607   4.149  81.323  1.00  0.00     0.041 A 
ATOM     12  C   UNL     1      56.653   5.059  80.797  1.00  0.00     0.194 C 
ATOM     13  O   UNL     1      57.710   5.253  81.457  1.00  0.00    -0.289 OA
ATOM     14  C   UNL     1      55.845   3.390  82.482  1.00  0.00     0.059 A 
ATOM     15  C   UNL     1      54.869   2.517  82.970  1.00  0.00     0.120 A 
ATOM     16  C   UNL     1      53.660   2.377  82.290  1.00  0.00     0.093 A 
ATOM     17  C   UNL     1      53.407   3.106  81.123  1.00  0.00     0.131 A 
ENDROOT
BRANCH   6  18
ATOM     18  O   UNL     1      53.958   5.984  76.724  1.00  0.00    -0.507 OA
ATOM     19  H   UNL     1      53.865   5.251  76.034  1.00  0.00     0.293 HD
ENDBRANCH   6  18
BRANCH  17  20
ATOM     20  O   UNL     1      52.212   2.846  80.448  1.00  0.00    -0.507 OA
ATOM     21  H   UNL     1      51.765   3.508  79.828  1.00  0.00     0.293 HD
ENDBRANCH  17  20
BRANCH  15  22
ATOM     22  O   UNL     1      55.097   1.773  84.125  1.00  0.00    -0.508 OA
ATOM     23  H   UNL     1      56.019   1.704  84.539  1.00  0.00     0.293 HD
ENDBRANCH  15  22
TORSDOF 3
ENDMDL
MODEL 9
REMARK VINA RESULT:    -6.099      3.832      5.216
REMARK INTER + INTRA:          -6.634
REMARK INTER:                  -6.634
REMARK INTRA:                   0.000
REMARK UNBOUND:                 0.000
REMARK SMILES Cc1cc(O)c2c(c1)C(=O)c1cc(O)cc(O)c1C2=O
REMARK SMILES IDX 1 1 2 2 8 3 7 4 6 5 4 6 3 7 19 8 20 9 18 10 11 11 9 12 10 13
REMARK SMILES IDX 12 14 13 15 15 16 16 17 5 18 17 20 14 22
REMARK H PARENT 5 19 17 21 14 23
REMARK Flexibility Score: inf
ROOT
ATOM      1  C   UNL     1      58.826   9.823  76.256  1.00  0.00     0.044 C 
ATOM      2  C   UNL     1      58.488   8.712  77.205  1.00  0.00    -0.047 A 
ATOM      3  C   UNL     1      57.336   7.942  77.006  1.00  0.00     0.016 A 
ATOM      4  C   UNL     1      56.995   6.918  77.906  1.00  0.00     0.038 A 
ATOM      5  C   UNL     1      57.821   6.659  79.022  1.00  0.00     0.076 A 
ATOM      6  C   UNL     1      58.940   7.497  79.264  1.00  0.00     0.127 A 
ATOM      7  C   UNL     1      59.270   8.497  78.344  1.00  0.00     0.050 A 
ATOM      8  C   UNL     1      57.511   5.476  79.866  1.00  0.00     0.201 C 
ATOM      9  O   UNL     1      58.441   4.872  80.464  1.00  0.00    -0.288 OA
ATOM     10  C   UNL     1      56.142   4.897  79.852  1.00  0.00     0.076 A 
ATOM     11  C   UNL     1      55.318   5.161  78.734  1.00  0.00     0.041 A 
ATOM     12  C   UNL     1      55.769   6.113  77.691  1.00  0.00     0.194 C 
ATOM     13  O   UNL     1      55.097   6.255  76.633  1.00  0.00    -0.289 OA
ATOM     14  C   UNL     1      54.071   4.522  78.619  1.00  0.00     0.059 A 
ATOM     15  C   UNL     1      53.634   3.639  79.609  1.00  0.00     0.120 A 
ATOM     16  C   UNL     1      54.426   3.408  80.733  1.00  0.00     0.093 A 
ATOM     17  C   UNL     1      55.661   4.047  80.881  1.00  0.00     0.131 A 
ENDROOT
BRANCH   6  18
ATOM     18  O   UNL     1      59.724   7.396  80.416  1.00  0.00    -0.507 OA
ATOM     19  H   UNL     1      59.406   6.962  81.272  1.00  0.00     0.293 HD
ENDBRANCH   6  18
BRANCH  17  20
ATOM     20  O   UNL     1      56.356   3.836  82.074  1.00  0.00    -0.507 OA
ATOM     21  H   UNL     1      55.981   4.060  82.986  1.00  0.00     0.293 HD
ENDBRANCH  17  20
BRANCH  15  22
ATOM     22  O   UNL     1      52.404   2.994  79.492  1.00  0.00    -0.508 OA
ATOM     23  H   UNL     1      52.009   2.461  80.259  1.00  0.00     0.293 HD
ENDBRANCH  15  22
TORSDOF 3
ENDMDL
