MODEL 1
REMARK VINA RESULT:     8.934      0.000      0.000
REMARK INTER + INTRA:          15.782
REMARK INTER:                  16.768
REMARK INTRA:                  -0.985
REMARK UNBOUND:                -0.985
REMARK SMILES O=C([O-])CCCCCCCCCCCCCCC(=O)[O-]
REMARK SMILES IDX 10 1 9 2 8 3 7 4 6 5 5 6 4 7 2 8 1 9 3 10 11 11 12 12 13 13
REMARK SMILES IDX 14 14 15 15 16 16 17 17 18 18 19 19 20 20
REMARK H PARENT
REMARK Flexibility Score: inf
ROOT
ATOM      1  C   UNL     1      36.070  14.080  43.334  1.00  0.00     0.000 C 
ENDROOT
BRANCH   1   2
ATOM      2  C   UNL     1      34.824  13.550  42.602  1.00  0.00     0.000 C 
BRANCH   2   3
ATOM      3  C   UNL     1      35.168  12.530  41.503  1.00  0.00     0.000 C 
BRANCH   3   4
ATOM      4  C   UNL     1      34.469  12.842  40.169  1.00  0.00     0.000 C 
BRANCH   4   5
ATOM      5  C   UNL     1      33.038  12.289  40.106  1.00  0.00     0.000 C 
BRANCH   5   6
ATOM      6  C   UNL     1      32.894  11.038  40.986  1.00  0.00     0.006 C 
BRANCH   6   7
ATOM      7  C   UNL     1      32.719   9.759  40.156  1.00  0.00     0.053 C 
BRANCH   7   8
ATOM      8  C   UNL     1      34.029   9.244  39.642  1.00  0.00     0.041 C 
ATOM      9  O   UNL     1      35.079   9.393  40.321  1.00  0.00    -0.550 OA
ATOM     10  O   UNL     1      34.083   8.568  38.430  1.00  0.00    -0.550 OA
ENDBRANCH   7   8
ENDBRANCH   6   7
ENDBRANCH   5   6
ENDBRANCH   4   5
ENDBRANCH   3   4
ENDBRANCH   2   3
ENDBRANCH   1   2
BRANCH   1  11
ATOM     11  C   UNL     1      36.008  15.568  43.739  1.00  0.00     0.000 C 
BRANCH  11  12
ATOM     12  C   UNL     1      34.659  16.262  43.468  1.00  0.00     0.000 C 
BRANCH  12  13
ATOM     13  C   UNL     1      34.745  17.542  42.613  1.00  0.00     0.000 C 
BRANCH  13  14
ATOM     14  C   UNL     1      33.638  17.691  41.553  1.00  0.00     0.000 C 
BRANCH  14  15
ATOM     15  C   UNL     1      34.058  17.163  40.173  1.00  0.00     0.000 C 
BRANCH  15  16
ATOM     16  C   UNL     1      33.649  18.139  39.064  1.00  0.00     0.006 C 
BRANCH  16  17
ATOM     17  C   UNL     1      32.162  18.493  39.165  1.00  0.00     0.053 C 
BRANCH  17  18
ATOM     18  C   UNL     1      31.559  18.618  37.802  1.00  0.00     0.041 C 
ATOM     19  O   UNL     1      31.481  17.612  37.048  1.00  0.00    -0.550 OA
ATOM     20  O   UNL     1      31.038  19.835  37.381  1.00  0.00    -0.550 OA
ENDBRANCH  17  18
ENDBRANCH  16  17
ENDBRANCH  15  16
ENDBRANCH  14  15
ENDBRANCH  13  14
ENDBRANCH  12  13
ENDBRANCH  11  12
ENDBRANCH   1  11
TORSDOF 15
ENDMDL
MODEL 2
REMARK VINA RESULT:     9.046      0.831      1.485
REMARK INTER + INTRA:          15.994
REMARK INTER:                  17.034
REMARK INTRA:                  -1.040
REMARK UNBOUND:                -0.985
REMARK SMILES O=C([O-])CCCCCCCCCCCCCCC(=O)[O-]
REMARK SMILES IDX 10 1 9 2 8 3 7 4 6 5 5 6 4 7 2 8 1 9 3 10 11 11 12 12 13 13
REMARK SMILES IDX 14 14 15 15 16 16 17 17 18 18 19 19 20 20
REMARK H PARENT
REMARK Flexibility Score: inf
ROOT
ATOM      1  C   UNL     1      36.092  15.225  44.142  1.00  0.00     0.000 C 
ENDROOT
BRANCH   1   2
ATOM      2  C   UNL     1      36.366  13.996  43.256  1.00  0.00     0.000 C 
BRANCH   2   3
ATOM      3  C   UNL     1      35.089  13.429  42.611  1.00  0.00     0.000 C 
BRANCH   3   4
ATOM      4  C   UNL     1      35.389  12.539  41.394  1.00  0.00     0.000 C 
BRANCH   4   5
ATOM      5  C   UNL     1      34.573  12.932  40.155  1.00  0.00     0.000 C 
BRANCH   5   6
ATOM      6  C   UNL     1      33.148  12.362  40.233  1.00  0.00     0.006 C 
BRANCH   6   7
ATOM      7  C   UNL     1      33.088  11.055  41.034  1.00  0.00     0.053 C 
BRANCH   7   8
ATOM      8  C   UNL     1      33.193   9.852  40.147  1.00  0.00     0.041 C 
ATOM      9  O   UNL     1      32.152   9.257  39.760  1.00  0.00    -0.550 OA
ATOM     10  O   UNL     1      34.438   9.410  39.718  1.00  0.00    -0.550 OA
ENDBRANCH   7   8
ENDBRANCH   6   7
ENDBRANCH   5   6
ENDBRANCH   4   5
ENDBRANCH   3   4
ENDBRANCH   2   3
ENDBRANCH   1   2
BRANCH   1  11
ATOM     11  C   UNL     1      34.794  15.992  43.816  1.00  0.00     0.000 C 
BRANCH  11  12
ATOM     12  C   UNL     1      34.977  17.232  42.919  1.00  0.00     0.000 C 
BRANCH  12  13
ATOM     13  C   UNL     1      33.866  17.451  41.873  1.00  0.00     0.000 C 
BRANCH  13  14
ATOM     14  C   UNL     1      34.119  16.788  40.507  1.00  0.00     0.000 C 
BRANCH  14  15
ATOM     15  C   UNL     1      34.161  17.799  39.351  1.00  0.00     0.000 C 
BRANCH  15  16
ATOM     16  C   UNL     1      32.788  18.447  39.140  1.00  0.00     0.006 C 
BRANCH  16  17
ATOM     17  C   UNL     1      32.217  18.088  37.765  1.00  0.00     0.053 C 
BRANCH  17  18
ATOM     18  C   UNL     1      30.977  18.878  37.489  1.00  0.00     0.041 C 
ATOM     19  O   UNL     1      29.914  18.294  37.151  1.00  0.00    -0.550 OA
ATOM     20  O   UNL     1      30.981  20.258  37.654  1.00  0.00    -0.550 OA
ENDBRANCH  17  18
ENDBRANCH  16  17
ENDBRANCH  15  16
ENDBRANCH  14  15
ENDBRANCH  13  14
ENDBRANCH  12  13
ENDBRANCH  11  12
ENDBRANCH   1  11
TORSDOF 15
ENDMDL
MODEL 3
REMARK VINA RESULT:     9.112      0.772      7.131
REMARK INTER + INTRA:          16.116
REMARK INTER:                  17.052
REMARK INTRA:                  -0.936
REMARK UNBOUND:                -0.985
REMARK SMILES O=C([O-])CCCCCCCCCCCCCCC(=O)[O-]
REMARK SMILES IDX 10 1 9 2 8 3 7 4 6 5 5 6 4 7 2 8 1 9 3 10 11 11 12 12 13 13
REMARK SMILES IDX 14 14 15 15 16 16 17 17 18 18 19 19 20 20
REMARK H PARENT
REMARK Flexibility Score: inf
ROOT
ATOM      1  C   UNL     1      35.188  15.795  43.678  1.00  0.00     0.000 C 
ENDROOT
BRANCH   1   2
ATOM      2  C   UNL     1      35.260  17.317  43.459  1.00  0.00     0.000 C 
BRANCH   2   3
ATOM      3  C   UNL     1      34.171  17.834  42.503  1.00  0.00     0.000 C 
BRANCH   3   4
ATOM      4  C   UNL     1      34.094  17.018  41.202  1.00  0.00     0.000 C 
BRANCH   4   5
ATOM      5  C   UNL     1      34.301  17.880  39.948  1.00  0.00     0.000 C 
BRANCH   5   6
ATOM      6  C   UNL     1      33.187  17.631  38.921  1.00  0.00     0.006 C 
BRANCH   6   7
ATOM      7  C   UNL     1      32.254  18.841  38.770  1.00  0.00     0.053 C 
BRANCH   7   8
ATOM      8  C   UNL     1      31.264  18.647  37.663  1.00  0.00     0.041 C 
ATOM      9  O   UNL     1      30.610  19.628  37.219  1.00  0.00    -0.550 OA
ATOM     10  O   UNL     1      31.090  17.391  37.097  1.00  0.00    -0.550 OA
ENDBRANCH   7   8
ENDBRANCH   6   7
ENDBRANCH   5   6
ENDBRANCH   4   5
ENDBRANCH   3   4
ENDBRANCH   2   3
ENDBRANCH   1   2
BRANCH   1  11
ATOM     11  C   UNL     1      36.551  15.074  43.721  1.00  0.00     0.000 C 
BRANCH  11  12
ATOM     12  C   UNL     1      36.539  13.625  43.196  1.00  0.00     0.000 C 
BRANCH  12  13
ATOM     13  C   UNL     1      35.199  13.162  42.589  1.00  0.00     0.000 C 
BRANCH  13  14
ATOM     14  C   UNL     1      35.266  12.746  41.108  1.00  0.00     0.000 C 
BRANCH  14  15
ATOM     15  C   UNL     1      34.129  13.347  40.267  1.00  0.00     0.000 C 
BRANCH  15  16
ATOM     16  C   UNL     1      33.078  12.285  39.926  1.00  0.00     0.006 C 
BRANCH  16  17
ATOM     17  C   UNL     1      33.150  11.108  40.904  1.00  0.00     0.053 C 
BRANCH  17  18
ATOM     18  C   UNL     1      33.414   9.831  40.168  1.00  0.00     0.041 C 
ATOM     19  O   UNL     1      32.464   9.200  39.634  1.00  0.00    -0.550 OA
ATOM     20  O   UNL     1      34.715   9.365  40.030  1.00  0.00    -0.550 OA
ENDBRANCH  17  18
ENDBRANCH  16  17
ENDBRANCH  15  16
ENDBRANCH  14  15
ENDBRANCH  13  14
ENDBRANCH  12  13
ENDBRANCH  11  12
ENDBRANCH   1  11
TORSDOF 15
ENDMDL
MODEL 4
REMARK VINA RESULT:    10.007      4.158      9.536
REMARK INTER + INTRA:          17.796
REMARK INTER:                  18.602
REMARK INTRA:                  -0.806
REMARK UNBOUND:                -0.985
REMARK SMILES O=C([O-])CCCCCCCCCCCCCCC(=O)[O-]
REMARK SMILES IDX 10 1 9 2 8 3 7 4 6 5 5 6 4 7 2 8 1 9 3 10 11 11 12 12 13 13
REMARK SMILES IDX 14 14 15 15 16 16 17 17 18 18 19 19 20 20
REMARK H PARENT
REMARK Flexibility Score: inf
ROOT
ATOM      1  C   UNL     1      32.990  10.917  40.880  1.00  0.00     0.000 C 
ENDROOT
BRANCH   1   2
ATOM      2  C   UNL     1      33.287  12.130  39.981  1.00  0.00     0.000 C 
BRANCH   2   3
ATOM      3  C   UNL     1      34.614  12.824  40.335  1.00  0.00     0.000 C 
BRANCH   3   4
ATOM      4  C   UNL     1      34.885  12.841  41.849  1.00  0.00     0.000 C 
BRANCH   4   5
ATOM      5  C   UNL     1      36.275  13.394  42.196  1.00  0.00     0.000 C 
BRANCH   5   6
ATOM      6  C   UNL     1      36.303  13.946  43.629  1.00  0.00     0.006 C 
BRANCH   6   7
ATOM      7  C   UNL     1      36.665  15.436  43.672  1.00  0.00     0.053 C 
BRANCH   7   8
ATOM      8  C   UNL     1      35.446  16.306  43.703  1.00  0.00     0.041 C 
ATOM      9  O   UNL     1      34.298  15.788  43.743  1.00  0.00    -0.550 OA
ATOM     10  O   UNL     1      35.578  17.689  43.724  1.00  0.00    -0.550 OA
ENDBRANCH   7   8
ENDBRANCH   6   7
ENDBRANCH   5   6
ENDBRANCH   4   5
ENDBRANCH   3   4
ENDBRANCH   2   3
ENDBRANCH   1   2
BRANCH   1  11
ATOM     11  C   UNL     1      32.905   9.562  40.147  1.00  0.00     0.000 C 
BRANCH  11  12
ATOM     12  C   UNL     1      34.169   8.685  40.249  1.00  0.00     0.000 C 
BRANCH  12  13
ATOM     13  C   UNL     1      33.990   7.226  39.784  1.00  0.00     0.000 C 
BRANCH  13  14
ATOM     14  C   UNL     1      34.266   6.162  40.862  1.00  0.00     0.000 C 
BRANCH  14  15
ATOM     15  C   UNL     1      33.091   5.191  41.057  1.00  0.00     0.000 C 
BRANCH  15  16
ATOM     16  C   UNL     1      31.831   5.938  41.508  1.00  0.00     0.006 C 
BRANCH  16  17
ATOM     17  C   UNL     1      30.628   4.993  41.578  1.00  0.00     0.053 C 
BRANCH  17  18
ATOM     18  C   UNL     1      29.407   5.731  42.030  1.00  0.00     0.041 C 
ATOM     19  O   UNL     1      28.641   5.223  42.891  1.00  0.00    -0.550 OA
ATOM     20  O   UNL     1      29.143   7.003  41.538  1.00  0.00    -0.550 OA
ENDBRANCH  17  18
ENDBRANCH  16  17
ENDBRANCH  15  16
ENDBRANCH  14  15
ENDBRANCH  13  14
ENDBRANCH  12  13
ENDBRANCH  11  12
ENDBRANCH   1  11
TORSDOF 15
ENDMDL
MODEL 5
REMARK VINA RESULT:    10.145      4.317      9.419
REMARK INTER + INTRA:          18.056
REMARK INTER:                  19.018
REMARK INTRA:                  -0.961
REMARK UNBOUND:                -0.985
REMARK SMILES O=C([O-])CCCCCCCCCCCCCCC(=O)[O-]
REMARK SMILES IDX 10 1 9 2 8 3 7 4 6 5 5 6 4 7 2 8 1 9 3 10 11 11 12 12 13 13
REMARK SMILES IDX 14 14 15 15 16 16 17 17 18 18 19 19 20 20
REMARK H PARENT
REMARK Flexibility Score: inf
ROOT
ATOM      1  C   UNL     1      32.590   9.724  40.074  1.00  0.00     0.000 C 
ENDROOT
BRANCH   1   2
ATOM      2  C   UNL     1      32.864  10.933  40.986  1.00  0.00     0.000 C 
BRANCH   2   3
ATOM      3  C   UNL     1      32.769  12.276  40.242  1.00  0.00     0.000 C 
BRANCH   3   4
ATOM      4  C   UNL     1      34.145  12.925  40.016  1.00  0.00     0.000 C 
BRANCH   4   5
ATOM      5  C   UNL     1      35.297  12.084  40.585  1.00  0.00     0.000 C 
BRANCH   5   6
ATOM      6  C   UNL     1      36.036  12.846  41.695  1.00  0.00     0.006 C 
BRANCH   6   7
ATOM      7  C   UNL     1      35.077  13.623  42.606  1.00  0.00     0.053 C 
BRANCH   7   8
ATOM      8  C   UNL     1      35.786  14.689  43.384  1.00  0.00     0.041 C 
ATOM      9  O   UNL     1      37.007  14.562  43.666  1.00  0.00    -0.550 OA
ATOM     10  O   UNL     1      35.108  15.840  43.765  1.00  0.00    -0.550 OA
ENDBRANCH   7   8
ENDBRANCH   6   7
ENDBRANCH   5   6
ENDBRANCH   4   5
ENDBRANCH   3   4
ENDBRANCH   2   3
ENDBRANCH   1   2
BRANCH   1  11
ATOM     11  C   UNL     1      33.847   8.992  39.560  1.00  0.00     0.000 C 
BRANCH  11  12
ATOM     12  C   UNL     1      34.462   7.982  40.548  1.00  0.00     0.000 C 
BRANCH  12  13
ATOM     13  C   UNL     1      34.101   6.506  40.282  1.00  0.00     0.000 C 
BRANCH  13  14
ATOM     14  C   UNL     1      33.133   5.880  41.302  1.00  0.00     0.000 C 
BRANCH  14  15
ATOM     15  C   UNL     1      32.500   4.573  40.801  1.00  0.00     0.000 C 
BRANCH  15  16
ATOM     16  C   UNL     1      31.003   4.529  41.126  1.00  0.00     0.006 C 
BRANCH  16  17
ATOM     17  C   UNL     1      30.642   5.563  42.196  1.00  0.00     0.053 C 
BRANCH  17  18
ATOM     18  C   UNL     1      29.237   6.041  42.011  1.00  0.00     0.041 C 
ATOM     19  O   UNL     1      28.268   5.300  42.323  1.00  0.00    -0.550 OA
ATOM     20  O   UNL     1      28.996   7.326  41.539  1.00  0.00    -0.550 OA
ENDBRANCH  17  18
ENDBRANCH  16  17
ENDBRANCH  15  16
ENDBRANCH  14  15
ENDBRANCH  13  14
ENDBRANCH  12  13
ENDBRANCH  11  12
ENDBRANCH   1  11
TORSDOF 15
ENDMDL
MODEL 6
REMARK VINA RESULT:    10.220      3.950      6.171
REMARK INTER + INTRA:          18.196
REMARK INTER:                  18.874
REMARK INTRA:                  -0.678
REMARK UNBOUND:                -0.985
REMARK SMILES O=C([O-])CCCCCCCCCCCCCCC(=O)[O-]
REMARK SMILES IDX 10 1 9 2 8 3 7 4 6 5 5 6 4 7 2 8 1 9 3 10 11 11 12 12 13 13
REMARK SMILES IDX 14 14 15 15 16 16 17 17 18 18 19 19 20 20
REMARK H PARENT
REMARK Flexibility Score: inf
ROOT
ATOM      1  C   UNL     1      33.014   9.724  40.010  1.00  0.00     0.000 C 
ENDROOT
BRANCH   1   2
ATOM      2  C   UNL     1      34.128   8.731  40.386  1.00  0.00     0.000 C 
BRANCH   2   3
ATOM      3  C   UNL     1      33.879   7.317  39.834  1.00  0.00     0.000 C 
BRANCH   3   4
ATOM      4  C   UNL     1      34.045   6.227  40.907  1.00  0.00     0.000 C 
BRANCH   4   5
ATOM      5  C   UNL     1      32.947   5.156  40.839  1.00  0.00     0.000 C 
BRANCH   5   6
ATOM      6  C   UNL     1      31.857   5.421  41.888  1.00  0.00     0.006 C 
BRANCH   6   7
ATOM      7  C   UNL     1      30.476   4.936  41.428  1.00  0.00     0.053 C 
BRANCH   7   8
ATOM      8  C   UNL     1      29.374   5.793  41.971  1.00  0.00     0.041 C 
ATOM      9  O   UNL     1      28.594   5.340  42.851  1.00  0.00    -0.550 OA
ATOM     10  O   UNL     1      29.231   7.103  41.533  1.00  0.00    -0.550 OA
ENDBRANCH   7   8
ENDBRANCH   6   7
ENDBRANCH   5   6
ENDBRANCH   4   5
ENDBRANCH   3   4
ENDBRANCH   2   3
ENDBRANCH   1   2
BRANCH   1  11
ATOM     11  C   UNL     1      32.987  11.024  40.839  1.00  0.00     0.000 C 
BRANCH  11  12
ATOM     12  C   UNL     1      33.576  12.261  40.133  1.00  0.00     0.000 C 
BRANCH  12  13
ATOM     13  C   UNL     1      34.872  12.814  40.760  1.00  0.00     0.000 C 
BRANCH  13  14
ATOM     14  C   UNL     1      34.736  13.294  42.216  1.00  0.00     0.000 C 
BRANCH  14  15
ATOM     15  C   UNL     1      36.086  13.388  42.942  1.00  0.00     0.000 C 
BRANCH  15  16
ATOM     16  C   UNL     1      36.320  14.803  43.486  1.00  0.00     0.006 C 
BRANCH  16  17
ATOM     17  C   UNL     1      34.996  15.460  43.889  1.00  0.00     0.053 C 
BRANCH  17  18
ATOM     18  C   UNL     1      34.891  16.831  43.298  1.00  0.00     0.041 C 
ATOM     19  O   UNL     1      35.480  17.803  43.840  1.00  0.00    -0.550 OA
ATOM     20  O   UNL     1      34.182  17.026  42.119  1.00  0.00    -0.550 OA
ENDBRANCH  17  18
ENDBRANCH  16  17
ENDBRANCH  15  16
ENDBRANCH  14  15
ENDBRANCH  13  14
ENDBRANCH  12  13
ENDBRANCH  11  12
ENDBRANCH   1  11
TORSDOF 15
ENDMDL
MODEL 7
REMARK VINA RESULT:    10.333      4.008      5.569
REMARK INTER + INTRA:          18.409
REMARK INTER:                  19.095
REMARK INTRA:                  -0.686
REMARK UNBOUND:                -0.985
REMARK SMILES O=C([O-])CCCCCCCCCCCCCCC(=O)[O-]
REMARK SMILES IDX 10 1 9 2 8 3 7 4 6 5 5 6 4 7 2 8 1 9 3 10 11 11 12 12 13 13
REMARK SMILES IDX 14 14 15 15 16 16 17 17 18 18 19 19 20 20
REMARK H PARENT
REMARK Flexibility Score: inf
ROOT
ATOM      1  C   UNL     1      33.360  11.984  40.178  1.00  0.00     0.000 C 
ENDROOT
BRANCH   1   2
ATOM      2  C   UNL     1      34.012  10.602  40.362  1.00  0.00     0.000 C 
BRANCH   2   3
ATOM      3  C   UNL     1      33.070   9.443  39.996  1.00  0.00     0.000 C 
BRANCH   3   4
ATOM      4  C   UNL     1      31.709   9.542  40.706  1.00  0.00     0.000 C 
BRANCH   4   5
ATOM      5  C   UNL     1      30.773   8.376  40.359  1.00  0.00     0.000 C 
BRANCH   5   6
ATOM      6  C   UNL     1      29.752   8.140  41.482  1.00  0.00     0.006 C 
BRANCH   6   7
ATOM      7  C   UNL     1      28.941   6.855  41.270  1.00  0.00     0.053 C 
BRANCH   7   8
ATOM      8  C   UNL     1      29.451   5.726  42.113  1.00  0.00     0.041 C 
ATOM      9  O   UNL     1      28.709   5.200  42.984  1.00  0.00    -0.550 OA
ATOM     10  O   UNL     1      30.733   5.232  41.912  1.00  0.00    -0.550 OA
ENDBRANCH   7   8
ENDBRANCH   6   7
ENDBRANCH   5   6
ENDBRANCH   4   5
ENDBRANCH   3   4
ENDBRANCH   2   3
ENDBRANCH   1   2
BRANCH   1  11
ATOM     11  C   UNL     1      34.340  13.175  40.158  1.00  0.00     0.000 C 
BRANCH  11  12
ATOM     12  C   UNL     1      35.512  13.071  41.155  1.00  0.00     0.000 C 
BRANCH  12  13
ATOM     13  C   UNL     1      35.131  13.283  42.634  1.00  0.00     0.000 C 
BRANCH  13  14
ATOM     14  C   UNL     1      36.304  13.650  43.561  1.00  0.00     0.000 C 
BRANCH  14  15
ATOM     15  C   UNL     1      36.636  15.150  43.540  1.00  0.00     0.000 C 
BRANCH  15  16
ATOM     16  C   UNL     1      35.367  15.989  43.353  1.00  0.00     0.006 C 
BRANCH  16  17
ATOM     17  C   UNL     1      35.285  17.101  44.404  1.00  0.00     0.053 C 
BRANCH  17  18
ATOM     18  C   UNL     1      35.502  18.439  43.770  1.00  0.00     0.041 C 
ATOM     19  O   UNL     1      34.892  19.452  44.203  1.00  0.00    -0.550 OA
ATOM     20  O   UNL     1      36.414  18.575  42.732  1.00  0.00    -0.550 OA
ENDBRANCH  17  18
ENDBRANCH  16  17
ENDBRANCH  15  16
ENDBRANCH  14  15
ENDBRANCH  13  14
ENDBRANCH  12  13
ENDBRANCH  11  12
ENDBRANCH   1  11
TORSDOF 15
ENDMDL
MODEL 8
REMARK VINA RESULT:    10.616      3.743      9.031
REMARK INTER + INTRA:          18.940
REMARK INTER:                  19.833
REMARK INTRA:                  -0.894
REMARK UNBOUND:                -0.985
REMARK SMILES O=C([O-])CCCCCCCCCCCCCCC(=O)[O-]
REMARK SMILES IDX 10 1 9 2 8 3 7 4 6 5 5 6 4 7 2 8 1 9 3 10 11 11 12 12 13 13
REMARK SMILES IDX 14 14 15 15 16 16 17 17 18 18 19 19 20 20
REMARK H PARENT
REMARK Flexibility Score: inf
ROOT
ATOM      1  C   UNL     1      34.282  13.424  40.381  1.00  0.00     0.000 C 
ENDROOT
BRANCH   1   2
ATOM      2  C   UNL     1      35.365  12.860  41.318  1.00  0.00     0.000 C 
BRANCH   2   3
ATOM      3  C   UNL     1      35.194  13.323  42.775  1.00  0.00     0.000 C 
BRANCH   3   4
ATOM      4  C   UNL     1      36.511  13.818  43.395  1.00  0.00     0.000 C 
BRANCH   4   5
ATOM      5  C   UNL     1      36.512  15.331  43.657  1.00  0.00     0.000 C 
BRANCH   5   6
ATOM      6  C   UNL     1      35.081  15.854  43.858  1.00  0.00     0.006 C 
BRANCH   6   7
ATOM      7  C   UNL     1      34.747  17.013  42.910  1.00  0.00     0.053 C 
BRANCH   7   8
ATOM      8  C   UNL     1      35.385  18.296  43.351  1.00  0.00     0.041 C 
ATOM      9  O   UNL     1      35.553  18.532  44.577  1.00  0.00    -0.550 OA
ATOM     10  O   UNL     1      35.827  19.214  42.407  1.00  0.00    -0.550 OA
ENDBRANCH   7   8
ENDBRANCH   6   7
ENDBRANCH   5   6
ENDBRANCH   4   5
ENDBRANCH   3   4
ENDBRANCH   2   3
ENDBRANCH   1   2
BRANCH   1  11
ATOM     11  C   UNL     1      33.222  12.404  39.916  1.00  0.00     0.000 C 
BRANCH  11  12
ATOM     12  C   UNL     1      33.123  11.129  40.775  1.00  0.00     0.000 C 
BRANCH  12  13
ATOM     13  C   UNL     1      33.565   9.831  40.070  1.00  0.00     0.000 C 
BRANCH  13  14
ATOM     14  C   UNL     1      32.627   8.627  40.275  1.00  0.00     0.000 C 
BRANCH  14  15
ATOM     15  C   UNL     1      31.144   9.026  40.309  1.00  0.00     0.000 C 
BRANCH  15  16
ATOM     16  C   UNL     1      30.412   8.316  41.454  1.00  0.00     0.006 C 
BRANCH  16  17
ATOM     17  C   UNL     1      29.473   7.231  40.916  1.00  0.00     0.053 C 
BRANCH  17  18
ATOM     18  C   UNL     1      29.442   6.058  41.845  1.00  0.00     0.041 C 
ATOM     19  O   UNL     1      30.509   5.471  42.161  1.00  0.00    -0.550 OA
ATOM     20  O   UNL     1      28.237   5.644  42.401  1.00  0.00    -0.550 OA
ENDBRANCH  17  18
ENDBRANCH  16  17
ENDBRANCH  15  16
ENDBRANCH  14  15
ENDBRANCH  13  14
ENDBRANCH  12  13
ENDBRANCH  11  12
ENDBRANCH   1  11
TORSDOF 15
ENDMDL
MODEL 9
REMARK VINA RESULT:    10.781      4.467      6.925
REMARK INTER + INTRA:          19.250
REMARK INTER:                  20.509
REMARK INTRA:                  -1.259
REMARK UNBOUND:                -0.985
REMARK SMILES O=C([O-])CCCCCCCCCCCCCCC(=O)[O-]
REMARK SMILES IDX 10 1 9 2 8 3 7 4 6 5 5 6 4 7 2 8 1 9 3 10 11 11 12 12 13 13
REMARK SMILES IDX 14 14 15 15 16 16 17 17 18 18 19 19 20 20
REMARK H PARENT
REMARK Flexibility Score: inf
ROOT
ATOM      1  C   UNL     1      34.195   8.637  39.454  1.00  0.00     0.000 C 
ENDROOT
BRANCH   1   2
ATOM      2  C   UNL     1      34.762   8.243  40.829  1.00  0.00     0.000 C 
BRANCH   2   3
ATOM      3  C   UNL     1      34.813   6.719  41.040  1.00  0.00     0.000 C 
BRANCH   3   4
ATOM      4  C   UNL     1      33.728   5.977  40.241  1.00  0.00     0.000 C 
BRANCH   4   5
ATOM      5  C   UNL     1      32.963   4.953  41.091  1.00  0.00     0.000 C 
BRANCH   5   6
ATOM      6  C   UNL     1      31.802   5.622  41.842  1.00  0.00     0.006 C 
BRANCH   6   7
ATOM      7  C   UNL     1      30.445   4.999  41.489  1.00  0.00     0.053 C 
BRANCH   7   8
ATOM      8  C   UNL     1      29.302   5.837  41.975  1.00  0.00     0.041 C 
ATOM      9  O   UNL     1      29.198   7.039  41.611  1.00  0.00    -0.550 OA
ATOM     10  O   UNL     1      28.333   5.281  42.800  1.00  0.00    -0.550 OA
ENDBRANCH   7   8
ENDBRANCH   6   7
ENDBRANCH   5   6
ENDBRANCH   4   5
ENDBRANCH   3   4
ENDBRANCH   2   3
ENDBRANCH   1   2
BRANCH   1  11
ATOM     11  C   UNL     1      32.942   9.535  39.495  1.00  0.00     0.000 C 
BRANCH  11  12
ATOM     12  C   UNL     1      32.493   9.965  40.906  1.00  0.00     0.000 C 
BRANCH  12  13
ATOM     13  C   UNL     1      32.616  11.474  41.198  1.00  0.00     0.000 C 
BRANCH  13  14
ATOM     14  C   UNL     1      33.297  12.297  40.090  1.00  0.00     0.000 C 
BRANCH  14  15
ATOM     15  C   UNL     1      34.741  12.690  40.440  1.00  0.00     0.000 C 
BRANCH  15  16
ATOM     16  C   UNL     1      34.901  12.902  41.950  1.00  0.00     0.006 C 
BRANCH  16  17
ATOM     17  C   UNL     1      36.179  13.687  42.261  1.00  0.00     0.053 C 
BRANCH  17  18
ATOM     18  C   UNL     1      36.037  14.427  43.554  1.00  0.00     0.041 C 
ATOM     19  O   UNL     1      36.734  14.100  44.551  1.00  0.00    -0.550 OA
ATOM     20  O   UNL     1      35.171  15.509  43.645  1.00  0.00    -0.550 OA
ENDBRANCH  17  18
ENDBRANCH  16  17
ENDBRANCH  15  16
ENDBRANCH  14  15
ENDBRANCH  13  14
ENDBRANCH  12  13
ENDBRANCH  11  12
ENDBRANCH   1  11
TORSDOF 15
ENDMDL
