MODEL 1
REMARK VINA RESULT:    -3.841      0.000      0.000
REMARK INTER + INTRA:          -4.836
REMARK INTER:                  -4.514
REMARK INTRA:                  -0.321
REMARK UNBOUND:                -0.321
REMARK SMILES O=c1c(O)c(-c2ccc(O)c(O)c2)oc2cc(O)ccc12
REMARK SMILES IDX 5 1 3 2 2 3 1 4 21 5 15 6 14 7 16 8 17 9 19 10 20 11 6 12
REMARK SMILES IDX 7 13 8 14 9 15 13 16 11 17 10 18 12 20 4 22 18 24
REMARK H PARENT 10 19 12 21 4 23 18 25
REMARK Flexibility Score: inf
ROOT
ATOM      1  C   UNL     1      27.342  49.915  86.062  1.00  0.00     0.180 A 
ATOM      2  C   UNL     1      27.536  51.022  86.913  1.00  0.00     0.208 A 
ATOM      3  C   UNL     1      27.773  52.282  86.341  1.00  0.00     0.235 A 
ATOM      4  O   UNL     1      27.939  53.289  87.082  1.00  0.00    -0.285 OA
ATOM      5  C   UNL     1      27.830  52.406  84.944  1.00  0.00     0.069 A 
ATOM      6  C   UNL     1      27.649  51.244  84.161  1.00  0.00     0.142 A 
ATOM      7  O   UNL     1      27.418  50.072  84.741  1.00  0.00    -0.452 OA
ATOM      8  C   UNL     1      27.709  51.325  82.766  1.00  0.00     0.094 A 
ATOM      9  C   UNL     1      27.946  52.554  82.139  1.00  0.00     0.119 A 
ATOM     10  C   UNL     1      28.125  53.708  82.914  1.00  0.00     0.047 A 
ATOM     11  C   UNL     1      28.068  53.638  84.308  1.00  0.00     0.020 A 
ENDROOT
BRANCH   1  12
ATOM     12  C   UNL     1      27.070  48.558  86.587  1.00  0.00     0.025 A 
ATOM     13  C   UNL     1      28.124  47.638  86.704  1.00  0.00     0.016 A 
ATOM     14  C   UNL     1      27.886  46.345  87.178  1.00  0.00     0.051 A 
ATOM     15  C   UNL     1      26.588  45.949  87.526  1.00  0.00     0.157 A 
ATOM     16  C   UNL     1      25.764  48.149  86.918  1.00  0.00     0.062 A 
ATOM     17  C   UNL     1      25.525  46.850  87.391  1.00  0.00     0.158 A 
BRANCH  15  18
ATOM     18  O   UNL     1      26.346  44.660  88.001  1.00  0.00    -0.504 OA
ATOM     19  H   UNL     1      25.444  44.213  87.884  1.00  0.00     0.293 HD
ENDBRANCH  15  18
BRANCH  17  20
ATOM     20  O   UNL     1      24.233  46.449  87.725  1.00  0.00    -0.504 OA
ATOM     21  H   UNL     1      23.971  45.470  87.751  1.00  0.00     0.293 HD
ENDBRANCH  17  20
ENDBRANCH   1  12
BRANCH   2  22
ATOM     22  O   UNL     1      27.523  50.859  88.301  1.00  0.00    -0.502 OA
ATOM     23  H   UNL     1      28.370  50.877  88.856  1.00  0.00     0.293 HD
ENDBRANCH   2  22
BRANCH   9  24
ATOM     24  O   UNL     1      28.002  52.616  80.749  1.00  0.00    -0.508 OA
ATOM     25  H   UNL     1      28.830  52.945  80.266  1.00  0.00     0.293 HD
ENDBRANCH   9  24
TORSDOF 5
ENDMDL
MODEL 2
REMARK VINA RESULT:    -3.741      4.970      6.626
REMARK INTER + INTRA:          -4.719
REMARK INTER:                  -4.421
REMARK INTRA:                  -0.297
REMARK UNBOUND:                -0.321
REMARK SMILES O=c1c(O)c(-c2ccc(O)c(O)c2)oc2cc(O)ccc12
REMARK SMILES IDX 5 1 3 2 2 3 1 4 21 5 15 6 14 7 16 8 17 9 19 10 20 11 6 12
REMARK SMILES IDX 7 13 8 14 9 15 13 16 11 17 10 18 12 20 4 22 18 24
REMARK H PARENT 10 19 12 21 4 23 18 25
REMARK Flexibility Score: inf
ROOT
ATOM      1  C   UNL     1      23.436  47.611  87.774  1.00  0.00     0.180 A 
ATOM      2  C   UNL     1      22.171  47.012  87.939  1.00  0.00     0.208 A 
ATOM      3  C   UNL     1      21.069  47.829  88.237  1.00  0.00     0.235 A 
ATOM      4  O   UNL     1      19.925  47.317  88.378  1.00  0.00    -0.285 OA
ATOM      5  C   UNL     1      21.255  49.213  88.383  1.00  0.00     0.069 A 
ATOM      6  C   UNL     1      22.559  49.732  88.226  1.00  0.00     0.142 A 
ATOM      7  O   UNL     1      23.573  48.926  87.935  1.00  0.00    -0.452 OA
ATOM      8  C   UNL     1      22.787  51.105  88.374  1.00  0.00     0.094 A 
ATOM      9  C   UNL     1      21.728  51.968  88.676  1.00  0.00     0.119 A 
ATOM     10  C   UNL     1      20.432  51.455  88.831  1.00  0.00     0.047 A 
ATOM     11  C   UNL     1      20.194  50.085  88.686  1.00  0.00     0.020 A 
ENDROOT
BRANCH   1  12
ATOM     12  C   UNL     1      24.643  46.821  87.441  1.00  0.00     0.025 A 
ATOM     13  C   UNL     1      25.354  46.179  88.468  1.00  0.00     0.016 A 
ATOM     14  C   UNL     1      26.507  45.444  88.179  1.00  0.00     0.051 A 
ATOM     15  C   UNL     1      26.976  45.356  86.862  1.00  0.00     0.157 A 
ATOM     16  C   UNL     1      25.129  46.746  86.123  1.00  0.00     0.062 A 
ATOM     17  C   UNL     1      26.289  46.011  85.833  1.00  0.00     0.158 A 
BRANCH  15  18
ATOM     18  O   UNL     1      28.125  44.623  86.569  1.00  0.00    -0.504 OA
ATOM     19  H   UNL     1      28.072  43.671  86.225  1.00  0.00     0.293 HD
ENDBRANCH  15  18
BRANCH  17  20
ATOM     20  O   UNL     1      26.764  45.932  84.525  1.00  0.00    -0.504 OA
ATOM     21  H   UNL     1      27.636  46.369  84.250  1.00  0.00     0.293 HD
ENDBRANCH  17  20
ENDBRANCH   1  12
BRANCH   2  22
ATOM     22  O   UNL     1      22.025  45.626  87.836  1.00  0.00    -0.502 OA
ATOM     23  H   UNL     1      21.710  45.176  86.985  1.00  0.00     0.293 HD
ENDBRANCH   2  22
BRANCH   9  24
ATOM     24  O   UNL     1      21.972  53.331  88.819  1.00  0.00    -0.508 OA
ATOM     25  H   UNL     1      21.629  54.006  88.146  1.00  0.00     0.293 HD
ENDBRANCH   9  24
TORSDOF 5
ENDMDL
MODEL 3
REMARK VINA RESULT:    -3.699      3.712      5.838
REMARK INTER + INTRA:          -4.669
REMARK INTER:                  -4.625
REMARK INTRA:                  -0.043
REMARK UNBOUND:                -0.321
REMARK SMILES O=c1c(O)c(-c2ccc(O)c(O)c2)oc2cc(O)ccc12
REMARK SMILES IDX 5 1 3 2 2 3 1 4 21 5 15 6 14 7 16 8 17 9 19 10 20 11 6 12
REMARK SMILES IDX 7 13 8 14 9 15 13 16 11 17 10 18 12 20 4 22 18 24
REMARK H PARENT 10 19 12 21 4 23 18 25
REMARK Flexibility Score: inf
ROOT
ATOM      1  C   UNL     1      23.919  49.052  87.143  1.00  0.00     0.180 A 
ATOM      2  C   UNL     1      24.804  50.149  87.107  1.00  0.00     0.208 A 
ATOM      3  C   UNL     1      26.092  49.962  86.583  1.00  0.00     0.235 A 
ATOM      4  O   UNL     1      26.898  50.931  86.530  1.00  0.00    -0.285 OA
ATOM      5  C   UNL     1      26.475  48.690  86.127  1.00  0.00     0.069 A 
ATOM      6  C   UNL     1      25.538  47.638  86.220  1.00  0.00     0.142 A 
ATOM      7  O   UNL     1      24.325  47.858  86.714  1.00  0.00    -0.452 OA
ATOM      8  C   UNL     1      25.884  46.353  85.786  1.00  0.00     0.094 A 
ATOM      9  C   UNL     1      27.156  46.106  85.258  1.00  0.00     0.119 A 
ATOM     10  C   UNL     1      28.088  47.149  85.165  1.00  0.00     0.047 A 
ATOM     11  C   UNL     1      27.752  48.435  85.596  1.00  0.00     0.020 A 
ENDROOT
BRANCH   1  12
ATOM     12  C   UNL     1      22.538  49.172  87.664  1.00  0.00     0.025 A 
ATOM     13  C   UNL     1      22.074  48.246  88.611  1.00  0.00     0.016 A 
ATOM     14  C   UNL     1      20.767  48.328  89.101  1.00  0.00     0.051 A 
ATOM     15  C   UNL     1      19.902  49.328  88.638  1.00  0.00     0.157 A 
ATOM     16  C   UNL     1      21.659  50.162  87.187  1.00  0.00     0.062 A 
ATOM     17  C   UNL     1      20.347  50.244  87.676  1.00  0.00     0.158 A 
BRANCH  15  18
ATOM     18  O   UNL     1      18.599  49.415  89.125  1.00  0.00    -0.504 OA
ATOM     19  H   UNL     1      17.838  49.752  88.546  1.00  0.00     0.293 HD
ENDBRANCH  15  18
BRANCH  17  20
ATOM     20  O   UNL     1      19.479  51.229  87.208  1.00  0.00    -0.504 OA
ATOM     21  H   UNL     1      19.806  51.989  86.622  1.00  0.00     0.293 HD
ENDBRANCH  17  20
ENDBRANCH   1  12
BRANCH   2  22
ATOM     22  O   UNL     1      24.412  51.391  87.613  1.00  0.00    -0.502 OA
ATOM     23  H   UNL     1      23.494  51.782  87.438  1.00  0.00     0.293 HD
ENDBRANCH   2  22
BRANCH   9  24
ATOM     24  O   UNL     1      27.484  44.822  84.831  1.00  0.00    -0.508 OA
ATOM     25  H   UNL     1      28.434  44.573  84.579  1.00  0.00     0.293 HD
ENDBRANCH   9  24
TORSDOF 5
ENDMDL
MODEL 4
REMARK VINA RESULT:    -3.676      3.970      5.932
REMARK INTER + INTRA:          -4.642
REMARK INTER:                  -4.406
REMARK INTRA:                  -0.235
REMARK UNBOUND:                -0.321
REMARK SMILES O=c1c(O)c(-c2ccc(O)c(O)c2)oc2cc(O)ccc12
REMARK SMILES IDX 5 1 3 2 2 3 1 4 21 5 15 6 14 7 16 8 17 9 19 10 20 11 6 12
REMARK SMILES IDX 7 13 8 14 9 15 13 16 11 17 10 18 12 20 4 22 18 24
REMARK H PARENT 10 19 12 21 4 23 18 25
REMARK Flexibility Score: inf
ROOT
ATOM      1  C   UNL     1      24.440  48.672  87.523  1.00  0.00     0.180 A 
ATOM      2  C   UNL     1      24.866  50.013  87.596  1.00  0.00     0.208 A 
ATOM      3  C   UNL     1      23.926  51.005  87.914  1.00  0.00     0.235 A 
ATOM      4  O   UNL     1      24.286  52.212  87.996  1.00  0.00    -0.285 OA
ATOM      5  C   UNL     1      22.587  50.644  88.133  1.00  0.00     0.069 A 
ATOM      6  C   UNL     1      22.236  49.281  88.018  1.00  0.00     0.142 A 
ATOM      7  O   UNL     1      23.158  48.371  87.723  1.00  0.00    -0.452 OA
ATOM      8  C   UNL     1      20.910  48.882  88.217  1.00  0.00     0.094 A 
ATOM      9  C   UNL     1      19.928  49.827  88.533  1.00  0.00     0.119 A 
ATOM     10  C   UNL     1      20.275  51.181  88.649  1.00  0.00     0.047 A 
ATOM     11  C   UNL     1      21.596  51.590  88.450  1.00  0.00     0.020 A 
ENDROOT
BRANCH   1  12
ATOM     12  C   UNL     1      25.373  47.565  87.211  1.00  0.00     0.025 A 
ATOM     13  C   UNL     1      26.314  47.163  88.173  1.00  0.00     0.016 A 
ATOM     14  C   UNL     1      27.218  46.135  87.892  1.00  0.00     0.051 A 
ATOM     15  C   UNL     1      27.205  45.506  86.640  1.00  0.00     0.157 A 
ATOM     16  C   UNL     1      25.378  46.945  85.948  1.00  0.00     0.062 A 
ATOM     17  C   UNL     1      26.287  45.914  85.665  1.00  0.00     0.158 A 
BRANCH  15  18
ATOM     18  O   UNL     1      28.104  44.479  86.357  1.00  0.00    -0.504 OA
ATOM     19  H   UNL     1      27.821  43.506  86.382  1.00  0.00     0.293 HD
ENDBRANCH  15  18
BRANCH  17  20
ATOM     20  O   UNL     1      26.285  45.296  84.416  1.00  0.00    -0.504 OA
ATOM     21  H   UNL     1      25.674  45.608  83.671  1.00  0.00     0.293 HD
ENDBRANCH  17  20
ENDBRANCH   1  12
BRANCH   2  22
ATOM     22  O   UNL     1      26.195  50.349  87.326  1.00  0.00    -0.502 OA
ATOM     23  H   UNL     1      26.447  51.091  86.683  1.00  0.00     0.293 HD
ENDBRANCH   2  22
BRANCH   9  24
ATOM     24  O   UNL     1      18.613  49.413  88.729  1.00  0.00    -0.508 OA
ATOM     25  H   UNL     1      18.396  48.545  89.205  1.00  0.00     0.293 HD
ENDBRANCH   9  24
TORSDOF 5
ENDMDL
MODEL 5
REMARK VINA RESULT:    -3.672      5.119      6.640
REMARK INTER + INTRA:          -4.638
REMARK INTER:                  -4.355
REMARK INTRA:                  -0.283
REMARK UNBOUND:                -0.321
REMARK SMILES O=c1c(O)c(-c2ccc(O)c(O)c2)oc2cc(O)ccc12
REMARK SMILES IDX 5 1 3 2 2 3 1 4 21 5 15 6 14 7 16 8 17 9 19 10 20 11 6 12
REMARK SMILES IDX 7 13 8 14 9 15 13 16 11 17 10 18 12 20 4 22 18 24
REMARK H PARENT 10 19 12 21 4 23 18 25
REMARK Flexibility Score: inf
ROOT
ATOM      1  C   UNL     1      23.444  47.621  87.787  1.00  0.00     0.180 A 
ATOM      2  C   UNL     1      22.184  47.006  87.927  1.00  0.00     0.208 A 
ATOM      3  C   UNL     1      21.068  47.808  88.212  1.00  0.00     0.235 A 
ATOM      4  O   UNL     1      19.927  47.281  88.332  1.00  0.00    -0.285 OA
ATOM      5  C   UNL     1      21.234  49.193  88.371  1.00  0.00     0.069 A 
ATOM      6  C   UNL     1      22.534  49.729  88.238  1.00  0.00     0.142 A 
ATOM      7  O   UNL     1      23.563  48.937  87.959  1.00  0.00    -0.452 OA
ATOM      8  C   UNL     1      22.744  51.103  88.399  1.00  0.00     0.094 A 
ATOM      9  C   UNL     1      21.669  51.952  88.688  1.00  0.00     0.119 A 
ATOM     10  C   UNL     1      20.378  51.422  88.819  1.00  0.00     0.047 A 
ATOM     11  C   UNL     1      20.158  50.051  88.662  1.00  0.00     0.020 A 
ENDROOT
BRANCH   1  12
ATOM     12  C   UNL     1      24.666  46.848  87.469  1.00  0.00     0.025 A 
ATOM     13  C   UNL     1      25.123  46.793  86.142  1.00  0.00     0.016 A 
ATOM     14  C   UNL     1      26.262  46.052  85.815  1.00  0.00     0.051 A 
ATOM     15  C   UNL     1      26.951  45.342  86.808  1.00  0.00     0.157 A 
ATOM     16  C   UNL     1      25.350  46.117  88.458  1.00  0.00     0.062 A 
ATOM     17  C   UNL     1      26.492  45.371  88.130  1.00  0.00     0.158 A 
BRANCH  15  18
ATOM     18  O   UNL     1      28.089  44.604  86.487  1.00  0.00    -0.504 OA
ATOM     19  H   UNL     1      28.648  44.154  87.203  1.00  0.00     0.293 HD
ENDBRANCH  15  18
BRANCH  17  20
ATOM     20  O   UNL     1      27.172  44.654  89.113  1.00  0.00    -0.504 OA
ATOM     21  H   UNL     1      27.828  43.920  88.876  1.00  0.00     0.293 HD
ENDBRANCH  17  20
ENDBRANCH   1  12
BRANCH   2  22
ATOM     22  O   UNL     1      22.056  45.619  87.813  1.00  0.00    -0.502 OA
ATOM     23  H   UNL     1      22.859  45.005  87.748  1.00  0.00     0.293 HD
ENDBRANCH   2  22
BRANCH   9  24
ATOM     24  O   UNL     1      21.895  53.317  88.845  1.00  0.00    -0.508 OA
ATOM     25  H   UNL     1      21.925  53.748  89.761  1.00  0.00     0.293 HD
ENDBRANCH   9  24
TORSDOF 5
ENDMDL
MODEL 6
REMARK VINA RESULT:    -3.667      2.482      4.131
REMARK INTER + INTRA:          -4.631
REMARK INTER:                  -4.390
REMARK INTRA:                  -0.241
REMARK UNBOUND:                -0.321
REMARK SMILES O=c1c(O)c(-c2ccc(O)c(O)c2)oc2cc(O)ccc12
REMARK SMILES IDX 5 1 3 2 2 3 1 4 21 5 15 6 14 7 16 8 17 9 19 10 20 11 6 12
REMARK SMILES IDX 7 13 8 14 9 15 13 16 11 17 10 18 12 20 4 22 18 24
REMARK H PARENT 10 19 12 21 4 23 18 25
REMARK Flexibility Score: inf
ROOT
ATOM      1  C   UNL     1      25.140  48.679  86.932  1.00  0.00     0.180 A 
ATOM      2  C   UNL     1      26.183  48.192  86.118  1.00  0.00     0.208 A 
ATOM      3  C   UNL     1      27.175  49.084  85.684  1.00  0.00     0.235 A 
ATOM      4  O   UNL     1      28.124  48.668  84.963  1.00  0.00    -0.285 OA
ATOM      5  C   UNL     1      27.097  50.436  86.051  1.00  0.00     0.069 A 
ATOM      6  C   UNL     1      26.008  50.850  86.849  1.00  0.00     0.142 A 
ATOM      7  O   UNL     1      25.094  49.973  87.247  1.00  0.00    -0.452 OA
ATOM      8  C   UNL     1      25.889  52.192  87.228  1.00  0.00     0.094 A 
ATOM      9  C   UNL     1      26.846  53.128  86.821  1.00  0.00     0.119 A 
ATOM     10  C   UNL     1      27.929  52.719  86.029  1.00  0.00     0.047 A 
ATOM     11  C   UNL     1      28.056  51.382  85.645  1.00  0.00     0.020 A 
ENDROOT
BRANCH   1  12
ATOM     12  C   UNL     1      24.066  47.799  87.446  1.00  0.00     0.025 A 
ATOM     13  C   UNL     1      24.353  46.886  88.473  1.00  0.00     0.016 A 
ATOM     14  C   UNL     1      23.360  46.031  88.959  1.00  0.00     0.051 A 
ATOM     15  C   UNL     1      22.070  46.067  88.413  1.00  0.00     0.157 A 
ATOM     16  C   UNL     1      22.774  47.817  86.887  1.00  0.00     0.062 A 
ATOM     17  C   UNL     1      21.778  46.957  87.374  1.00  0.00     0.158 A 
BRANCH  15  18
ATOM     18  O   UNL     1      21.076  45.217  88.897  1.00  0.00    -0.504 OA
ATOM     19  H   UNL     1      20.478  44.691  88.270  1.00  0.00     0.293 HD
ENDBRANCH  15  18
BRANCH  17  20
ATOM     20  O   UNL     1      20.497  46.981  86.824  1.00  0.00    -0.504 OA
ATOM     21  H   UNL     1      19.693  46.636  87.336  1.00  0.00     0.293 HD
ENDBRANCH  17  20
ENDBRANCH   1  12
BRANCH   2  22
ATOM     22  O   UNL     1      26.208  46.850  85.728  1.00  0.00    -0.502 OA
ATOM     23  H   UNL     1      25.902  46.102  86.339  1.00  0.00     0.293 HD
ENDBRANCH   2  22
BRANCH   9  24
ATOM     24  O   UNL     1      26.712  54.459  87.207  1.00  0.00    -0.508 OA
ATOM     25  H   UNL     1      27.124  55.212  86.667  1.00  0.00     0.293 HD
ENDBRANCH   9  24
TORSDOF 5
ENDMDL
MODEL 7
REMARK VINA RESULT:    -3.494      4.196      7.150
REMARK INTER + INTRA:          -4.428
REMARK INTER:                  -4.392
REMARK INTRA:                  -0.036
REMARK UNBOUND:                -0.321
REMARK SMILES O=c1c(O)c(-c2ccc(O)c(O)c2)oc2cc(O)ccc12
REMARK SMILES IDX 5 1 3 2 2 3 1 4 21 5 15 6 14 7 16 8 17 9 19 10 20 11 6 12
REMARK SMILES IDX 7 13 8 14 9 15 13 16 11 17 10 18 12 20 4 22 18 24
REMARK H PARENT 10 19 12 21 4 23 18 25
REMARK Flexibility Score: inf
ROOT
ATOM      1  C   UNL     1      23.921  47.526  87.498  1.00  0.00     0.180 A 
ATOM      2  C   UNL     1      24.718  48.172  86.532  1.00  0.00     0.208 A 
ATOM      3  C   UNL     1      25.991  47.654  86.248  1.00  0.00     0.235 A 
ATOM      4  O   UNL     1      26.719  48.210  85.380  1.00  0.00    -0.285 OA
ATOM      5  C   UNL     1      26.447  46.523  86.943  1.00  0.00     0.069 A 
ATOM      6  C   UNL     1      25.597  45.947  87.913  1.00  0.00     0.142 A 
ATOM      7  O   UNL     1      24.396  46.463  88.145  1.00  0.00    -0.452 OA
ATOM      8  C   UNL     1      26.019  44.824  88.634  1.00  0.00     0.094 A 
ATOM      9  C   UNL     1      27.280  44.266  88.398  1.00  0.00     0.119 A 
ATOM     10  C   UNL     1      28.125  44.836  87.434  1.00  0.00     0.047 A 
ATOM     11  C   UNL     1      27.714  45.958  86.710  1.00  0.00     0.020 A 
ENDROOT
BRANCH   1  12
ATOM     12  C   UNL     1      22.561  47.999  87.840  1.00  0.00     0.025 A 
ATOM     13  C   UNL     1      22.379  49.320  88.279  1.00  0.00     0.016 A 
ATOM     14  C   UNL     1      21.107  49.783  88.628  1.00  0.00     0.051 A 
ATOM     15  C   UNL     1      20.001  48.925  88.556  1.00  0.00     0.157 A 
ATOM     16  C   UNL     1      21.450  47.136  87.790  1.00  0.00     0.062 A 
ATOM     17  C   UNL     1      20.173  47.599  88.142  1.00  0.00     0.158 A 
BRANCH  15  18
ATOM     18  O   UNL     1      18.730  49.383  88.901  1.00  0.00    -0.504 OA
ATOM     19  H   UNL     1      18.595  50.277  89.359  1.00  0.00     0.293 HD
ENDBRANCH  15  18
BRANCH  17  20
ATOM     20  O   UNL     1      19.073  46.745  88.085  1.00  0.00    -0.504 OA
ATOM     21  H   UNL     1      18.155  47.079  87.817  1.00  0.00     0.293 HD
ENDBRANCH  17  20
ENDBRANCH   1  12
BRANCH   2  22
ATOM     22  O   UNL     1      24.258  49.326  85.892  1.00  0.00    -0.502 OA
ATOM     23  H   UNL     1      23.273  49.551  85.823  1.00  0.00     0.293 HD
ENDBRANCH   2  22
BRANCH   9  24
ATOM     24  O   UNL     1      27.684  43.149  89.124  1.00  0.00    -0.508 OA
ATOM     25  H   UNL     1      27.049  42.666  89.750  1.00  0.00     0.293 HD
ENDBRANCH   9  24
TORSDOF 5
ENDMDL
MODEL 8
REMARK VINA RESULT:    -3.418      3.236      4.711
REMARK INTER + INTRA:          -4.339
REMARK INTER:                  -4.113
REMARK INTRA:                  -0.226
REMARK UNBOUND:                -0.321
REMARK SMILES O=c1c(O)c(-c2ccc(O)c(O)c2)oc2cc(O)ccc12
REMARK SMILES IDX 5 1 3 2 2 3 1 4 21 5 15 6 14 7 16 8 17 9 19 10 20 11 6 12
REMARK SMILES IDX 7 13 8 14 9 15 13 16 11 17 10 18 12 20 4 22 18 24
REMARK H PARENT 10 19 12 21 4 23 18 25
REMARK Flexibility Score: inf
ROOT
ATOM      1  C   UNL     1      24.493  50.022  87.550  1.00  0.00     0.180 A 
ATOM      2  C   UNL     1      25.685  50.083  86.801  1.00  0.00     0.208 A 
ATOM      3  C   UNL     1      26.338  51.318  86.669  1.00  0.00     0.235 A 
ATOM      4  O   UNL     1      27.412  51.396  86.011  1.00  0.00    -0.285 OA
ATOM      5  C   UNL     1      25.783  52.461  87.266  1.00  0.00     0.069 A 
ATOM      6  C   UNL     1      24.573  52.320  87.981  1.00  0.00     0.142 A 
ATOM      7  O   UNL     1      23.990  51.132  88.090  1.00  0.00    -0.452 OA
ATOM      8  C   UNL     1      23.982  53.437  88.582  1.00  0.00     0.094 A 
ATOM      9  C   UNL     1      24.585  54.695  88.480  1.00  0.00     0.119 A 
ATOM     10  C   UNL     1      25.787  54.837  87.772  1.00  0.00     0.047 A 
ATOM     11  C   UNL     1      26.384  53.728  87.167  1.00  0.00     0.020 A 
ENDROOT
BRANCH   1  12
ATOM     12  C   UNL     1      23.754  48.754  87.751  1.00  0.00     0.025 A 
ATOM     13  C   UNL     1      24.296  47.764  88.586  1.00  0.00     0.016 A 
ATOM     14  C   UNL     1      23.627  46.552  88.774  1.00  0.00     0.051 A 
ATOM     15  C   UNL     1      22.413  46.307  88.117  1.00  0.00     0.157 A 
ATOM     16  C   UNL     1      22.546  48.496  87.078  1.00  0.00     0.062 A 
ATOM     17  C   UNL     1      21.874  47.278  87.265  1.00  0.00     0.158 A 
BRANCH  15  18
ATOM     18  O   UNL     1      21.741  45.100  88.303  1.00  0.00    -0.504 OA
ATOM     19  H   UNL     1      22.027  44.255  87.823  1.00  0.00     0.293 HD
ENDBRANCH  15  18
BRANCH  17  20
ATOM     20  O   UNL     1      20.674  47.026  86.602  1.00  0.00    -0.504 OA
ATOM     21  H   UNL     1      19.828  47.539  86.824  1.00  0.00     0.293 HD
ENDBRANCH  17  20
ENDBRANCH   1  12
BRANCH   2  22
ATOM     22  O   UNL     1      26.188  48.939  86.176  1.00  0.00    -0.502 OA
ATOM     23  H   UNL     1      26.823  48.302  86.642  1.00  0.00     0.293 HD
ENDBRANCH   2  22
BRANCH   9  24
ATOM     24  O   UNL     1      23.984  55.796  89.085  1.00  0.00    -0.508 OA
ATOM     25  H   UNL     1      23.088  55.720  89.552  1.00  0.00     0.293 HD
ENDBRANCH   9  24
TORSDOF 5
ENDMDL
MODEL 9
REMARK VINA RESULT:    -3.294      3.958      5.546
REMARK INTER + INTRA:          -4.193
REMARK INTER:                  -3.917
REMARK INTRA:                  -0.275
REMARK UNBOUND:                -0.321
REMARK SMILES O=c1c(O)c(-c2ccc(O)c(O)c2)oc2cc(O)ccc12
REMARK SMILES IDX 5 1 3 2 2 3 1 4 21 5 15 6 14 7 16 8 17 9 19 10 20 11 6 12
REMARK SMILES IDX 7 13 8 14 9 15 13 16 11 17 10 18 12 20 4 22 18 24
REMARK H PARENT 10 19 12 21 4 23 18 25
REMARK Flexibility Score: inf
ROOT
ATOM      1  C   UNL     1      24.622  49.041  87.763  1.00  0.00     0.180 A 
ATOM      2  C   UNL     1      25.193  50.232  88.257  1.00  0.00     0.208 A 
ATOM      3  C   UNL     1      24.345  51.296  88.600  1.00  0.00     0.235 A 
ATOM      4  O   UNL     1      24.832  52.369  89.054  1.00  0.00    -0.285 OA
ATOM      5  C   UNL     1      22.959  51.159  88.428  1.00  0.00     0.069 A 
ATOM      6  C   UNL     1      22.468  49.942  87.905  1.00  0.00     0.142 A 
ATOM      7  O   UNL     1      23.303  48.956  87.601  1.00  0.00    -0.452 OA
ATOM      8  C   UNL     1      21.093  49.770  87.709  1.00  0.00     0.094 A 
ATOM      9  C   UNL     1      20.200  50.798  88.029  1.00  0.00     0.119 A 
ATOM     10  C   UNL     1      20.685  52.006  88.549  1.00  0.00     0.047 A 
ATOM     11  C   UNL     1      22.056  52.189  88.748  1.00  0.00     0.020 A 
ENDROOT
BRANCH   1  12
ATOM     12  C   UNL     1      25.447  47.868  87.396  1.00  0.00     0.025 A 
ATOM     13  C   UNL     1      26.107  47.848  86.157  1.00  0.00     0.016 A 
ATOM     14  C   UNL     1      26.874  46.741  85.781  1.00  0.00     0.051 A 
ATOM     15  C   UNL     1      26.978  45.633  86.631  1.00  0.00     0.157 A 
ATOM     16  C   UNL     1      25.537  46.743  88.238  1.00  0.00     0.062 A 
ATOM     17  C   UNL     1      26.305  45.632  87.859  1.00  0.00     0.158 A 
BRANCH  15  18
ATOM     18  O   UNL     1      27.743  44.528  86.261  1.00  0.00    -0.504 OA
ATOM     19  H   UNL     1      28.017  44.373  85.298  1.00  0.00     0.293 HD
ENDBRANCH  15  18
BRANCH  17  20
ATOM     20  O   UNL     1      26.399  44.522  88.697  1.00  0.00    -0.504 OA
ATOM     21  H   UNL     1      27.251  43.976  88.762  1.00  0.00     0.293 HD
ENDBRANCH  17  20
ENDBRANCH   1  12
BRANCH   2  22
ATOM     22  O   UNL     1      26.580  50.358  88.372  1.00  0.00    -0.502 OA
ATOM     23  H   UNL     1      27.218  49.651  88.028  1.00  0.00     0.293 HD
ENDBRANCH   2  22
BRANCH   9  24
ATOM     24  O   UNL     1      18.835  50.609  87.827  1.00  0.00    -0.508 OA
ATOM     25  H   UNL     1      18.444  50.519  86.897  1.00  0.00     0.293 HD
ENDBRANCH   9  24
TORSDOF 5
ENDMDL
