MODEL 1
REMARK VINA RESULT:    -4.294      0.000      0.000
REMARK INTER + INTRA:          -4.294
REMARK INTER:                  -4.294
REMARK INTRA:                   0.000
REMARK UNBOUND:                 0.000
REMARK SMILES CC(C)=C1CC[C@H](C)CC1=O
REMARK SMILES IDX 8 1 7 2 6 3 5 4 4 5 2 6 1 7 3 8 10 9 11 10 9 11
REMARK H PARENT
REMARK Flexibility Score: inf
ROOT
ATOM      1  C   UNL     1      83.515  31.162  65.129  1.00  0.00     0.008 C 
ATOM      2  C   UNL     1      85.011  31.494  65.187  1.00  0.00    -0.006 C 
ATOM      3  C   UNL     1      85.318  32.751  64.358  1.00  0.00     0.008 C 
ATOM      4  C   UNL     1      86.825  33.039  64.320  1.00  0.00     0.039 C 
ATOM      5  C   UNL     1      87.444  33.089  65.709  1.00  0.00    -0.006 C 
ATOM      6  C   UNL     1      88.506  33.903  65.984  1.00  0.00    -0.070 C 
ATOM      7  C   UNL     1      89.094  34.003  67.373  1.00  0.00     0.039 C 
ATOM      8  C   UNL     1      89.121  34.777  64.915  1.00  0.00     0.039 C 
ATOM      9  C   UNL     1      86.901  32.118  66.706  1.00  0.00     0.159 C 
ATOM     10  O   UNL     1      87.632  31.628  67.607  1.00  0.00    -0.295 OA
ATOM     11  C   UNL     1      85.461  31.701  66.640  1.00  0.00     0.084 C 
ENDROOT
TORSDOF 0
ENDMDL
MODEL 2
REMARK VINA RESULT:    -4.222      2.111      4.864
REMARK INTER + INTRA:          -4.222
REMARK INTER:                  -4.222
REMARK INTRA:                   0.000
REMARK UNBOUND:                 0.000
REMARK SMILES CC(C)=C1CC[C@H](C)CC1=O
REMARK SMILES IDX 8 1 7 2 6 3 5 4 4 5 2 6 1 7 3 8 10 9 11 10 9 11
REMARK H PARENT
REMARK Flexibility Score: inf
ROOT
ATOM      1  C   UNL     1      88.955  32.868  66.670  1.00  0.00     0.008 C 
ATOM      2  C   UNL     1      87.960  32.154  65.747  1.00  0.00    -0.006 C 
ATOM      3  C   UNL     1      87.879  30.658  66.093  1.00  0.00     0.008 C 
ATOM      4  C   UNL     1      86.966  29.908  65.114  1.00  0.00     0.039 C 
ATOM      5  C   UNL     1      85.593  30.554  64.985  1.00  0.00    -0.006 C 
ATOM      6  C   UNL     1      84.478  29.806  64.736  1.00  0.00    -0.070 C 
ATOM      7  C   UNL     1      83.103  30.428  64.662  1.00  0.00     0.039 C 
ATOM      8  C   UNL     1      84.563  28.307  64.560  1.00  0.00     0.039 C 
ATOM      9  C   UNL     1      85.563  32.046  65.031  1.00  0.00     0.159 C 
ATOM     10  O   UNL     1      84.708  32.704  64.379  1.00  0.00    -0.295 OA
ATOM     11  C   UNL     1      86.568  32.793  65.857  1.00  0.00     0.084 C 
ENDROOT
TORSDOF 0
ENDMDL
MODEL 3
REMARK VINA RESULT:    -3.840     15.482     16.837
REMARK INTER + INTRA:          -3.840
REMARK INTER:                  -3.840
REMARK INTRA:                   0.000
REMARK UNBOUND:                 0.000
REMARK SMILES CC(C)=C1CC[C@H](C)CC1=O
REMARK SMILES IDX 8 1 7 2 6 3 5 4 4 5 2 6 1 7 3 8 10 9 11 10 9 11
REMARK H PARENT
REMARK Flexibility Score: inf
ROOT
ATOM      1  C   UNL     1      73.735  34.944  53.120  1.00  0.00     0.008 C 
ATOM      2  C   UNL     1      75.028  34.636  52.355  1.00  0.00    -0.006 C 
ATOM      3  C   UNL     1      75.938  35.875  52.311  1.00  0.00     0.008 C 
ATOM      4  C   UNL     1      77.190  35.616  51.462  1.00  0.00     0.039 C 
ATOM      5  C   UNL     1      77.934  34.358  51.888  1.00  0.00    -0.006 C 
ATOM      6  C   UNL     1      79.292  34.263  51.771  1.00  0.00    -0.070 C 
ATOM      7  C   UNL     1      80.048  33.042  52.242  1.00  0.00     0.039 C 
ATOM      8  C   UNL     1      80.110  35.397  51.197  1.00  0.00     0.039 C 
ATOM      9  C   UNL     1      77.085  33.210  52.325  1.00  0.00     0.159 C 
ATOM     10  O   UNL     1      77.445  32.018  52.127  1.00  0.00    -0.295 OA
ATOM     11  C   UNL     1      75.773  33.461  53.006  1.00  0.00     0.084 C 
ENDROOT
TORSDOF 0
ENDMDL
MODEL 4
REMARK VINA RESULT:    -3.775      1.292      1.325
REMARK INTER + INTRA:          -3.775
REMARK INTER:                  -3.775
REMARK INTRA:                   0.000
REMARK UNBOUND:                 0.000
REMARK SMILES CC(C)=C1CC[C@H](C)CC1=O
REMARK SMILES IDX 8 1 7 2 6 3 5 4 4 5 2 6 1 7 3 8 10 9 11 10 9 11
REMARK H PARENT
REMARK Flexibility Score: inf
ROOT
ATOM      1  C   UNL     1      83.325  30.217  64.738  1.00  0.00     0.008 C 
ATOM      2  C   UNL     1      84.670  30.916  64.503  1.00  0.00    -0.006 C 
ATOM      3  C   UNL     1      84.498  32.443  64.534  1.00  0.00     0.008 C 
ATOM      4  C   UNL     1      85.814  33.158  64.199  1.00  0.00     0.039 C 
ATOM      5  C   UNL     1      86.973  32.683  65.063  1.00  0.00    -0.006 C 
ATOM      6  C   UNL     1      87.990  33.525  65.412  1.00  0.00    -0.070 C 
ATOM      7  C   UNL     1      89.117  33.081  66.315  1.00  0.00     0.039 C 
ATOM      8  C   UNL     1      88.015  34.961  64.940  1.00  0.00     0.039 C 
ATOM      9  C   UNL     1      86.987  31.228  65.401  1.00  0.00     0.159 C 
ATOM     10  O   UNL     1      88.069  30.601  65.548  1.00  0.00    -0.295 OA
ATOM     11  C   UNL     1      85.695  30.482  65.561  1.00  0.00     0.084 C 
ENDROOT
TORSDOF 0
ENDMDL
MODEL 5
REMARK VINA RESULT:    -3.731      1.779      4.602
REMARK INTER + INTRA:          -3.731
REMARK INTER:                  -3.731
REMARK INTRA:                   0.000
REMARK UNBOUND:                 0.000
REMARK SMILES CC(C)=C1CC[C@H](C)CC1=O
REMARK SMILES IDX 8 1 7 2 6 3 5 4 4 5 2 6 1 7 3 8 10 9 11 10 9 11
REMARK H PARENT
REMARK Flexibility Score: inf
ROOT
ATOM      1  C   UNL     1      88.963  33.586  64.934  1.00  0.00     0.008 C 
ATOM      2  C   UNL     1      87.810  32.662  65.345  1.00  0.00    -0.006 C 
ATOM      3  C   UNL     1      86.466  33.226  64.855  1.00  0.00     0.008 C 
ATOM      4  C   UNL     1      85.291  32.369  65.344  1.00  0.00     0.039 C 
ATOM      5  C   UNL     1      85.464  30.894  65.009  1.00  0.00    -0.006 C 
ATOM      6  C   UNL     1      84.388  30.094  64.751  1.00  0.00    -0.070 C 
ATOM      7  C   UNL     1      84.550  28.643  64.362  1.00  0.00     0.039 C 
ATOM      8  C   UNL     1      82.978  30.637  64.803  1.00  0.00     0.039 C 
ATOM      9  C   UNL     1      86.857  30.361  65.096  1.00  0.00     0.159 C 
ATOM     10  O   UNL     1      87.080  29.169  65.439  1.00  0.00    -0.295 OA
ATOM     11  C   UNL     1      88.023  31.250  64.782  1.00  0.00     0.084 C 
ENDROOT
TORSDOF 0
ENDMDL
MODEL 6
REMARK VINA RESULT:    -3.570      2.755      3.901
REMARK INTER + INTRA:          -3.570
REMARK INTER:                  -3.570
REMARK INTRA:                   0.000
REMARK UNBOUND:                 0.000
REMARK SMILES CC(C)=C1CC[C@H](C)CC1=O
REMARK SMILES IDX 8 1 7 2 6 3 5 4 4 5 2 6 1 7 3 8 10 9 11 10 9 11
REMARK H PARENT
REMARK Flexibility Score: inf
ROOT
ATOM      1  C   UNL     1      89.079  27.723  64.252  1.00  0.00     0.008 C 
ATOM      2  C   UNL     1      88.411  29.058  64.600  1.00  0.00    -0.006 C 
ATOM      3  C   UNL     1      86.911  28.858  64.871  1.00  0.00     0.008 C 
ATOM      4  C   UNL     1      86.207  30.199  65.121  1.00  0.00     0.039 C 
ATOM      5  C   UNL     1      86.891  31.026  66.199  1.00  0.00    -0.006 C 
ATOM      6  C   UNL     1      86.178  31.861  67.012  1.00  0.00    -0.070 C 
ATOM      7  C   UNL     1      86.838  32.645  68.123  1.00  0.00     0.039 C 
ATOM      8  C   UNL     1      84.681  32.011  66.862  1.00  0.00     0.039 C 
ATOM      9  C   UNL     1      88.382  30.956  66.233  1.00  0.00     0.159 C 
ATOM     10  O   UNL     1      89.075  31.945  66.594  1.00  0.00    -0.295 OA
ATOM     11  C   UNL     1      89.085  29.695  65.824  1.00  0.00     0.084 C 
ENDROOT
TORSDOF 0
ENDMDL
MODEL 7
REMARK VINA RESULT:    -3.481      1.552      2.439
REMARK INTER + INTRA:          -3.481
REMARK INTER:                  -3.481
REMARK INTRA:                   0.000
REMARK UNBOUND:                 0.000
REMARK SMILES CC(C)=C1CC[C@H](C)CC1=O
REMARK SMILES IDX 8 1 7 2 6 3 5 4 4 5 2 6 1 7 3 8 10 9 11 10 9 11
REMARK H PARENT
REMARK Flexibility Score: inf
ROOT
ATOM      1  C   UNL     1      84.198  30.376  64.609  1.00  0.00     0.008 C 
ATOM      2  C   UNL     1      84.970  31.588  65.145  1.00  0.00    -0.006 C 
ATOM      3  C   UNL     1      85.973  31.156  66.226  1.00  0.00     0.008 C 
ATOM      4  C   UNL     1      86.680  32.368  66.847  1.00  0.00     0.039 C 
ATOM      5  C   UNL     1      87.305  33.278  65.799  1.00  0.00    -0.006 C 
ATOM      6  C   UNL     1      88.446  33.983  66.061  1.00  0.00    -0.070 C 
ATOM      7  C   UNL     1      89.107  34.846  65.012  1.00  0.00     0.039 C 
ATOM      8  C   UNL     1      89.125  33.901  67.410  1.00  0.00     0.039 C 
ATOM      9  C   UNL     1      86.539  33.439  64.528  1.00  0.00     0.159 C 
ATOM     10  O   UNL     1      86.568  34.518  63.878  1.00  0.00    -0.295 OA
ATOM     11  C   UNL     1      85.705  32.307  64.004  1.00  0.00     0.084 C 
ENDROOT
TORSDOF 0
ENDMDL
MODEL 8
REMARK VINA RESULT:    -3.367     15.316     16.993
REMARK INTER + INTRA:          -3.367
REMARK INTER:                  -3.367
REMARK INTRA:                   0.000
REMARK UNBOUND:                 0.000
REMARK SMILES CC(C)=C1CC[C@H](C)CC1=O
REMARK SMILES IDX 8 1 7 2 6 3 5 4 4 5 2 6 1 7 3 8 10 9 11 10 9 11
REMARK H PARENT
REMARK Flexibility Score: inf
ROOT
ATOM      1  C   UNL     1      81.589  33.136  51.978  1.00  0.00     0.008 C 
ATOM      2  C   UNL     1      80.109  33.360  51.645  1.00  0.00    -0.006 C 
ATOM      3  C   UNL     1      79.210  32.662  52.678  1.00  0.00     0.008 C 
ATOM      4  C   UNL     1      77.728  32.789  52.303  1.00  0.00     0.039 C 
ATOM      5  C   UNL     1      77.312  34.231  52.045  1.00  0.00    -0.006 C 
ATOM      6  C   UNL     1      76.049  34.666  52.326  1.00  0.00    -0.070 C 
ATOM      7  C   UNL     1      75.641  36.108  52.128  1.00  0.00     0.039 C 
ATOM      8  C   UNL     1      75.004  33.729  52.889  1.00  0.00     0.039 C 
ATOM      9  C   UNL     1      78.325  35.094  51.367  1.00  0.00     0.159 C 
ATOM     10  O   UNL     1      77.976  36.021  50.587  1.00  0.00    -0.295 OA
ATOM     11  C   UNL     1      79.788  34.861  51.599  1.00  0.00     0.084 C 
ENDROOT
TORSDOF 0
ENDMDL
MODEL 9
REMARK VINA RESULT:    -3.314      1.951      2.175
REMARK INTER + INTRA:          -3.314
REMARK INTER:                  -3.314
REMARK INTRA:                   0.000
REMARK UNBOUND:                 0.000
REMARK SMILES CC(C)=C1CC[C@H](C)CC1=O
REMARK SMILES IDX 8 1 7 2 6 3 5 4 4 5 2 6 1 7 3 8 10 9 11 10 9 11
REMARK H PARENT
REMARK Flexibility Score: inf
ROOT
ATOM      1  C   UNL     1      82.744  30.752  64.373  1.00  0.00     0.008 C 
ATOM      2  C   UNL     1      83.982  30.702  65.275  1.00  0.00    -0.006 C 
ATOM      3  C   UNL     1      85.257  30.525  64.435  1.00  0.00     0.008 C 
ATOM      4  C   UNL     1      86.496  30.370  65.327  1.00  0.00     0.039 C 
ATOM      5  C   UNL     1      86.621  31.489  66.351  1.00  0.00    -0.006 C 
ATOM      6  C   UNL     1      87.843  31.930  66.775  1.00  0.00    -0.070 C 
ATOM      7  C   UNL     1      87.981  33.078  67.748  1.00  0.00     0.039 C 
ATOM      8  C   UNL     1      89.121  31.310  66.258  1.00  0.00     0.039 C 
ATOM      9  C   UNL     1      85.342  31.987  66.940  1.00  0.00     0.159 C 
ATOM     10  O   UNL     1      85.289  32.411  68.125  1.00  0.00    -0.295 OA
ATOM     11  C   UNL     1      84.085  31.980  66.121  1.00  0.00     0.084 C 
ENDROOT
TORSDOF 0
ENDMDL
