MODEL 1
REMARK VINA RESULT:    -3.728      0.000      0.000
REMARK INTER + INTRA:          -6.398
REMARK INTER:                  -5.689
REMARK INTRA:                  -0.709
REMARK UNBOUND:                -0.709
REMARK SMILES O=C([O-])CCCCCCCCC(=O)[O-]
REMARK SMILES IDX 7 1 6 2 5 3 4 4 2 5 1 6 3 7 8 8 9 9 10 10 11 11 12 12 13 13
REMARK SMILES IDX 14 14
REMARK H PARENT
REMARK Flexibility Score: inf
ROOT
ATOM      1  C   UNL     1     -43.304 -48.483  37.723  1.00  0.00     0.000 C 
ENDROOT
BRANCH   1   2
ATOM      2  C   UNL     1     -43.819 -48.555  39.169  1.00  0.00     0.000 C 
BRANCH   2   3
ATOM      3  C   UNL     1     -42.855 -47.907  40.175  1.00  0.00     0.006 C 
BRANCH   3   4
ATOM      4  C   UNL     1     -42.343 -46.538  39.706  1.00  0.00     0.053 C 
BRANCH   4   5
ATOM      5  C   UNL     1     -43.006 -45.441  40.479  1.00  0.00     0.041 C 
ATOM      6  O   UNL     1     -44.135 -45.010  40.126  1.00  0.00    -0.550 OA
ATOM      7  O   UNL     1     -42.399 -44.929  41.618  1.00  0.00    -0.550 OA
ENDBRANCH   4   5
ENDBRANCH   3   4
ENDBRANCH   2   3
ENDBRANCH   1   2
BRANCH   1   8
ATOM      8  C   UNL     1     -44.458 -48.638  36.723  1.00  0.00     0.000 C 
BRANCH   8   9
ATOM      9  C   UNL     1     -45.765 -47.997  37.219  1.00  0.00     0.000 C 
BRANCH   9  10
ATOM     10  C   UNL     1     -46.946 -48.982  37.215  1.00  0.00     0.006 C 
BRANCH  10  11
ATOM     11  C   UNL     1     -46.485 -50.438  37.057  1.00  0.00     0.053 C 
BRANCH  11  12
ATOM     12  C   UNL     1     -46.803 -51.257  38.271  1.00  0.00     0.041 C 
ATOM     13  O   UNL     1     -46.616 -50.783  39.422  1.00  0.00    -0.550 OA
ATOM     14  O   UNL     1     -47.332 -52.533  38.129  1.00  0.00    -0.550 OA
ENDBRANCH  11  12
ENDBRANCH  10  11
ENDBRANCH   9  10
ENDBRANCH   8   9
ENDBRANCH   1   8
TORSDOF 9
ENDMDL
MODEL 2
REMARK VINA RESULT:    -3.681      3.149      5.844
REMARK INTER + INTRA:          -6.326
REMARK INTER:                  -5.373
REMARK INTRA:                  -0.953
REMARK UNBOUND:                -0.709
REMARK SMILES O=C([O-])CCCCCCCCC(=O)[O-]
REMARK SMILES IDX 7 1 6 2 5 3 4 4 2 5 1 6 3 7 8 8 9 9 10 10 11 11 12 12 13 13
REMARK SMILES IDX 14 14
REMARK H PARENT
REMARK Flexibility Score: inf
ROOT
ATOM      1  C   UNL     1     -42.668 -49.814  34.415  1.00  0.00     0.000 C 
ENDROOT
BRANCH   1   2
ATOM      2  C   UNL     1     -43.753 -50.126  35.457  1.00  0.00     0.000 C 
BRANCH   2   3
ATOM      3  C   UNL     1     -44.338 -48.859  36.101  1.00  0.00     0.006 C 
BRANCH   3   4
ATOM      4  C   UNL     1     -45.044 -49.146  37.433  1.00  0.00     0.053 C 
BRANCH   4   5
ATOM      5  C   UNL     1     -46.512 -49.339  37.215  1.00  0.00     0.041 C 
ATOM      6  O   UNL     1     -47.263 -48.343  37.045  1.00  0.00    -0.550 OA
ATOM      7  O   UNL     1     -47.042 -50.620  37.149  1.00  0.00    -0.550 OA
ENDBRANCH   4   5
ENDBRANCH   3   4
ENDBRANCH   2   3
ENDBRANCH   1   2
BRANCH   1   8
ATOM      8  C   UNL     1     -42.695 -48.329  34.025  1.00  0.00     0.000 C 
BRANCH   8   9
ATOM      9  C   UNL     1     -41.358 -47.620  34.293  1.00  0.00     0.000 C 
BRANCH   9  10
ATOM     10  C   UNL     1     -40.420 -48.445  35.191  1.00  0.00     0.006 C 
BRANCH  10  11
ATOM     11  C   UNL     1     -40.147 -47.752  36.534  1.00  0.00     0.053 C 
BRANCH  11  12
ATOM     12  C   UNL     1     -41.074 -48.233  37.607  1.00  0.00     0.041 C 
ATOM     13  O   UNL     1     -41.203 -49.466  37.828  1.00  0.00    -0.550 OA
ATOM     14  O   UNL     1     -41.775 -47.319  38.383  1.00  0.00    -0.550 OA
ENDBRANCH  11  12
ENDBRANCH  10  11
ENDBRANCH   9  10
ENDBRANCH   8   9
ENDBRANCH   1   8
TORSDOF 9
ENDMDL
MODEL 3
REMARK VINA RESULT:    -3.638      3.760      4.527
REMARK INTER + INTRA:          -6.260
REMARK INTER:                  -5.745
REMARK INTRA:                  -0.515
REMARK UNBOUND:                -0.709
REMARK SMILES O=C([O-])CCCCCCCCC(=O)[O-]
REMARK SMILES IDX 7 1 6 2 5 3 4 4 2 5 1 6 3 7 8 8 9 9 10 10 11 11 12 12 13 13
REMARK SMILES IDX 14 14
REMARK H PARENT
REMARK Flexibility Score: inf
ROOT
ATOM      1  C   UNL     1     -43.147 -49.188  34.154  1.00  0.00     0.000 C 
ENDROOT
BRANCH   1   2
ATOM      2  C   UNL     1     -42.373 -47.880  34.379  1.00  0.00     0.000 C 
BRANCH   2   3
ATOM      3  C   UNL     1     -40.860 -48.104  34.523  1.00  0.00     0.006 C 
BRANCH   3   4
ATOM      4  C   UNL     1     -40.345 -47.773  35.930  1.00  0.00     0.053 C 
BRANCH   4   5
ATOM      5  C   UNL     1     -38.849 -47.819  35.962  1.00  0.00     0.041 C 
ATOM      6  O   UNL     1     -38.221 -47.356  36.951  1.00  0.00    -0.550 OA
ATOM      7  O   UNL     1     -38.150 -48.418  34.922  1.00  0.00    -0.550 OA
ENDBRANCH   4   5
ENDBRANCH   3   4
ENDBRANCH   2   3
ENDBRANCH   1   2
BRANCH   1   8
ATOM      8  C   UNL     1     -43.895 -49.607  35.428  1.00  0.00     0.000 C 
BRANCH   8   9
ATOM      9  C   UNL     1     -43.954 -48.486  36.479  1.00  0.00     0.000 C 
BRANCH   9  10
ATOM     10  C   UNL     1     -45.182 -48.601  37.398  1.00  0.00     0.006 C 
BRANCH  10  11
ATOM     11  C   UNL     1     -46.257 -49.527  36.814  1.00  0.00     0.053 C 
BRANCH  11  12
ATOM     12  C   UNL     1     -46.631 -50.618  37.771  1.00  0.00     0.041 C 
ATOM     13  O   UNL     1     -47.012 -51.737  37.339  1.00  0.00    -0.550 OA
ATOM     14  O   UNL     1     -46.532 -50.406  39.140  1.00  0.00    -0.550 OA
ENDBRANCH  11  12
ENDBRANCH  10  11
ENDBRANCH   9  10
ENDBRANCH   8   9
ENDBRANCH   1   8
TORSDOF 9
ENDMDL
MODEL 4
REMARK VINA RESULT:    -3.609      3.224      6.036
REMARK INTER + INTRA:          -6.216
REMARK INTER:                  -5.628
REMARK INTRA:                  -0.588
REMARK UNBOUND:                -0.709
REMARK SMILES O=C([O-])CCCCCCCCC(=O)[O-]
REMARK SMILES IDX 7 1 6 2 5 3 4 4 2 5 1 6 3 7 8 8 9 9 10 10 11 11 12 12 13 13
REMARK SMILES IDX 14 14
REMARK H PARENT
REMARK Flexibility Score: inf
ROOT
ATOM      1  C   UNL     1     -44.945 -49.255  36.345  1.00  0.00     0.000 C 
ENDROOT
BRANCH   1   2
ATOM      2  C   UNL     1     -43.507 -49.597  35.924  1.00  0.00     0.000 C 
BRANCH   2   3
ATOM      3  C   UNL     1     -43.203 -49.193  34.472  1.00  0.00     0.006 C 
BRANCH   3   4
ATOM      4  C   UNL     1     -42.376 -47.904  34.379  1.00  0.00     0.053 C 
BRANCH   4   5
ATOM      5  C   UNL     1     -40.964 -48.160  34.804  1.00  0.00     0.041 C 
ATOM      6  O   UNL     1     -40.496 -47.589  35.825  1.00  0.00    -0.550 OA
ATOM      7  O   UNL     1     -40.179 -49.065  34.102  1.00  0.00    -0.550 OA
ENDBRANCH   4   5
ENDBRANCH   3   4
ENDBRANCH   2   3
ENDBRANCH   1   2
BRANCH   1   8
ATOM      8  C   UNL     1     -44.950 -48.322  37.564  1.00  0.00     0.000 C 
BRANCH   8   9
ATOM      9  C   UNL     1     -43.537 -48.039  38.102  1.00  0.00     0.000 C 
BRANCH   9  10
ATOM     10  C   UNL     1     -43.549 -47.508  39.546  1.00  0.00     0.006 C 
BRANCH  10  11
ATOM     11  C   UNL     1     -42.367 -46.570  39.827  1.00  0.00     0.053 C 
BRANCH  11  12
ATOM     12  C   UNL     1     -42.824 -45.200  40.223  1.00  0.00     0.041 C 
ATOM     13  O   UNL     1     -44.048 -44.907  40.194  1.00  0.00    -0.550 OA
ATOM     14  O   UNL     1     -41.901 -44.255  40.651  1.00  0.00    -0.550 OA
ENDBRANCH  11  12
ENDBRANCH  10  11
ENDBRANCH   9  10
ENDBRANCH   8   9
ENDBRANCH   1   8
TORSDOF 9
ENDMDL
MODEL 5
REMARK VINA RESULT:    -3.548      4.263      6.050
REMARK INTER + INTRA:          -6.123
REMARK INTER:                  -5.345
REMARK INTRA:                  -0.778
REMARK UNBOUND:                -0.709
REMARK SMILES O=C([O-])CCCCCCCCC(=O)[O-]
REMARK SMILES IDX 7 1 6 2 5 3 4 4 2 5 1 6 3 7 8 8 9 9 10 10 11 11 12 12 13 13
REMARK SMILES IDX 14 14
REMARK H PARENT
REMARK Flexibility Score: inf
ROOT
ATOM      1  C   UNL     1     -45.820 -54.302  37.958  1.00  0.00     0.000 C 
ENDROOT
BRANCH   1   2
ATOM      2  C   UNL     1     -45.828 -53.094  37.010  1.00  0.00     0.000 C 
BRANCH   2   3
ATOM      3  C   UNL     1     -47.042 -52.177  37.227  1.00  0.00     0.006 C 
BRANCH   3   4
ATOM      4  C   UNL     1     -46.690 -50.904  38.007  1.00  0.00     0.053 C 
BRANCH   4   5
ATOM      5  C   UNL     1     -46.474 -49.759  37.066  1.00  0.00     0.041 C 
ATOM      6  O   UNL     1     -47.353 -48.866  36.943  1.00  0.00    -0.550 OA
ATOM      7  O   UNL     1     -45.281 -49.654  36.363  1.00  0.00    -0.550 OA
ENDBRANCH   4   5
ENDBRANCH   3   4
ENDBRANCH   2   3
ENDBRANCH   1   2
BRANCH   1   8
ATOM      8  C   UNL     1     -47.242 -54.633  38.434  1.00  0.00     0.000 C 
BRANCH   8   9
ATOM      9  C   UNL     1     -47.265 -55.310  39.814  1.00  0.00     0.000 C 
BRANCH   9  10
ATOM     10  C   UNL     1     -47.338 -54.297  40.969  1.00  0.00     0.006 C 
BRANCH  10  11
ATOM     11  C   UNL     1     -48.308 -53.146  40.668  1.00  0.00     0.053 C 
BRANCH  11  12
ATOM     12  C   UNL     1     -48.239 -52.073  41.710  1.00  0.00     0.041 C 
ATOM     13  O   UNL     1     -48.486 -50.877  41.406  1.00  0.00    -0.550 OA
ATOM     14  O   UNL     1     -47.929 -52.398  43.025  1.00  0.00    -0.550 OA
ENDBRANCH  11  12
ENDBRANCH  10  11
ENDBRANCH   9  10
ENDBRANCH   8   9
ENDBRANCH   1   8
TORSDOF 9
ENDMDL
MODEL 6
REMARK VINA RESULT:    -3.537      1.313      6.691
REMARK INTER + INTRA:          -6.106
REMARK INTER:                  -5.614
REMARK INTRA:                  -0.493
REMARK UNBOUND:                -0.709
REMARK SMILES O=C([O-])CCCCCCCCC(=O)[O-]
REMARK SMILES IDX 7 1 6 2 5 3 4 4 2 5 1 6 3 7 8 8 9 9 10 10 11 11 12 12 13 13
REMARK SMILES IDX 14 14
REMARK H PARENT
REMARK Flexibility Score: inf
ROOT
ATOM      1  C   UNL     1     -43.388 -48.850  37.951  1.00  0.00     0.000 C 
ENDROOT
BRANCH   1   2
ATOM      2  C   UNL     1     -44.381 -48.448  36.850  1.00  0.00     0.000 C 
BRANCH   2   3
ATOM      3  C   UNL     1     -45.811 -48.261  37.381  1.00  0.00     0.006 C 
BRANCH   3   4
ATOM      4  C   UNL     1     -46.774 -49.345  36.880  1.00  0.00     0.053 C 
BRANCH   4   5
ATOM      5  C   UNL     1     -46.705 -50.552  37.763  1.00  0.00     0.041 C 
ATOM      6  O   UNL     1     -46.848 -51.704  37.273  1.00  0.00    -0.550 OA
ATOM      7  O   UNL     1     -46.434 -50.408  39.117  1.00  0.00    -0.550 OA
ENDBRANCH   4   5
ENDBRANCH   3   4
ENDBRANCH   2   3
ENDBRANCH   1   2
BRANCH   1   8
ATOM      8  C   UNL     1     -43.626 -48.031  39.228  1.00  0.00     0.000 C 
BRANCH   8   9
ATOM      9  C   UNL     1     -42.578 -46.924  39.427  1.00  0.00     0.000 C 
BRANCH   9  10
ATOM     10  C   UNL     1     -43.171 -45.656  40.066  1.00  0.00     0.006 C 
BRANCH  10  11
ATOM     11  C   UNL     1     -42.381 -45.208  41.303  1.00  0.00     0.053 C 
BRANCH  11  12
ATOM     12  C   UNL     1     -41.123 -44.486  40.928  1.00  0.00     0.041 C 
ATOM     13  O   UNL     1     -41.118 -43.231  40.826  1.00  0.00    -0.550 OA
ATOM     14  O   UNL     1     -39.948 -45.198  40.719  1.00  0.00    -0.550 OA
ENDBRANCH  11  12
ENDBRANCH  10  11
ENDBRANCH   9  10
ENDBRANCH   8   9
ENDBRANCH   1   8
TORSDOF 9
ENDMDL
MODEL 7
REMARK VINA RESULT:    -3.526      3.342      6.392
REMARK INTER + INTRA:          -6.089
REMARK INTER:                  -5.439
REMARK INTRA:                  -0.650
REMARK UNBOUND:                -0.709
REMARK SMILES O=C([O-])CCCCCCCCC(=O)[O-]
REMARK SMILES IDX 7 1 6 2 5 3 4 4 2 5 1 6 3 7 8 8 9 9 10 10 11 11 12 12 13 13
REMARK SMILES IDX 14 14
REMARK H PARENT
REMARK Flexibility Score: inf
ROOT
ATOM      1  C   UNL     1     -43.760 -48.980  36.598  1.00  0.00     0.000 C 
ENDROOT
BRANCH   1   2
ATOM      2  C   UNL     1     -45.168 -48.518  37.005  1.00  0.00     0.000 C 
BRANCH   2   3
ATOM      3  C   UNL     1     -46.218 -49.633  36.876  1.00  0.00     0.006 C 
BRANCH   3   4
ATOM      4  C   UNL     1     -46.514 -50.324  38.214  1.00  0.00     0.053 C 
BRANCH   4   5
ATOM      5  C   UNL     1     -46.881 -51.758  37.990  1.00  0.00     0.041 C 
ATOM      6  O   UNL     1     -46.572 -52.330  36.912  1.00  0.00    -0.550 OA
ATOM      7  O   UNL     1     -47.522 -52.475  38.991  1.00  0.00    -0.550 OA
ENDBRANCH   4   5
ENDBRANCH   3   4
ENDBRANCH   2   3
ENDBRANCH   1   2
BRANCH   1   8
ATOM      8  C   UNL     1     -43.817 -49.873  35.350  1.00  0.00     0.000 C 
BRANCH   8   9
ATOM      9  C   UNL     1     -43.178 -49.213  34.117  1.00  0.00     0.000 C 
BRANCH   9  10
ATOM     10  C   UNL     1     -42.441 -47.907  34.461  1.00  0.00     0.006 C 
BRANCH  10  11
ATOM     11  C   UNL     1     -40.920 -48.040  34.296  1.00  0.00     0.053 C 
BRANCH  11  12
ATOM     12  C   UNL     1     -40.253 -48.422  35.581  1.00  0.00     0.041 C 
ATOM     13  O   UNL     1     -39.769 -47.535  36.332  1.00  0.00    -0.550 OA
ATOM     14  O   UNL     1     -40.189 -49.756  35.963  1.00  0.00    -0.550 OA
ENDBRANCH  11  12
ENDBRANCH  10  11
ENDBRANCH   9  10
ENDBRANCH   8   9
ENDBRANCH   1   8
TORSDOF 9
ENDMDL
MODEL 8
REMARK VINA RESULT:    -3.515      5.337      9.626
REMARK INTER + INTRA:          -6.073
REMARK INTER:                  -5.588
REMARK INTRA:                  -0.486
REMARK UNBOUND:                -0.709
REMARK SMILES O=C([O-])CCCCCCCCC(=O)[O-]
REMARK SMILES IDX 7 1 6 2 5 3 4 4 2 5 1 6 3 7 8 8 9 9 10 10 11 11 12 12 13 13
REMARK SMILES IDX 14 14
REMARK H PARENT
REMARK Flexibility Score: inf
ROOT
ATOM      1  C   UNL     1     -46.150 -56.218  38.455  1.00  0.00     0.000 C 
ENDROOT
BRANCH   1   2
ATOM      2  C   UNL     1     -47.619 -56.621  38.657  1.00  0.00     0.000 C 
BRANCH   2   3
ATOM      3  C   UNL     1     -47.953 -57.983  38.027  1.00  0.00     0.006 C 
BRANCH   3   4
ATOM      4  C   UNL     1     -46.737 -58.916  37.960  1.00  0.00     0.053 C 
BRANCH   4   5
ATOM      5  C   UNL     1     -46.758 -59.883  39.103  1.00  0.00     0.041 C 
ATOM      6  O   UNL     1     -47.781 -59.982  39.830  1.00  0.00    -0.550 OA
ATOM      7  O   UNL     1     -45.666 -60.708  39.335  1.00  0.00    -0.550 OA
ENDBRANCH   4   5
ENDBRANCH   3   4
ENDBRANCH   2   3
ENDBRANCH   1   2
BRANCH   1   8
ATOM      8  C   UNL     1     -46.017 -54.696  38.301  1.00  0.00     0.000 C 
BRANCH   8   9
ATOM      9  C   UNL     1     -47.301 -53.945  38.688  1.00  0.00     0.000 C 
BRANCH   9  10
ATOM     10  C   UNL     1     -47.711 -52.895  37.640  1.00  0.00     0.006 C 
BRANCH  10  11
ATOM     11  C   UNL     1     -46.534 -52.000  37.227  1.00  0.00     0.053 C 
BRANCH  11  12
ATOM     12  C   UNL     1     -46.689 -50.603  37.744  1.00  0.00     0.041 C 
ATOM     13  O   UNL     1     -46.923 -49.655  36.949  1.00  0.00    -0.550 OA
ATOM     14  O   UNL     1     -46.603 -50.352  39.107  1.00  0.00    -0.550 OA
ENDBRANCH  11  12
ENDBRANCH  10  11
ENDBRANCH   9  10
ENDBRANCH   8   9
ENDBRANCH   1   8
TORSDOF 9
ENDMDL
MODEL 9
REMARK VINA RESULT:    -3.479      3.536      5.130
REMARK INTER + INTRA:          -6.019
REMARK INTER:                  -5.109
REMARK INTRA:                  -0.910
REMARK UNBOUND:                -0.709
REMARK SMILES O=C([O-])CCCCCCCCC(=O)[O-]
REMARK SMILES IDX 7 1 6 2 5 3 4 4 2 5 1 6 3 7 8 8 9 9 10 10 11 11 12 12 13 13
REMARK SMILES IDX 14 14
REMARK H PARENT
REMARK Flexibility Score: inf
ROOT
ATOM      1  C   UNL     1     -41.062 -48.709  37.050  1.00  0.00     0.000 C 
ENDROOT
BRANCH   1   2
ATOM      2  C   UNL     1     -40.639 -47.656  36.014  1.00  0.00     0.000 C 
BRANCH   2   3
ATOM      3  C   UNL     1     -40.904 -48.106  34.568  1.00  0.00     0.006 C 
BRANCH   3   4
ATOM      4  C   UNL     1     -42.398 -48.121  34.219  1.00  0.00     0.053 C 
BRANCH   4   5
ATOM      5  C   UNL     1     -42.775 -49.431  33.601  1.00  0.00     0.041 C 
ATOM      6  O   UNL     1     -43.256 -49.468  32.438  1.00  0.00    -0.550 OA
ATOM      7  O   UNL     1     -42.549 -50.615  34.290  1.00  0.00    -0.550 OA
ENDBRANCH   4   5
ENDBRANCH   3   4
ENDBRANCH   2   3
ENDBRANCH   1   2
BRANCH   1   8
ATOM      8  C   UNL     1     -41.963 -48.087  38.126  1.00  0.00     0.000 C 
BRANCH   8   9
ATOM      9  C   UNL     1     -43.449 -48.089  37.730  1.00  0.00     0.000 C 
BRANCH   9  10
ATOM     10  C   UNL     1     -43.982 -49.503  37.439  1.00  0.00     0.006 C 
BRANCH  10  11
ATOM     11  C   UNL     1     -45.138 -49.489  36.429  1.00  0.00     0.053 C 
BRANCH  11  12
ATOM     12  C   UNL     1     -46.471 -49.561  37.108  1.00  0.00     0.041 C 
ATOM     13  O   UNL     1     -47.245 -48.568  37.094  1.00  0.00    -0.550 OA
ATOM     14  O   UNL     1     -46.871 -50.736  37.731  1.00  0.00    -0.550 OA
ENDBRANCH  11  12
ENDBRANCH  10  11
ENDBRANCH   9  10
ENDBRANCH   8   9
ENDBRANCH   1   8
TORSDOF 9
ENDMDL
