MODEL 1
REMARK VINA RESULT:    -3.873      0.000      0.000
REMARK INTER + INTRA:          -6.482
REMARK INTER:                  -5.685
REMARK INTRA:                  -0.797
REMARK UNBOUND:                -0.797
REMARK SMILES O=C([O-])CCCCCCCC(=O)[O-]
REMARK SMILES IDX 7 1 6 2 5 3 4 4 2 5 1 6 3 7 8 8 9 9 10 10 11 11 12 12 13 13
REMARK H PARENT
REMARK Flexibility Score: inf
ROOT
ATOM      1  C   UNL     1      18.049  -6.267 -17.488  1.00  0.00     0.000 C 
ENDROOT
BRANCH   1   2
ATOM      2  C   UNL     1      19.549  -6.179 -17.151  1.00  0.00     0.000 C 
BRANCH   2   3
ATOM      3  C   UNL     1      20.285  -4.969 -17.757  1.00  0.00     0.006 C 
BRANCH   3   4
ATOM      4  C   UNL     1      19.616  -4.437 -19.031  1.00  0.00     0.053 C 
BRANCH   4   5
ATOM      5  C   UNL     1      20.122  -3.067 -19.353  1.00  0.00     0.041 C 
ATOM      6  O   UNL     1      19.387  -2.247 -19.962  1.00  0.00    -0.550 OA
ATOM      7  O   UNL     1      21.390  -2.679 -18.938  1.00  0.00    -0.550 OA
ENDBRANCH   4   5
ENDBRANCH   3   4
ENDBRANCH   2   3
ENDBRANCH   1   2
BRANCH   1   8
ATOM      8  C   UNL     1      17.146  -6.037 -16.263  1.00  0.00     0.000 C 
BRANCH   8   9
ATOM      9  C   UNL     1      16.649  -4.586 -16.163  1.00  0.00     0.006 C 
BRANCH   9  10
ATOM     10  C   UNL     1      15.883  -4.135 -17.413  1.00  0.00     0.053 C 
BRANCH  10  11
ATOM     11  C   UNL     1      16.451  -2.854 -17.939  1.00  0.00     0.041 C 
ATOM     12  O   UNL     1      16.091  -2.417 -19.063  1.00  0.00    -0.550 OA
ATOM     13  O   UNL     1      17.413  -2.169 -17.209  1.00  0.00    -0.550 OA
ENDBRANCH  10  11
ENDBRANCH   9  10
ENDBRANCH   8   9
ENDBRANCH   1   8
TORSDOF 8
ENDMDL
MODEL 2
REMARK VINA RESULT:    -3.872     10.221     11.428
REMARK INTER + INTRA:          -6.480
REMARK INTER:                  -6.048
REMARK INTRA:                  -0.432
REMARK UNBOUND:                -0.797
REMARK SMILES O=C([O-])CCCCCCCC(=O)[O-]
REMARK SMILES IDX 7 1 6 2 5 3 4 4 2 5 1 6 3 7 8 8 9 9 10 10 11 11 12 12 13 13
REMARK H PARENT
REMARK Flexibility Score: inf
ROOT
ATOM      1  C   UNL     1       7.394  -4.210 -24.255  1.00  0.00     0.000 C 
ENDROOT
BRANCH   1   2
ATOM      2  C   UNL     1       8.320  -3.400 -25.180  1.00  0.00     0.000 C 
BRANCH   2   3
ATOM      3  C   UNL     1       9.827  -3.606 -24.941  1.00  0.00     0.006 C 
BRANCH   3   4
ATOM      4  C   UNL     1      10.326  -4.977 -25.413  1.00  0.00     0.053 C 
BRANCH   4   5
ATOM      5  C   UNL     1      11.707  -4.863 -25.977  1.00  0.00     0.041 C 
ATOM      6  O   UNL     1      12.704  -4.821 -25.209  1.00  0.00    -0.550 OA
ATOM      7  O   UNL     1      11.898  -4.853 -27.353  1.00  0.00    -0.550 OA
ENDBRANCH   4   5
ENDBRANCH   3   4
ENDBRANCH   2   3
ENDBRANCH   1   2
BRANCH   1   8
ATOM      8  C   UNL     1       7.876  -4.232 -22.794  1.00  0.00     0.000 C 
BRANCH   8   9
ATOM      9  C   UNL     1       7.437  -5.501 -22.047  1.00  0.00     0.006 C 
BRANCH   9  10
ATOM     10  C   UNL     1       8.468  -6.633 -22.147  1.00  0.00     0.053 C 
BRANCH  10  11
ATOM     11  C   UNL     1       8.179  -7.693 -21.131  1.00  0.00     0.041 C 
ATOM     12  O   UNL     1       9.062  -8.031 -20.300  1.00  0.00    -0.550 OA
ATOM     13  O   UNL     1       6.951  -8.341 -21.134  1.00  0.00    -0.550 OA
ENDBRANCH  10  11
ENDBRANCH   9  10
ENDBRANCH   8   9
ENDBRANCH   1   8
TORSDOF 8
ENDMDL
MODEL 3
REMARK VINA RESULT:    -3.849      0.139      3.642
REMARK INTER + INTRA:          -6.445
REMARK INTER:                  -5.669
REMARK INTRA:                  -0.776
REMARK UNBOUND:                -0.797
REMARK SMILES O=C([O-])CCCCCCCC(=O)[O-]
REMARK SMILES IDX 7 1 6 2 5 3 4 4 2 5 1 6 3 7 8 8 9 9 10 10 11 11 12 12 13 13
REMARK H PARENT
REMARK Flexibility Score: inf
ROOT
ATOM      1  C   UNL     1      17.965  -6.239 -17.441  1.00  0.00     0.000 C 
ENDROOT
BRANCH   1   2
ATOM      2  C   UNL     1      17.154  -5.899 -16.177  1.00  0.00     0.000 C 
BRANCH   2   3
ATOM      3  C   UNL     1      16.518  -4.497 -16.166  1.00  0.00     0.006 C 
BRANCH   3   4
ATOM      4  C   UNL     1      15.812  -4.149 -17.483  1.00  0.00     0.053 C 
BRANCH   4   5
ATOM      5  C   UNL     1      16.362  -2.879 -18.050  1.00  0.00     0.041 C 
ATOM      6  O   UNL     1      15.876  -2.393 -19.105  1.00  0.00    -0.550 OA
ATOM      7  O   UNL     1      17.380  -2.205 -17.387  1.00  0.00    -0.550 OA
ENDBRANCH   4   5
ENDBRANCH   3   4
ENDBRANCH   2   3
ENDBRANCH   1   2
BRANCH   1   8
ATOM      8  C   UNL     1      19.484  -6.238 -17.196  1.00  0.00     0.000 C 
BRANCH   8   9
ATOM      9  C   UNL     1      20.167  -4.973 -17.738  1.00  0.00     0.006 C 
BRANCH   9  10
ATOM     10  C   UNL     1      19.545  -4.481 -19.051  1.00  0.00     0.053 C 
BRANCH  10  11
ATOM     11  C   UNL     1      20.077  -3.127 -19.405  1.00  0.00     0.041 C 
ATOM     12  O   UNL     1      19.375  -2.328 -20.079  1.00  0.00    -0.550 OA
ATOM     13  O   UNL     1      21.366  -2.768 -19.034  1.00  0.00    -0.550 OA
ENDBRANCH  10  11
ENDBRANCH   9  10
ENDBRANCH   8   9
ENDBRANCH   1   8
TORSDOF 8
ENDMDL
MODEL 4
REMARK VINA RESULT:    -3.793     11.458     13.575
REMARK INTER + INTRA:          -6.364
REMARK INTER:                  -5.949
REMARK INTRA:                  -0.415
REMARK UNBOUND:                -0.797
REMARK SMILES O=C([O-])CCCCCCCC(=O)[O-]
REMARK SMILES IDX 7 1 6 2 5 3 4 4 2 5 1 6 3 7 8 8 9 9 10 10 11 11 12 12 13 13
REMARK H PARENT
REMARK Flexibility Score: inf
ROOT
ATOM      1  C   UNL     1       9.005  -4.093 -24.047  1.00  0.00     0.000 C 
ENDROOT
BRANCH   1   2
ATOM      2  C   UNL     1       8.082  -4.141 -25.278  1.00  0.00     0.000 C 
BRANCH   2   3
ATOM      3  C   UNL     1       6.606  -4.462 -24.977  1.00  0.00     0.006 C 
BRANCH   3   4
ATOM      4  C   UNL     1       5.653  -3.992 -26.084  1.00  0.00     0.053 C 
BRANCH   4   5
ATOM      5  C   UNL     1       5.396  -5.100 -27.056  1.00  0.00     0.041 C 
ATOM      6  O   UNL     1       5.343  -6.293 -26.658  1.00  0.00    -0.550 OA
ATOM      7  O   UNL     1       5.165  -4.810 -28.395  1.00  0.00    -0.550 OA
ENDBRANCH   4   5
ENDBRANCH   3   4
ENDBRANCH   2   3
ENDBRANCH   1   2
BRANCH   1   8
ATOM      8  C   UNL     1       8.236  -4.189 -22.718  1.00  0.00     0.000 C 
BRANCH   8   9
ATOM      9  C   UNL     1       8.554  -5.478 -21.944  1.00  0.00     0.006 C 
BRANCH   9  10
ATOM     10  C   UNL     1       7.294  -6.271 -21.573  1.00  0.00     0.053 C 
BRANCH  10  11
ATOM     11  C   UNL     1       7.666  -7.611 -21.019  1.00  0.00     0.041 C 
ATOM     12  O   UNL     1       8.786  -7.780 -20.470  1.00  0.00    -0.550 OA
ATOM     13  O   UNL     1       6.795  -8.685 -21.154  1.00  0.00    -0.550 OA
ENDBRANCH  10  11
ENDBRANCH   9  10
ENDBRANCH   8   9
ENDBRANCH   1   8
TORSDOF 8
ENDMDL
MODEL 5
REMARK VINA RESULT:    -3.776      2.064      3.380
REMARK INTER + INTRA:          -6.339
REMARK INTER:                  -5.452
REMARK INTRA:                  -0.887
REMARK UNBOUND:                -0.797
REMARK SMILES O=C([O-])CCCCCCCC(=O)[O-]
REMARK SMILES IDX 7 1 6 2 5 3 4 4 2 5 1 6 3 7 8 8 9 9 10 10 11 11 12 12 13 13
REMARK H PARENT
REMARK Flexibility Score: inf
ROOT
ATOM      1  C   UNL     1      15.535  -3.953 -18.134  1.00  0.00     0.000 C 
ENDROOT
BRANCH   1   2
ATOM      2  C   UNL     1      16.086  -2.989 -19.200  1.00  0.00     0.000 C 
BRANCH   2   3
ATOM      3  C   UNL     1      17.424  -2.315 -18.843  1.00  0.00     0.006 C 
BRANCH   3   4
ATOM      4  C   UNL     1      18.632  -2.998 -19.496  1.00  0.00     0.053 C 
BRANCH   4   5
ATOM      5  C   UNL     1      19.841  -2.861 -18.627  1.00  0.00     0.041 C 
ATOM      6  O   UNL     1      19.740  -2.973 -17.378  1.00  0.00    -0.550 OA
ATOM      7  O   UNL     1      21.090  -2.658 -19.200  1.00  0.00    -0.550 OA
ENDBRANCH   4   5
ENDBRANCH   3   4
ENDBRANCH   2   3
ENDBRANCH   1   2
BRANCH   1   8
ATOM      8  C   UNL     1      16.079  -3.662 -16.724  1.00  0.00     0.000 C 
BRANCH   8   9
ATOM      9  C   UNL     1      16.894  -4.834 -16.153  1.00  0.00     0.006 C 
BRANCH   9  10
ATOM     10  C   UNL     1      16.963  -6.029 -17.113  1.00  0.00     0.053 C 
BRANCH  10  11
ATOM     11  C   UNL     1      18.382  -6.306 -17.499  1.00  0.00     0.041 C 
ATOM     12  O   UNL     1      19.286  -6.312 -16.623  1.00  0.00    -0.550 OA
ATOM     13  O   UNL     1      18.713  -6.508 -18.832  1.00  0.00    -0.550 OA
ENDBRANCH  10  11
ENDBRANCH   9  10
ENDBRANCH   8   9
ENDBRANCH   1   8
TORSDOF 8
ENDMDL
MODEL 6
REMARK VINA RESULT:    -3.762      1.741      3.344
REMARK INTER + INTRA:          -6.318
REMARK INTER:                  -5.389
REMARK INTRA:                  -0.929
REMARK UNBOUND:                -0.797
REMARK SMILES O=C([O-])CCCCCCCC(=O)[O-]
REMARK SMILES IDX 7 1 6 2 5 3 4 4 2 5 1 6 3 7 8 8 9 9 10 10 11 11 12 12 13 13
REMARK H PARENT
REMARK Flexibility Score: inf
ROOT
ATOM      1  C   UNL     1      17.139  -6.175 -16.431  1.00  0.00     0.000 C 
ENDROOT
BRANCH   1   2
ATOM      2  C   UNL     1      16.671  -4.777 -15.988  1.00  0.00     0.000 C 
BRANCH   2   3
ATOM      3  C   UNL     1      16.056  -3.909 -17.102  1.00  0.00     0.006 C 
BRANCH   3   4
ATOM      4  C   UNL     1      16.661  -2.501 -17.166  1.00  0.00     0.053 C 
BRANCH   4   5
ATOM      5  C   UNL     1      17.917  -2.509 -17.977  1.00  0.00     0.041 C 
ATOM      6  O   UNL     1      17.881  -2.231 -19.204  1.00  0.00    -0.550 OA
ATOM      7  O   UNL     1      19.137  -2.775 -17.368  1.00  0.00    -0.550 OA
ENDBRANCH   4   5
ENDBRANCH   3   4
ENDBRANCH   2   3
ENDBRANCH   1   2
BRANCH   1   8
ATOM      8  C   UNL     1      18.661  -6.258 -16.643  1.00  0.00     0.000 C 
BRANCH   8   9
ATOM      9  C   UNL     1      19.052  -6.221 -18.128  1.00  0.00     0.006 C 
BRANCH   9  10
ATOM     10  C   UNL     1      17.897  -6.624 -19.054  1.00  0.00     0.053 C 
BRANCH  10  11
ATOM     11  C   UNL     1      17.719  -5.607 -20.138  1.00  0.00     0.041 C 
ATOM     12  O   UNL     1      18.717  -5.182 -20.778  1.00  0.00    -0.550 OA
ATOM     13  O   UNL     1      16.458  -5.092 -20.408  1.00  0.00    -0.550 OA
ENDBRANCH  10  11
ENDBRANCH   9  10
ENDBRANCH   8   9
ENDBRANCH   1   8
TORSDOF 8
ENDMDL
MODEL 7
REMARK VINA RESULT:    -3.707      7.786      9.835
REMARK INTER + INTRA:          -6.237
REMARK INTER:                  -5.614
REMARK INTRA:                  -0.623
REMARK UNBOUND:                -0.797
REMARK SMILES O=C([O-])CCCCCCCC(=O)[O-]
REMARK SMILES IDX 7 1 6 2 5 3 4 4 2 5 1 6 3 7 8 8 9 9 10 10 11 11 12 12 13 13
REMARK H PARENT
REMARK Flexibility Score: inf
ROOT
ATOM      1  C   UNL     1       8.429  -5.569 -22.042  1.00  0.00     0.000 C 
ENDROOT
BRANCH   1   2
ATOM      2  C   UNL     1       8.146  -4.228 -22.744  1.00  0.00     0.000 C 
BRANCH   2   3
ATOM      3  C   UNL     1       7.964  -4.315 -24.271  1.00  0.00     0.006 C 
BRANCH   3   4
ATOM      4  C   UNL     1       8.927  -3.404 -25.042  1.00  0.00     0.053 C 
BRANCH   4   5
ATOM      5  C   UNL     1      10.264  -4.058 -25.183  1.00  0.00     0.041 C 
ATOM      6  O   UNL     1      10.347  -5.254 -25.569  1.00  0.00    -0.550 OA
ATOM      7  O   UNL     1      11.423  -3.333 -24.936  1.00  0.00    -0.550 OA
ENDBRANCH   4   5
ENDBRANCH   3   4
ENDBRANCH   2   3
ENDBRANCH   1   2
BRANCH   1   8
ATOM      8  C   UNL     1       9.932  -5.855 -21.881  1.00  0.00     0.000 C 
BRANCH   8   9
ATOM      9  C   UNL     1      10.723  -4.617 -21.432  1.00  0.00     0.006 C 
BRANCH   9  10
ATOM     10  C   UNL     1      11.487  -4.845 -20.121  1.00  0.00     0.053 C 
BRANCH  10  11
ATOM     11  C   UNL     1      12.921  -4.446 -20.277  1.00  0.00     0.041 C 
ATOM     12  O   UNL     1      13.601  -4.121 -19.269  1.00  0.00    -0.550 OA
ATOM     13  O   UNL     1      13.492  -4.386 -21.542  1.00  0.00    -0.550 OA
ENDBRANCH  10  11
ENDBRANCH   9  10
ENDBRANCH   8   9
ENDBRANCH   1   8
TORSDOF 8
ENDMDL
MODEL 8
REMARK VINA RESULT:    -3.688     10.631     12.380
REMARK INTER + INTRA:          -6.209
REMARK INTER:                  -5.616
REMARK INTRA:                  -0.593
REMARK UNBOUND:                -0.797
REMARK SMILES O=C([O-])CCCCCCCC(=O)[O-]
REMARK SMILES IDX 7 1 6 2 5 3 4 4 2 5 1 6 3 7 8 8 9 9 10 10 11 11 12 12 13 13
REMARK H PARENT
REMARK Flexibility Score: inf
ROOT
ATOM      1  C   UNL     1       8.045  -4.174 -22.774  1.00  0.00     0.000 C 
ENDROOT
BRANCH   1   2
ATOM      2  C   UNL     1       7.420  -5.243 -21.859  1.00  0.00     0.000 C 
BRANCH   2   3
ATOM      3  C   UNL     1       8.285  -6.497 -21.635  1.00  0.00     0.006 C 
BRANCH   3   4
ATOM      4  C   UNL     1       8.218  -7.487 -22.804  1.00  0.00     0.053 C 
BRANCH   4   5
ATOM      5  C   UNL     1       7.359  -8.658 -22.448  1.00  0.00     0.041 C 
ATOM      6  O   UNL     1       6.957  -8.813 -21.265  1.00  0.00    -0.550 OA
ATOM      7  O   UNL     1       6.960  -9.553 -23.433  1.00  0.00    -0.550 OA
ENDBRANCH   4   5
ENDBRANCH   3   4
ENDBRANCH   2   3
ENDBRANCH   1   2
BRANCH   1   8
ATOM      8  C   UNL     1       7.329  -4.055 -24.132  1.00  0.00     0.000 C 
BRANCH   8   9
ATOM      9  C   UNL     1       8.297  -4.168 -25.320  1.00  0.00     0.006 C 
BRANCH   9  10
ATOM     10  C   UNL     1       9.716  -3.697 -24.973  1.00  0.00     0.053 C 
BRANCH  10  11
ATOM     11  C   UNL     1      10.713  -4.765 -25.297  1.00  0.00     0.041 C 
ATOM     12  O   UNL     1      10.874  -5.739 -24.515  1.00  0.00    -0.550 OA
ATOM     13  O   UNL     1      11.500  -4.660 -26.436  1.00  0.00    -0.550 OA
ENDBRANCH  10  11
ENDBRANCH   9  10
ENDBRANCH   8   9
ENDBRANCH   1   8
TORSDOF 8
ENDMDL
MODEL 9
REMARK VINA RESULT:    -3.679     10.213     11.897
REMARK INTER + INTRA:          -6.196
REMARK INTER:                  -5.391
REMARK INTRA:                  -0.805
REMARK UNBOUND:                -0.797
REMARK SMILES O=C([O-])CCCCCCCC(=O)[O-]
REMARK SMILES IDX 7 1 6 2 5 3 4 4 2 5 1 6 3 7 8 8 9 9 10 10 11 11 12 12 13 13
REMARK H PARENT
REMARK Flexibility Score: inf
ROOT
ATOM      1  C   UNL     1       6.859  -5.516 -24.875  1.00  0.00     0.000 C 
ENDROOT
BRANCH   1   2
ATOM      2  C   UNL     1       7.349  -6.421 -23.730  1.00  0.00     0.000 C 
BRANCH   2   3
ATOM      3  C   UNL     1       7.390  -5.754 -22.342  1.00  0.00     0.006 C 
BRANCH   3   4
ATOM      4  C   UNL     1       8.801  -5.706 -21.741  1.00  0.00     0.053 C 
BRANCH   4   5
ATOM      5  C   UNL     1       9.279  -7.087 -21.423  1.00  0.00     0.041 C 
ATOM      6  O   UNL     1       8.631  -7.813 -20.625  1.00  0.00    -0.550 OA
ATOM      7  O   UNL     1      10.414  -7.590 -22.045  1.00  0.00    -0.550 OA
ENDBRANCH   4   5
ENDBRANCH   3   4
ENDBRANCH   2   3
ENDBRANCH   1   2
BRANCH   1   8
ATOM      8  C   UNL     1       7.037  -4.018 -24.573  1.00  0.00     0.000 C 
BRANCH   8   9
ATOM      9  C   UNL     1       8.197  -3.391 -25.362  1.00  0.00     0.006 C 
BRANCH   9  10
ATOM     10  C   UNL     1       9.531  -3.459 -24.606  1.00  0.00     0.053 C 
BRANCH  10  11
ATOM     11  C   UNL     1      10.497  -4.344 -25.331  1.00  0.00     0.041 C 
ATOM     12  O   UNL     1      10.428  -5.594 -25.202  1.00  0.00    -0.550 OA
ATOM     13  O   UNL     1      11.502  -3.784 -26.108  1.00  0.00    -0.550 OA
ENDBRANCH  10  11
ENDBRANCH   9  10
ENDBRANCH   8   9
ENDBRANCH   1   8
TORSDOF 8
ENDMDL
