MODEL 1
REMARK VINA RESULT:    -6.133      0.000      0.000
REMARK INTER + INTRA:          -7.505
REMARK INTER:                  -7.209
REMARK INTRA:                  -0.296
REMARK UNBOUND:                -0.296
REMARK SMILES O=c1cc(-c2ccc(O)c(O)c2)oc2cc(O)cc(O)c12
REMARK SMILES IDX 4 1 3 2 2 3 1 4 21 5 19 6 18 7 16 8 15 9 14 10 13 11 5 12
REMARK SMILES IDX 6 13 7 14 8 15 12 16 10 17 9 18 11 20 20 22 17 24
REMARK H PARENT 9 19 11 21 20 23 17 25
REMARK Flexibility Score: inf
ROOT
ATOM      1  C   UNL     1     -14.774  66.586  75.967  1.00  0.00     0.138 A 
ATOM      2  C   UNL     1     -13.772  65.654  75.661  1.00  0.00     0.100 A 
ATOM      3  C   UNL     1     -14.002  64.296  75.883  1.00  0.00     0.197 A 
ATOM      4  O   UNL     1     -13.063  63.489  75.656  1.00  0.00    -0.289 OA
ATOM      5  C   UNL     1     -15.255  63.867  76.385  1.00  0.00     0.107 A 
ATOM      6  C   UNL     1     -15.616  62.505  76.612  1.00  0.00     0.134 A 
ATOM      7  C   UNL     1     -16.841  62.209  77.222  1.00  0.00     0.093 A 
ATOM      8  C   UNL     1     -17.742  63.219  77.557  1.00  0.00     0.123 A 
ATOM      9  C   UNL     1     -17.422  64.551  77.290  1.00  0.00     0.094 A 
ATOM     10  C   UNL     1     -16.192  64.881  76.714  1.00  0.00     0.146 A 
ATOM     11  O   UNL     1     -15.920  66.162  76.490  1.00  0.00    -0.456 OA
ENDROOT
BRANCH   1  12
ATOM     12  C   UNL     1     -14.582  68.042  75.750  1.00  0.00     0.021 A 
ATOM     13  C   UNL     1     -15.549  68.944  76.221  1.00  0.00     0.016 A 
ATOM     14  C   UNL     1     -15.395  70.317  76.023  1.00  0.00     0.051 A 
ATOM     15  C   UNL     1     -14.282  70.821  75.344  1.00  0.00     0.157 A 
ATOM     16  C   UNL     1     -13.468  68.546  75.054  1.00  0.00     0.062 A 
ATOM     17  C   UNL     1     -13.307  69.924  74.849  1.00  0.00     0.158 A 
BRANCH  15  18
ATOM     18  O   UNL     1     -14.185  72.204  75.185  1.00  0.00    -0.504 OA
ATOM     19  H   UNL     1     -14.967  72.838  75.266  1.00  0.00     0.293 HD
ENDBRANCH  15  18
BRANCH  17  20
ATOM     20  O   UNL     1     -12.177  70.350  74.148  1.00  0.00    -0.504 OA
ATOM     21  H   UNL     1     -11.286  69.874  74.168  1.00  0.00     0.293 HD
ENDBRANCH  17  20
ENDBRANCH   1  12
BRANCH   6  22
ATOM     22  O   UNL     1     -14.825  61.415  76.237  1.00  0.00    -0.507 OA
ATOM     23  H   UNL     1     -15.180  60.523  75.933  1.00  0.00     0.293 HD
ENDBRANCH   6  22
BRANCH   8  24
ATOM     24  O   UNL     1     -18.959  62.886  78.147  1.00  0.00    -0.508 OA
ATOM     25  H   UNL     1     -19.761  63.503  78.094  1.00  0.00     0.293 HD
ENDBRANCH   8  24
TORSDOF 5
ENDMDL
MODEL 2
REMARK VINA RESULT:    -5.815      2.987      8.696
REMARK INTER + INTRA:          -7.131
REMARK INTER:                  -6.866
REMARK INTRA:                  -0.266
REMARK UNBOUND:                -0.296
REMARK SMILES O=c1cc(-c2ccc(O)c(O)c2)oc2cc(O)cc(O)c12
REMARK SMILES IDX 4 1 3 2 2 3 1 4 21 5 19 6 18 7 16 8 15 9 14 10 13 11 5 12
REMARK SMILES IDX 6 13 7 14 8 15 12 16 10 17 9 18 11 20 20 22 17 24
REMARK H PARENT 9 19 11 21 20 23 17 25
REMARK Flexibility Score: inf
ROOT
ATOM      1  C   UNL     1     -14.267  70.809  74.515  1.00  0.00     0.138 A 
ATOM      2  C   UNL     1     -13.880  71.027  73.186  1.00  0.00     0.100 A 
ATOM      3  C   UNL     1     -13.789  72.332  72.699  1.00  0.00     0.197 A 
ATOM      4  O   UNL     1     -13.500  72.495  71.485  1.00  0.00    -0.289 OA
ATOM      5  C   UNL     1     -14.056  73.424  73.559  1.00  0.00     0.107 A 
ATOM      6  C   UNL     1     -13.955  74.797  73.184  1.00  0.00     0.134 A 
ATOM      7  C   UNL     1     -14.358  75.790  74.086  1.00  0.00     0.093 A 
ATOM      8  C   UNL     1     -14.799  75.464  75.368  1.00  0.00     0.123 A 
ATOM      9  C   UNL     1     -14.850  74.127  75.764  1.00  0.00     0.094 A 
ATOM     10  C   UNL     1     -14.489  73.111  74.875  1.00  0.00     0.146 A 
ATOM     11  O   UNL     1     -14.566  71.850  75.286  1.00  0.00    -0.456 OA
ENDROOT
BRANCH   1  12
ATOM     12  C   UNL     1     -14.379  69.442  75.085  1.00  0.00     0.021 A 
ATOM     13  C   UNL     1     -15.559  68.707  74.888  1.00  0.00     0.016 A 
ATOM     14  C   UNL     1     -15.690  67.422  75.419  1.00  0.00     0.051 A 
ATOM     15  C   UNL     1     -14.656  66.847  76.163  1.00  0.00     0.157 A 
ATOM     16  C   UNL     1     -13.343  68.870  75.845  1.00  0.00     0.062 A 
ATOM     17  C   UNL     1     -13.467  67.582  76.384  1.00  0.00     0.158 A 
BRANCH  15  18
ATOM     18  O   UNL     1     -14.849  65.557  76.661  1.00  0.00    -0.504 OA
ATOM     19  H   UNL     1     -15.135  65.355  77.608  1.00  0.00     0.293 HD
ENDBRANCH  15  18
BRANCH  17  20
ATOM     20  O   UNL     1     -12.398  67.081  77.129  1.00  0.00    -0.504 OA
ATOM     21  H   UNL     1     -12.329  67.150  78.134  1.00  0.00     0.293 HD
ENDBRANCH  17  20
ENDBRANCH   1  12
BRANCH   6  22
ATOM     22  O   UNL     1     -13.447  75.237  71.958  1.00  0.00    -0.507 OA
ATOM     23  H   UNL     1     -12.724  75.929  71.848  1.00  0.00     0.293 HD
ENDBRANCH   6  22
BRANCH   8  24
ATOM     24  O   UNL     1     -15.176  76.479  76.244  1.00  0.00    -0.508 OA
ATOM     25  H   UNL     1     -15.977  77.071  76.056  1.00  0.00     0.293 HD
ENDBRANCH   8  24
TORSDOF 5
ENDMDL
MODEL 3
REMARK VINA RESULT:    -5.783      1.224      2.737
REMARK INTER + INTRA:          -7.094
REMARK INTER:                  -6.775
REMARK INTRA:                  -0.318
REMARK UNBOUND:                -0.296
REMARK SMILES O=c1cc(-c2ccc(O)c(O)c2)oc2cc(O)cc(O)c12
REMARK SMILES IDX 4 1 3 2 2 3 1 4 21 5 19 6 18 7 16 8 15 9 14 10 13 11 5 12
REMARK SMILES IDX 6 13 7 14 8 15 12 16 10 17 9 18 11 20 20 22 17 24
REMARK H PARENT 9 19 11 21 20 23 17 25
REMARK Flexibility Score: inf
ROOT
ATOM      1  C   UNL     1     -15.301  66.379  76.111  1.00  0.00     0.138 A 
ATOM      2  C   UNL     1     -16.500  65.958  76.702  1.00  0.00     0.100 A 
ATOM      3  C   UNL     1     -16.745  64.594  76.869  1.00  0.00     0.197 A 
ATOM      4  O   UNL     1     -17.857  64.244  77.346  1.00  0.00    -0.289 OA
ATOM      5  C   UNL     1     -15.769  63.649  76.472  1.00  0.00     0.107 A 
ATOM      6  C   UNL     1     -15.893  62.237  76.632  1.00  0.00     0.134 A 
ATOM      7  C   UNL     1     -14.913  61.393  76.093  1.00  0.00     0.093 A 
ATOM      8  C   UNL     1     -13.786  61.912  75.456  1.00  0.00     0.123 A 
ATOM      9  C   UNL     1     -13.628  63.293  75.342  1.00  0.00     0.094 A 
ATOM     10  C   UNL     1     -14.606  64.160  75.838  1.00  0.00     0.146 A 
ATOM     11  O   UNL     1     -14.425  65.469  75.696  1.00  0.00    -0.456 OA
ENDROOT
BRANCH   1  12
ATOM     12  C   UNL     1     -14.989  67.816  75.910  1.00  0.00     0.021 A 
ATOM     13  C   UNL     1     -15.929  68.787  76.291  1.00  0.00     0.016 A 
ATOM     14  C   UNL     1     -15.661  70.145  76.106  1.00  0.00     0.051 A 
ATOM     15  C   UNL     1     -14.458  70.564  75.530  1.00  0.00     0.157 A 
ATOM     16  C   UNL     1     -13.784  68.236  75.316  1.00  0.00     0.062 A 
ATOM     17  C   UNL     1     -13.508  69.597  75.125  1.00  0.00     0.158 A 
BRANCH  15  18
ATOM     18  O   UNL     1     -14.251  71.936  75.378  1.00  0.00    -0.504 OA
ATOM     19  H   UNL     1     -14.463  72.449  74.535  1.00  0.00     0.293 HD
ENDBRANCH  15  18
BRANCH  17  20
ATOM     20  O   UNL     1     -12.293  69.938  74.529  1.00  0.00    -0.504 OA
ATOM     21  H   UNL     1     -11.391  69.778  74.953  1.00  0.00     0.293 HD
ENDBRANCH  17  20
ENDBRANCH   1  12
BRANCH   6  22
ATOM     22  O   UNL     1     -16.936  61.618  77.326  1.00  0.00    -0.507 OA
ATOM     23  H   UNL     1     -17.908  61.873  77.255  1.00  0.00     0.293 HD
ENDBRANCH   6  22
BRANCH   8  24
ATOM     24  O   UNL     1     -12.824  61.043  74.948  1.00  0.00    -0.508 OA
ATOM     25  H   UNL     1     -12.962  60.554  74.070  1.00  0.00     0.293 HD
ENDBRANCH   8  24
TORSDOF 5
ENDMDL
MODEL 4
REMARK VINA RESULT:    -5.548      1.390      7.298
REMARK INTER + INTRA:          -6.818
REMARK INTER:                  -6.500
REMARK INTRA:                  -0.317
REMARK UNBOUND:                -0.296
REMARK SMILES O=c1cc(-c2ccc(O)c(O)c2)oc2cc(O)cc(O)c12
REMARK SMILES IDX 4 1 3 2 2 3 1 4 21 5 19 6 18 7 16 8 15 9 14 10 13 11 5 12
REMARK SMILES IDX 6 13 7 14 8 15 12 16 10 17 9 18 11 20 20 22 17 24
REMARK H PARENT 9 19 11 21 20 23 17 25
REMARK Flexibility Score: inf
ROOT
ATOM      1  C   UNL     1     -15.356  66.782  75.942  1.00  0.00     0.138 A 
ATOM      2  C   UNL     1     -15.941  67.939  76.477  1.00  0.00     0.100 A 
ATOM      3  C   UNL     1     -15.482  69.194  76.073  1.00  0.00     0.197 A 
ATOM      4  O   UNL     1     -15.983  70.212  76.617  1.00  0.00    -0.289 OA
ATOM      5  C   UNL     1     -14.453  69.289  75.106  1.00  0.00     0.107 A 
ATOM      6  C   UNL     1     -13.934  70.514  74.589  1.00  0.00     0.134 A 
ATOM      7  C   UNL     1     -12.836  70.486  73.721  1.00  0.00     0.093 A 
ATOM      8  C   UNL     1     -12.277  69.279  73.304  1.00  0.00     0.123 A 
ATOM      9  C   UNL     1     -12.811  68.073  73.759  1.00  0.00     0.094 A 
ATOM     10  C   UNL     1     -13.885  68.068  74.654  1.00  0.00     0.146 A 
ATOM     11  O   UNL     1     -14.355  66.899  75.077  1.00  0.00    -0.456 OA
ENDROOT
BRANCH   1  12
ATOM     12  C   UNL     1     -15.807  65.423  76.335  1.00  0.00     0.021 A 
ATOM     13  C   UNL     1     -16.930  65.281  77.166  1.00  0.00     0.016 A 
ATOM     14  C   UNL     1     -17.369  64.014  77.555  1.00  0.00     0.051 A 
ATOM     15  C   UNL     1     -16.695  62.864  77.133  1.00  0.00     0.157 A 
ATOM     16  C   UNL     1     -15.120  64.267  75.921  1.00  0.00     0.062 A 
ATOM     17  C   UNL     1     -15.553  62.991  76.309  1.00  0.00     0.158 A 
BRANCH  15  18
ATOM     18  O   UNL     1     -17.190  61.627  77.552  1.00  0.00    -0.504 OA
ATOM     19  H   UNL     1     -17.007  60.756  77.076  1.00  0.00     0.293 HD
ENDBRANCH  15  18
BRANCH  17  20
ATOM     20  O   UNL     1     -14.820  61.890  75.861  1.00  0.00    -0.504 OA
ATOM     21  H   UNL     1     -13.958  61.960  75.339  1.00  0.00     0.293 HD
ENDBRANCH  17  20
ENDBRANCH   1  12
BRANCH   6  22
ATOM     22  O   UNL     1     -14.472  71.772  74.876  1.00  0.00    -0.507 OA
ATOM     23  H   UNL     1     -15.026  72.321  74.238  1.00  0.00     0.293 HD
ENDBRANCH   6  22
BRANCH   8  24
ATOM     24  O   UNL     1     -11.196  69.289  72.427  1.00  0.00    -0.508 OA
ATOM     25  H   UNL     1     -10.240  69.327  72.764  1.00  0.00     0.293 HD
ENDBRANCH   8  24
TORSDOF 5
ENDMDL
MODEL 5
REMARK VINA RESULT:    -5.487      1.372      6.856
REMARK INTER + INTRA:          -6.746
REMARK INTER:                  -6.451
REMARK INTRA:                  -0.295
REMARK UNBOUND:                -0.296
REMARK SMILES O=c1cc(-c2ccc(O)c(O)c2)oc2cc(O)cc(O)c12
REMARK SMILES IDX 4 1 3 2 2 3 1 4 21 5 19 6 18 7 16 8 15 9 14 10 13 11 5 12
REMARK SMILES IDX 6 13 7 14 8 15 12 16 10 17 9 18 11 20 20 22 17 24
REMARK H PARENT 9 19 11 21 20 23 17 25
REMARK Flexibility Score: inf
ROOT
ATOM      1  C   UNL     1     -15.079  65.785  75.658  1.00  0.00     0.138 A 
ATOM      2  C   UNL     1     -14.001  65.857  74.765  1.00  0.00     0.100 A 
ATOM      3  C   UNL     1     -13.455  67.101  74.442  1.00  0.00     0.197 A 
ATOM      4  O   UNL     1     -12.529  67.139  73.590  1.00  0.00    -0.289 OA
ATOM      5  C   UNL     1     -13.973  68.274  75.041  1.00  0.00     0.107 A 
ATOM      6  C   UNL     1     -13.469  69.590  74.817  1.00  0.00     0.134 A 
ATOM      7  C   UNL     1     -14.136  70.688  75.375  1.00  0.00     0.093 A 
ATOM      8  C   UNL     1     -15.250  70.513  76.195  1.00  0.00     0.123 A 
ATOM      9  C   UNL     1     -15.719  69.227  76.465  1.00  0.00     0.094 A 
ATOM     10  C   UNL     1     -15.096  68.114  75.895  1.00  0.00     0.146 A 
ATOM     11  O   UNL     1     -15.582  66.906  76.164  1.00  0.00    -0.456 OA
ENDROOT
BRANCH   1  12
ATOM     12  C   UNL     1     -15.697  64.490  76.038  1.00  0.00     0.021 A 
ATOM     13  C   UNL     1     -16.549  64.431  77.152  1.00  0.00     0.016 A 
ATOM     14  C   UNL     1     -17.136  63.223  77.533  1.00  0.00     0.051 A 
ATOM     15  C   UNL     1     -16.881  62.048  76.820  1.00  0.00     0.157 A 
ATOM     16  C   UNL     1     -15.427  63.305  75.328  1.00  0.00     0.062 A 
ATOM     17  C   UNL     1     -16.011  62.088  75.705  1.00  0.00     0.158 A 
BRANCH  15  18
ATOM     18  O   UNL     1     -17.505  60.875  77.249  1.00  0.00    -0.504 OA
ATOM     19  H   UNL     1     -18.485  60.676  77.117  1.00  0.00     0.293 HD
ENDBRANCH  15  18
BRANCH  17  20
ATOM     20  O   UNL     1     -15.696  60.953  74.954  1.00  0.00    -0.504 OA
ATOM     21  H   UNL     1     -15.514  60.966  73.961  1.00  0.00     0.293 HD
ENDBRANCH  17  20
ENDBRANCH   1  12
BRANCH   6  22
ATOM     22  O   UNL     1     -12.313  69.869  74.083  1.00  0.00    -0.507 OA
ATOM     23  H   UNL     1     -11.663  70.611  74.291  1.00  0.00     0.293 HD
ENDBRANCH   6  22
BRANCH   8  24
ATOM     24  O   UNL     1     -15.879  71.628  76.745  1.00  0.00    -0.508 OA
ATOM     25  H   UNL     1     -15.563  72.038  77.617  1.00  0.00     0.293 HD
ENDBRANCH   8  24
TORSDOF 5
ENDMDL
MODEL 6
REMARK VINA RESULT:    -5.327      3.790      6.410
REMARK INTER + INTRA:          -6.558
REMARK INTER:                  -6.257
REMARK INTRA:                  -0.301
REMARK UNBOUND:                -0.296
REMARK SMILES O=c1cc(-c2ccc(O)c(O)c2)oc2cc(O)cc(O)c12
REMARK SMILES IDX 4 1 3 2 2 3 1 4 21 5 19 6 18 7 16 8 15 9 14 10 13 11 5 12
REMARK SMILES IDX 6 13 7 14 8 15 12 16 10 17 9 18 11 20 20 22 17 24
REMARK H PARENT 9 19 11 21 20 23 17 25
REMARK Flexibility Score: inf
ROOT
ATOM      1  C   UNL     1     -14.052  72.141  74.558  1.00  0.00     0.138 A 
ATOM      2  C   UNL     1     -13.781  71.968  73.194  1.00  0.00     0.100 A 
ATOM      3  C   UNL     1     -13.504  70.691  72.702  1.00  0.00     0.197 A 
ATOM      4  O   UNL     1     -13.204  70.576  71.485  1.00  0.00    -0.289 OA
ATOM      5  C   UNL     1     -13.529  69.579  73.578  1.00  0.00     0.107 A 
ATOM      6  C   UNL     1     -13.303  68.228  73.180  1.00  0.00     0.134 A 
ATOM      7  C   UNL     1     -13.237  67.224  74.155  1.00  0.00     0.093 A 
ATOM      8  C   UNL     1     -13.450  67.513  75.502  1.00  0.00     0.123 A 
ATOM      9  C   UNL     1     -13.726  68.823  75.896  1.00  0.00     0.094 A 
ATOM     10  C   UNL     1     -13.764  69.852  74.951  1.00  0.00     0.146 A 
ATOM     11  O   UNL     1     -14.015  71.088  75.368  1.00  0.00    -0.456 OA
ENDROOT
BRANCH   1  12
ATOM     12  C   UNL     1     -14.355  73.476  75.134  1.00  0.00     0.021 A 
ATOM     13  C   UNL     1     -13.699  74.610  74.630  1.00  0.00     0.016 A 
ATOM     14  C   UNL     1     -13.961  75.875  75.159  1.00  0.00     0.051 A 
ATOM     15  C   UNL     1     -14.874  76.037  76.206  1.00  0.00     0.157 A 
ATOM     16  C   UNL     1     -15.262  73.635  76.197  1.00  0.00     0.062 A 
ATOM     17  C   UNL     1     -15.530  74.901  76.736  1.00  0.00     0.158 A 
BRANCH  15  18
ATOM     18  O   UNL     1     -15.095  77.329  76.685  1.00  0.00    -0.504 OA
ATOM     19  H   UNL     1     -14.935  78.166  76.144  1.00  0.00     0.293 HD
ENDBRANCH  15  18
BRANCH  17  20
ATOM     20  O   UNL     1     -16.442  74.982  77.791  1.00  0.00    -0.504 OA
ATOM     21  H   UNL     1     -17.273  75.555  77.776  1.00  0.00     0.293 HD
ENDBRANCH  17  20
ENDBRANCH   1  12
BRANCH   6  22
ATOM     22  O   UNL     1     -13.162  67.817  71.851  1.00  0.00    -0.507 OA
ATOM     23  H   UNL     1     -12.883  68.415  71.090  1.00  0.00     0.293 HD
ENDBRANCH   6  22
BRANCH   8  24
ATOM     24  O   UNL     1     -13.393  66.486  76.442  1.00  0.00    -0.508 OA
ATOM     25  H   UNL     1     -12.763  65.700  76.331  1.00  0.00     0.293 HD
ENDBRANCH   8  24
TORSDOF 5
ENDMDL
MODEL 7
REMARK VINA RESULT:    -5.266      3.586      9.097
REMARK INTER + INTRA:          -6.486
REMARK INTER:                  -6.168
REMARK INTRA:                  -0.318
REMARK UNBOUND:                -0.296
REMARK SMILES O=c1cc(-c2ccc(O)c(O)c2)oc2cc(O)cc(O)c12
REMARK SMILES IDX 4 1 3 2 2 3 1 4 21 5 19 6 18 7 16 8 15 9 14 10 13 11 5 12
REMARK SMILES IDX 6 13 7 14 8 15 12 16 10 17 9 18 11 20 20 22 17 24
REMARK H PARENT 9 19 11 21 20 23 17 25
REMARK Flexibility Score: inf
ROOT
ATOM      1  C   UNL     1     -13.638  71.334  74.262  1.00  0.00     0.138 A 
ATOM      2  C   UNL     1     -12.500  71.753  73.559  1.00  0.00     0.100 A 
ATOM      3  C   UNL     1     -12.125  73.097  73.591  1.00  0.00     0.197 A 
ATOM      4  O   UNL     1     -11.135  73.454  72.901  1.00  0.00    -0.289 OA
ATOM      5  C   UNL     1     -12.877  74.019  74.358  1.00  0.00     0.107 A 
ATOM      6  C   UNL     1     -12.564  75.404  74.498  1.00  0.00     0.134 A 
ATOM      7  C   UNL     1     -13.447  76.244  75.188  1.00  0.00     0.093 A 
ATOM      8  C   UNL     1     -14.597  75.739  75.794  1.00  0.00     0.123 A 
ATOM      9  C   UNL     1     -14.885  74.376  75.710  1.00  0.00     0.094 A 
ATOM     10  C   UNL     1     -14.041  73.519  74.998  1.00  0.00     0.146 A 
ATOM     11  O   UNL     1     -14.358  72.230  74.929  1.00  0.00    -0.456 OA
ENDROOT
BRANCH   1  12
ATOM     12  C   UNL     1     -14.081  69.917  74.262  1.00  0.00     0.021 A 
ATOM     13  C   UNL     1     -13.374  68.972  73.502  1.00  0.00     0.016 A 
ATOM     14  C   UNL     1     -13.775  67.635  73.480  1.00  0.00     0.051 A 
ATOM     15  C   UNL     1     -14.892  67.212  74.207  1.00  0.00     0.157 A 
ATOM     16  C   UNL     1     -15.214  69.496  74.983  1.00  0.00     0.062 A 
ATOM     17  C   UNL     1     -15.625  68.156  74.965  1.00  0.00     0.158 A 
BRANCH  15  18
ATOM     18  O   UNL     1     -15.236  65.861  74.148  1.00  0.00    -0.504 OA
ATOM     19  H   UNL     1     -14.592  65.125  73.896  1.00  0.00     0.293 HD
ENDBRANCH  15  18
BRANCH  17  20
ATOM     20  O   UNL     1     -16.759  67.812  75.704  1.00  0.00    -0.504 OA
ATOM     21  H   UNL     1     -16.770  67.109  76.429  1.00  0.00     0.293 HD
ENDBRANCH  17  20
ENDBRANCH   1  12
BRANCH   6  22
ATOM     22  O   UNL     1     -11.397  75.996  74.004  1.00  0.00    -0.507 OA
ATOM     23  H   UNL     1     -10.756  75.557  73.363  1.00  0.00     0.293 HD
ENDBRANCH   6  22
BRANCH   8  24
ATOM     24  O   UNL     1     -15.444  76.602  76.486  1.00  0.00    -0.508 OA
ATOM     25  H   UNL     1     -16.193  77.099  76.016  1.00  0.00     0.293 HD
ENDBRANCH   8  24
TORSDOF 5
ENDMDL
MODEL 8
REMARK VINA RESULT:    -5.214      7.258     10.623
REMARK INTER + INTRA:          -6.425
REMARK INTER:                  -6.151
REMARK INTRA:                  -0.274
REMARK UNBOUND:                -0.296
REMARK SMILES O=c1cc(-c2ccc(O)c(O)c2)oc2cc(O)cc(O)c12
REMARK SMILES IDX 4 1 3 2 2 3 1 4 21 5 19 6 18 7 16 8 15 9 14 10 13 11 5 12
REMARK SMILES IDX 6 13 7 14 8 15 12 16 10 17 9 18 11 20 20 22 17 24
REMARK H PARENT 9 19 11 21 20 23 17 25
REMARK Flexibility Score: inf
ROOT
ATOM      1  C   UNL     1     -11.735  76.087  74.875  1.00  0.00     0.138 A 
ATOM      2  C   UNL     1     -13.116  75.868  74.974  1.00  0.00     0.100 A 
ATOM      3  C   UNL     1     -13.639  74.612  74.660  1.00  0.00     0.197 A 
ATOM      4  O   UNL     1     -14.888  74.463  74.698  1.00  0.00    -0.289 OA
ATOM      5  C   UNL     1     -12.769  73.563  74.276  1.00  0.00     0.107 A 
ATOM      6  C   UNL     1     -13.186  72.233  73.973  1.00  0.00     0.134 A 
ATOM      7  C   UNL     1     -12.250  71.310  73.490  1.00  0.00     0.093 A 
ATOM      8  C   UNL     1     -10.904  71.650  73.359  1.00  0.00     0.123 A 
ATOM      9  C   UNL     1     -10.476  72.933  73.704  1.00  0.00     0.094 A 
ATOM     10  C   UNL     1     -11.392  73.887  74.155  1.00  0.00     0.146 A 
ATOM     11  O   UNL     1     -10.947  75.102  74.459  1.00  0.00    -0.456 OA
ENDROOT
BRANCH   1  12
ATOM     12  C   UNL     1     -11.126  77.402  75.198  1.00  0.00     0.021 A 
ATOM     13  C   UNL     1     -10.265  78.011  74.271  1.00  0.00     0.016 A 
ATOM     14  C   UNL     1      -9.675  79.244  74.554  1.00  0.00     0.051 A 
ATOM     15  C   UNL     1      -9.921  79.891  75.768  1.00  0.00     0.157 A 
ATOM     16  C   UNL     1     -11.363  78.046  76.426  1.00  0.00     0.062 A 
ATOM     17  C   UNL     1     -10.772  79.283  76.720  1.00  0.00     0.158 A 
BRANCH  15  18
ATOM     18  O   UNL     1      -9.304  81.125  75.987  1.00  0.00    -0.504 OA
ATOM     19  H   UNL     1      -9.746  82.015  75.812  1.00  0.00     0.293 HD
ENDBRANCH  15  18
BRANCH  17  20
ATOM     20  O   UNL     1     -11.052  79.861  77.960  1.00  0.00    -0.504 OA
ATOM     21  H   UNL     1     -11.808  79.568  78.562  1.00  0.00     0.293 HD
ENDBRANCH  17  20
ENDBRANCH   1  12
BRANCH   6  22
ATOM     22  O   UNL     1     -14.491  71.763  74.149  1.00  0.00    -0.507 OA
ATOM     23  H   UNL     1     -14.746  70.795  74.260  1.00  0.00     0.293 HD
ENDBRANCH   6  22
BRANCH   8  24
ATOM     24  O   UNL     1      -9.998  70.701  72.892  1.00  0.00    -0.508 OA
ATOM     25  H   UNL     1      -9.153  70.971  72.401  1.00  0.00     0.293 HD
ENDBRANCH   8  24
TORSDOF 5
ENDMDL
MODEL 9
REMARK VINA RESULT:    -5.191      6.893     11.497
REMARK INTER + INTRA:          -6.397
REMARK INTER:                  -6.131
REMARK INTRA:                  -0.267
REMARK UNBOUND:                -0.296
REMARK SMILES O=c1cc(-c2ccc(O)c(O)c2)oc2cc(O)cc(O)c12
REMARK SMILES IDX 4 1 3 2 2 3 1 4 21 5 19 6 18 7 16 8 15 9 14 10 13 11 5 12
REMARK SMILES IDX 6 13 7 14 8 15 12 16 10 17 9 18 11 20 20 22 17 24
REMARK H PARENT 9 19 11 21 20 23 17 25
REMARK Flexibility Score: inf
ROOT
ATOM      1  C   UNL     1     -13.415  74.719  74.616  1.00  0.00     0.138 A 
ATOM      2  C   UNL     1     -14.486  75.078  75.446  1.00  0.00     0.100 A 
ATOM      3  C   UNL     1     -14.399  76.234  76.224  1.00  0.00     0.197 A 
ATOM      4  O   UNL     1     -15.350  76.498  77.005  1.00  0.00    -0.289 OA
ATOM      5  C   UNL     1     -13.244  77.049  76.145  1.00  0.00     0.107 A 
ATOM      6  C   UNL     1     -13.062  78.271  76.860  1.00  0.00     0.134 A 
ATOM      7  C   UNL     1     -11.830  78.932  76.793  1.00  0.00     0.093 A 
ATOM      8  C   UNL     1     -10.796  78.451  75.990  1.00  0.00     0.123 A 
ATOM      9  C   UNL     1     -10.982  77.287  75.243  1.00  0.00     0.094 A 
ATOM     10  C   UNL     1     -12.188  76.585  75.317  1.00  0.00     0.146 A 
ATOM     11  O   UNL     1     -12.321  75.472  74.603  1.00  0.00    -0.456 OA
ENDROOT
BRANCH   1  12
ATOM     12  C   UNL     1     -13.456  73.501  73.768  1.00  0.00     0.021 A 
ATOM     13  C   UNL     1     -14.132  73.539  72.537  1.00  0.00     0.016 A 
ATOM     14  C   UNL     1     -14.190  72.405  71.725  1.00  0.00     0.051 A 
ATOM     15  C   UNL     1     -13.586  71.209  72.123  1.00  0.00     0.157 A 
ATOM     16  C   UNL     1     -12.860  72.294  74.176  1.00  0.00     0.062 A 
ATOM     17  C   UNL     1     -12.915  71.151  73.367  1.00  0.00     0.158 A 
BRANCH  15  18
ATOM     18  O   UNL     1     -13.675  70.114  71.261  1.00  0.00    -0.504 OA
ATOM     19  H   UNL     1     -13.965  70.178  70.296  1.00  0.00     0.293 HD
ENDBRANCH  15  18
BRANCH  17  20
ATOM     20  O   UNL     1     -12.302  69.988  73.839  1.00  0.00    -0.504 OA
ATOM     21  H   UNL     1     -11.811  69.330  73.251  1.00  0.00     0.293 HD
ENDBRANCH  17  20
ENDBRANCH   1  12
BRANCH   6  22
ATOM     22  O   UNL     1     -14.059  78.884  77.625  1.00  0.00    -0.507 OA
ATOM     23  H   UNL     1     -14.044  79.845  77.928  1.00  0.00     0.293 HD
ENDBRANCH   6  22
BRANCH   8  24
ATOM     24  O   UNL     1      -9.590  79.145  75.934  1.00  0.00    -0.508 OA
ATOM     25  H   UNL     1      -9.367  79.760  75.160  1.00  0.00     0.293 HD
ENDBRANCH   8  24
TORSDOF 5
ENDMDL
