MODEL 1
REMARK VINA RESULT:    -4.500      0.000      0.000
REMARK INTER + INTRA:          -6.496
REMARK INTER:                  -6.078
REMARK INTRA:                  -0.418
REMARK UNBOUND:                -0.418
REMARK SMILES CCCCCCCC(=O)[O-]
REMARK SMILES IDX 5 1 6 2 7 3 8 4 9 5 10 6 4 7 3 8 2 9 1 10
REMARK H PARENT
REMARK Flexibility Score: inf
ROOT
ATOM      1  C   UNL     1     134.375 132.762 133.689  1.00  0.00     0.000 C 
ENDROOT
BRANCH   1   2
ATOM      2  C   UNL     1     135.660 133.185 132.957  1.00  0.00     0.006 C 
BRANCH   2   3
ATOM      3  C   UNL     1     136.351 134.372 133.640  1.00  0.00     0.053 C 
BRANCH   3   4
ATOM      4  C   UNL     1     136.707 135.447 132.659  1.00  0.00     0.041 C 
ATOM      5  O   UNL     1     137.709 136.181 132.860  1.00  0.00    -0.550 OA
ATOM      6  O   UNL     1     135.909 135.660 131.541  1.00  0.00    -0.550 OA
ENDBRANCH   3   4
ENDBRANCH   2   3
ENDBRANCH   1   2
BRANCH   1   7
ATOM      7  C   UNL     1     133.726 133.921 134.462  1.00  0.00     0.000 C 
BRANCH   7   8
ATOM      8  C   UNL     1     132.699 134.693 133.615  1.00  0.00    -0.000 C 
BRANCH   8   9
ATOM      9  C   UNL     1     133.024 136.192 133.520  1.00  0.00    -0.003 C 
ATOM     10  C   UNL     1     131.801 137.040 133.171  1.00  0.00     0.004 C 
ENDBRANCH   8   9
ENDBRANCH   7   8
ENDBRANCH   1   7
TORSDOF 6
ENDMDL
MODEL 2
REMARK VINA RESULT:    -4.476      2.692      4.048
REMARK INTER + INTRA:          -6.464
REMARK INTER:                  -6.038
REMARK INTRA:                  -0.426
REMARK UNBOUND:                -0.418
REMARK SMILES CCCCCCCC(=O)[O-]
REMARK SMILES IDX 5 1 6 2 7 3 8 4 9 5 10 6 4 7 3 8 2 9 1 10
REMARK H PARENT
REMARK Flexibility Score: inf
ROOT
ATOM      1  C   UNL     1     134.491 134.338 133.503  1.00  0.00     0.000 C 
ENDROOT
BRANCH   1   2
ATOM      2  C   UNL     1     134.243 135.813 133.145  1.00  0.00     0.006 C 
BRANCH   2   3
ATOM      3  C   UNL     1     132.899 136.322 133.683  1.00  0.00     0.053 C 
BRANCH   3   4
ATOM      4  C   UNL     1     131.964 136.697 132.575  1.00  0.00     0.041 C 
ATOM      5  O   UNL     1     131.860 135.964 131.558  1.00  0.00    -0.550 OA
ATOM      6  O   UNL     1     131.232 137.876 132.653  1.00  0.00    -0.550 OA
ENDBRANCH   3   4
ENDBRANCH   2   3
ENDBRANCH   1   2
BRANCH   1   7
ATOM      7  C   UNL     1     133.360 133.737 134.351  1.00  0.00     0.000 C 
BRANCH   7   8
ATOM      8  C   UNL     1     132.562 132.660 133.594  1.00  0.00    -0.000 C 
BRANCH   8   9
ATOM      9  C   UNL     1     131.067 133.000 133.489  1.00  0.00    -0.003 C 
ATOM     10  C   UNL     1     130.205 131.779 133.170  1.00  0.00     0.004 C 
ENDBRANCH   8   9
ENDBRANCH   7   8
ENDBRANCH   1   7
TORSDOF 6
ENDMDL
MODEL 3
REMARK VINA RESULT:    -4.421      3.764      5.221
REMARK INTER + INTRA:          -6.390
REMARK INTER:                  -6.158
REMARK INTRA:                  -0.232
REMARK UNBOUND:                -0.418
REMARK SMILES CCCCCCCC(=O)[O-]
REMARK SMILES IDX 5 1 6 2 7 3 8 4 9 5 10 6 4 7 3 8 2 9 1 10
REMARK H PARENT
REMARK Flexibility Score: inf
ROOT
ATOM      1  C   UNL     1     134.182 132.209 133.698  1.00  0.00     0.000 C 
ENDROOT
BRANCH   1   2
ATOM      2  C   UNL     1     132.870 131.493 133.334  1.00  0.00     0.006 C 
BRANCH   2   3
ATOM      3  C   UNL     1     131.668 132.447 133.339  1.00  0.00     0.053 C 
BRANCH   3   4
ATOM      4  C   UNL     1     130.507 131.881 132.580  1.00  0.00     0.041 C 
ATOM      5  O   UNL     1     130.463 131.975 131.326  1.00  0.00    -0.550 OA
ATOM      6  O   UNL     1     129.456 131.280 133.263  1.00  0.00    -0.550 OA
ENDBRANCH   3   4
ENDBRANCH   2   3
ENDBRANCH   1   2
BRANCH   1   7
ATOM      7  C   UNL     1     133.946 133.595 134.317  1.00  0.00     0.000 C 
BRANCH   7   8
ATOM      8  C   UNL     1     134.746 134.702 133.609  1.00  0.00    -0.000 C 
BRANCH   8   9
ATOM      9  C   UNL     1     136.242 134.367 133.498  1.00  0.00    -0.003 C 
ATOM     10  C   UNL     1     137.104 135.599 133.220  1.00  0.00     0.004 C 
ENDBRANCH   8   9
ENDBRANCH   7   8
ENDBRANCH   1   7
TORSDOF 6
ENDMDL
MODEL 4
REMARK VINA RESULT:    -4.394      2.621      3.871
REMARK INTER + INTRA:          -6.353
REMARK INTER:                  -5.849
REMARK INTRA:                  -0.504
REMARK UNBOUND:                -0.418
REMARK SMILES CCCCCCCC(=O)[O-]
REMARK SMILES IDX 5 1 6 2 7 3 8 4 9 5 10 6 4 7 3 8 2 9 1 10
REMARK H PARENT
REMARK Flexibility Score: inf
ROOT
ATOM      1  C   UNL     1     132.523 133.206 133.812  1.00  0.00     0.000 C 
ENDROOT
BRANCH   1   2
ATOM      2  C   UNL     1     132.923 131.979 132.975  1.00  0.00     0.006 C 
BRANCH   2   3
ATOM      3  C   UNL     1     134.019 131.146 133.654  1.00  0.00     0.053 C 
BRANCH   3   4
ATOM      4  C   UNL     1     135.188 130.921 132.745  1.00  0.00     0.041 C 
ATOM      5  O   UNL     1     135.294 131.576 131.676  1.00  0.00    -0.550 OA
ATOM      6  O   UNL     1     136.143 129.963 133.064  1.00  0.00    -0.550 OA
ENDBRANCH   3   4
ENDBRANCH   2   3
ENDBRANCH   1   2
BRANCH   1   7
ATOM      7  C   UNL     1     133.738 134.013 134.295  1.00  0.00     0.000 C 
BRANCH   7   8
ATOM      8  C   UNL     1     133.922 135.326 133.513  1.00  0.00    -0.000 C 
BRANCH   8   9
ATOM      9  C   UNL     1     135.387 135.576 133.120  1.00  0.00    -0.003 C 
ATOM     10  C   UNL     1     136.312 134.431 133.532  1.00  0.00     0.004 C 
ENDBRANCH   8   9
ENDBRANCH   7   8
ENDBRANCH   1   7
TORSDOF 6
ENDMDL
MODEL 5
REMARK VINA RESULT:    -4.385      2.318      4.271
REMARK INTER + INTRA:          -6.341
REMARK INTER:                  -6.037
REMARK INTRA:                  -0.304
REMARK UNBOUND:                -0.418
REMARK SMILES CCCCCCCC(=O)[O-]
REMARK SMILES IDX 5 1 6 2 7 3 8 4 9 5 10 6 4 7 3 8 2 9 1 10
REMARK H PARENT
REMARK Flexibility Score: inf
ROOT
ATOM      1  C   UNL     1     133.885 133.880 134.365  1.00  0.00     0.000 C 
ENDROOT
BRANCH   1   2
ATOM      2  C   UNL     1     132.656 134.552 133.730  1.00  0.00     0.006 C 
BRANCH   2   3
ATOM      3  C   UNL     1     132.827 136.072 133.604  1.00  0.00     0.053 C 
BRANCH   3   4
ATOM      4  C   UNL     1     131.961 136.640 132.522  1.00  0.00     0.041 C 
ATOM      5  O   UNL     1     131.963 136.125 131.374  1.00  0.00    -0.550 OA
ATOM      6  O   UNL     1     131.179 137.761 132.774  1.00  0.00    -0.550 OA
ENDBRANCH   3   4
ENDBRANCH   2   3
ENDBRANCH   1   2
BRANCH   1   7
ATOM      7  C   UNL     1     134.950 133.495 133.327  1.00  0.00     0.000 C 
BRANCH   7   8
ATOM      8  C   UNL     1     136.313 134.152 133.609  1.00  0.00    -0.000 C 
BRANCH   8   9
ATOM      9  C   UNL     1     136.464 135.514 132.913  1.00  0.00    -0.003 C 
ATOM     10  C   UNL     1     137.835 136.148 133.147  1.00  0.00     0.004 C 
ENDBRANCH   8   9
ENDBRANCH   7   8
ENDBRANCH   1   7
TORSDOF 6
ENDMDL
MODEL 6
REMARK VINA RESULT:    -4.357      2.891      4.430
REMARK INTER + INTRA:          -6.304
REMARK INTER:                  -5.830
REMARK INTRA:                  -0.473
REMARK UNBOUND:                -0.418
REMARK SMILES CCCCCCCC(=O)[O-]
REMARK SMILES IDX 5 1 6 2 7 3 8 4 9 5 10 6 4 7 3 8 2 9 1 10
REMARK H PARENT
REMARK Flexibility Score: inf
ROOT
ATOM      1  C   UNL     1     134.184 135.489 132.916  1.00  0.00     0.000 C 
ENDROOT
BRANCH   1   2
ATOM      2  C   UNL     1     133.064 136.190 133.704  1.00  0.00     0.006 C 
BRANCH   2   3
ATOM      3  C   UNL     1     131.740 136.218 132.929  1.00  0.00     0.053 C 
BRANCH   3   4
ATOM      4  C   UNL     1     131.435 137.586 132.401  1.00  0.00     0.041 C 
ATOM      5  O   UNL     1     131.042 138.493 133.181  1.00  0.00    -0.550 OA
ATOM      6  O   UNL     1     131.552 137.849 131.041  1.00  0.00    -0.550 OA
ENDBRANCH   3   4
ENDBRANCH   2   3
ENDBRANCH   1   2
BRANCH   1   7
ATOM      7  C   UNL     1     134.821 134.331 133.700  1.00  0.00     0.000 C 
BRANCH   7   8
ATOM      8  C   UNL     1     133.777 133.459 134.419  1.00  0.00    -0.000 C 
BRANCH   8   9
ATOM      9  C   UNL     1     133.174 132.385 133.500  1.00  0.00    -0.003 C 
ATOM     10  C   UNL     1     131.658 132.517 133.353  1.00  0.00     0.004 C 
ENDBRANCH   8   9
ENDBRANCH   7   8
ENDBRANCH   1   7
TORSDOF 6
ENDMDL
MODEL 7
REMARK VINA RESULT:    -4.355      1.573      2.680
REMARK INTER + INTRA:          -6.301
REMARK INTER:                  -6.030
REMARK INTRA:                  -0.271
REMARK UNBOUND:                -0.418
REMARK SMILES CCCCCCCC(=O)[O-]
REMARK SMILES IDX 5 1 6 2 7 3 8 4 9 5 10 6 4 7 3 8 2 9 1 10
REMARK H PARENT
REMARK Flexibility Score: inf
ROOT
ATOM      1  C   UNL     1     133.260 135.144 133.737  1.00  0.00     0.000 C 
ENDROOT
BRANCH   1   2
ATOM      2  C   UNL     1     134.526 135.910 133.317  1.00  0.00     0.006 C 
BRANCH   2   3
ATOM      3  C   UNL     1     135.775 135.018 133.333  1.00  0.00     0.053 C 
BRANCH   3   4
ATOM      4  C   UNL     1     136.898 135.624 132.548  1.00  0.00     0.041 C 
ATOM      5  O   UNL     1     136.845 135.662 131.291  1.00  0.00    -0.550 OA
ATOM      6  O   UNL     1     138.021 136.114 133.205  1.00  0.00    -0.550 OA
ENDBRANCH   3   4
ENDBRANCH   2   3
ENDBRANCH   1   2
BRANCH   1   7
ATOM      7  C   UNL     1     133.577 133.776 134.361  1.00  0.00     0.000 C 
BRANCH   7   8
ATOM      8  C   UNL     1     132.811 132.626 133.684  1.00  0.00    -0.000 C 
BRANCH   8   9
ATOM      9  C   UNL     1     131.432 133.063 133.166  1.00  0.00    -0.003 C 
ATOM     10  C   UNL     1     130.349 132.011 133.409  1.00  0.00     0.004 C 
ENDBRANCH   8   9
ENDBRANCH   7   8
ENDBRANCH   1   7
TORSDOF 6
ENDMDL
MODEL 8
REMARK VINA RESULT:    -4.317      2.002      3.890
REMARK INTER + INTRA:          -6.250
REMARK INTER:                  -5.858
REMARK INTRA:                  -0.391
REMARK UNBOUND:                -0.418
REMARK SMILES CCCCCCCC(=O)[O-]
REMARK SMILES IDX 5 1 6 2 7 3 8 4 9 5 10 6 4 7 3 8 2 9 1 10
REMARK H PARENT
REMARK Flexibility Score: inf
ROOT
ATOM      1  C   UNL     1     134.402 132.522 133.562  1.00  0.00     0.000 C 
ENDROOT
BRANCH   1   2
ATOM      2  C   UNL     1     133.651 133.561 134.413  1.00  0.00     0.006 C 
BRANCH   2   3
ATOM      3  C   UNL     1     132.325 133.988 133.770  1.00  0.00     0.053 C 
BRANCH   3   4
ATOM      4  C   UNL     1     132.411 135.364 133.183  1.00  0.00     0.041 C 
ATOM      5  O   UNL     1     133.130 136.241 133.728  1.00  0.00    -0.550 OA
ATOM      6  O   UNL     1     131.668 135.686 132.053  1.00  0.00    -0.550 OA
ENDBRANCH   3   4
ENDBRANCH   2   3
ENDBRANCH   1   2
BRANCH   1   7
ATOM      7  C   UNL     1     135.847 132.943 133.255  1.00  0.00     0.000 C 
BRANCH   7   8
ATOM      8  C   UNL     1     136.156 134.376 133.724  1.00  0.00    -0.000 C 
BRANCH   8   9
ATOM      9  C   UNL     1     136.558 135.300 132.564  1.00  0.00    -0.003 C 
ATOM     10  C   UNL     1     137.785 136.153 132.886  1.00  0.00     0.004 C 
ENDBRANCH   8   9
ENDBRANCH   7   8
ENDBRANCH   1   7
TORSDOF 6
ENDMDL
MODEL 9
REMARK VINA RESULT:    -4.312      3.460      3.866
REMARK INTER + INTRA:          -6.242
REMARK INTER:                  -5.945
REMARK INTRA:                  -0.297
REMARK UNBOUND:                -0.418
REMARK SMILES CCCCCCCC(=O)[O-]
REMARK SMILES IDX 5 1 6 2 7 3 8 4 9 5 10 6 4 7 3 8 2 9 1 10
REMARK H PARENT
REMARK Flexibility Score: inf
ROOT
ATOM      1  C   UNL     1     133.006 131.787 132.947  1.00  0.00     0.000 C 
ENDROOT
BRANCH   1   2
ATOM      2  C   UNL     1     134.246 131.292 133.711  1.00  0.00     0.006 C 
BRANCH   2   3
ATOM      3  C   UNL     1     135.506 131.293 132.835  1.00  0.00     0.053 C 
BRANCH   3   4
ATOM      4  C   UNL     1     135.846 129.917 132.350  1.00  0.00     0.041 C 
ATOM      5  O   UNL     1     136.250 129.042 133.159  1.00  0.00    -0.550 OA
ATOM      6  O   UNL     1     135.748 129.612 130.998  1.00  0.00    -0.550 OA
ENDBRANCH   3   4
ENDBRANCH   2   3
ENDBRANCH   1   2
BRANCH   1   7
ATOM      7  C   UNL     1     132.317 132.970 133.643  1.00  0.00     0.000 C 
BRANCH   7   8
ATOM      8  C   UNL     1     133.321 133.950 134.275  1.00  0.00    -0.000 C 
BRANCH   8   9
ATOM      9  C   UNL     1     133.211 135.366 133.688  1.00  0.00    -0.003 C 
ATOM     10  C   UNL     1     131.818 135.671 133.139  1.00  0.00     0.004 C 
ENDBRANCH   8   9
ENDBRANCH   7   8
ENDBRANCH   1   7
TORSDOF 6
ENDMDL
