MODEL 1
REMARK VINA RESULT:    -5.483      0.000      0.000
REMARK INTER + INTRA:          -6.000
REMARK INTER:                  -5.964
REMARK INTRA:                  -0.036
REMARK UNBOUND:                -0.036
REMARK SMILES O=C([O-])c1ccc(O)cc1
REMARK SMILES IDX 4 1 5 2 10 3 6 4 9 5 7 6 2 7 1 8 3 9 8 10
REMARK H PARENT 8 11
REMARK Flexibility Score: inf
ROOT
ATOM      1  C   UNL     1     -13.348   2.224  -9.233  1.00  0.00    -0.003 A 
ATOM      2  C   UNL     1     -14.697   1.937  -9.508  1.00  0.00     0.014 A 
ATOM      3  C   UNL     1     -12.378   1.234  -9.469  1.00  0.00     0.014 A 
ATOM      4  C   UNL     1     -15.066   0.684 -10.008  1.00  0.00     0.047 A 
ATOM      5  C   UNL     1     -12.751  -0.018  -9.969  1.00  0.00     0.047 A 
ATOM      6  C   UNL     1     -14.097  -0.295 -10.241  1.00  0.00     0.115 A 
ENDROOT
BRANCH   1   7
ATOM      7  C   UNL     1     -12.960   3.550  -8.703  1.00  0.00     0.071 C 
ATOM      8  O   UNL     1     -11.753   3.811  -8.450  1.00  0.00    -0.545 OA
ATOM      9  O   UNL     1     -13.922   4.528  -8.477  1.00  0.00    -0.545 OA
ENDBRANCH   1   7
BRANCH   6  10
ATOM     10  O   UNL     1     -14.480  -1.538 -10.740  1.00  0.00    -0.508 OA
ATOM     11  H   UNL     1     -15.456  -1.798 -10.821  1.00  0.00     0.293 HD
ENDBRANCH   6  10
TORSDOF 2
ENDMDL
MODEL 2
REMARK VINA RESULT:    -5.457      1.253      4.105
REMARK INTER + INTRA:          -5.971
REMARK INTER:                  -5.936
REMARK INTRA:                  -0.036
REMARK UNBOUND:                -0.036
REMARK SMILES O=C([O-])c1ccc(O)cc1
REMARK SMILES IDX 4 1 5 2 10 3 6 4 9 5 7 6 2 7 1 8 3 9 8 10
REMARK H PARENT 8 11
REMARK Flexibility Score: inf
ROOT
ATOM      1  C   UNL     1     -13.093   0.887  -9.703  1.00  0.00    -0.003 A 
ATOM      2  C   UNL     1     -14.458   1.207  -9.579  1.00  0.00     0.014 A 
ATOM      3  C   UNL     1     -12.132   1.823  -9.282  1.00  0.00     0.014 A 
ATOM      4  C   UNL     1     -14.850   2.439  -9.045  1.00  0.00     0.047 A 
ATOM      5  C   UNL     1     -12.528   3.054  -8.749  1.00  0.00     0.047 A 
ATOM      6  C   UNL     1     -13.888   3.364  -8.629  1.00  0.00     0.115 A 
ENDROOT
BRANCH   1   7
ATOM      7  C   UNL     1     -12.681  -0.416 -10.269  1.00  0.00     0.071 C 
ATOM      8  O   UNL     1     -13.528  -1.332 -10.451  1.00  0.00    -0.545 OA
ATOM      9  O   UNL     1     -11.354  -0.650 -10.609  1.00  0.00    -0.545 OA
ENDBRANCH   1   7
BRANCH   6  10
ATOM     10  O   UNL     1     -14.295   4.587  -8.099  1.00  0.00    -0.508 OA
ATOM     11  H   UNL     1     -13.651   5.186  -7.596  1.00  0.00     0.293 HD
ENDBRANCH   6  10
TORSDOF 2
ENDMDL
MODEL 3
REMARK VINA RESULT:    -4.677      2.432      4.325
REMARK INTER + INTRA:          -5.123
REMARK INTER:                  -5.093
REMARK INTRA:                  -0.030
REMARK UNBOUND:                -0.036
REMARK SMILES O=C([O-])c1ccc(O)cc1
REMARK SMILES IDX 4 1 5 2 10 3 6 4 9 5 7 6 2 7 1 8 3 9 8 10
REMARK H PARENT 8 11
REMARK Flexibility Score: inf
ROOT
ATOM      1  C   UNL     1     -12.053  -0.935  -9.987  1.00  0.00    -0.003 A 
ATOM      2  C   UNL     1     -13.361  -1.274 -10.382  1.00  0.00     0.014 A 
ATOM      3  C   UNL     1     -11.786   0.384  -9.576  1.00  0.00     0.014 A 
ATOM      4  C   UNL     1     -14.376  -0.312 -10.366  1.00  0.00     0.047 A 
ATOM      5  C   UNL     1     -12.803   1.342  -9.562  1.00  0.00     0.047 A 
ATOM      6  C   UNL     1     -14.102   0.996  -9.956  1.00  0.00     0.115 A 
ENDROOT
BRANCH   1   7
ATOM      7  C   UNL     1     -10.981  -1.953 -10.005  1.00  0.00     0.071 C 
ATOM      8  O   UNL     1      -9.887  -1.721 -10.587  1.00  0.00    -0.545 OA
ATOM      9  O   UNL     1     -11.163  -3.181  -9.379  1.00  0.00    -0.545 OA
ENDBRANCH   1   7
BRANCH   6  10
ATOM     10  O   UNL     1     -15.125   1.942  -9.946  1.00  0.00    -0.508 OA
ATOM     11  H   UNL     1     -16.069   1.698  -9.670  1.00  0.00     0.293 HD
ENDBRANCH   6  10
TORSDOF 2
ENDMDL
MODEL 4
REMARK VINA RESULT:    -4.667      5.685      7.681
REMARK INTER + INTRA:          -5.112
REMARK INTER:                  -5.081
REMARK INTRA:                  -0.032
REMARK UNBOUND:                -0.036
REMARK SMILES O=C([O-])c1ccc(O)cc1
REMARK SMILES IDX 4 1 5 2 10 3 6 4 9 5 7 6 2 7 1 8 3 9 8 10
REMARK H PARENT 8 11
REMARK Flexibility Score: inf
ROOT
ATOM      1  C   UNL     1     -10.661  -4.648  -7.648  1.00  0.00    -0.003 A 
ATOM      2  C   UNL     1     -10.464  -5.027  -8.989  1.00  0.00     0.014 A 
ATOM      3  C   UNL     1     -10.576  -3.286  -7.306  1.00  0.00     0.014 A 
ATOM      4  C   UNL     1     -10.187  -4.064  -9.964  1.00  0.00     0.047 A 
ATOM      5  C   UNL     1     -10.298  -2.326  -8.283  1.00  0.00     0.047 A 
ATOM      6  C   UNL     1     -10.104  -2.713  -9.615  1.00  0.00     0.115 A 
ENDROOT
BRANCH   1   7
ATOM      7  C   UNL     1     -10.954  -5.669  -6.619  1.00  0.00     0.071 C 
ATOM      8  O   UNL     1     -11.813  -5.448  -5.723  1.00  0.00    -0.545 OA
ATOM      9  O   UNL     1     -10.286  -6.888  -6.625  1.00  0.00    -0.545 OA
ENDBRANCH   1   7
BRANCH   6  10
ATOM     10  O   UNL     1      -9.827  -1.765 -10.598  1.00  0.00    -0.508 OA
ATOM     11  H   UNL     1     -10.557  -1.186 -10.996  1.00  0.00     0.293 HD
ENDBRANCH   6  10
TORSDOF 2
ENDMDL
MODEL 5
REMARK VINA RESULT:    -4.523      7.339      8.706
REMARK INTER + INTRA:          -4.956
REMARK INTER:                  -4.929
REMARK INTRA:                  -0.027
REMARK UNBOUND:                -0.036
REMARK SMILES O=C([O-])c1ccc(O)cc1
REMARK SMILES IDX 4 1 5 2 10 3 6 4 9 5 7 6 2 7 1 8 3 9 8 10
REMARK H PARENT 8 11
REMARK Flexibility Score: inf
ROOT
ATOM      1  C   UNL     1     -10.545  -5.504  -7.567  1.00  0.00    -0.003 A 
ATOM      2  C   UNL     1     -11.079  -5.009  -6.362  1.00  0.00     0.014 A 
ATOM      3  C   UNL     1     -10.554  -6.892  -7.797  1.00  0.00     0.014 A 
ATOM      4  C   UNL     1     -11.608  -5.886  -5.410  1.00  0.00     0.047 A 
ATOM      5  C   UNL     1     -11.084  -7.765  -6.842  1.00  0.00     0.047 A 
ATOM      6  C   UNL     1     -11.613  -7.264  -5.646  1.00  0.00     0.115 A 
ENDROOT
BRANCH   1   7
ATOM      7  C   UNL     1      -9.985  -4.575  -8.572  1.00  0.00     0.071 C 
ATOM      8  O   UNL     1      -8.815  -4.124  -8.446  1.00  0.00    -0.545 OA
ATOM      9  O   UNL     1     -10.741  -4.187  -9.672  1.00  0.00    -0.545 OA
ENDBRANCH   1   7
BRANCH   6  10
ATOM     10  O   UNL     1     -12.145  -8.124  -4.687  1.00  0.00    -0.508 OA
ATOM     11  H   UNL     1     -12.586  -8.998  -4.947  1.00  0.00     0.293 HD
ENDBRANCH   6  10
TORSDOF 2
ENDMDL
MODEL 6
REMARK VINA RESULT:    -4.497      1.904      2.831
REMARK INTER + INTRA:          -4.927
REMARK INTER:                  -4.891
REMARK INTRA:                  -0.036
REMARK UNBOUND:                -0.036
REMARK SMILES O=C([O-])c1ccc(O)cc1
REMARK SMILES IDX 4 1 5 2 10 3 6 4 9 5 7 6 2 7 1 8 3 9 8 10
REMARK H PARENT 8 11
REMARK Flexibility Score: inf
ROOT
ATOM      1  C   UNL     1     -13.126   0.839  -9.668  1.00  0.00    -0.003 A 
ATOM      2  C   UNL     1     -11.784   0.746  -9.256  1.00  0.00     0.014 A 
ATOM      3  C   UNL     1     -13.738  -0.283 -10.257  1.00  0.00     0.014 A 
ATOM      4  C   UNL     1     -11.071  -0.444  -9.431  1.00  0.00     0.047 A 
ATOM      5  C   UNL     1     -13.021  -1.471 -10.431  1.00  0.00     0.047 A 
ATOM      6  C   UNL     1     -11.685  -1.554 -10.017  1.00  0.00     0.115 A 
ENDROOT
BRANCH   1   7
ATOM      7  C   UNL     1     -13.878   2.099  -9.483  1.00  0.00     0.071 C 
ATOM      8  O   UNL     1     -15.125   2.134  -9.667  1.00  0.00    -0.545 OA
ATOM      9  O   UNL     1     -13.221   3.263  -9.101  1.00  0.00    -0.545 OA
ENDBRANCH   1   7
BRANCH   6  10
ATOM     10  O   UNL     1     -10.961  -2.733 -10.184  1.00  0.00    -0.508 OA
ATOM     11  H   UNL     1     -10.616  -3.018 -11.093  1.00  0.00     0.293 HD
ENDBRANCH   6  10
TORSDOF 2
ENDMDL
MODEL 7
REMARK VINA RESULT:    -4.345     15.105     16.643
REMARK INTER + INTRA:          -4.762
REMARK INTER:                  -4.727
REMARK INTRA:                  -0.035
REMARK UNBOUND:                -0.036
REMARK SMILES O=C([O-])c1ccc(O)cc1
REMARK SMILES IDX 4 1 5 2 10 3 6 4 9 5 7 6 2 7 1 8 3 9 8 10
REMARK H PARENT 8 11
REMARK Flexibility Score: inf
ROOT
ATOM      1  C   UNL     1     -12.365   5.543   5.656  1.00  0.00    -0.003 A 
ATOM      2  C   UNL     1     -12.759   6.011   6.923  1.00  0.00     0.014 A 
ATOM      3  C   UNL     1     -11.011   5.235   5.434  1.00  0.00     0.014 A 
ATOM      4  C   UNL     1     -11.816   6.167   7.945  1.00  0.00     0.047 A 
ATOM      5  C   UNL     1     -10.071   5.393   6.457  1.00  0.00     0.047 A 
ATOM      6  C   UNL     1     -10.472   5.859   7.716  1.00  0.00     0.115 A 
ENDROOT
BRANCH   1   7
ATOM      7  C   UNL     1     -13.364   5.380   4.578  1.00  0.00     0.071 C 
ATOM      8  O   UNL     1     -13.108   4.667   3.570  1.00  0.00    -0.545 OA
ATOM      9  O   UNL     1     -14.601   6.009   4.661  1.00  0.00    -0.545 OA
ENDBRANCH   1   7
BRANCH   6  10
ATOM     10  O   UNL     1      -9.545   6.019   8.743  1.00  0.00    -0.508 OA
ATOM     11  H   UNL     1      -9.837   6.215   9.694  1.00  0.00     0.293 HD
ENDBRANCH   6  10
TORSDOF 2
ENDMDL
MODEL 8
REMARK VINA RESULT:    -4.319      7.773      9.046
REMARK INTER + INTRA:          -4.733
REMARK INTER:                  -4.700
REMARK INTRA:                  -0.034
REMARK UNBOUND:                -0.036
REMARK SMILES O=C([O-])c1ccc(O)cc1
REMARK SMILES IDX 4 1 5 2 10 3 6 4 9 5 7 6 2 7 1 8 3 9 8 10
REMARK H PARENT 8 11
REMARK Flexibility Score: inf
ROOT
ATOM      1  C   UNL     1     -13.045  -6.364  -6.781  1.00  0.00    -0.003 A 
ATOM      2  C   UNL     1     -12.624  -5.951  -8.058  1.00  0.00     0.014 A 
ATOM      3  C   UNL     1     -12.201  -6.139  -5.679  1.00  0.00     0.014 A 
ATOM      4  C   UNL     1     -11.383  -5.328  -8.227  1.00  0.00     0.047 A 
ATOM      5  C   UNL     1     -10.961  -5.517  -5.852  1.00  0.00     0.047 A 
ATOM      6  C   UNL     1     -10.549  -5.109  -7.127  1.00  0.00     0.115 A 
ENDROOT
BRANCH   1   7
ATOM      7  C   UNL     1     -14.358  -7.023  -6.606  1.00  0.00     0.071 C 
ATOM      8  O   UNL     1     -14.987  -6.918  -5.518  1.00  0.00    -0.545 OA
ATOM      9  O   UNL     1     -14.917  -7.766  -7.638  1.00  0.00    -0.545 OA
ENDBRANCH   1   7
BRANCH   6  10
ATOM     10  O   UNL     1      -9.316  -4.486  -7.311  1.00  0.00    -0.508 OA
ATOM     11  H   UNL     1      -9.163  -3.828  -8.066  1.00  0.00     0.293 HD
ENDBRANCH   6  10
TORSDOF 2
ENDMDL
MODEL 9
REMARK VINA RESULT:    -4.247      5.236      6.646
REMARK INTER + INTRA:          -4.656
REMARK INTER:                  -4.624
REMARK INTRA:                  -0.032
REMARK UNBOUND:                -0.036
REMARK SMILES O=C([O-])c1ccc(O)cc1
REMARK SMILES IDX 4 1 5 2 10 3 6 4 9 5 7 6 2 7 1 8 3 9 8 10
REMARK H PARENT 8 11
REMARK Flexibility Score: inf
ROOT
ATOM      1  C   UNL     1     -10.376  -3.085  -9.104  1.00  0.00    -0.003 A 
ATOM      2  C   UNL     1     -10.133  -4.350  -9.671  1.00  0.00     0.014 A 
ATOM      3  C   UNL     1     -10.550  -2.984  -7.712  1.00  0.00     0.014 A 
ATOM      4  C   UNL     1     -10.067  -5.487  -8.860  1.00  0.00     0.047 A 
ATOM      5  C   UNL     1     -10.484  -4.123  -6.905  1.00  0.00     0.047 A 
ATOM      6  C   UNL     1     -10.241  -5.378  -7.478  1.00  0.00     0.115 A 
ENDROOT
BRANCH   1   7
ATOM      7  C   UNL     1     -10.446  -1.883  -9.964  1.00  0.00     0.071 C 
ATOM      8  O   UNL     1      -9.624  -1.720 -10.906  1.00  0.00    -0.545 OA
ATOM      9  O   UNL     1     -11.421  -0.917  -9.747  1.00  0.00    -0.545 OA
ENDBRANCH   1   7
BRANCH   6  10
ATOM     10  O   UNL     1     -10.172  -6.521  -6.684  1.00  0.00    -0.508 OA
ATOM     11  H   UNL     1     -10.732  -6.618  -5.844  1.00  0.00     0.293 HD
ENDBRANCH   6  10
TORSDOF 2
ENDMDL
