MODEL 1
REMARK VINA RESULT:    -4.524      0.000      0.000
REMARK INTER + INTRA:          -6.879
REMARK INTER:                  -6.111
REMARK INTRA:                  -0.768
REMARK UNBOUND:                -0.768
REMARK SMILES CC(=O)CCC=C(C)CCC=C(C)C
REMARK SMILES IDX 7 1 6 2 8 3 9 4 10 5 11 6 13 7 12 8 14 9 5 10 4 11 2 12 3 13
REMARK SMILES IDX 1 14
REMARK H PARENT
REMARK Flexibility Score: inf
ROOT
ATOM      1  C   UNL     1     181.919 186.613 193.196  1.00  0.00    -0.077 C 
ATOM      2  C   UNL     1     180.871 186.310 193.997  1.00  0.00    -0.028 C 
ATOM      3  C   UNL     1     182.350 185.701 192.070  1.00  0.00     0.039 C 
ENDROOT
BRANCH   1   4
ATOM      4  C   UNL     1     182.672 187.905 193.428  1.00  0.00     0.034 C 
BRANCH   4   5
ATOM      5  C   UNL     1     184.186 187.677 193.347  1.00  0.00     0.032 C 
BRANCH   5   6
ATOM      6  C   UNL     1     184.792 187.535 194.723  1.00  0.00    -0.028 C 
ATOM      7  C   UNL     1     185.162 185.086 194.405  1.00  0.00     0.039 C 
ATOM      8  C   UNL     1     185.239 186.360 195.213  1.00  0.00    -0.080 C 
ATOM      9  C   UNL     1     185.827 186.330 196.600  1.00  0.00     0.039 C 
ENDBRANCH   5   6
ENDBRANCH   4   5
ENDBRANCH   1   4
BRANCH   2  10
ATOM     10  C   UNL     1     180.061 185.042 193.901  1.00  0.00     0.035 C 
BRANCH  10  11
ATOM     11  C   UNL     1     178.974 185.009 194.980  1.00  0.00     0.079 C 
BRANCH  11  12
ATOM     12  C   UNL     1     178.022 183.868 194.742  1.00  0.00     0.130 C 
ATOM     13  O   UNL     1     176.919 183.884 195.267  1.00  0.00    -0.300 OA
ATOM     14  C   UNL     1     178.400 182.702 193.876  1.00  0.00     0.087 C 
ENDBRANCH  11  12
ENDBRANCH  10  11
ENDBRANCH   2  10
TORSDOF 6
ENDMDL
MODEL 2
REMARK VINA RESULT:    -4.514      7.898     11.331
REMARK INTER + INTRA:          -6.865
REMARK INTER:                  -6.374
REMARK INTRA:                  -0.492
REMARK UNBOUND:                -0.768
REMARK SMILES CC(=O)CCC=C(C)CCC=C(C)C
REMARK SMILES IDX 7 1 6 2 8 3 9 4 10 5 11 6 13 7 12 8 14 9 5 10 4 11 2 12 3 13
REMARK SMILES IDX 1 14
REMARK H PARENT
REMARK Flexibility Score: inf
ROOT
ATOM      1  C   UNL     1     191.066 186.212 193.532  1.00  0.00    -0.077 C 
ATOM      2  C   UNL     1     191.933 187.141 193.995  1.00  0.00    -0.028 C 
ATOM      3  C   UNL     1     191.430 184.745 193.467  1.00  0.00     0.039 C 
ENDROOT
BRANCH   1   4
ATOM      4  C   UNL     1     189.691 186.650 193.077  1.00  0.00     0.034 C 
BRANCH   4   5
ATOM      5  C   UNL     1     188.597 185.843 193.786  1.00  0.00     0.032 C 
BRANCH   5   6
ATOM      6  C   UNL     1     187.819 186.705 194.751  1.00  0.00    -0.028 C 
ATOM      7  C   UNL     1     187.078 184.717 196.068  1.00  0.00     0.039 C 
ATOM      8  C   UNL     1     187.125 186.202 195.793  1.00  0.00    -0.080 C 
ATOM      9  C   UNL     1     186.383 187.152 196.696  1.00  0.00     0.039 C 
ENDBRANCH   5   6
ENDBRANCH   4   5
ENDBRANCH   1   4
BRANCH   2  10
ATOM     10  C   UNL     1     193.343 186.847 194.442  1.00  0.00     0.035 C 
BRANCH  10  11
ATOM     11  C   UNL     1     193.813 187.881 195.470  1.00  0.00     0.079 C 
BRANCH  11  12
ATOM     12  C   UNL     1     194.814 188.825 194.856  1.00  0.00     0.130 C 
ATOM     13  O   UNL     1     195.997 188.714 195.137  1.00  0.00    -0.300 OA
ATOM     14  C   UNL     1     194.387 189.906 193.907  1.00  0.00     0.087 C 
ENDBRANCH  11  12
ENDBRANCH  10  11
ENDBRANCH   2  10
TORSDOF 6
ENDMDL
MODEL 3
REMARK VINA RESULT:    -4.500     10.436     11.936
REMARK INTER + INTRA:          -6.847
REMARK INTER:                  -6.187
REMARK INTRA:                  -0.660
REMARK UNBOUND:                -0.768
REMARK SMILES CC(=O)CCC=C(C)CCC=C(C)C
REMARK SMILES IDX 7 1 6 2 8 3 9 4 10 5 11 6 13 7 12 8 14 9 5 10 4 11 2 12 3 13
REMARK SMILES IDX 1 14
REMARK H PARENT
REMARK Flexibility Score: inf
ROOT
ATOM      1  C   UNL     1     187.536 178.202 199.553  1.00  0.00    -0.077 C 
ATOM      2  C   UNL     1     186.477 179.035 199.674  1.00  0.00    -0.028 C 
ATOM      3  C   UNL     1     187.411 176.846 198.896  1.00  0.00     0.039 C 
ENDROOT
BRANCH   1   4
ATOM      4  C   UNL     1     188.884 178.645 200.078  1.00  0.00     0.034 C 
BRANCH   4   5
ATOM      5  C   UNL     1     190.014 177.829 199.440  1.00  0.00     0.032 C 
BRANCH   5   6
ATOM      6  C   UNL     1     190.923 177.239 200.492  1.00  0.00    -0.028 C 
ATOM      7  C   UNL     1     192.251 176.002 198.776  1.00  0.00     0.039 C 
ATOM      8  C   UNL     1     191.944 176.407 200.199  1.00  0.00    -0.080 C 
ATOM      9  C   UNL     1     192.791 175.875 201.325  1.00  0.00     0.039 C 
ENDBRANCH   5   6
ENDBRANCH   4   5
ENDBRANCH   1   4
BRANCH   2  10
ATOM     10  C   UNL     1     185.074 178.705 199.231  1.00  0.00     0.035 C 
BRANCH  10  11
ATOM     11  C   UNL     1     184.171 178.440 200.439  1.00  0.00     0.079 C 
BRANCH  11  12
ATOM     12  C   UNL     1     184.049 176.962 200.700  1.00  0.00     0.130 C 
ATOM     13  O   UNL     1     184.511 176.492 201.728  1.00  0.00    -0.300 OA
ATOM     14  C   UNL     1     183.377 176.049 199.718  1.00  0.00     0.087 C 
ENDBRANCH  11  12
ENDBRANCH  10  11
ENDBRANCH   2  10
TORSDOF 6
ENDMDL
MODEL 4
REMARK VINA RESULT:    -4.468      6.344      8.635
REMARK INTER + INTRA:          -6.803
REMARK INTER:                  -6.271
REMARK INTRA:                  -0.532
REMARK UNBOUND:                -0.768
REMARK SMILES CC(=O)CCC=C(C)CCC=C(C)C
REMARK SMILES IDX 7 1 6 2 8 3 9 4 10 5 11 6 13 7 12 8 14 9 5 10 4 11 2 12 3 13
REMARK SMILES IDX 1 14
REMARK H PARENT
REMARK Flexibility Score: inf
ROOT
ATOM      1  C   UNL     1     189.633 185.824 193.548  1.00  0.00    -0.077 C 
ATOM      2  C   UNL     1     188.666 186.745 193.763  1.00  0.00    -0.028 C 
ATOM      3  C   UNL     1     189.435 184.365 193.895  1.00  0.00     0.039 C 
ENDROOT
BRANCH   1   4
ATOM      4  C   UNL     1     190.944 186.263 192.933  1.00  0.00     0.034 C 
BRANCH   4   5
ATOM      5  C   UNL     1     191.924 186.734 194.014  1.00  0.00     0.032 C 
BRANCH   5   6
ATOM      6  C   UNL     1     192.644 187.992 193.589  1.00  0.00    -0.028 C 
ATOM      7  C   UNL     1     194.046 187.993 195.655  1.00  0.00     0.039 C 
ATOM      8  C   UNL     1     193.611 188.572 194.330  1.00  0.00    -0.080 C 
ATOM      9  C   UNL     1     194.266 189.826 193.813  1.00  0.00     0.039 C 
ENDBRANCH   5   6
ENDBRANCH   4   5
ENDBRANCH   1   4
BRANCH   2  10
ATOM     10  C   UNL     1     187.332 186.452 194.403  1.00  0.00     0.035 C 
BRANCH  10  11
ATOM     11  C   UNL     1     187.248 187.081 195.796  1.00  0.00     0.079 C 
BRANCH  11  12
ATOM     12  C   UNL     1     186.877 186.046 196.826  1.00  0.00     0.130 C 
ATOM     13  O   UNL     1     187.130 184.870 196.616  1.00  0.00    -0.300 OA
ATOM     14  C   UNL     1     186.194 186.428 198.106  1.00  0.00     0.087 C 
ENDBRANCH  11  12
ENDBRANCH  10  11
ENDBRANCH   2  10
TORSDOF 6
ENDMDL
MODEL 5
REMARK VINA RESULT:    -4.373      2.714      6.348
REMARK INTER + INTRA:          -6.675
REMARK INTER:                  -6.096
REMARK INTRA:                  -0.579
REMARK UNBOUND:                -0.768
REMARK SMILES CC(=O)CCC=C(C)CCC=C(C)C
REMARK SMILES IDX 7 1 6 2 8 3 9 4 10 5 11 6 13 7 12 8 14 9 5 10 4 11 2 12 3 13
REMARK SMILES IDX 1 14
REMARK H PARENT
REMARK Flexibility Score: inf
ROOT
ATOM      1  C   UNL     1     182.133 187.076 193.607  1.00  0.00    -0.077 C 
ATOM      2  C   UNL     1     182.990 186.032 193.678  1.00  0.00    -0.028 C 
ATOM      3  C   UNL     1     182.620 188.496 193.423  1.00  0.00     0.039 C 
ENDROOT
BRANCH   1   4
ATOM      4  C   UNL     1     180.645 186.815 193.702  1.00  0.00     0.034 C 
BRANCH   4   5
ATOM      5  C   UNL     1     180.370 185.350 194.061  1.00  0.00     0.032 C 
BRANCH   5   6
ATOM      6  C   UNL     1     179.086 185.210 194.844  1.00  0.00    -0.028 C 
ATOM      7  C   UNL     1     178.570 183.014 193.775  1.00  0.00     0.039 C 
ATOM      8  C   UNL     1     178.260 184.151 194.720  1.00  0.00    -0.080 C 
ATOM      9  C   UNL     1     177.004 184.111 195.550  1.00  0.00     0.039 C 
ENDBRANCH   5   6
ENDBRANCH   4   5
ENDBRANCH   1   4
BRANCH   2  10
ATOM     10  C   UNL     1     184.493 186.155 193.637  1.00  0.00     0.035 C 
BRANCH  10  11
ATOM     11  C   UNL     1     185.119 185.590 194.915  1.00  0.00     0.079 C 
BRANCH  11  12
ATOM     12  C   UNL     1     185.578 186.703 195.820  1.00  0.00     0.130 C 
ATOM     13  O   UNL     1     185.640 187.843 195.388  1.00  0.00    -0.300 OA
ATOM     14  C   UNL     1     185.971 186.440 197.244  1.00  0.00     0.087 C 
ENDBRANCH  11  12
ENDBRANCH  10  11
ENDBRANCH   2  10
TORSDOF 6
ENDMDL
MODEL 6
REMARK VINA RESULT:    -4.275      1.807      3.555
REMARK INTER + INTRA:          -6.543
REMARK INTER:                  -5.655
REMARK INTRA:                  -0.888
REMARK UNBOUND:                -0.768
REMARK SMILES CC(=O)CCC=C(C)CCC=C(C)C
REMARK SMILES IDX 7 1 6 2 8 3 9 4 10 5 11 6 13 7 12 8 14 9 5 10 4 11 2 12 3 13
REMARK SMILES IDX 1 14
REMARK H PARENT
REMARK Flexibility Score: inf
ROOT
ATOM      1  C   UNL     1     182.286 186.181 192.754  1.00  0.00    -0.077 C 
ATOM      2  C   UNL     1     181.353 185.994 193.715  1.00  0.00    -0.028 C 
ATOM      3  C   UNL     1     182.212 185.468 191.423  1.00  0.00     0.039 C 
ENDROOT
BRANCH   1   4
ATOM      4  C   UNL     1     183.429 187.138 193.014  1.00  0.00     0.034 C 
BRANCH   4   5
ATOM      5  C   UNL     1     182.909 188.478 193.547  1.00  0.00     0.032 C 
BRANCH   5   6
ATOM      6  C   UNL     1     182.282 189.299 192.446  1.00  0.00    -0.028 C 
ATOM      7  C   UNL     1     180.163 189.575 193.739  1.00  0.00     0.039 C 
ATOM      8  C   UNL     1     181.032 189.802 192.525  1.00  0.00    -0.080 C 
ATOM      9  C   UNL     1     180.502 190.609 191.368  1.00  0.00     0.039 C 
ENDBRANCH   5   6
ENDBRANCH   4   5
ENDBRANCH   1   4
BRANCH   2  10
ATOM     10  C   UNL     1     180.188 185.043 193.603  1.00  0.00     0.035 C 
BRANCH  10  11
ATOM     11  C   UNL     1     179.176 185.289 194.726  1.00  0.00     0.079 C 
BRANCH  11  12
ATOM     12  C   UNL     1     178.221 184.131 194.845  1.00  0.00     0.130 C 
ATOM     13  O   UNL     1     177.289 184.199 195.631  1.00  0.00    -0.300 OA
ATOM     14  C   UNL     1     178.393 182.889 194.022  1.00  0.00     0.087 C 
ENDBRANCH  11  12
ENDBRANCH  10  11
ENDBRANCH   2  10
TORSDOF 6
ENDMDL
MODEL 7
REMARK VINA RESULT:    -4.119      9.148     11.749
REMARK INTER + INTRA:          -6.332
REMARK INTER:                  -5.873
REMARK INTRA:                  -0.459
REMARK UNBOUND:                -0.768
REMARK SMILES CC(=O)CCC=C(C)CCC=C(C)C
REMARK SMILES IDX 7 1 6 2 8 3 9 4 10 5 11 6 13 7 12 8 14 9 5 10 4 11 2 12 3 13
REMARK SMILES IDX 1 14
REMARK H PARENT
REMARK Flexibility Score: inf
ROOT
ATOM      1  C   UNL     1     190.892 184.895 193.475  1.00  0.00    -0.077 C 
ATOM      2  C   UNL     1     191.956 184.074 193.321  1.00  0.00    -0.028 C 
ATOM      3  C   UNL     1     189.496 184.357 193.697  1.00  0.00     0.039 C 
ENDROOT
BRANCH   1   4
ATOM      4  C   UNL     1     191.106 186.393 193.437  1.00  0.00     0.034 C 
BRANCH   4   5
ATOM      5  C   UNL     1     192.366 186.785 194.218  1.00  0.00     0.032 C 
BRANCH   5   6
ATOM      6  C   UNL     1     192.933 188.094 193.721  1.00  0.00    -0.028 C 
ATOM      7  C   UNL     1     194.350 188.356 195.760  1.00  0.00     0.039 C 
ATOM      8  C   UNL     1     193.836 188.816 194.416  1.00  0.00    -0.080 C 
ATOM      9  C   UNL     1     194.337 190.109 193.828  1.00  0.00     0.039 C 
ENDBRANCH   5   6
ENDBRANCH   4   5
ENDBRANCH   1   4
BRANCH   2  10
ATOM     10  C   UNL     1     191.878 182.568 193.300  1.00  0.00     0.035 C 
BRANCH  10  11
ATOM     11  C   UNL     1     192.444 182.014 191.989  1.00  0.00     0.079 C 
BRANCH  11  12
ATOM     12  C   UNL     1     193.730 181.271 192.237  1.00  0.00     0.130 C 
ATOM     13  O   UNL     1     194.291 181.381 193.316  1.00  0.00    -0.300 OA
ATOM     14  C   UNL     1     194.344 180.399 191.181  1.00  0.00     0.087 C 
ENDBRANCH  11  12
ENDBRANCH  10  11
ENDBRANCH   2  10
TORSDOF 6
ENDMDL
MODEL 8
REMARK VINA RESULT:    -4.084      9.293     11.631
REMARK INTER + INTRA:          -6.284
REMARK INTER:                  -5.095
REMARK INTRA:                  -1.190
REMARK UNBOUND:                -0.768
REMARK SMILES CC(=O)CCC=C(C)CCC=C(C)C
REMARK SMILES IDX 7 1 6 2 8 3 9 4 10 5 11 6 13 7 12 8 14 9 5 10 4 11 2 12 3 13
REMARK SMILES IDX 1 14
REMARK H PARENT
REMARK Flexibility Score: inf
ROOT
ATOM      1  C   UNL     1     186.673 178.214 197.805  1.00  0.00    -0.077 C 
ATOM      2  C   UNL     1     187.563 177.694 198.681  1.00  0.00    -0.028 C 
ATOM      3  C   UNL     1     186.726 179.664 197.381  1.00  0.00     0.039 C 
ENDROOT
BRANCH   1   4
ATOM      4  C   UNL     1     185.602 177.316 197.225  1.00  0.00     0.034 C 
BRANCH   4   5
ATOM      5  C   UNL     1     184.279 177.485 197.981  1.00  0.00     0.032 C 
BRANCH   5   6
ATOM      6  C   UNL     1     184.228 176.596 199.201  1.00  0.00    -0.028 C 
ATOM      7  C   UNL     1     184.345 178.558 200.743  1.00  0.00     0.039 C 
ATOM      8  C   UNL     1     184.258 177.076 200.462  1.00  0.00    -0.080 C 
ATOM      9  C   UNL     1     184.202 176.101 201.610  1.00  0.00     0.039 C 
ENDBRANCH   5   6
ENDBRANCH   4   5
ENDBRANCH   1   4
BRANCH   2  10
ATOM     10  C   UNL     1     188.654 178.484 199.361  1.00  0.00     0.035 C 
BRANCH  10  11
ATOM     11  C   UNL     1     188.349 178.656 200.852  1.00  0.00     0.079 C 
BRANCH  11  12
ATOM     12  C   UNL     1     188.523 180.093 201.268  1.00  0.00     0.130 C 
ATOM     13  O   UNL     1     188.589 180.373 202.455  1.00  0.00    -0.300 OA
ATOM     14  C   UNL     1     188.610 181.195 200.253  1.00  0.00     0.087 C 
ENDBRANCH  11  12
ENDBRANCH  10  11
ENDBRANCH   2  10
TORSDOF 6
ENDMDL
MODEL 9
REMARK VINA RESULT:    -3.946     11.134     13.560
REMARK INTER + INTRA:          -6.099
REMARK INTER:                  -5.293
REMARK INTRA:                  -0.806
REMARK UNBOUND:                -0.768
REMARK SMILES CC(=O)CCC=C(C)CCC=C(C)C
REMARK SMILES IDX 7 1 6 2 8 3 9 4 10 5 11 6 13 7 12 8 14 9 5 10 4 11 2 12 3 13
REMARK SMILES IDX 1 14
REMARK H PARENT
REMARK Flexibility Score: inf
ROOT
ATOM      1  C   UNL     1     191.891 176.580 199.870  1.00  0.00    -0.077 C 
ATOM      2  C   UNL     1     190.725 177.139 199.471  1.00  0.00    -0.028 C 
ATOM      3  C   UNL     1     192.346 176.632 201.311  1.00  0.00     0.039 C 
ENDROOT
BRANCH   1   4
ATOM      4  C   UNL     1     192.757 175.875 198.849  1.00  0.00     0.034 C 
BRANCH   4   5
ATOM      5  C   UNL     1     192.352 176.269 197.424  1.00  0.00     0.032 C 
BRANCH   5   6
ATOM      6  C   UNL     1     193.477 176.984 196.714  1.00  0.00    -0.028 C 
ATOM      7  C   UNL     1     192.336 179.193 196.942  1.00  0.00     0.039 C 
ATOM      8  C   UNL     1     193.478 178.315 196.490  1.00  0.00    -0.080 C 
ATOM      9  C   UNL     1     194.652 178.928 195.771  1.00  0.00     0.039 C 
ENDBRANCH   5   6
ENDBRANCH   4   5
ENDBRANCH   1   4
BRANCH   2  10
ATOM     10  C   UNL     1     189.789 177.902 200.373  1.00  0.00     0.035 C 
BRANCH  10  11
ATOM     11  C   UNL     1     189.096 179.032 199.606  1.00  0.00     0.079 C 
BRANCH  11  12
ATOM     12  C   UNL     1     188.125 179.762 200.496  1.00  0.00     0.130 C 
ATOM     13  O   UNL     1     186.926 179.570 200.365  1.00  0.00    -0.300 OA
ATOM     14  C   UNL     1     188.599 180.730 201.541  1.00  0.00     0.087 C 
ENDBRANCH  11  12
ENDBRANCH  10  11
ENDBRANCH   2  10
TORSDOF 6
ENDMDL
