MODEL 1
REMARK VINA RESULT:    -6.588      0.000      0.000
REMARK INTER + INTRA:          -6.588
REMARK INTER:                  -6.588
REMARK INTRA:                   0.000
REMARK UNBOUND:                 0.000
REMARK SMILES O=c1ccc2ccccc2o1
REMARK SMILES IDX 7 1 8 2 9 3 10 4 5 5 6 6 4 7 3 8 2 9 1 10 11 11
REMARK H PARENT
REMARK Flexibility Score: inf
ROOT
ATOM      1  C   UNL     1     -20.027  -6.840  12.509  1.00  0.00     0.001 A 
ATOM      2  C   UNL     1     -18.914  -6.495  11.736  1.00  0.00     0.004 A 
ATOM      3  C   UNL     1     -18.349  -7.429  10.859  1.00  0.00     0.048 A 
ATOM      4  C   UNL     1     -18.899  -8.711  10.753  1.00  0.00     0.138 A 
ATOM      5  C   UNL     1     -20.023  -9.060  11.535  1.00  0.00     0.018 A 
ATOM      6  C   UNL     1     -20.584  -8.119  12.412  1.00  0.00     0.012 A 
ATOM      7  C   UNL     1     -20.549 -10.348  11.409  1.00  0.00     0.019 A 
ATOM      8  C   UNL     1     -19.955 -11.246  10.522  1.00  0.00     0.094 A 
ATOM      9  C   UNL     1     -18.844 -10.832   9.780  1.00  0.00     0.336 A 
ATOM     10  O   UNL     1     -18.293 -11.628   8.975  1.00  0.00    -0.246 OA
ATOM     11  O   UNL     1     -18.362  -9.599   9.920  1.00  0.00    -0.423 OA
ENDROOT
TORSDOF 0
ENDMDL
MODEL 2
REMARK VINA RESULT:    -6.219      1.579      2.325
REMARK INTER + INTRA:          -6.219
REMARK INTER:                  -6.219
REMARK INTRA:                   0.000
REMARK UNBOUND:                 0.000
REMARK SMILES O=c1ccc2ccccc2o1
REMARK SMILES IDX 7 1 8 2 9 3 10 4 5 5 6 6 4 7 3 8 2 9 1 10 11 11
REMARK H PARENT
REMARK Flexibility Score: inf
ROOT
ATOM      1  C   UNL     1     -18.171  -6.497  11.481  1.00  0.00     0.001 A 
ATOM      2  C   UNL     1     -19.264  -6.452  12.354  1.00  0.00     0.004 A 
ATOM      3  C   UNL     1     -20.142  -7.538  12.438  1.00  0.00     0.048 A 
ATOM      4  C   UNL     1     -19.929  -8.674  11.649  1.00  0.00     0.138 A 
ATOM      5  C   UNL     1     -18.826  -8.720  10.768  1.00  0.00     0.018 A 
ATOM      6  C   UNL     1     -17.949  -7.627  10.688  1.00  0.00     0.012 A 
ATOM      7  C   UNL     1     -18.639  -9.867   9.992  1.00  0.00     0.019 A 
ATOM      8  C   UNL     1     -19.538 -10.926  10.109  1.00  0.00     0.094 A 
ATOM      9  C   UNL     1     -20.608 -10.811  11.004  1.00  0.00     0.336 A 
ATOM     10  O   UNL     1     -21.432 -11.756  11.123  1.00  0.00    -0.246 OA
ATOM     11  O   UNL     1     -20.764  -9.708  11.730  1.00  0.00    -0.423 OA
ENDROOT
TORSDOF 0
ENDMDL
MODEL 3
REMARK VINA RESULT:    -5.903      1.942      4.334
REMARK INTER + INTRA:          -5.903
REMARK INTER:                  -5.903
REMARK INTRA:                   0.000
REMARK UNBOUND:                 0.000
REMARK SMILES O=c1ccc2ccccc2o1
REMARK SMILES IDX 7 1 8 2 9 3 10 4 5 5 6 6 4 7 3 8 2 9 1 10 11 11
REMARK H PARENT
REMARK Flexibility Score: inf
ROOT
ATOM      1  C   UNL     1     -19.123 -11.376   9.804  1.00  0.00     0.001 A 
ATOM      2  C   UNL     1     -20.375 -11.388  10.428  1.00  0.00     0.004 A 
ATOM      3  C   UNL     1     -20.847 -10.242  11.079  1.00  0.00     0.048 A 
ATOM      4  C   UNL     1     -20.067  -9.081  11.106  1.00  0.00     0.138 A 
ATOM      5  C   UNL     1     -18.803  -9.069  10.476  1.00  0.00     0.018 A 
ATOM      6  C   UNL     1     -18.336 -10.221   9.825  1.00  0.00     0.012 A 
ATOM      7  C   UNL     1     -18.046  -7.895  10.520  1.00  0.00     0.019 A 
ATOM      8  C   UNL     1     -18.556  -6.777  11.179  1.00  0.00     0.094 A 
ATOM      9  C   UNL     1     -19.817  -6.861  11.782  1.00  0.00     0.336 A 
ATOM     10  O   UNL     1     -20.294  -5.863  12.383  1.00  0.00    -0.246 OA
ATOM     11  O   UNL     1     -20.516  -7.991  11.725  1.00  0.00    -0.423 OA
ENDROOT
TORSDOF 0
ENDMDL
MODEL 4
REMARK VINA RESULT:    -5.874      1.466      3.774
REMARK INTER + INTRA:          -5.874
REMARK INTER:                  -5.874
REMARK INTRA:                   0.000
REMARK UNBOUND:                 0.000
REMARK SMILES O=c1ccc2ccccc2o1
REMARK SMILES IDX 7 1 8 2 9 3 10 4 5 5 6 6 4 7 3 8 2 9 1 10 11 11
REMARK H PARENT
REMARK Flexibility Score: inf
ROOT
ATOM      1  C   UNL     1     -20.264 -11.492  10.265  1.00  0.00     0.001 A 
ATOM      2  C   UNL     1     -19.049 -11.287   9.603  1.00  0.00     0.004 A 
ATOM      3  C   UNL     1     -18.295 -10.135   9.857  1.00  0.00     0.048 A 
ATOM      4  C   UNL     1     -18.755  -9.185  10.776  1.00  0.00     0.138 A 
ATOM      5  C   UNL     1     -19.982  -9.393  11.444  1.00  0.00     0.018 A 
ATOM      6  C   UNL     1     -20.733 -10.549  11.185  1.00  0.00     0.012 A 
ATOM      7  C   UNL     1     -20.417  -8.426  12.356  1.00  0.00     0.019 A 
ATOM      8  C   UNL     1     -19.633  -7.295  12.578  1.00  0.00     0.094 A 
ATOM      9  C   UNL     1     -18.428  -7.156  11.881  1.00  0.00     0.336 A 
ATOM     10  O   UNL     1     -17.708  -6.140  12.067  1.00  0.00    -0.246 OA
ATOM     11  O   UNL     1     -18.038  -8.090  11.018  1.00  0.00    -0.423 OA
ENDROOT
TORSDOF 0
ENDMDL
MODEL 5
REMARK VINA RESULT:    -3.903      1.951      2.618
REMARK INTER + INTRA:          -3.903
REMARK INTER:                  -3.903
REMARK INTRA:                   0.000
REMARK UNBOUND:                 0.000
REMARK SMILES O=c1ccc2ccccc2o1
REMARK SMILES IDX 7 1 8 2 9 3 10 4 5 5 6 6 4 7 3 8 2 9 1 10 11 11
REMARK H PARENT
REMARK Flexibility Score: inf
ROOT
ATOM      1  C   UNL     1     -19.217  -9.774  13.304  1.00  0.00     0.001 A 
ATOM      2  C   UNL     1     -20.146  -8.743  13.132  1.00  0.00     0.004 A 
ATOM      3  C   UNL     1     -20.610  -8.420  11.851  1.00  0.00     0.048 A 
ATOM      4  C   UNL     1     -20.146  -9.130  10.738  1.00  0.00     0.138 A 
ATOM      5  C   UNL     1     -19.207 -10.172  10.912  1.00  0.00     0.018 A 
ATOM      6  C   UNL     1     -18.746 -10.490  12.198  1.00  0.00     0.012 A 
ATOM      7  C   UNL     1     -18.761 -10.862   9.782  1.00  0.00     0.019 A 
ATOM      8  C   UNL     1     -19.251 -10.507   8.525  1.00  0.00     0.094 A 
ATOM      9  C   UNL     1     -20.180  -9.465   8.429  1.00  0.00     0.336 A 
ATOM     10  O   UNL     1     -20.633  -9.129   7.303  1.00  0.00    -0.246 OA
ATOM     11  O   UNL     1     -20.588  -8.824   9.521  1.00  0.00    -0.423 OA
ENDROOT
TORSDOF 0
ENDMDL
MODEL 6
REMARK VINA RESULT:    -3.683      2.063      3.550
REMARK INTER + INTRA:          -3.683
REMARK INTER:                  -3.683
REMARK INTRA:                   0.000
REMARK UNBOUND:                 0.000
REMARK SMILES O=c1ccc2ccccc2o1
REMARK SMILES IDX 7 1 8 2 9 3 10 4 5 5 6 6 4 7 3 8 2 9 1 10 11 11
REMARK H PARENT
REMARK Flexibility Score: inf
ROOT
ATOM      1  C   UNL     1     -19.927  -9.397   8.298  1.00  0.00     0.001 A 
ATOM      2  C   UNL     1     -19.093 -10.517   8.360  1.00  0.00     0.004 A 
ATOM      3  C   UNL     1     -18.680 -11.020   9.599  1.00  0.00     0.048 A 
ATOM      4  C   UNL     1     -19.103 -10.402  10.781  1.00  0.00     0.138 A 
ATOM      5  C   UNL     1     -19.946  -9.270  10.719  1.00  0.00     0.018 A 
ATOM      6  C   UNL     1     -20.356  -8.771   9.473  1.00  0.00     0.012 A 
ATOM      7  C   UNL     1     -20.352  -8.674  11.916  1.00  0.00     0.019 A 
ATOM      8  C   UNL     1     -19.917  -9.209  13.128  1.00  0.00     0.094 A 
ATOM      9  C   UNL     1     -19.083 -10.333  13.114  1.00  0.00     0.336 A 
ATOM     10  O   UNL     1     -18.679 -10.830  14.198  1.00  0.00    -0.246 OA
ATOM     11  O   UNL     1     -18.711 -10.881  11.960  1.00  0.00    -0.423 OA
ENDROOT
TORSDOF 0
ENDMDL
