MODEL 1
REMARK VINA RESULT:    -7.381      0.000      0.000
REMARK INTER + INTRA:         -13.930
REMARK INTER:                 -11.696
REMARK INTRA:                  -2.233
REMARK UNBOUND:                -2.233
REMARK SMILES C[C@H]1O[C@@H](O[C@@H]2[C@H](Oc3cc(O)c4c(c3)O[C@H](c3ccc(O)cc3)CC4=O)O[C@H](CO)[C@H](O)[C@@H]2O)[C@H](O)[C@@H](O)[C@@H]1O
REMARK SMILES IDX 6 1 34 2 32 3 29 4 28 5 7 6 5 7 4 8 1 9 2 10 40 11 3 12
REMARK SMILES IDX 38 13 36 14 41 15 39 17 37 19 35 21 8 23 9 24 10 25 15 26
REMARK SMILES IDX 11 27 14 28 13 29 16 30 26 31 17 32 27 33 25 34 12 35 18 37
REMARK SMILES IDX 19 38 24 39 20 40 23 41 21 42 22 43 33 45 30 47 31 48
REMARK H PARENT 41 16 39 18 37 20 35 22 12 36 22 44 33 46 31 49
REMARK Flexibility Score: inf
ROOT
ATOM      1  C   UNL     1      -6.130   5.372  -4.881  1.00  0.00     0.221 C 
ATOM      2  C   UNL     1      -5.489   3.952  -4.940  1.00  0.00     0.181 C 
ATOM      3  C   UNL     1      -6.470   3.015  -5.627  1.00  0.00     0.177 C 
ATOM      4  C   UNL     1      -7.801   2.979  -4.866  1.00  0.00     0.179 C 
ATOM      5  O   UNL     1      -8.397   4.265  -4.776  1.00  0.00    -0.332 OA
ATOM      6  C   UNL     1      -7.562   5.326  -4.295  1.00  0.00     0.339 C 
ENDROOT
BRANCH   1   7
ATOM      7  O   UNL     1      -5.325   6.193  -4.051  1.00  0.00    -0.337 OA
BRANCH   7   8
ATOM      8  C   UNL     1      -4.723   7.323  -4.694  1.00  0.00     0.282 C 
ATOM      9  C   UNL     1      -1.295   8.601  -4.236  1.00  0.00     0.041 C 
ATOM     10  C   UNL     1      -2.796   8.645  -4.557  1.00  0.00     0.150 C 
ATOM     11  C   UNL     1      -3.490   9.782  -3.806  1.00  0.00     0.174 C 
ATOM     12  O   UNL     1      -3.419   7.454  -4.138  1.00  0.00    -0.344 OA
ATOM     13  C   UNL     1      -4.884   9.919  -4.400  1.00  0.00     0.179 C 
ATOM     14  C   UNL     1      -5.645   8.571  -4.343  1.00  0.00     0.202 C 
BRANCH  11  15
ATOM     15  O   UNL     1      -2.807  11.003  -3.993  1.00  0.00    -0.388 OA
ATOM     16  H   UNL     1      -1.956  10.952  -3.473  1.00  0.00     0.211 HD
ENDBRANCH  11  15
BRANCH  13  17
ATOM     17  O   UNL     1      -5.643  10.877  -3.666  1.00  0.00    -0.387 OA
ATOM     18  H   UNL     1      -5.929  11.590  -4.299  1.00  0.00     0.211 HD
ENDBRANCH  13  17
BRANCH  14  19
ATOM     19  O   UNL     1      -6.771   8.685  -5.197  1.00  0.00    -0.385 OA
ATOM     20  H   UNL     1      -7.329   7.852  -5.147  1.00  0.00     0.211 HD
ENDBRANCH  14  19
ENDBRANCH   7   8
ENDBRANCH   1   7
BRANCH   2  21
ATOM     21  O   UNL     1      -5.198   3.550  -3.639  1.00  0.00    -0.387 OA
ATOM     22  H   UNL     1      -6.051   3.524  -3.129  1.00  0.00     0.211 HD
ENDBRANCH   2  21
BRANCH   6  23
ATOM     23  O   UNL     1      -7.480   5.332  -2.864  1.00  0.00    -0.462 OA
BRANCH  23  24
ATOM     24  C   UNL     1      -8.136   6.210  -1.997  1.00  0.00     0.130 A 
ATOM     25  C   UNL     1      -8.993   5.750  -0.970  1.00  0.00     0.093 A 
ATOM     26  C   UNL     1      -7.846   7.587  -2.108  1.00  0.00     0.094 A 
ATOM     27  C   UNL     1      -9.374   6.647   0.048  1.00  0.00     0.133 A 
ATOM     28  C   UNL     1      -8.261   8.470  -1.118  1.00  0.00     0.138 A 
ATOM     29  C   UNL     1      -8.975   7.992  -0.004  1.00  0.00     0.102 A 
ATOM     30  O   UNL     1      -7.883   9.796  -1.169  1.00  0.00    -0.484 OA
ATOM     31  C   UNL     1      -9.279   8.951   1.088  1.00  0.00     0.174 C 
ATOM     32  C   UNL     1      -7.685  10.609  -0.008  1.00  0.00     0.211 C 
ATOM     33  O   UNL     1     -10.041   8.628   2.045  1.00  0.00    -0.294 OA
ATOM     34  C   UNL     1      -8.748  10.340   1.074  1.00  0.00     0.131 C 
BRANCH  27  35
ATOM     35  O   UNL     1     -10.125   6.185   1.134  1.00  0.00    -0.507 OA
ATOM     36  H   UNL     1     -10.462   6.833   1.836  1.00  0.00     0.293 HD
ENDBRANCH  27  35
BRANCH  32  37
ATOM     37  C   UNL     1      -6.250  10.451   0.535  1.00  0.00    -0.007 A 
ATOM     38  C   UNL     1      -5.203  10.195  -0.383  1.00  0.00     0.011 A 
ATOM     39  C   UNL     1      -5.944  10.518   1.921  1.00  0.00     0.011 A 
ATOM     40  C   UNL     1      -3.903   9.952   0.082  1.00  0.00     0.046 A 
ATOM     41  C   UNL     1      -4.637  10.267   2.366  1.00  0.00     0.046 A 
ATOM     42  C   UNL     1      -3.608   9.962   1.468  1.00  0.00     0.115 A 
BRANCH  42  43
ATOM     43  O   UNL     1      -2.332   9.669   1.962  1.00  0.00    -0.508 OA
ATOM     44  H   UNL     1      -1.852  10.248   2.644  1.00  0.00     0.293 HD
ENDBRANCH  42  43
ENDBRANCH  32  37
ENDBRANCH  23  24
ENDBRANCH   6  23
BRANCH   3  45
ATOM     45  O   UNL     1      -5.936   1.730  -5.754  1.00  0.00    -0.387 OA
ATOM     46  H   UNL     1      -5.728   1.415  -4.826  1.00  0.00     0.211 HD
ENDBRANCH   3  45
BRANCH   4  47
ATOM     47  C   UNL     1      -7.772   2.236  -3.505  1.00  0.00     0.191 C 
BRANCH  47  48
ATOM     48  O   UNL     1      -8.833   1.337  -3.459  1.00  0.00    -0.394 OA
ATOM     49  H   UNL     1      -9.524   1.644  -4.129  1.00  0.00     0.210 HD
ENDBRANCH  47  48
ENDBRANCH   4  47
TORSDOF 14
ENDMDL
MODEL 2
REMARK VINA RESULT:    -7.187      3.260      8.608
REMARK INTER + INTRA:         -13.621
REMARK INTER:                 -12.345
REMARK INTRA:                  -1.276
REMARK UNBOUND:                -2.233
REMARK SMILES C[C@H]1O[C@@H](O[C@@H]2[C@H](Oc3cc(O)c4c(c3)O[C@H](c3ccc(O)cc3)CC4=O)O[C@H](CO)[C@H](O)[C@@H]2O)[C@H](O)[C@@H](O)[C@@H]1O
REMARK SMILES IDX 6 1 34 2 32 3 29 4 28 5 7 6 5 7 4 8 1 9 2 10 40 11 3 12
REMARK SMILES IDX 38 13 36 14 41 15 39 17 37 19 35 21 8 23 9 24 10 25 15 26
REMARK SMILES IDX 11 27 14 28 13 29 16 30 26 31 17 32 27 33 25 34 12 35 18 37
REMARK SMILES IDX 19 38 24 39 20 40 23 41 21 42 22 43 33 45 30 47 31 48
REMARK H PARENT 41 16 39 18 37 20 35 22 12 36 22 44 33 46 31 49
REMARK Flexibility Score: inf
ROOT
ATOM      1  C   UNL     1      -5.133   9.550   3.178  1.00  0.00     0.221 C 
ATOM      2  C   UNL     1      -3.701   9.191   2.675  1.00  0.00     0.181 C 
ATOM      3  C   UNL     1      -3.244  10.282   1.720  1.00  0.00     0.177 C 
ATOM      4  C   UNL     1      -4.218  10.406   0.542  1.00  0.00     0.179 C 
ATOM      5  O   UNL     1      -5.537  10.710   0.972  1.00  0.00    -0.332 OA
ATOM      6  C   UNL     1      -6.084   9.876   2.001  1.00  0.00     0.339 C 
ENDROOT
BRANCH   1   7
ATOM      7  O   UNL     1      -5.652   8.437   3.887  1.00  0.00    -0.337 OA
BRANCH   7   8
ATOM      8  C   UNL     1      -5.553   8.512   5.315  1.00  0.00     0.282 C 
ATOM      9  C   UNL     1      -2.632   7.685   7.407  1.00  0.00     0.041 C 
ATOM     10  C   UNL     1      -4.112   7.873   7.045  1.00  0.00     0.150 C 
ATOM     11  C   UNL     1      -4.938   6.647   7.435  1.00  0.00     0.174 C 
ATOM     12  O   UNL     1      -4.258   8.025   5.653  1.00  0.00    -0.344 OA
ATOM     13  C   UNL     1      -6.402   7.038   7.304  1.00  0.00     0.179 C 
ATOM     14  C   UNL     1      -6.706   7.575   5.883  1.00  0.00     0.202 C 
BRANCH  11  15
ATOM     15  O   UNL     1      -4.697   6.279   8.776  1.00  0.00    -0.388 OA
ATOM     16  H   UNL     1      -5.497   6.549   9.309  1.00  0.00     0.211 HD
ENDBRANCH  11  15
BRANCH  13  17
ATOM     17  O   UNL     1      -7.240   5.905   7.527  1.00  0.00    -0.387 OA
ATOM     18  H   UNL     1      -6.851   5.136   7.029  1.00  0.00     0.211 HD
ENDBRANCH  13  17
BRANCH  14  19
ATOM     19  O   UNL     1      -7.968   8.221   5.937  1.00  0.00    -0.385 OA
ATOM     20  H   UNL     1      -8.055   8.872   5.178  1.00  0.00     0.211 HD
ENDBRANCH  14  19
ENDBRANCH   7   8
ENDBRANCH   1   7
BRANCH   2  21
ATOM     21  O   UNL     1      -3.754   7.941   2.063  1.00  0.00    -0.387 OA
ATOM     22  H   UNL     1      -4.710   7.720   1.902  1.00  0.00     0.211 HD
ENDBRANCH   2  21
BRANCH   6  23
ATOM     23  O   UNL     1      -6.606   8.651   1.471  1.00  0.00    -0.462 OA
BRANCH  23  24
ATOM     24  C   UNL     1      -7.541   8.521   0.442  1.00  0.00     0.130 A 
ATOM     25  C   UNL     1      -7.919   9.614  -0.372  1.00  0.00     0.093 A 
ATOM     26  C   UNL     1      -8.043   7.232   0.164  1.00  0.00     0.094 A 
ATOM     27  C   UNL     1      -8.620   9.360  -1.568  1.00  0.00     0.133 A 
ATOM     28  C   UNL     1      -8.767   6.999  -0.999  1.00  0.00     0.138 A 
ATOM     29  C   UNL     1      -9.006   8.052  -1.900  1.00  0.00     0.102 A 
ATOM     30  O   UNL     1      -9.162   5.717  -1.326  1.00  0.00    -0.484 OA
ATOM     31  C   UNL     1      -9.669   7.725  -3.189  1.00  0.00     0.174 C 
ATOM     32  C   UNL     1      -9.317   5.255  -2.672  1.00  0.00     0.211 C 
ATOM     33  O   UNL     1     -10.045   8.640  -3.977  1.00  0.00    -0.294 OA
ATOM     34  C   UNL     1      -9.964   6.321  -3.578  1.00  0.00     0.131 C 
BRANCH  27  35
ATOM     35  O   UNL     1      -8.901  10.413  -2.444  1.00  0.00    -0.507 OA
ATOM     36  H   UNL     1      -9.433  11.216  -2.127  1.00  0.00     0.293 HD
ENDBRANCH  27  35
BRANCH  32  37
ATOM     37  C   UNL     1      -7.975   4.749  -3.237  1.00  0.00    -0.007 A 
ATOM     38  C   UNL     1      -7.109   5.679  -3.861  1.00  0.00     0.011 A 
ATOM     39  C   UNL     1      -7.589   3.382  -3.187  1.00  0.00     0.011 A 
ATOM     40  C   UNL     1      -5.925   5.239  -4.469  1.00  0.00     0.046 A 
ATOM     41  C   UNL     1      -6.402   2.962  -3.805  1.00  0.00     0.046 A 
ATOM     42  C   UNL     1      -5.567   3.868  -4.469  1.00  0.00     0.115 A 
BRANCH  42  43
ATOM     43  O   UNL     1      -4.420   3.396  -5.116  1.00  0.00    -0.508 OA
ATOM     44  H   UNL     1      -3.987   2.503  -4.901  1.00  0.00     0.293 HD
ENDBRANCH  42  43
ENDBRANCH  32  37
ENDBRANCH  23  24
ENDBRANCH   6  23
BRANCH   3  45
ATOM     45  O   UNL     1      -1.943  10.043   1.266  1.00  0.00    -0.387 OA
ATOM     46  H   UNL     1      -1.351  10.691   1.749  1.00  0.00     0.211 HD
ENDBRANCH   3  45
BRANCH   4  47
ATOM     47  C   UNL     1      -4.176   9.245  -0.485  1.00  0.00     0.191 C 
BRANCH  47  48
ATOM     48  O   UNL     1      -3.172   9.500  -1.413  1.00  0.00    -0.394 OA
ATOM     49  H   UNL     1      -3.490   9.163  -2.311  1.00  0.00     0.210 HD
ENDBRANCH  47  48
ENDBRANCH   4  47
TORSDOF 14
ENDMDL
MODEL 3
REMARK VINA RESULT:    -7.114      2.761      8.425
REMARK INTER + INTRA:         -13.506
REMARK INTER:                 -12.468
REMARK INTRA:                  -1.038
REMARK UNBOUND:                -2.233
REMARK SMILES C[C@H]1O[C@@H](O[C@@H]2[C@H](Oc3cc(O)c4c(c3)O[C@H](c3ccc(O)cc3)CC4=O)O[C@H](CO)[C@H](O)[C@@H]2O)[C@H](O)[C@@H](O)[C@@H]1O
REMARK SMILES IDX 6 1 34 2 32 3 29 4 28 5 7 6 5 7 4 8 1 9 2 10 40 11 3 12
REMARK SMILES IDX 38 13 36 14 41 15 39 17 37 19 35 21 8 23 9 24 10 25 15 26
REMARK SMILES IDX 11 27 14 28 13 29 16 30 26 31 17 32 27 33 25 34 12 35 18 37
REMARK SMILES IDX 19 38 24 39 20 40 23 41 21 42 22 43 33 45 30 47 31 48
REMARK H PARENT 41 16 39 18 37 20 35 22 12 36 22 44 33 46 31 49
REMARK Flexibility Score: inf
ROOT
ATOM      1  C   UNL     1      -5.183   9.281   2.573  1.00  0.00     0.221 C 
ATOM      2  C   UNL     1      -3.715   9.132   2.069  1.00  0.00     0.181 C 
ATOM      3  C   UNL     1      -3.386  10.334   1.198  1.00  0.00     0.177 C 
ATOM      4  C   UNL     1      -4.360  10.424   0.016  1.00  0.00     0.179 C 
ATOM      5  O   UNL     1      -5.709  10.536   0.446  1.00  0.00    -0.332 OA
ATOM      6  C   UNL     1      -6.158   9.572   1.407  1.00  0.00     0.339 C 
ENDROOT
BRANCH   1   7
ATOM      7  O   UNL     1      -5.568   8.066   3.196  1.00  0.00    -0.337 OA
BRANCH   7   8
ATOM      8  C   UNL     1      -5.487   8.051   4.626  1.00  0.00     0.282 C 
ATOM      9  C   UNL     1      -7.596   9.907   7.013  1.00  0.00     0.041 C 
ATOM     10  C   UNL     1      -6.347   9.190   6.481  1.00  0.00     0.150 C 
ATOM     11  C   UNL     1      -5.091  10.038   6.687  1.00  0.00     0.174 C 
ATOM     12  O   UNL     1      -6.461   8.979   5.093  1.00  0.00    -0.344 OA
ATOM     13  C   UNL     1      -3.898   9.140   6.398  1.00  0.00     0.179 C 
ATOM     14  C   UNL     1      -4.008   8.511   4.986  1.00  0.00     0.202 C 
BRANCH  11  15
ATOM     15  O   UNL     1      -4.995  10.485   8.022  1.00  0.00    -0.388 OA
ATOM     16  H   UNL     1      -5.722  10.037   8.541  1.00  0.00     0.211 HD
ENDBRANCH  11  15
BRANCH  13  17
ATOM     17  O   UNL     1      -2.688   9.893   6.444  1.00  0.00    -0.387 OA
ATOM     18  H   UNL     1      -2.798  10.683   5.847  1.00  0.00     0.211 HD
ENDBRANCH  13  17
BRANCH  14  19
ATOM     19  O   UNL     1      -3.067   7.452   4.921  1.00  0.00    -0.385 OA
ATOM     20  H   UNL     1      -2.430   7.509   5.696  1.00  0.00     0.211 HD
ENDBRANCH  14  19
ENDBRANCH   7   8
ENDBRANCH   1   7
BRANCH   2  21
ATOM     21  O   UNL     1      -3.613   7.931   1.371  1.00  0.00    -0.387 OA
ATOM     22  H   UNL     1      -4.057   8.050   0.490  1.00  0.00     0.211 HD
ENDBRANCH   2  21
BRANCH   6  23
ATOM     23  O   UNL     1      -6.525   8.333   0.786  1.00  0.00    -0.462 OA
BRANCH  23  24
ATOM     24  C   UNL     1      -7.486   8.155  -0.212  1.00  0.00     0.130 A 
ATOM     25  C   UNL     1      -7.918   9.219  -1.037  1.00  0.00     0.093 A 
ATOM     26  C   UNL     1      -7.959   6.847  -0.447  1.00  0.00     0.094 A 
ATOM     27  C   UNL     1      -8.646   8.920  -2.206  1.00  0.00     0.133 A 
ATOM     28  C   UNL     1      -8.710   6.568  -1.583  1.00  0.00     0.138 A 
ATOM     29  C   UNL     1      -9.005   7.594  -2.499  1.00  0.00     0.102 A 
ATOM     30  O   UNL     1      -9.078   5.269  -1.871  1.00  0.00    -0.484 OA
ATOM     31  C   UNL     1      -9.696   7.221  -3.760  1.00  0.00     0.174 C 
ATOM     32  C   UNL     1      -9.260   4.774  -3.201  1.00  0.00     0.211 C 
ATOM     33  O   UNL     1     -10.121   8.107  -4.556  1.00  0.00    -0.294 OA
ATOM     34  C   UNL     1      -9.963   5.801  -4.110  1.00  0.00     0.131 C 
BRANCH  27  35
ATOM     35  O   UNL     1      -8.982   9.945  -3.096  1.00  0.00    -0.507 OA
ATOM     36  H   UNL     1      -9.851   9.907  -3.616  1.00  0.00     0.293 HD
ENDBRANCH  27  35
BRANCH  32  37
ATOM     37  C   UNL     1      -7.921   4.292  -3.795  1.00  0.00    -0.007 A 
ATOM     38  C   UNL     1      -7.687   2.900  -3.897  1.00  0.00     0.011 A 
ATOM     39  C   UNL     1      -6.901   5.189  -4.212  1.00  0.00     0.011 A 
ATOM     40  C   UNL     1      -6.446   2.426  -4.343  1.00  0.00     0.046 A 
ATOM     41  C   UNL     1      -5.664   4.695  -4.653  1.00  0.00     0.046 A 
ATOM     42  C   UNL     1      -5.408   3.320  -4.706  1.00  0.00     0.115 A 
BRANCH  42  43
ATOM     43  O   UNL     1      -4.142   2.874  -5.102  1.00  0.00    -0.508 OA
ATOM     44  H   UNL     1      -3.303   3.013  -4.546  1.00  0.00     0.293 HD
ENDBRANCH  42  43
ENDBRANCH  32  37
ENDBRANCH  23  24
ENDBRANCH   6  23
BRANCH   3  45
ATOM     45  O   UNL     1      -2.063  10.286   0.749  1.00  0.00    -0.387 OA
ATOM     46  H   UNL     1      -2.105  10.212  -0.250  1.00  0.00     0.211 HD
ENDBRANCH   3  45
BRANCH   4  47
ATOM     47  C   UNL     1      -4.171   9.350  -1.087  1.00  0.00     0.191 C 
BRANCH  47  48
ATOM     48  O   UNL     1      -3.300   9.845  -2.053  1.00  0.00    -0.394 OA
ATOM     49  H   UNL     1      -3.070   9.086  -2.678  1.00  0.00     0.210 HD
ENDBRANCH  47  48
ENDBRANCH   4  47
TORSDOF 14
ENDMDL
MODEL 4
REMARK VINA RESULT:    -6.509      2.212      5.430
REMARK INTER + INTRA:         -12.548
REMARK INTER:                 -12.098
REMARK INTRA:                  -0.450
REMARK UNBOUND:                -2.233
REMARK SMILES C[C@H]1O[C@@H](O[C@@H]2[C@H](Oc3cc(O)c4c(c3)O[C@H](c3ccc(O)cc3)CC4=O)O[C@H](CO)[C@H](O)[C@@H]2O)[C@H](O)[C@@H](O)[C@@H]1O
REMARK SMILES IDX 6 1 34 2 32 3 29 4 28 5 7 6 5 7 4 8 1 9 2 10 40 11 3 12
REMARK SMILES IDX 38 13 36 14 41 15 39 17 37 19 35 21 8 23 9 24 10 25 15 26
REMARK SMILES IDX 11 27 14 28 13 29 16 30 26 31 17 32 27 33 25 34 12 35 18 37
REMARK SMILES IDX 19 38 24 39 20 40 23 41 21 42 22 43 33 45 30 47 31 48
REMARK H PARENT 41 16 39 18 37 20 35 22 12 36 22 44 33 46 31 49
REMARK Flexibility Score: inf
ROOT
ATOM      1  C   UNL     1      -5.848   7.196  -3.481  1.00  0.00     0.221 C 
ATOM      2  C   UNL     1      -7.017   7.623  -4.421  1.00  0.00     0.181 C 
ATOM      3  C   UNL     1      -6.905   9.118  -4.671  1.00  0.00     0.177 C 
ATOM      4  C   UNL     1      -6.962   9.890  -3.346  1.00  0.00     0.179 C 
ATOM      5  O   UNL     1      -5.921   9.503  -2.460  1.00  0.00    -0.332 OA
ATOM      6  C   UNL     1      -5.767   8.098  -2.227  1.00  0.00     0.339 C 
ENDROOT
BRANCH   1   7
ATOM      7  O   UNL     1      -6.072   5.858  -3.066  1.00  0.00    -0.337 OA
BRANCH   7   8
ATOM      8  C   UNL     1      -6.501   4.954  -4.093  1.00  0.00     0.282 C 
ATOM      9  C   UNL     1      -8.396   1.821  -3.672  1.00  0.00     0.041 C 
ATOM     10  C   UNL     1      -7.428   2.818  -4.324  1.00  0.00     0.150 C 
ATOM     11  C   UNL     1      -6.096   2.152  -4.668  1.00  0.00     0.174 C 
ATOM     12  O   UNL     1      -7.130   3.863  -3.429  1.00  0.00    -0.344 OA
ATOM     13  C   UNL     1      -5.328   3.125  -5.551  1.00  0.00     0.179 C 
ATOM     14  C   UNL     1      -5.182   4.503  -4.858  1.00  0.00     0.202 C 
BRANCH  11  15
ATOM     15  O   UNL     1      -6.299   0.959  -5.396  1.00  0.00    -0.388 OA
ATOM     16  H   UNL     1      -6.503   1.216  -6.340  1.00  0.00     0.211 HD
ENDBRANCH  11  15
BRANCH  13  17
ATOM     17  O   UNL     1      -4.017   2.629  -5.812  1.00  0.00    -0.387 OA
ATOM     18  H   UNL     1      -3.992   2.312  -6.755  1.00  0.00     0.211 HD
ENDBRANCH  13  17
BRANCH  14  19
ATOM     19  O   UNL     1      -4.771   5.431  -5.848  1.00  0.00    -0.385 OA
ATOM     20  H   UNL     1      -4.960   5.065  -6.764  1.00  0.00     0.211 HD
ENDBRANCH  14  19
ENDBRANCH   7   8
ENDBRANCH   1   7
BRANCH   2  21
ATOM     21  O   UNL     1      -8.218   7.279  -3.806  1.00  0.00    -0.387 OA
ATOM     22  H   UNL     1      -8.024   7.057  -2.857  1.00  0.00     0.211 HD
ENDBRANCH   2  21
BRANCH   6  23
ATOM     23  O   UNL     1      -6.696   7.616  -1.247  1.00  0.00    -0.462 OA
BRANCH  23  24
ATOM     24  C   UNL     1      -7.251   8.350  -0.196  1.00  0.00     0.130 A 
ATOM     25  C   UNL     1      -8.536   8.065   0.323  1.00  0.00     0.093 A 
ATOM     26  C   UNL     1      -6.452   9.342   0.412  1.00  0.00     0.094 A 
ATOM     27  C   UNL     1      -8.908   8.626   1.561  1.00  0.00     0.133 A 
ATOM     28  C   UNL     1      -6.847   9.919   1.613  1.00  0.00     0.138 A 
ATOM     29  C   UNL     1      -8.049   9.517   2.223  1.00  0.00     0.102 A 
ATOM     30  O   UNL     1      -6.014  10.806   2.264  1.00  0.00    -0.484 OA
ATOM     31  C   UNL     1      -8.361  10.065   3.569  1.00  0.00     0.174 C 
ATOM     32  C   UNL     1      -5.980  10.963   3.686  1.00  0.00     0.211 C 
ATOM     33  O   UNL     1      -9.487   9.864   4.108  1.00  0.00    -0.294 OA
ATOM     34  C   UNL     1      -7.389  10.914   4.308  1.00  0.00     0.131 C 
BRANCH  27  35
ATOM     35  O   UNL     1     -10.125   8.265   2.148  1.00  0.00    -0.507 OA
ATOM     36  H   UNL     1     -10.969   8.215   1.589  1.00  0.00     0.293 HD
ENDBRANCH  27  35
BRANCH  32  37
ATOM     37  C   UNL     1      -5.024   9.938   4.329  1.00  0.00    -0.007 A 
ATOM     38  C   UNL     1      -5.523   9.096   5.352  1.00  0.00     0.011 A 
ATOM     39  C   UNL     1      -3.657   9.828   3.959  1.00  0.00     0.011 A 
ATOM     40  C   UNL     1      -4.661   8.218   6.024  1.00  0.00     0.046 A 
ATOM     41  C   UNL     1      -2.810   8.946   4.646  1.00  0.00     0.046 A 
ATOM     42  C   UNL     1      -3.285   8.149   5.694  1.00  0.00     0.115 A 
BRANCH  42  43
ATOM     43  O   UNL     1      -2.392   7.322   6.386  1.00  0.00    -0.508 OA
ATOM     44  H   UNL     1      -2.689   6.620   7.057  1.00  0.00     0.293 HD
ENDBRANCH  42  43
ENDBRANCH  32  37
ENDBRANCH  23  24
ENDBRANCH   6  23
BRANCH   3  45
ATOM     45  O   UNL     1      -7.901   9.560  -5.546  1.00  0.00    -0.387 OA
ATOM     46  H   UNL     1      -8.773   9.439  -5.069  1.00  0.00     0.211 HD
ENDBRANCH   3  45
BRANCH   4  47
ATOM     47  C   UNL     1      -8.351   9.930  -2.657  1.00  0.00     0.191 C 
BRANCH  47  48
ATOM     48  O   UNL     1      -9.228  10.659  -3.453  1.00  0.00    -0.394 OA
ATOM     49  H   UNL     1      -9.503  10.070  -4.226  1.00  0.00     0.210 HD
ENDBRANCH  47  48
ENDBRANCH   4  47
TORSDOF 14
ENDMDL
MODEL 5
REMARK VINA RESULT:    -5.536      2.327      3.926
REMARK INTER + INTRA:         -11.005
REMARK INTER:                  -9.432
REMARK INTRA:                  -1.574
REMARK UNBOUND:                -2.233
REMARK SMILES C[C@H]1O[C@@H](O[C@@H]2[C@H](Oc3cc(O)c4c(c3)O[C@H](c3ccc(O)cc3)CC4=O)O[C@H](CO)[C@H](O)[C@@H]2O)[C@H](O)[C@@H](O)[C@@H]1O
REMARK SMILES IDX 6 1 34 2 32 3 29 4 28 5 7 6 5 7 4 8 1 9 2 10 40 11 3 12
REMARK SMILES IDX 38 13 36 14 41 15 39 17 37 19 35 21 8 23 9 24 10 25 15 26
REMARK SMILES IDX 11 27 14 28 13 29 16 30 26 31 17 32 27 33 25 34 12 35 18 37
REMARK SMILES IDX 19 38 24 39 20 40 23 41 21 42 22 43 33 45 30 47 31 48
REMARK H PARENT 41 16 39 18 37 20 35 22 12 36 22 44 33 46 31 49
REMARK Flexibility Score: inf
ROOT
ATOM      1  C   UNL     1      -5.530   9.202  -3.599  1.00  0.00     0.221 C 
ATOM      2  C   UNL     1      -4.717   7.963  -4.085  1.00  0.00     0.181 C 
ATOM      3  C   UNL     1      -5.659   7.045  -4.849  1.00  0.00     0.177 C 
ATOM      4  C   UNL     1      -6.828   6.612  -3.955  1.00  0.00     0.179 C 
ATOM      5  O   UNL     1      -7.572   7.724  -3.477  1.00  0.00    -0.332 OA
ATOM      6  C   UNL     1      -6.824   8.781  -2.864  1.00  0.00     0.339 C 
ENDROOT
BRANCH   1   7
ATOM      7  O   UNL     1      -4.719   9.946  -2.705  1.00  0.00    -0.337 OA
BRANCH   7   8
ATOM      8  C   UNL     1      -3.730  10.785  -3.315  1.00  0.00     0.282 C 
ATOM      9  C   UNL     1      -2.957  11.091  -6.906  1.00  0.00     0.041 C 
ATOM     10  C   UNL     1      -2.707  11.125  -5.392  1.00  0.00     0.150 C 
ATOM     11  C   UNL     1      -1.439  10.355  -5.023  1.00  0.00     0.174 C 
ATOM     12  O   UNL     1      -3.766  10.497  -4.709  1.00  0.00    -0.344 OA
ATOM     13  C   UNL     1      -1.127  10.684  -3.570  1.00  0.00     0.179 C 
ATOM     14  C   UNL     1      -2.341  10.371  -2.659  1.00  0.00     0.202 C 
BRANCH  11  15
ATOM     15  O   UNL     1      -0.346  10.769  -5.814  1.00  0.00    -0.388 OA
ATOM     16  H   UNL     1      -0.338  10.200  -6.635  1.00  0.00     0.211 HD
ENDBRANCH  11  15
BRANCH  13  17
ATOM     17  O   UNL     1      -0.027   9.902  -3.110  1.00  0.00    -0.387 OA
ATOM     18  H   UNL     1       0.627  10.518  -2.680  1.00  0.00     0.211 HD
ENDBRANCH  13  17
BRANCH  14  19
ATOM     19  O   UNL     1      -2.107  11.004  -1.412  1.00  0.00    -0.385 OA
ATOM     20  H   UNL     1      -1.159  10.847  -1.119  1.00  0.00     0.211 HD
ENDBRANCH  14  19
ENDBRANCH   7   8
ENDBRANCH   1   7
BRANCH   2  21
ATOM     21  O   UNL     1      -4.162   7.340  -2.971  1.00  0.00    -0.387 OA
ATOM     22  H   UNL     1      -4.181   6.359  -3.127  1.00  0.00     0.211 HD
ENDBRANCH   2  21
BRANCH   6  23
ATOM     23  O   UNL     1      -6.508   8.485  -1.497  1.00  0.00    -0.462 OA
BRANCH  23  24
ATOM     24  C   UNL     1      -7.199   8.930  -0.368  1.00  0.00     0.130 A 
ATOM     25  C   UNL     1      -8.445   8.382   0.015  1.00  0.00     0.093 A 
ATOM     26  C   UNL     1      -6.572   9.892   0.453  1.00  0.00     0.094 A 
ATOM     27  C   UNL     1      -8.937   8.650   1.308  1.00  0.00     0.133 A 
ATOM     28  C   UNL     1      -7.086  10.178   1.712  1.00  0.00     0.138 A 
ATOM     29  C   UNL     1      -8.238   9.512   2.169  1.00  0.00     0.102 A 
ATOM     30  O   UNL     1      -6.412  11.035   2.559  1.00  0.00    -0.484 OA
ATOM     31  C   UNL     1      -8.671   9.755   3.569  1.00  0.00     0.174 C 
ATOM     32  C   UNL     1      -6.449  10.930   3.986  1.00  0.00     0.211 C 
ATOM     33  O   UNL     1      -9.774   9.307   3.995  1.00  0.00    -0.294 OA
ATOM     34  C   UNL     1      -7.856  10.576   4.503  1.00  0.00     0.131 C 
BRANCH  27  35
ATOM     35  O   UNL     1     -10.108   8.026   1.748  1.00  0.00    -0.507 OA
ATOM     36  H   UNL     1     -10.916   8.579   2.012  1.00  0.00     0.293 HD
ENDBRANCH  27  35
BRANCH  32  37
ATOM     37  C   UNL     1      -5.378   9.942   4.492  1.00  0.00    -0.007 A 
ATOM     38  C   UNL     1      -5.674   9.143   5.622  1.00  0.00     0.011 A 
ATOM     39  C   UNL     1      -4.096   9.827   3.890  1.00  0.00     0.011 A 
ATOM     40  C   UNL     1      -4.693   8.303   6.167  1.00  0.00     0.046 A 
ATOM     41  C   UNL     1      -3.127   8.984   4.452  1.00  0.00     0.046 A 
ATOM     42  C   UNL     1      -3.395   8.231   5.601  1.00  0.00     0.115 A 
BRANCH  42  43
ATOM     43  O   UNL     1      -2.381   7.444   6.157  1.00  0.00    -0.508 OA
ATOM     44  H   UNL     1      -2.076   7.528   7.123  1.00  0.00     0.293 HD
ENDBRANCH  42  43
ENDBRANCH  32  37
ENDBRANCH  23  24
ENDBRANCH   6  23
BRANCH   3  45
ATOM     45  O   UNL     1      -4.981   5.932  -5.354  1.00  0.00    -0.387 OA
ATOM     46  H   UNL     1      -5.658   5.390  -5.855  1.00  0.00     0.211 HD
ENDBRANCH   3  45
BRANCH   4  47
ATOM     47  C   UNL     1      -6.471   5.604  -2.832  1.00  0.00     0.191 C 
BRANCH  47  48
ATOM     48  O   UNL     1      -6.308   4.342  -3.395  1.00  0.00    -0.394 OA
ATOM     49  H   UNL     1      -5.358   4.277  -3.733  1.00  0.00     0.210 HD
ENDBRANCH  47  48
ENDBRANCH   4  47
TORSDOF 14
ENDMDL
MODEL 6
REMARK VINA RESULT:    -5.398      1.604      2.067
REMARK INTER + INTRA:         -10.787
REMARK INTER:                  -8.677
REMARK INTRA:                  -2.110
REMARK UNBOUND:                -2.233
REMARK SMILES C[C@H]1O[C@@H](O[C@@H]2[C@H](Oc3cc(O)c4c(c3)O[C@H](c3ccc(O)cc3)CC4=O)O[C@H](CO)[C@H](O)[C@@H]2O)[C@H](O)[C@@H](O)[C@@H]1O
REMARK SMILES IDX 6 1 34 2 32 3 29 4 28 5 7 6 5 7 4 8 1 9 2 10 40 11 3 12
REMARK SMILES IDX 38 13 36 14 41 15 39 17 37 19 35 21 8 23 9 24 10 25 15 26
REMARK SMILES IDX 11 27 14 28 13 29 16 30 26 31 17 32 27 33 25 34 12 35 18 37
REMARK SMILES IDX 19 38 24 39 20 40 23 41 21 42 22 43 33 45 30 47 31 48
REMARK H PARENT 41 16 39 18 37 20 35 22 12 36 22 44 33 46 31 49
REMARK Flexibility Score: inf
ROOT
ATOM      1  C   UNL     1      -5.887   6.823  -4.244  1.00  0.00     0.221 C 
ATOM      2  C   UNL     1      -5.830   5.285  -4.497  1.00  0.00     0.181 C 
ATOM      3  C   UNL     1      -7.138   4.860  -5.145  1.00  0.00     0.177 C 
ATOM      4  C   UNL     1      -8.326   5.219  -4.243  1.00  0.00     0.179 C 
ATOM      5  O   UNL     1      -8.389   6.613  -3.976  1.00  0.00    -0.332 OA
ATOM      6  C   UNL     1      -7.184   7.230  -3.505  1.00  0.00     0.339 C 
ENDROOT
BRANCH   1   7
ATOM      7  O   UNL     1      -4.774   7.187  -3.444  1.00  0.00    -0.337 OA
BRANCH   7   8
ATOM      8  C   UNL     1      -4.088   8.380  -3.844  1.00  0.00     0.282 C 
ATOM      9  C   UNL     1      -0.562   8.704  -4.868  1.00  0.00     0.041 C 
ATOM     10  C   UNL     1      -1.918   9.133  -4.290  1.00  0.00     0.150 C 
ATOM     11  C   UNL     1      -1.750   9.813  -2.931  1.00  0.00     0.174 C 
ATOM     12  O   UNL     1      -2.733   8.006  -4.073  1.00  0.00    -0.344 OA
ATOM     13  C   UNL     1      -3.089  10.446  -2.584  1.00  0.00     0.179 C 
ATOM     14  C   UNL     1      -4.226   9.393  -2.625  1.00  0.00     0.202 C 
BRANCH  11  15
ATOM     15  O   UNL     1      -0.780  10.837  -2.993  1.00  0.00    -0.388 OA
ATOM     16  H   UNL     1       0.116  10.398  -3.028  1.00  0.00     0.211 HD
ENDBRANCH  11  15
BRANCH  13  17
ATOM     17  O   UNL     1      -3.053  10.992  -1.267  1.00  0.00    -0.387 OA
ATOM     18  H   UNL     1      -3.976  11.277  -1.029  1.00  0.00     0.211 HD
ENDBRANCH  13  17
BRANCH  14  19
ATOM     19  O   UNL     1      -5.455  10.100  -2.628  1.00  0.00    -0.385 OA
ATOM     20  H   UNL     1      -6.202   9.493  -2.341  1.00  0.00     0.211 HD
ENDBRANCH  14  19
ENDBRANCH   7   8
ENDBRANCH   1   7
BRANCH   2  21
ATOM     21  O   UNL     1      -5.615   4.650  -3.277  1.00  0.00    -0.387 OA
ATOM     22  H   UNL     1      -5.214   5.312  -2.653  1.00  0.00     0.211 HD
ENDBRANCH   2  21
BRANCH   6  23
ATOM     23  O   UNL     1      -7.000   7.032  -2.098  1.00  0.00    -0.462 OA
BRANCH  23  24
ATOM     24  C   UNL     1      -7.704   7.663  -1.069  1.00  0.00     0.130 A 
ATOM     25  C   UNL     1      -8.735   7.011  -0.355  1.00  0.00     0.093 A 
ATOM     26  C   UNL     1      -7.295   8.959  -0.687  1.00  0.00     0.094 A 
ATOM     27  C   UNL     1      -9.190   7.579   0.852  1.00  0.00     0.133 A 
ATOM     28  C   UNL     1      -7.779   9.528   0.485  1.00  0.00     0.138 A 
ATOM     29  C   UNL     1      -8.683   8.813   1.291  1.00  0.00     0.102 A 
ATOM     30  O   UNL     1      -7.295  10.746   0.916  1.00  0.00    -0.484 OA
ATOM     31  C   UNL     1      -9.068   9.407   2.597  1.00  0.00     0.174 C 
ATOM     32  C   UNL     1      -7.206  11.120   2.295  1.00  0.00     0.211 C 
ATOM     33  O   UNL     1      -9.984   8.893   3.301  1.00  0.00    -0.294 OA
ATOM     34  C   UNL     1      -8.433  10.654   3.101  1.00  0.00     0.131 C 
BRANCH  27  35
ATOM     35  O   UNL     1     -10.125   6.892   1.633  1.00  0.00    -0.507 OA
ATOM     36  H   UNL     1      -9.817   6.225   2.332  1.00  0.00     0.293 HD
ENDBRANCH  27  35
BRANCH  32  37
ATOM     37  C   UNL     1      -5.882  10.625   2.913  1.00  0.00    -0.007 A 
ATOM     38  C   UNL     1      -4.712  10.650   2.117  1.00  0.00     0.011 A 
ATOM     39  C   UNL     1      -5.799  10.114   4.236  1.00  0.00     0.011 A 
ATOM     40  C   UNL     1      -3.512  10.121   2.613  1.00  0.00     0.046 A 
ATOM     41  C   UNL     1      -4.590   9.586   4.712  1.00  0.00     0.046 A 
ATOM     42  C   UNL     1      -3.442   9.560   3.912  1.00  0.00     0.115 A 
BRANCH  42  43
ATOM     43  O   UNL     1      -2.272   8.975   4.410  1.00  0.00    -0.508 OA
ATOM     44  H   UNL     1      -1.456   8.785   3.836  1.00  0.00     0.293 HD
ENDBRANCH  42  43
ENDBRANCH  32  37
ENDBRANCH  23  24
ENDBRANCH   6  23
BRANCH   3  45
ATOM     45  O   UNL     1      -7.135   3.494  -5.442  1.00  0.00    -0.387 OA
ATOM     46  H   UNL     1      -6.339   3.104  -4.974  1.00  0.00     0.211 HD
ENDBRANCH   3  45
BRANCH   4  47
ATOM     47  C   UNL     1      -8.476   4.357  -2.962  1.00  0.00     0.191 C 
BRANCH  47  48
ATOM     48  O   UNL     1      -8.867   3.073  -3.327  1.00  0.00    -0.394 OA
ATOM     49  H   UNL     1      -8.471   2.878  -4.236  1.00  0.00     0.210 HD
ENDBRANCH  47  48
ENDBRANCH   4  47
TORSDOF 14
ENDMDL
MODEL 7
REMARK VINA RESULT:    -5.267      2.357      8.460
REMARK INTER + INTRA:         -10.579
REMARK INTER:                  -8.382
REMARK INTRA:                  -2.197
REMARK UNBOUND:                -2.233
REMARK SMILES C[C@H]1O[C@@H](O[C@@H]2[C@H](Oc3cc(O)c4c(c3)O[C@H](c3ccc(O)cc3)CC4=O)O[C@H](CO)[C@H](O)[C@@H]2O)[C@H](O)[C@@H](O)[C@@H]1O
REMARK SMILES IDX 6 1 34 2 32 3 29 4 28 5 7 6 5 7 4 8 1 9 2 10 40 11 3 12
REMARK SMILES IDX 38 13 36 14 41 15 39 17 37 19 35 21 8 23 9 24 10 25 15 26
REMARK SMILES IDX 11 27 14 28 13 29 16 30 26 31 17 32 27 33 25 34 12 35 18 37
REMARK SMILES IDX 19 38 24 39 20 40 23 41 21 42 22 43 33 45 30 47 31 48
REMARK H PARENT 41 16 39 18 37 20 35 22 12 36 22 44 33 46 31 49
REMARK Flexibility Score: inf
ROOT
ATOM      1  C   UNL     1      -6.200   9.694   3.144  1.00  0.00     0.221 C 
ATOM      2  C   UNL     1      -5.998   8.617   4.254  1.00  0.00     0.181 C 
ATOM      3  C   UNL     1      -5.616   9.329   5.543  1.00  0.00     0.177 C 
ATOM      4  C   UNL     1      -4.337  10.152   5.344  1.00  0.00     0.179 C 
ATOM      5  O   UNL     1      -4.485  11.125   4.320  1.00  0.00    -0.332 OA
ATOM      6  C   UNL     1      -4.996  10.662   3.064  1.00  0.00     0.339 C 
ENDROOT
BRANCH   1   7
ATOM      7  O   UNL     1      -6.335   9.031   1.897  1.00  0.00    -0.337 OA
BRANCH   7   8
ATOM      8  C   UNL     1      -7.680   8.772   1.475  1.00  0.00     0.282 C 
ATOM      9  C   UNL     1      -8.878   5.981  -0.612  1.00  0.00     0.041 C 
ATOM     10  C   UNL     1      -8.860   7.386   0.005  1.00  0.00     0.150 C 
ATOM     11  C   UNL     1      -9.016   8.464  -1.069  1.00  0.00     0.174 C 
ATOM     12  O   UNL     1      -7.623   7.627   0.632  1.00  0.00    -0.344 OA
ATOM     13  C   UNL     1      -9.271   9.778  -0.344  1.00  0.00     0.179 C 
ATOM     14  C   UNL     1      -8.148  10.070   0.683  1.00  0.00     0.202 C 
BRANCH  11  15
ATOM     15  O   UNL     1     -10.125   8.195  -1.900  1.00  0.00    -0.388 OA
ATOM     16  H   UNL     1     -10.943   8.235  -1.328  1.00  0.00     0.211 HD
ENDBRANCH  11  15
BRANCH  13  17
ATOM     17  O   UNL     1      -9.300  10.858  -1.274  1.00  0.00    -0.387 OA
ATOM     18  H   UNL     1      -8.522  10.756  -1.887  1.00  0.00     0.211 HD
ENDBRANCH  13  17
BRANCH  14  19
ATOM     19  O   UNL     1      -8.614  11.102   1.535  1.00  0.00    -0.385 OA
ATOM     20  H   UNL     1      -8.240  11.987   1.243  1.00  0.00     0.211 HD
ENDBRANCH  14  19
ENDBRANCH   7   8
ENDBRANCH   1   7
BRANCH   2  21
ATOM     21  O   UNL     1      -5.012   7.731   3.829  1.00  0.00    -0.387 OA
ATOM     22  H   UNL     1      -4.131   8.181   3.930  1.00  0.00     0.211 HD
ENDBRANCH   2  21
BRANCH   6  23
ATOM     23  O   UNL     1      -3.970  10.063   2.261  1.00  0.00    -0.462 OA
BRANCH  23  24
ATOM     24  C   UNL     1      -3.524  10.508   1.014  1.00  0.00     0.130 A 
ATOM     25  C   UNL     1      -2.150  10.656   0.716  1.00  0.00     0.093 A 
ATOM     26  C   UNL     1      -4.488  10.721   0.005  1.00  0.00     0.094 A 
ATOM     27  C   UNL     1      -1.758  10.807  -0.629  1.00  0.00     0.133 A 
ATOM     28  C   UNL     1      -4.092  10.909  -1.313  1.00  0.00     0.138 A 
ATOM     29  C   UNL     1      -2.725  10.892  -1.644  1.00  0.00     0.102 A 
ATOM     30  O   UNL     1      -5.036  11.006  -2.315  1.00  0.00    -0.484 OA
ATOM     31  C   UNL     1      -2.358  10.965  -3.082  1.00  0.00     0.174 C 
ATOM     32  C   UNL     1      -4.809  10.578  -3.662  1.00  0.00     0.211 C 
ATOM     33  O   UNL     1      -1.153  11.102  -3.440  1.00  0.00    -0.294 OA
ATOM     34  C   UNL     1      -3.391  10.934  -4.151  1.00  0.00     0.131 C 
BRANCH  27  35
ATOM     35  O   UNL     1      -0.399  10.838  -0.957  1.00  0.00    -0.507 OA
ATOM     36  H   UNL     1       0.305  10.754  -0.232  1.00  0.00     0.293 HD
ENDBRANCH  27  35
BRANCH  32  37
ATOM     37  C   UNL     1      -5.118   9.075  -3.820  1.00  0.00    -0.007 A 
ATOM     38  C   UNL     1      -4.228   8.277  -4.578  1.00  0.00     0.011 A 
ATOM     39  C   UNL     1      -6.276   8.469  -3.264  1.00  0.00     0.011 A 
ATOM     40  C   UNL     1      -4.526   6.929  -4.822  1.00  0.00     0.046 A 
ATOM     41  C   UNL     1      -6.558   7.119  -3.523  1.00  0.00     0.046 A 
ATOM     42  C   UNL     1      -5.710   6.338  -4.315  1.00  0.00     0.115 A 
BRANCH  42  43
ATOM     43  O   UNL     1      -6.058   5.010  -4.590  1.00  0.00    -0.508 OA
ATOM     44  H   UNL     1      -6.472   4.389  -3.901  1.00  0.00     0.293 HD
ENDBRANCH  42  43
ENDBRANCH  32  37
ENDBRANCH  23  24
ENDBRANCH   6  23
BRANCH   3  45
ATOM     45  O   UNL     1      -5.465   8.421   6.595  1.00  0.00    -0.387 OA
ATOM     46  H   UNL     1      -4.788   8.819   7.218  1.00  0.00     0.211 HD
ENDBRANCH   3  45
BRANCH   4  47
ATOM     47  C   UNL     1      -3.030   9.329   5.203  1.00  0.00     0.191 C 
BRANCH  47  48
ATOM     48  O   UNL     1      -2.486   9.128   6.468  1.00  0.00    -0.394 OA
ATOM     49  H   UNL     1      -1.830   8.363   6.402  1.00  0.00     0.210 HD
ENDBRANCH  47  48
ENDBRANCH   4  47
TORSDOF 14
ENDMDL
MODEL 8
REMARK VINA RESULT:    -5.117      4.858      8.672
REMARK INTER + INTRA:         -10.342
REMARK INTER:                  -8.325
REMARK INTRA:                  -2.017
REMARK UNBOUND:                -2.233
REMARK SMILES C[C@H]1O[C@@H](O[C@@H]2[C@H](Oc3cc(O)c4c(c3)O[C@H](c3ccc(O)cc3)CC4=O)O[C@H](CO)[C@H](O)[C@@H]2O)[C@H](O)[C@@H](O)[C@@H]1O
REMARK SMILES IDX 6 1 34 2 32 3 29 4 28 5 7 6 5 7 4 8 1 9 2 10 40 11 3 12
REMARK SMILES IDX 38 13 36 14 41 15 39 17 37 19 35 21 8 23 9 24 10 25 15 26
REMARK SMILES IDX 11 27 14 28 13 29 16 30 26 31 17 32 27 33 25 34 12 35 18 37
REMARK SMILES IDX 19 38 24 39 20 40 23 41 21 42 22 43 33 45 30 47 31 48
REMARK H PARENT 41 16 39 18 37 20 35 22 12 36 22 44 33 46 31 49
REMARK Flexibility Score: inf
ROOT
ATOM      1  C   UNL     1      -6.631   9.720   1.176  1.00  0.00     0.221 C 
ATOM      2  C   UNL     1      -8.178   9.783   1.359  1.00  0.00     0.181 C 
ATOM      3  C   UNL     1      -8.506  10.983   2.234  1.00  0.00     0.177 C 
ATOM      4  C   UNL     1      -7.801  10.865   3.592  1.00  0.00     0.179 C 
ATOM      5  O   UNL     1      -6.391  10.782   3.454  1.00  0.00    -0.332 OA
ATOM      6  C   UNL     1      -5.893   9.802   2.534  1.00  0.00     0.339 C 
ENDROOT
BRANCH   1   7
ATOM      7  O   UNL     1      -6.303   8.489   0.553  1.00  0.00    -0.337 OA
BRANCH   7   8
ATOM      8  C   UNL     1      -6.872   8.280  -0.745  1.00  0.00     0.282 C 
ATOM      9  C   UNL     1      -9.089   5.533  -1.807  1.00  0.00     0.041 C 
ATOM     10  C   UNL     1      -8.042   6.646  -1.946  1.00  0.00     0.150 C 
ATOM     11  C   UNL     1      -6.808   6.155  -2.703  1.00  0.00     0.174 C 
ATOM     12  O   UNL     1      -7.592   7.054  -0.675  1.00  0.00    -0.344 OA
ATOM     13  C   UNL     1      -5.972   7.383  -3.033  1.00  0.00     0.179 C 
ATOM     14  C   UNL     1      -5.644   8.190  -1.752  1.00  0.00     0.202 C 
BRANCH  11  15
ATOM     15  O   UNL     1      -7.172   5.529  -3.914  1.00  0.00    -0.388 OA
ATOM     16  H   UNL     1      -7.951   6.030  -4.288  1.00  0.00     0.211 HD
ENDBRANCH  11  15
BRANCH  13  17
ATOM     17  O   UNL     1      -4.736   6.995  -3.629  1.00  0.00    -0.387 OA
ATOM     18  H   UNL     1      -4.408   6.185  -3.153  1.00  0.00     0.211 HD
ENDBRANCH  13  17
BRANCH  14  19
ATOM     19  O   UNL     1      -5.171   9.462  -2.164  1.00  0.00    -0.385 OA
ATOM     20  H   UNL     1      -4.174   9.438  -2.280  1.00  0.00     0.211 HD
ENDBRANCH  14  19
ENDBRANCH   7   8
ENDBRANCH   1   7
BRANCH   2  21
ATOM     21  O   UNL     1      -8.600   8.585   1.928  1.00  0.00    -0.387 OA
ATOM     22  H   UNL     1      -7.825   7.961   1.938  1.00  0.00     0.211 HD
ENDBRANCH   2  21
BRANCH   6  23
ATOM     23  O   UNL     1      -5.851   8.495   3.120  1.00  0.00    -0.462 OA
BRANCH  23  24
ATOM     24  C   UNL     1      -5.196   8.133   4.300  1.00  0.00     0.130 A 
ATOM     25  C   UNL     1      -3.880   8.561   4.591  1.00  0.00     0.093 A 
ATOM     26  C   UNL     1      -5.923   7.394   5.258  1.00  0.00     0.094 A 
ATOM     27  C   UNL     1      -3.396   8.424   5.907  1.00  0.00     0.133 A 
ATOM     28  C   UNL     1      -5.419   7.230   6.543  1.00  0.00     0.138 A 
ATOM     29  C   UNL     1      -4.180   7.798   6.890  1.00  0.00     0.102 A 
ATOM     30  O   UNL     1      -6.178   6.604   7.511  1.00  0.00    -0.484 OA
ATOM     31  C   UNL     1      -3.748   7.708   8.308  1.00  0.00     0.174 C 
ATOM     32  C   UNL     1      -6.093   6.911   8.907  1.00  0.00     0.211 C 
ATOM     33  O   UNL     1      -2.586   8.064   8.658  1.00  0.00    -0.294 OA
ATOM     34  C   UNL     1      -4.639   7.148   9.359  1.00  0.00     0.131 C 
BRANCH  27  35
ATOM     35  O   UNL     1      -2.143   8.947   6.244  1.00  0.00    -0.507 OA
ATOM     36  H   UNL     1      -2.032   9.513   7.077  1.00  0.00     0.293 HD
ENDBRANCH  27  35
BRANCH  32  37
ATOM     37  C   UNL     1      -7.014   8.095   9.265  1.00  0.00    -0.007 A 
ATOM     38  C   UNL     1      -6.970   8.613  10.582  1.00  0.00     0.011 A 
ATOM     39  C   UNL     1      -7.927   8.664   8.337  1.00  0.00     0.011 A 
ATOM     40  C   UNL     1      -7.859   9.625  10.970  1.00  0.00     0.046 A 
ATOM     41  C   UNL     1      -8.810   9.674   8.746  1.00  0.00     0.046 A 
ATOM     42  C   UNL     1      -8.809  10.153  10.061  1.00  0.00     0.115 A 
BRANCH  42  43
ATOM     43  O   UNL     1      -9.743  11.124  10.438  1.00  0.00    -0.508 OA
ATOM     44  H   UNL     1      -9.964  11.338  11.406  1.00  0.00     0.293 HD
ENDBRANCH  42  43
ENDBRANCH  32  37
ENDBRANCH  23  24
ENDBRANCH   6  23
BRANCH   3  45
ATOM     45  O   UNL     1      -9.886  11.125   2.401  1.00  0.00    -0.387 OA
ATOM     46  H   UNL     1     -10.313  10.731   1.584  1.00  0.00     0.211 HD
ENDBRANCH   3  45
BRANCH   4  47
ATOM     47  C   UNL     1      -8.374   9.788   4.549  1.00  0.00     0.191 C 
BRANCH  47  48
ATOM     48  O   UNL     1      -9.603  10.224   5.034  1.00  0.00    -0.394 OA
ATOM     49  H   UNL     1     -10.319   9.886   4.406  1.00  0.00     0.210 HD
ENDBRANCH  47  48
ENDBRANCH   4  47
TORSDOF 14
ENDMDL
MODEL 9
REMARK VINA RESULT:    -4.928      2.424      6.237
REMARK INTER + INTRA:         -10.042
REMARK INTER:                  -8.891
REMARK INTRA:                  -1.151
REMARK UNBOUND:                -2.233
REMARK SMILES C[C@H]1O[C@@H](O[C@@H]2[C@H](Oc3cc(O)c4c(c3)O[C@H](c3ccc(O)cc3)CC4=O)O[C@H](CO)[C@H](O)[C@@H]2O)[C@H](O)[C@@H](O)[C@@H]1O
REMARK SMILES IDX 6 1 34 2 32 3 29 4 28 5 7 6 5 7 4 8 1 9 2 10 40 11 3 12
REMARK SMILES IDX 38 13 36 14 41 15 39 17 37 19 35 21 8 23 9 24 10 25 15 26
REMARK SMILES IDX 11 27 14 28 13 29 16 30 26 31 17 32 27 33 25 34 12 35 18 37
REMARK SMILES IDX 19 38 24 39 20 40 23 41 21 42 22 43 33 45 30 47 31 48
REMARK H PARENT 41 16 39 18 37 20 35 22 12 36 22 44 33 46 31 49
REMARK Flexibility Score: inf
ROOT
ATOM      1  C   UNL     1      -2.487   9.661  -3.500  1.00  0.00     0.221 C 
ATOM      2  C   UNL     1      -3.129  10.738  -2.572  1.00  0.00     0.181 C 
ATOM      3  C   UNL     1      -3.296  10.135  -1.186  1.00  0.00     0.177 C 
ATOM      4  C   UNL     1      -4.174   8.879  -1.249  1.00  0.00     0.179 C 
ATOM      5  O   UNL     1      -3.625   7.889  -2.107  1.00  0.00    -0.332 OA
ATOM      6  C   UNL     1      -3.250   8.317  -3.422  1.00  0.00     0.339 C 
ENDROOT
BRANCH   1   7
ATOM      7  O   UNL     1      -2.534  10.135  -4.836  1.00  0.00    -0.337 OA
BRANCH   7   8
ATOM      8  C   UNL     1      -1.274  10.516  -5.403  1.00  0.00     0.282 C 
ATOM      9  C   UNL     1      -0.360  10.616  -8.972  1.00  0.00     0.041 C 
ATOM     10  C   UNL     1      -0.154  10.486  -7.457  1.00  0.00     0.150 C 
ATOM     11  C   UNL     1       0.678   9.250  -7.116  1.00  0.00     0.174 C 
ATOM     12  O   UNL     1      -1.393  10.323  -6.808  1.00  0.00    -0.344 OA
ATOM     13  C   UNL     1       1.064   9.365  -5.648  1.00  0.00     0.179 C 
ATOM     14  C   UNL     1      -0.193   9.544  -4.759  1.00  0.00     0.202 C 
BRANCH  11  15
ATOM     15  O   UNL     1       1.863   9.209  -7.882  1.00  0.00    -0.388 OA
ATOM     16  H   UNL     1       2.190   8.265  -7.878  1.00  0.00     0.211 HD
ENDBRANCH  11  15
BRANCH  13  17
ATOM     17  O   UNL     1       1.736   8.184  -5.217  1.00  0.00    -0.387 OA
ATOM     18  H   UNL     1       1.310   7.882  -4.369  1.00  0.00     0.211 HD
ENDBRANCH  13  17
BRANCH  14  19
ATOM     19  O   UNL     1       0.251   9.975  -3.483  1.00  0.00    -0.385 OA
ATOM     20  H   UNL     1       0.455   9.182  -2.902  1.00  0.00     0.211 HD
ENDBRANCH  14  19
ENDBRANCH   7   8
ENDBRANCH   1   7
BRANCH   2  21
ATOM     21  O   UNL     1      -4.345  11.125  -3.129  1.00  0.00    -0.387 OA
ATOM     22  H   UNL     1      -4.570  12.027  -2.776  1.00  0.00     0.211 HD
ENDBRANCH   2  21
BRANCH   6  23
ATOM     23  O   UNL     1      -4.377   8.369  -4.306  1.00  0.00    -0.462 OA
BRANCH  23  24
ATOM     24  C   UNL     1      -5.440   7.464  -4.354  1.00  0.00     0.130 A 
ATOM     25  C   UNL     1      -5.237   6.065  -4.340  1.00  0.00     0.093 A 
ATOM     26  C   UNL     1      -6.752   7.984  -4.320  1.00  0.00     0.094 A 
ATOM     27  C   UNL     1      -6.336   5.221  -4.082  1.00  0.00     0.133 A 
ATOM     28  C   UNL     1      -7.834   7.139  -4.104  1.00  0.00     0.138 A 
ATOM     29  C   UNL     1      -7.622   5.760  -3.923  1.00  0.00     0.102 A 
ATOM     30  O   UNL     1      -9.103   7.660  -3.960  1.00  0.00    -0.484 OA
ATOM     31  C   UNL     1      -8.794   4.919  -3.564  1.00  0.00     0.174 C 
ATOM     32  C   UNL     1     -10.121   7.055  -3.155  1.00  0.00     0.211 C 
ATOM     33  O   UNL     1      -8.704   3.658  -3.532  1.00  0.00    -0.294 OA
ATOM     34  C   UNL     1     -10.125   5.520  -3.283  1.00  0.00     0.131 C 
BRANCH  27  35
ATOM     35  O   UNL     1      -6.136   3.843  -3.948  1.00  0.00    -0.507 OA
ATOM     36  H   UNL     1      -6.261   3.228  -4.744  1.00  0.00     0.293 HD
ENDBRANCH  27  35
BRANCH  32  37
ATOM     37  C   UNL     1     -10.005   7.515  -1.687  1.00  0.00    -0.007 A 
ATOM     38  C   UNL     1     -10.042   8.902  -1.407  1.00  0.00     0.011 A 
ATOM     39  C   UNL     1      -9.829   6.605  -0.611  1.00  0.00     0.011 A 
ATOM     40  C   UNL     1      -9.845   9.362  -0.098  1.00  0.00     0.046 A 
ATOM     41  C   UNL     1      -9.630   7.085   0.692  1.00  0.00     0.046 A 
ATOM     42  C   UNL     1      -9.613   8.457   0.968  1.00  0.00     0.115 A 
BRANCH  42  43
ATOM     43  O   UNL     1      -9.358   8.891   2.274  1.00  0.00    -0.508 OA
ATOM     44  H   UNL     1      -8.487   8.706   2.762  1.00  0.00     0.293 HD
ENDBRANCH  42  43
ENDBRANCH  32  37
ENDBRANCH  23  24
ENDBRANCH   6  23
BRANCH   3  45
ATOM     45  O   UNL     1      -3.826  11.067  -0.290  1.00  0.00    -0.387 OA
ATOM     46  H   UNL     1      -4.316  10.543   0.409  1.00  0.00     0.211 HD
ENDBRANCH   3  45
BRANCH   4  47
ATOM     47  C   UNL     1      -5.681   9.131  -1.514  1.00  0.00     0.191 C 
BRANCH  47  48
ATOM     48  O   UNL     1      -6.349   9.185  -0.295  1.00  0.00    -0.394 OA
ATOM     49  H   UNL     1      -7.107   9.846  -0.388  1.00  0.00     0.210 HD
ENDBRANCH  47  48
ENDBRANCH   4  47
TORSDOF 14
ENDMDL
