MODEL 1
REMARK VINA RESULT:    -4.921      0.000      0.000
REMARK INTER + INTRA:          -8.372
REMARK INTER:                  -7.798
REMARK INTRA:                  -0.573
REMARK UNBOUND:                -0.573
REMARK SMILES CCCCCCCCCCCC(=O)[O-]
REMARK SMILES IDX 7 1 8 2 9 3 10 4 11 5 12 6 13 7 14 8 6 9 5 10 4 11 3 12 2 13
REMARK SMILES IDX 1 14
REMARK H PARENT
REMARK Flexibility Score: inf
ROOT
ATOM      1  C   UNL     1      -4.079  38.055  19.535  1.00  0.00     0.000 C 
ENDROOT
BRANCH   1   2
ATOM      2  C   UNL     1      -4.983  38.106  20.773  1.00  0.00     0.000 C 
BRANCH   2   3
ATOM      3  C   UNL     1      -5.289  36.695  21.291  1.00  0.00     0.000 C 
BRANCH   3   4
ATOM      4  C   UNL     1      -4.910  36.557  22.770  1.00  0.00     0.006 C 
BRANCH   4   5
ATOM      5  C   UNL     1      -5.736  37.509  23.640  1.00  0.00     0.053 C 
BRANCH   5   6
ATOM      6  C   UNL     1      -4.838  38.376  24.465  1.00  0.00     0.041 C 
ATOM      7  O   UNL     1      -4.319  37.928  25.520  1.00  0.00    -0.550 OA
ATOM      8  O   UNL     1      -4.536  39.665  24.042  1.00  0.00    -0.550 OA
ENDBRANCH   5   6
ENDBRANCH   4   5
ENDBRANCH   3   4
ENDBRANCH   2   3
ENDBRANCH   1   2
BRANCH   1   9
ATOM      9  C   UNL     1      -3.865  36.607  19.071  1.00  0.00     0.000 C 
BRANCH   9  10
ATOM     10  C   UNL     1      -3.350  36.517  17.625  1.00  0.00    -0.000 C 
BRANCH  10  11
ATOM     11  C   UNL     1      -2.621  37.796  17.177  1.00  0.00    -0.000 C 
BRANCH  11  12
ATOM     12  C   UNL     1      -1.903  37.633  15.825  1.00  0.00    -0.000 C 
BRANCH  12  13
ATOM     13  C   UNL     1      -2.829  37.401  14.619  1.00  0.00    -0.003 C 
ATOM     14  C   UNL     1      -3.693  38.616  14.285  1.00  0.00     0.004 C 
ENDBRANCH  12  13
ENDBRANCH  11  12
ENDBRANCH  10  11
ENDBRANCH   9  10
ENDBRANCH   1   9
TORSDOF 10
ENDMDL
MODEL 2
REMARK VINA RESULT:    -4.849      3.686      7.019
REMARK INTER + INTRA:          -8.257
REMARK INTER:                  -7.471
REMARK INTRA:                  -0.786
REMARK UNBOUND:                -0.573
REMARK SMILES CCCCCCCCCCCC(=O)[O-]
REMARK SMILES IDX 7 1 8 2 9 3 10 4 11 5 12 6 13 7 14 8 6 9 5 10 4 11 3 12 2 13
REMARK SMILES IDX 1 14
REMARK H PARENT
REMARK Flexibility Score: inf
ROOT
ATOM      1  C   UNL     1      -4.741  36.406  21.607  1.00  0.00     0.000 C 
ENDROOT
BRANCH   1   2
ATOM      2  C   UNL     1      -5.134  36.790  20.175  1.00  0.00     0.000 C 
BRANCH   2   3
ATOM      3  C   UNL     1      -3.926  36.717  19.233  1.00  0.00     0.000 C 
BRANCH   3   4
ATOM      4  C   UNL     1      -3.486  38.117  18.791  1.00  0.00     0.006 C 
BRANCH   4   5
ATOM      5  C   UNL     1      -2.111  38.075  18.119  1.00  0.00     0.053 C 
BRANCH   5   6
ATOM      6  C   UNL     1      -2.233  37.597  16.707  1.00  0.00     0.041 C 
ATOM      7  O   UNL     1      -1.756  36.481  16.373  1.00  0.00    -0.550 OA
ATOM      8  O   UNL     1      -2.915  38.363  15.770  1.00  0.00    -0.550 OA
ENDBRANCH   5   6
ENDBRANCH   4   5
ENDBRANCH   3   4
ENDBRANCH   2   3
ENDBRANCH   1   2
BRANCH   1   9
ATOM      9  C   UNL     1      -5.972  36.371  22.524  1.00  0.00     0.000 C 
BRANCH   9  10
ATOM     10  C   UNL     1      -5.621  36.012  23.977  1.00  0.00    -0.000 C 
BRANCH  10  11
ATOM     11  C   UNL     1      -5.038  37.204  24.755  1.00  0.00    -0.000 C 
BRANCH  11  12
ATOM     12  C   UNL     1      -5.681  38.546  24.363  1.00  0.00    -0.000 C 
BRANCH  12  13
ATOM     13  C   UNL     1      -4.702  39.601  23.817  1.00  0.00    -0.003 C 
ATOM     14  C   UNL     1      -5.082  40.107  22.426  1.00  0.00     0.004 C 
ENDBRANCH  12  13
ENDBRANCH  11  12
ENDBRANCH  10  11
ENDBRANCH   9  10
ENDBRANCH   1   9
TORSDOF 10
ENDMDL
MODEL 3
REMARK VINA RESULT:    -4.729      3.893      7.184
REMARK INTER + INTRA:          -8.068
REMARK INTER:                  -7.348
REMARK INTRA:                  -0.719
REMARK UNBOUND:                -0.573
REMARK SMILES CCCCCCCCCCCC(=O)[O-]
REMARK SMILES IDX 7 1 8 2 9 3 10 4 11 5 12 6 13 7 14 8 6 9 5 10 4 11 3 12 2 13
REMARK SMILES IDX 1 14
REMARK H PARENT
REMARK Flexibility Score: inf
ROOT
ATOM      1  C   UNL     1      -3.755  36.771  19.789  1.00  0.00     0.000 C 
ENDROOT
BRANCH   1   2
ATOM      2  C   UNL     1      -3.581  37.961  18.838  1.00  0.00     0.000 C 
BRANCH   2   3
ATOM      3  C   UNL     1      -2.096  38.251  18.583  1.00  0.00     0.000 C 
BRANCH   3   4
ATOM      4  C   UNL     1      -1.590  37.490  17.353  1.00  0.00     0.006 C 
BRANCH   4   5
ATOM      5  C   UNL     1      -2.755  37.033  16.471  1.00  0.00     0.053 C 
BRANCH   5   6
ATOM      6  C   UNL     1      -2.716  37.731  15.148  1.00  0.00     0.041 C 
ATOM      7  O   UNL     1      -1.991  37.289  14.220  1.00  0.00    -0.550 OA
ATOM      8  O   UNL     1      -3.518  38.844  14.926  1.00  0.00    -0.550 OA
ENDBRANCH   5   6
ENDBRANCH   4   5
ENDBRANCH   3   4
ENDBRANCH   2   3
ENDBRANCH   1   2
BRANCH   1   9
ATOM      9  C   UNL     1      -5.237  36.398  19.937  1.00  0.00     0.000 C 
BRANCH   9  10
ATOM     10  C   UNL     1      -5.777  36.657  21.353  1.00  0.00    -0.000 C 
BRANCH  10  11
ATOM     11  C   UNL     1      -4.655  36.898  22.377  1.00  0.00    -0.000 C 
BRANCH  11  12
ATOM     12  C   UNL     1      -5.145  37.627  23.642  1.00  0.00    -0.000 C 
BRANCH  12  13
ATOM     13  C   UNL     1      -5.098  39.163  23.567  1.00  0.00    -0.003 C 
ATOM     14  C   UNL     1      -4.138  39.681  22.497  1.00  0.00     0.004 C 
ENDBRANCH  12  13
ENDBRANCH  11  12
ENDBRANCH  10  11
ENDBRANCH   9  10
ENDBRANCH   1   9
TORSDOF 10
ENDMDL
MODEL 4
REMARK VINA RESULT:    -4.598      1.962      3.034
REMARK INTER + INTRA:          -7.860
REMARK INTER:                  -7.003
REMARK INTRA:                  -0.857
REMARK UNBOUND:                -0.573
REMARK SMILES CCCCCCCCCCCC(=O)[O-]
REMARK SMILES IDX 7 1 8 2 9 3 10 4 11 5 12 6 13 7 14 8 6 9 5 10 4 11 3 12 2 13
REMARK SMILES IDX 1 14
REMARK H PARENT
REMARK Flexibility Score: inf
ROOT
ATOM      1  C   UNL     1      -4.642  36.393  21.956  1.00  0.00     0.000 C 
ENDROOT
BRANCH   1   2
ATOM      2  C   UNL     1      -5.513  35.933  23.132  1.00  0.00     0.000 C 
BRANCH   2   3
ATOM      3  C   UNL     1      -5.281  36.813  24.367  1.00  0.00     0.000 C 
BRANCH   3   4
ATOM      4  C   UNL     1      -6.025  38.148  24.240  1.00  0.00     0.006 C 
BRANCH   4   5
ATOM      5  C   UNL     1      -5.051  39.327  24.304  1.00  0.00     0.053 C 
BRANCH   5   6
ATOM      6  C   UNL     1      -4.820  39.891  22.937  1.00  0.00     0.041 C 
ATOM      7  O   UNL     1      -3.677  39.837  22.414  1.00  0.00    -0.550 OA
ATOM      8  O   UNL     1      -5.881  40.432  22.221  1.00  0.00    -0.550 OA
ENDBRANCH   5   6
ENDBRANCH   4   5
ENDBRANCH   3   4
ENDBRANCH   2   3
ENDBRANCH   1   2
BRANCH   1   9
ATOM      9  C   UNL     1      -5.503  36.690  20.719  1.00  0.00     0.000 C 
BRANCH   9  10
ATOM     10  C   UNL     1      -4.949  37.850  19.875  1.00  0.00    -0.000 C 
BRANCH  10  11
ATOM     11  C   UNL     1      -3.452  37.689  19.561  1.00  0.00    -0.000 C 
BRANCH  11  12
ATOM     12  C   UNL     1      -3.183  37.357  18.082  1.00  0.00    -0.000 C 
BRANCH  12  13
ATOM     13  C   UNL     1      -1.752  37.652  17.599  1.00  0.00    -0.003 C 
ATOM     14  C   UNL     1      -0.860  38.238  18.693  1.00  0.00     0.004 C 
ENDBRANCH  12  13
ENDBRANCH  11  12
ENDBRANCH  10  11
ENDBRANCH   9  10
ENDBRANCH   1   9
TORSDOF 10
ENDMDL
MODEL 5
REMARK VINA RESULT:    -4.570      1.393      2.114
REMARK INTER + INTRA:          -7.814
REMARK INTER:                  -6.950
REMARK INTRA:                  -0.865
REMARK UNBOUND:                -0.573
REMARK SMILES CCCCCCCCCCCC(=O)[O-]
REMARK SMILES IDX 7 1 8 2 9 3 10 4 11 5 12 6 13 7 14 8 6 9 5 10 4 11 3 12 2 13
REMARK SMILES IDX 1 14
REMARK H PARENT
REMARK Flexibility Score: inf
ROOT
ATOM      1  C   UNL     1      -5.559  36.720  20.908  1.00  0.00     0.000 C 
ENDROOT
BRANCH   1   2
ATOM      2  C   UNL     1      -4.483  36.224  21.881  1.00  0.00     0.000 C 
BRANCH   2   3
ATOM      3  C   UNL     1      -4.883  36.502  23.335  1.00  0.00     0.000 C 
BRANCH   3   4
ATOM      4  C   UNL     1      -5.990  37.560  23.409  1.00  0.00     0.006 C 
BRANCH   4   5
ATOM      5  C   UNL     1      -5.450  38.881  23.964  1.00  0.00     0.053 C 
BRANCH   5   6
ATOM      6  C   UNL     1      -4.972  39.760  22.851  1.00  0.00     0.041 C 
ATOM      7  O   UNL     1      -3.746  39.816  22.570  1.00  0.00    -0.550 OA
ATOM      8  O   UNL     1      -5.886  40.481  22.093  1.00  0.00    -0.550 OA
ENDBRANCH   5   6
ENDBRANCH   4   5
ENDBRANCH   3   4
ENDBRANCH   2   3
ENDBRANCH   1   2
BRANCH   1   9
ATOM      9  C   UNL     1      -4.946  37.614  19.820  1.00  0.00     0.000 C 
BRANCH   9  10
ATOM     10  C   UNL     1      -3.668  37.016  19.209  1.00  0.00    -0.000 C 
BRANCH  10  11
ATOM     11  C   UNL     1      -2.582  38.075  18.957  1.00  0.00    -0.000 C 
BRANCH  11  12
ATOM     12  C   UNL     1      -1.734  37.778  17.708  1.00  0.00    -0.000 C 
BRANCH  12  13
ATOM     13  C   UNL     1      -2.453  36.977  16.609  1.00  0.00    -0.003 C 
ATOM     14  C   UNL     1      -2.966  37.853  15.468  1.00  0.00     0.004 C 
ENDBRANCH  12  13
ENDBRANCH  11  12
ENDBRANCH  10  11
ENDBRANCH   9  10
ENDBRANCH   1   9
TORSDOF 10
ENDMDL
MODEL 6
REMARK VINA RESULT:    -4.460      3.438      7.182
REMARK INTER + INTRA:          -7.641
REMARK INTER:                  -6.724
REMARK INTRA:                  -0.917
REMARK UNBOUND:                -0.573
REMARK SMILES CCCCCCCCCCCC(=O)[O-]
REMARK SMILES IDX 7 1 8 2 9 3 10 4 11 5 12 6 13 7 14 8 6 9 5 10 4 11 3 12 2 13
REMARK SMILES IDX 1 14
REMARK H PARENT
REMARK Flexibility Score: inf
ROOT
ATOM      1  C   UNL     1      -3.986  38.884  21.430  1.00  0.00     0.000 C 
ENDROOT
BRANCH   1   2
ATOM      2  C   UNL     1      -5.237  38.104  21.006  1.00  0.00     0.000 C 
BRANCH   2   3
ATOM      3  C   UNL     1      -4.896  37.050  19.945  1.00  0.00     0.000 C 
BRANCH   3   4
ATOM      4  C   UNL     1      -3.769  37.536  19.027  1.00  0.00     0.006 C 
BRANCH   4   5
ATOM      5  C   UNL     1      -3.488  36.521  17.916  1.00  0.00     0.053 C 
BRANCH   5   6
ATOM      6  C   UNL     1      -2.571  37.108  16.890  1.00  0.00     0.041 C 
ATOM      7  O   UNL     1      -1.413  37.481  17.215  1.00  0.00    -0.550 OA
ATOM      8  O   UNL     1      -2.978  37.199  15.565  1.00  0.00    -0.550 OA
ENDBRANCH   5   6
ENDBRANCH   4   5
ENDBRANCH   3   4
ENDBRANCH   2   3
ENDBRANCH   1   2
BRANCH   1   9
ATOM      9  C   UNL     1      -4.280  39.772  22.647  1.00  0.00     0.000 C 
BRANCH   9  10
ATOM     10  C   UNL     1      -5.432  39.234  23.512  1.00  0.00    -0.000 C 
BRANCH  10  11
ATOM     11  C   UNL     1      -4.962  38.776  24.903  1.00  0.00    -0.000 C 
BRANCH  11  12
ATOM     12  C   UNL     1      -5.004  37.247  25.075  1.00  0.00    -0.000 C 
BRANCH  12  13
ATOM     13  C   UNL     1      -6.125  36.535  24.299  1.00  0.00    -0.003 C 
ATOM     14  C   UNL     1      -5.658  35.249  23.618  1.00  0.00     0.004 C 
ENDBRANCH  12  13
ENDBRANCH  11  12
ENDBRANCH  10  11
ENDBRANCH   9  10
ENDBRANCH   1   9
TORSDOF 10
ENDMDL
MODEL 7
REMARK VINA RESULT:    -4.405      3.952      7.694
REMARK INTER + INTRA:          -7.553
REMARK INTER:                  -6.982
REMARK INTRA:                  -0.572
REMARK UNBOUND:                -0.573
REMARK SMILES CCCCCCCCCCCC(=O)[O-]
REMARK SMILES IDX 7 1 8 2 9 3 10 4 11 5 12 6 13 7 14 8 6 9 5 10 4 11 3 12 2 13
REMARK SMILES IDX 1 14
REMARK H PARENT
REMARK Flexibility Score: inf
ROOT
ATOM      1  C   UNL     1      -4.970  38.024  19.898  1.00  0.00     0.000 C 
ENDROOT
BRANCH   1   2
ATOM      2  C   UNL     1      -4.044  37.046  19.164  1.00  0.00     0.000 C 
BRANCH   2   3
ATOM      3  C   UNL     1      -2.618  37.602  19.070  1.00  0.00     0.000 C 
BRANCH   3   4
ATOM      4  C   UNL     1      -2.303  38.072  17.645  1.00  0.00     0.006 C 
BRANCH   4   5
ATOM      5  C   UNL     1      -2.832  37.077  16.609  1.00  0.00     0.053 C 
BRANCH   5   6
ATOM      6  C   UNL     1      -2.685  37.633  15.227  1.00  0.00     0.041 C 
ATOM      7  O   UNL     1      -1.742  37.249  14.487  1.00  0.00    -0.550 OA
ATOM      8  O   UNL     1      -3.619  38.539  14.740  1.00  0.00    -0.550 OA
ENDBRANCH   5   6
ENDBRANCH   4   5
ENDBRANCH   3   4
ENDBRANCH   2   3
ENDBRANCH   1   2
BRANCH   1   9
ATOM      9  C   UNL     1      -4.248  38.678  21.085  1.00  0.00     0.000 C 
BRANCH   9  10
ATOM     10  C   UNL     1      -4.989  38.476  22.417  1.00  0.00    -0.000 C 
BRANCH  10  11
ATOM     11  C   UNL     1      -5.446  37.021  22.623  1.00  0.00    -0.000 C 
BRANCH  11  12
ATOM     12  C   UNL     1      -5.308  36.551  24.082  1.00  0.00    -0.000 C 
BRANCH  12  13
ATOM     13  C   UNL     1      -4.708  37.590  25.046  1.00  0.00    -0.003 C 
ATOM     14  C   UNL     1      -5.760  38.281  25.912  1.00  0.00     0.004 C 
ENDBRANCH  12  13
ENDBRANCH  11  12
ENDBRANCH  10  11
ENDBRANCH   9  10
ENDBRANCH   1   9
TORSDOF 10
ENDMDL
MODEL 8
REMARK VINA RESULT:    -4.303      1.550      2.428
REMARK INTER + INTRA:          -7.393
REMARK INTER:                  -6.748
REMARK INTRA:                  -0.644
REMARK UNBOUND:                -0.573
REMARK SMILES CCCCCCCCCCCC(=O)[O-]
REMARK SMILES IDX 7 1 8 2 9 3 10 4 11 5 12 6 13 7 14 8 6 9 5 10 4 11 3 12 2 13
REMARK SMILES IDX 1 14
REMARK H PARENT
REMARK Flexibility Score: inf
ROOT
ATOM      1  C   UNL     1      -5.458  36.894  20.822  1.00  0.00     0.000 C 
ENDROOT
BRANCH   1   2
ATOM      2  C   UNL     1      -4.601  36.273  21.932  1.00  0.00     0.000 C 
BRANCH   2   3
ATOM      3  C   UNL     1      -5.478  35.604  22.997  1.00  0.00     0.000 C 
BRANCH   3   4
ATOM      4  C   UNL     1      -6.108  36.648  23.926  1.00  0.00     0.006 C 
BRANCH   4   5
ATOM      5  C   UNL     1      -5.174  36.980  25.093  1.00  0.00     0.053 C 
BRANCH   5   6
ATOM      6  C   UNL     1      -5.006  38.461  25.225  1.00  0.00     0.041 C 
ATOM      7  O   UNL     1      -4.630  39.146  24.239  1.00  0.00    -0.550 OA
ATOM      8  O   UNL     1      -5.312  39.091  26.425  1.00  0.00    -0.550 OA
ENDBRANCH   5   6
ENDBRANCH   4   5
ENDBRANCH   3   4
ENDBRANCH   2   3
ENDBRANCH   1   2
BRANCH   1   9
ATOM      9  C   UNL     1      -4.604  37.225  19.589  1.00  0.00     0.000 C 
BRANCH   9  10
ATOM     10  C   UNL     1      -4.261  35.981  18.752  1.00  0.00    -0.000 C 
BRANCH  10  11
ATOM     11  C   UNL     1      -3.524  36.331  17.448  1.00  0.00    -0.000 C 
BRANCH  11  12
ATOM     12  C   UNL     1      -2.855  37.717  17.493  1.00  0.00    -0.000 C 
BRANCH  12  13
ATOM     13  C   UNL     1      -1.373  37.711  17.907  1.00  0.00    -0.003 C 
ATOM     14  C   UNL     1      -1.060  38.709  19.021  1.00  0.00     0.004 C 
ENDBRANCH  12  13
ENDBRANCH  11  12
ENDBRANCH  10  11
ENDBRANCH   9  10
ENDBRANCH   1   9
TORSDOF 10
ENDMDL
MODEL 9
REMARK VINA RESULT:    -3.975      2.798      6.753
REMARK INTER + INTRA:          -6.873
REMARK INTER:                  -6.170
REMARK INTRA:                  -0.703
REMARK UNBOUND:                -0.573
REMARK SMILES CCCCCCCCCCCC(=O)[O-]
REMARK SMILES IDX 7 1 8 2 9 3 10 4 11 5 12 6 13 7 14 8 6 9 5 10 4 11 3 12 2 13
REMARK SMILES IDX 1 14
REMARK H PARENT
REMARK Flexibility Score: inf
ROOT
ATOM      1  C   UNL     1      -4.918  36.757  20.892  1.00  0.00     0.000 C 
ENDROOT
BRANCH   1   2
ATOM      2  C   UNL     1      -5.060  36.311  19.431  1.00  0.00     0.000 C 
BRANCH   2   3
ATOM      3  C   UNL     1      -3.690  36.208  18.750  1.00  0.00     0.000 C 
BRANCH   3   4
ATOM      4  C   UNL     1      -3.460  37.384  17.794  1.00  0.00     0.006 C 
BRANCH   4   5
ATOM      5  C   UNL     1      -1.975  37.531  17.452  1.00  0.00     0.053 C 
BRANCH   5   6
ATOM      6  C   UNL     1      -1.240  38.189  18.577  1.00  0.00     0.041 C 
ATOM      7  O   UNL     1      -0.004  38.003  18.722  1.00  0.00    -0.550 OA
ATOM      8  O   UNL     1      -1.913  39.049  19.437  1.00  0.00    -0.550 OA
ENDBRANCH   5   6
ENDBRANCH   4   5
ENDBRANCH   3   4
ENDBRANCH   2   3
ENDBRANCH   1   2
BRANCH   1   9
ATOM      9  C   UNL     1      -5.304  38.234  21.055  1.00  0.00     0.000 C 
BRANCH   9  10
ATOM     10  C   UNL     1      -4.269  39.034  21.863  1.00  0.00    -0.000 C 
BRANCH  10  11
ATOM     11  C   UNL     1      -4.851  39.605  23.167  1.00  0.00    -0.000 C 
BRANCH  11  12
ATOM     12  C   UNL     1      -5.857  38.655  23.841  1.00  0.00    -0.000 C 
BRANCH  12  13
ATOM     13  C   UNL     1      -5.227  37.524  24.673  1.00  0.00    -0.003 C 
ATOM     14  C   UNL     1      -4.336  38.037  25.803  1.00  0.00     0.004 C 
ENDBRANCH  12  13
ENDBRANCH  11  12
ENDBRANCH  10  11
ENDBRANCH   9  10
ENDBRANCH   1   9
TORSDOF 10
ENDMDL
