MODEL 1
REMARK VINA RESULT:    -7.275      0.000      0.000
REMARK INTER + INTRA:          -8.594
REMARK INTER:                  -8.976
REMARK INTRA:                   0.382
REMARK UNBOUND:                 0.382
REMARK SMILES COc1cc(-c2oc3cc(O)cc(O)c3c(=O)c2O)ccc1O
REMARK SMILES IDX 6 1 18 2 16 3 17 4 15 5 13 6 12 7 10 8 9 9 8 10 7 11 5 12
REMARK SMILES IDX 3 13 22 14 4 15 21 16 20 17 2 18 1 19 23 20 19 22 14 24
REMARK SMILES IDX 11 26
REMARK H PARENT 23 21 19 23 14 25 11 27
REMARK Flexibility Score: inf
ROOT
ATOM      1  C   UNL     1       3.291   1.600   7.494  1.00  0.00     0.180 A 
ATOM      2  C   UNL     1       4.037   2.690   7.014  1.00  0.00     0.208 A 
ATOM      3  C   UNL     1       3.505   3.985   7.135  1.00  0.00     0.238 A 
ATOM      4  O   UNL     1       4.153   4.951   6.655  1.00  0.00    -0.285 OA
ATOM      5  C   UNL     1       2.244   4.174   7.751  1.00  0.00     0.111 A 
ATOM      6  C   UNL     1       1.629   5.443   7.963  1.00  0.00     0.134 A 
ATOM      7  C   UNL     1       0.322   5.503   8.463  1.00  0.00     0.093 A 
ATOM      8  C   UNL     1      -0.366   4.340   8.819  1.00  0.00     0.123 A 
ATOM      9  C   UNL     1       0.249   3.100   8.671  1.00  0.00     0.094 A 
ATOM     10  C   UNL     1       1.538   3.007   8.140  1.00  0.00     0.146 A 
ATOM     11  O   UNL     1       2.083   1.803   8.006  1.00  0.00    -0.452 OA
ENDROOT
BRANCH   1  12
ATOM     12  C   UNL     1       3.795   0.209   7.423  1.00  0.00     0.025 A 
ATOM     13  C   UNL     1       3.612  -2.129   8.115  1.00  0.00     0.161 A 
ATOM     14  C   UNL     1       4.756  -2.434   7.365  1.00  0.00     0.157 A 
ATOM     15  C   UNL     1       3.140  -0.802   8.146  1.00  0.00     0.062 A 
ATOM     16  C   UNL     1       5.423  -1.425   6.659  1.00  0.00     0.051 A 
ATOM     17  C   UNL     1       4.952  -0.112   6.693  1.00  0.00     0.016 A 
BRANCH  13  18
ATOM     18  O   UNL     1       2.975  -3.166   8.814  1.00  0.00    -0.493 OA
ATOM     19  C   UNL     1       3.089  -3.382  10.218  1.00  0.00     0.278 C 
ENDBRANCH  13  18
BRANCH  14  20
ATOM     20  O   UNL     1       5.226  -3.746   7.329  1.00  0.00    -0.504 OA
ATOM     21  H   UNL     1       5.009  -4.367   6.558  1.00  0.00     0.293 HD
ENDBRANCH  14  20
ENDBRANCH   1  12
BRANCH   2  22
ATOM     22  O   UNL     1       5.270   2.479   6.390  1.00  0.00    -0.502 OA
ATOM     23  H   UNL     1       5.696   3.168   5.782  1.00  0.00     0.293 HD
ENDBRANCH   2  22
BRANCH   6  24
ATOM     24  O   UNL     1       2.262   6.667   7.727  1.00  0.00    -0.507 OA
ATOM     25  H   UNL     1       2.495   7.341   8.441  1.00  0.00     0.293 HD
ENDBRANCH   6  24
BRANCH   8  26
ATOM     26  O   UNL     1      -1.661   4.408   9.330  1.00  0.00    -0.508 OA
ATOM     27  H   UNL     1      -2.432   4.756   8.772  1.00  0.00     0.293 HD
ENDBRANCH   8  26
TORSDOF 6
ENDMDL
MODEL 2
REMARK VINA RESULT:    -7.028      0.984      2.066
REMARK INTER + INTRA:          -8.289
REMARK INTER:                  -8.755
REMARK INTRA:                   0.465
REMARK UNBOUND:                 0.382
REMARK SMILES COc1cc(-c2oc3cc(O)cc(O)c3c(=O)c2O)ccc1O
REMARK SMILES IDX 6 1 18 2 16 3 17 4 15 5 13 6 12 7 10 8 9 9 8 10 7 11 5 12
REMARK SMILES IDX 3 13 22 14 4 15 21 16 20 17 2 18 1 19 23 20 19 22 14 24
REMARK SMILES IDX 11 26
REMARK H PARENT 23 21 19 23 14 25 11 27
REMARK Flexibility Score: inf
ROOT
ATOM      1  C   UNL     1       2.893   1.885   7.711  1.00  0.00     0.180 A 
ATOM      2  C   UNL     1       3.642   3.022   7.360  1.00  0.00     0.208 A 
ATOM      3  C   UNL     1       3.058   4.292   7.498  1.00  0.00     0.238 A 
ATOM      4  O   UNL     1       3.713   5.301   7.131  1.00  0.00    -0.285 OA
ATOM      5  C   UNL     1       1.740   4.410   8.004  1.00  0.00     0.111 A 
ATOM      6  C   UNL     1       1.065   5.647   8.224  1.00  0.00     0.134 A 
ATOM      7  C   UNL     1      -0.283   5.640   8.603  1.00  0.00     0.093 A 
ATOM      8  C   UNL     1      -0.961   4.440   8.832  1.00  0.00     0.123 A 
ATOM      9  C   UNL     1      -0.293   3.229   8.678  1.00  0.00     0.094 A 
ATOM     10  C   UNL     1       1.042   3.202   8.265  1.00  0.00     0.146 A 
ATOM     11  O   UNL     1       1.638   2.025   8.119  1.00  0.00    -0.452 OA
ENDROOT
BRANCH   1  12
ATOM     12  C   UNL     1       3.449   0.516   7.615  1.00  0.00     0.025 A 
ATOM     13  C   UNL     1       5.224  -0.982   6.850  1.00  0.00     0.161 A 
ATOM     14  C   UNL     1       4.510  -2.076   7.356  1.00  0.00     0.157 A 
ATOM     15  C   UNL     1       4.683   0.313   6.977  1.00  0.00     0.062 A 
ATOM     16  C   UNL     1       3.269  -1.881   7.975  1.00  0.00     0.051 A 
ATOM     17  C   UNL     1       2.738  -0.596   8.098  1.00  0.00     0.016 A 
BRANCH  13  18
ATOM     18  O   UNL     1       6.461  -1.219   6.230  1.00  0.00    -0.493 OA
ATOM     19  C   UNL     1       7.556  -0.308   6.239  1.00  0.00     0.278 C 
ENDBRANCH  13  18
BRANCH  14  20
ATOM     20  O   UNL     1       5.040  -3.360   7.235  1.00  0.00    -0.504 OA
ATOM     21  H   UNL     1       4.839  -4.083   7.916  1.00  0.00     0.293 HD
ENDBRANCH  14  20
ENDBRANCH   1  12
BRANCH   2  22
ATOM     22  O   UNL     1       4.933   2.881   6.843  1.00  0.00    -0.502 OA
ATOM     23  H   UNL     1       5.186   3.204   5.916  1.00  0.00     0.293 HD
ENDBRANCH   2  22
BRANCH   6  24
ATOM     24  O   UNL     1       1.675   6.900   8.112  1.00  0.00    -0.507 OA
ATOM     25  H   UNL     1       1.946   7.479   8.892  1.00  0.00     0.293 HD
ENDBRANCH   6  24
BRANCH   8  26
ATOM     26  O   UNL     1      -2.298   4.442   9.224  1.00  0.00    -0.508 OA
ATOM     27  H   UNL     1      -2.931   5.181   8.941  1.00  0.00     0.293 HD
ENDBRANCH   8  26
TORSDOF 6
ENDMDL
MODEL 3
REMARK VINA RESULT:    -7.015      1.152      7.043
REMARK INTER + INTRA:          -8.274
REMARK INTER:                  -8.740
REMARK INTRA:                   0.466
REMARK UNBOUND:                 0.382
REMARK SMILES COc1cc(-c2oc3cc(O)cc(O)c3c(=O)c2O)ccc1O
REMARK SMILES IDX 6 1 18 2 16 3 17 4 15 5 13 6 12 7 10 8 9 9 8 10 7 11 5 12
REMARK SMILES IDX 3 13 22 14 4 15 21 16 20 17 2 18 1 19 23 20 19 22 14 24
REMARK SMILES IDX 11 26
REMARK H PARENT 23 21 19 23 14 25 11 27
REMARK Flexibility Score: inf
ROOT
ATOM      1  C   UNL     1       2.894   1.956   7.633  1.00  0.00     0.180 A 
ATOM      2  C   UNL     1       4.115   2.221   6.990  1.00  0.00     0.208 A 
ATOM      3  C   UNL     1       4.977   1.151   6.698  1.00  0.00     0.238 A 
ATOM      4  O   UNL     1       6.092   1.400   6.171  1.00  0.00    -0.285 OA
ATOM      5  C   UNL     1       4.599  -0.171   7.036  1.00  0.00     0.111 A 
ATOM      6  C   UNL     1       5.375  -1.333   6.751  1.00  0.00     0.134 A 
ATOM      7  C   UNL     1       4.965  -2.577   7.248  1.00  0.00     0.093 A 
ATOM      8  C   UNL     1       3.772  -2.708   7.964  1.00  0.00     0.123 A 
ATOM      9  C   UNL     1       2.978  -1.589   8.197  1.00  0.00     0.094 A 
ATOM     10  C   UNL     1       3.380  -0.329   7.745  1.00  0.00     0.146 A 
ATOM     11  O   UNL     1       2.598   0.715   7.997  1.00  0.00    -0.452 OA
ENDROOT
BRANCH   1  12
ATOM     12  C   UNL     1       1.924   3.028   7.953  1.00  0.00     0.025 A 
ATOM     13  C   UNL     1       1.409   5.413   8.124  1.00  0.00     0.161 A 
ATOM     14  C   UNL     1       0.133   5.096   8.608  1.00  0.00     0.157 A 
ATOM     15  C   UNL     1       2.304   4.372   7.805  1.00  0.00     0.062 A 
ATOM     16  C   UNL     1      -0.243   3.758   8.776  1.00  0.00     0.051 A 
ATOM     17  C   UNL     1       0.647   2.731   8.458  1.00  0.00     0.016 A 
BRANCH  13  18
ATOM     18  O   UNL     1       1.752   6.766   7.976  1.00  0.00    -0.493 OA
ATOM     19  C   UNL     1       1.712   7.479   6.743  1.00  0.00     0.278 C 
ENDBRANCH  13  18
BRANCH  14  20
ATOM     20  O   UNL     1      -0.758   6.121   8.924  1.00  0.00    -0.504 OA
ATOM     21  H   UNL     1      -0.471   7.094   8.919  1.00  0.00     0.293 HD
ENDBRANCH  14  20
ENDBRANCH   1  12
BRANCH   2  22
ATOM     22  O   UNL     1       4.479   3.536   6.684  1.00  0.00    -0.502 OA
ATOM     23  H   UNL     1       5.134   3.761   5.945  1.00  0.00     0.293 HD
ENDBRANCH   2  22
BRANCH   6  24
ATOM     24  O   UNL     1       6.533  -1.326   5.967  1.00  0.00    -0.507 OA
ATOM     25  H   UNL     1       6.649  -1.846   5.110  1.00  0.00     0.293 HD
ENDBRANCH   6  24
BRANCH   8  26
ATOM     26  O   UNL     1       3.363  -3.951   8.442  1.00  0.00    -0.508 OA
ATOM     27  H   UNL     1       3.759  -4.813   8.083  1.00  0.00     0.293 HD
ENDBRANCH   8  26
TORSDOF 6
ENDMDL
MODEL 4
REMARK VINA RESULT:    -6.883      1.769      2.667
REMARK INTER + INTRA:          -8.110
REMARK INTER:                  -8.003
REMARK INTRA:                  -0.108
REMARK UNBOUND:                 0.382
REMARK SMILES COc1cc(-c2oc3cc(O)cc(O)c3c(=O)c2O)ccc1O
REMARK SMILES IDX 6 1 18 2 16 3 17 4 15 5 13 6 12 7 10 8 9 9 8 10 7 11 5 12
REMARK SMILES IDX 3 13 22 14 4 15 21 16 20 17 2 18 1 19 23 20 19 22 14 24
REMARK SMILES IDX 11 26
REMARK H PARENT 23 21 19 23 14 25 11 27
REMARK Flexibility Score: inf
ROOT
ATOM      1  C   UNL     1       3.555   3.824   7.428  1.00  0.00     0.180 A 
ATOM      2  C   UNL     1       3.772   5.123   6.937  1.00  0.00     0.208 A 
ATOM      3  C   UNL     1       2.743   6.073   7.045  1.00  0.00     0.238 A 
ATOM      4  O   UNL     1       2.923   7.218   6.556  1.00  0.00    -0.285 OA
ATOM      5  C   UNL     1       1.517   5.717   7.659  1.00  0.00     0.111 A 
ATOM      6  C   UNL     1       0.423   6.609   7.859  1.00  0.00     0.134 A 
ATOM      7  C   UNL     1      -0.789   6.115   8.358  1.00  0.00     0.093 A 
ATOM      8  C   UNL     1      -0.923   4.774   8.726  1.00  0.00     0.123 A 
ATOM      9  C   UNL     1       0.159   3.908   8.590  1.00  0.00     0.094 A 
ATOM     10  C   UNL     1       1.369   4.364   8.060  1.00  0.00     0.146 A 
ATOM     11  O   UNL     1       2.372   3.503   7.938  1.00  0.00    -0.452 OA
ENDROOT
BRANCH   1  12
ATOM     12  C   UNL     1       4.600   2.776   7.371  1.00  0.00     0.025 A 
ATOM     13  C   UNL     1       5.242   0.477   6.837  1.00  0.00     0.161 A 
ATOM     14  C   UNL     1       6.538   0.738   7.303  1.00  0.00     0.157 A 
ATOM     15  C   UNL     1       4.274   1.501   6.881  1.00  0.00     0.062 A 
ATOM     16  C   UNL     1       6.861   2.003   7.811  1.00  0.00     0.051 A 
ATOM     17  C   UNL     1       5.899   3.012   7.852  1.00  0.00     0.016 A 
BRANCH  13  18
ATOM     18  O   UNL     1       4.955  -0.804   6.341  1.00  0.00    -0.493 OA
ATOM     19  C   UNL     1       4.322  -1.836   7.091  1.00  0.00     0.278 C 
ENDBRANCH  13  18
BRANCH  14  20
ATOM     20  O   UNL     1       7.501  -0.269   7.261  1.00  0.00    -0.504 OA
ATOM     21  H   UNL     1       7.657  -0.819   6.424  1.00  0.00     0.293 HD
ENDBRANCH  14  20
ENDBRANCH   1  12
BRANCH   2  22
ATOM     22  O   UNL     1       4.982   5.447   6.315  1.00  0.00    -0.502 OA
ATOM     23  H   UNL     1       5.671   4.747   6.069  1.00  0.00     0.293 HD
ENDBRANCH   2  22
BRANCH   6  24
ATOM     24  O   UNL     1       0.481   7.984   7.611  1.00  0.00    -0.507 OA
ATOM     25  H   UNL     1       0.810   8.399   6.753  1.00  0.00     0.293 HD
ENDBRANCH   6  24
BRANCH   8  26
ATOM     26  O   UNL     1      -2.127   4.293   9.236  1.00  0.00    -0.508 OA
ATOM     27  H   UNL     1      -2.609   4.768   9.990  1.00  0.00     0.293 HD
ENDBRANCH   8  26
TORSDOF 6
ENDMDL
MODEL 5
REMARK VINA RESULT:    -6.840      1.183      6.746
REMARK INTER + INTRA:          -8.058
REMARK INTER:                  -8.511
REMARK INTRA:                   0.452
REMARK UNBOUND:                 0.382
REMARK SMILES COc1cc(-c2oc3cc(O)cc(O)c3c(=O)c2O)ccc1O
REMARK SMILES IDX 6 1 18 2 16 3 17 4 15 5 13 6 12 7 10 8 9 9 8 10 7 11 5 12
REMARK SMILES IDX 3 13 22 14 4 15 21 16 20 17 2 18 1 19 23 20 19 22 14 24
REMARK SMILES IDX 11 26
REMARK H PARENT 23 21 19 23 14 25 11 27
REMARK Flexibility Score: inf
ROOT
ATOM      1  C   UNL     1       3.444   2.382   7.340  1.00  0.00     0.180 A 
ATOM      2  C   UNL     1       4.697   2.441   6.707  1.00  0.00     0.208 A 
ATOM      3  C   UNL     1       5.399   1.246   6.474  1.00  0.00     0.238 A 
ATOM      4  O   UNL     1       6.544   1.308   5.956  1.00  0.00    -0.285 OA
ATOM      5  C   UNL     1       4.831   0.008   6.862  1.00  0.00     0.111 A 
ATOM      6  C   UNL     1       5.433  -1.265   6.639  1.00  0.00     0.134 A 
ATOM      7  C   UNL     1       4.843  -2.414   7.181  1.00  0.00     0.093 A 
ATOM      8  C   UNL     1       3.637  -2.341   7.883  1.00  0.00     0.123 A 
ATOM      9  C   UNL     1       3.010  -1.109   8.054  1.00  0.00     0.094 A 
ATOM     10  C   UNL     1       3.594   0.059   7.556  1.00  0.00     0.146 A 
ATOM     11  O   UNL     1       2.968   1.213   7.751  1.00  0.00    -0.452 OA
ENDROOT
BRANCH   1  12
ATOM     12  C   UNL     1       2.635   3.596   7.598  1.00  0.00     0.025 A 
ATOM     13  C   UNL     1       0.660   4.630   8.604  1.00  0.00     0.161 A 
ATOM     14  C   UNL     1       1.037   5.865   8.059  1.00  0.00     0.157 A 
ATOM     15  C   UNL     1       1.462   3.496   8.363  1.00  0.00     0.062 A 
ATOM     16  C   UNL     1       2.195   5.965   7.278  1.00  0.00     0.051 A 
ATOM     17  C   UNL     1       2.986   4.838   7.043  1.00  0.00     0.016 A 
BRANCH  13  18
ATOM     18  O   UNL     1      -0.511   4.568   9.375  1.00  0.00    -0.493 OA
ATOM     19  C   UNL     1      -1.827   4.474   8.837  1.00  0.00     0.278 C 
ENDBRANCH  13  18
BRANCH  14  20
ATOM     20  O   UNL     1       0.250   6.990   8.295  1.00  0.00    -0.504 OA
ATOM     21  H   UNL     1       0.050   7.310   9.236  1.00  0.00     0.293 HD
ENDBRANCH  14  20
ENDBRANCH   1  12
BRANCH   2  22
ATOM     22  O   UNL     1       5.250   3.675   6.352  1.00  0.00    -0.502 OA
ATOM     23  H   UNL     1       4.683   4.455   6.041  1.00  0.00     0.293 HD
ENDBRANCH   2  22
BRANCH   6  24
ATOM     24  O   UNL     1       6.589  -1.459   5.875  1.00  0.00    -0.507 OA
ATOM     25  H   UNL     1       6.640  -1.348   4.874  1.00  0.00     0.293 HD
ENDBRANCH   6  24
BRANCH   8  26
ATOM     26  O   UNL     1       3.048  -3.490   8.406  1.00  0.00    -0.508 OA
ATOM     27  H   UNL     1       2.429  -4.068   7.849  1.00  0.00     0.293 HD
ENDBRANCH   8  26
TORSDOF 6
ENDMDL
MODEL 6
REMARK VINA RESULT:    -6.702      2.332      3.462
REMARK INTER + INTRA:          -7.888
REMARK INTER:                  -8.015
REMARK INTRA:                   0.127
REMARK UNBOUND:                 0.382
REMARK SMILES COc1cc(-c2oc3cc(O)cc(O)c3c(=O)c2O)ccc1O
REMARK SMILES IDX 6 1 18 2 16 3 17 4 15 5 13 6 12 7 10 8 9 9 8 10 7 11 5 12
REMARK SMILES IDX 3 13 22 14 4 15 21 16 20 17 2 18 1 19 23 20 19 22 14 24
REMARK SMILES IDX 11 26
REMARK H PARENT 23 21 19 23 14 25 11 27
REMARK Flexibility Score: inf
ROOT
ATOM      1  C   UNL     1       3.473   3.722   7.411  1.00  0.00     0.180 A 
ATOM      2  C   UNL     1       3.751   5.026   6.968  1.00  0.00     0.208 A 
ATOM      3  C   UNL     1       2.771   6.021   7.122  1.00  0.00     0.238 A 
ATOM      4  O   UNL     1       3.005   7.174   6.675  1.00  0.00    -0.285 OA
ATOM      5  C   UNL     1       1.534   5.703   7.733  1.00  0.00     0.111 A 
ATOM      6  C   UNL     1       0.487   6.640   7.977  1.00  0.00     0.134 A 
ATOM      7  C   UNL     1      -0.744   6.188   8.469  1.00  0.00     0.093 A 
ATOM      8  C   UNL     1      -0.942   4.841   8.786  1.00  0.00     0.123 A 
ATOM      9  C   UNL     1       0.094   3.929   8.607  1.00  0.00     0.094 A 
ATOM     10  C   UNL     1       1.322   4.344   8.084  1.00  0.00     0.146 A 
ATOM     11  O   UNL     1       2.280   3.440   7.919  1.00  0.00    -0.452 OA
ENDROOT
BRANCH   1  12
ATOM     12  C   UNL     1       4.464   2.626   7.304  1.00  0.00     0.025 A 
ATOM     13  C   UNL     1       6.790   1.880   7.409  1.00  0.00     0.161 A 
ATOM     14  C   UNL     1       6.385   0.587   7.050  1.00  0.00     0.157 A 
ATOM     15  C   UNL     1       5.823   2.898   7.527  1.00  0.00     0.062 A 
ATOM     16  C   UNL     1       5.033   0.316   6.807  1.00  0.00     0.051 A 
ATOM     17  C   UNL     1       4.079   1.329   6.926  1.00  0.00     0.016 A 
BRANCH  13  18
ATOM     18  O   UNL     1       8.155   2.114   7.637  1.00  0.00    -0.493 OA
ATOM     19  C   UNL     1       9.052   2.662   6.676  1.00  0.00     0.278 C 
ENDBRANCH  13  18
BRANCH  14  20
ATOM     20  O   UNL     1       7.336  -0.425   6.933  1.00  0.00    -0.504 OA
ATOM     21  H   UNL     1       8.329  -0.230   6.997  1.00  0.00     0.293 HD
ENDBRANCH  14  20
ENDBRANCH   1  12
BRANCH   2  22
ATOM     22  O   UNL     1       4.970   5.314   6.348  1.00  0.00    -0.502 OA
ATOM     23  H   UNL     1       5.606   4.589   6.037  1.00  0.00     0.293 HD
ENDBRANCH   2  22
BRANCH   6  24
ATOM     24  O   UNL     1       0.611   8.019   7.781  1.00  0.00    -0.507 OA
ATOM     25  H   UNL     1       0.587   8.476   6.883  1.00  0.00     0.293 HD
ENDBRANCH   6  24
BRANCH   8  26
ATOM     26  O   UNL     1      -2.165   4.402   9.289  1.00  0.00    -0.508 OA
ATOM     27  H   UNL     1      -2.935   5.043   9.444  1.00  0.00     0.293 HD
ENDBRANCH   8  26
TORSDOF 6
ENDMDL
MODEL 7
REMARK VINA RESULT:    -6.697      2.378      7.999
REMARK INTER + INTRA:          -7.882
REMARK INTER:                  -7.810
REMARK INTRA:                  -0.072
REMARK UNBOUND:                 0.382
REMARK SMILES COc1cc(-c2oc3cc(O)cc(O)c3c(=O)c2O)ccc1O
REMARK SMILES IDX 6 1 18 2 16 3 17 4 15 5 13 6 12 7 10 8 9 9 8 10 7 11 5 12
REMARK SMILES IDX 3 13 22 14 4 15 21 16 20 17 2 18 1 19 23 20 19 22 14 24
REMARK SMILES IDX 11 26
REMARK H PARENT 23 21 19 23 14 25 11 27
REMARK Flexibility Score: inf
ROOT
ATOM      1  C   UNL     1       1.984   4.343   7.913  1.00  0.00     0.180 A 
ATOM      2  C   UNL     1       1.504   3.038   8.117  1.00  0.00     0.208 A 
ATOM      3  C   UNL     1       2.359   1.951   7.873  1.00  0.00     0.238 A 
ATOM      4  O   UNL     1       1.908   0.785   8.006  1.00  0.00    -0.285 OA
ATOM      5  C   UNL     1       3.689   2.183   7.445  1.00  0.00     0.111 A 
ATOM      6  C   UNL     1       4.654   1.160   7.208  1.00  0.00     0.134 A 
ATOM      7  C   UNL     1       5.899   1.497   6.661  1.00  0.00     0.093 A 
ATOM      8  C   UNL     1       6.236   2.829   6.405  1.00  0.00     0.123 A 
ATOM      9  C   UNL     1       5.322   3.841   6.689  1.00  0.00     0.094 A 
ATOM     10  C   UNL     1       4.059   3.532   7.201  1.00  0.00     0.146 A 
ATOM     11  O   UNL     1       3.214   4.526   7.447  1.00  0.00    -0.452 OA
ENDROOT
BRANCH   1  12
ATOM     12  C   UNL     1       1.150   5.539   8.171  1.00  0.00     0.025 A 
ATOM     13  C   UNL     1       0.346   7.734   7.453  1.00  0.00     0.161 A 
ATOM     14  C   UNL     1      -0.374   7.855   8.649  1.00  0.00     0.157 A 
ATOM     15  C   UNL     1       1.113   6.574   7.223  1.00  0.00     0.062 A 
ATOM     16  C   UNL     1      -0.324   6.833   9.606  1.00  0.00     0.051 A 
ATOM     17  C   UNL     1       0.438   5.686   9.373  1.00  0.00     0.016 A 
BRANCH  13  18
ATOM     18  O   UNL     1       0.276   8.782   6.522  1.00  0.00    -0.493 OA
ATOM     19  C   UNL     1       1.227   9.838   6.422  1.00  0.00     0.278 C 
ENDBRANCH  13  18
BRANCH  14  20
ATOM     20  O   UNL     1      -1.136   8.998   8.882  1.00  0.00    -0.504 OA
ATOM     21  H   UNL     1      -0.937   9.874   8.411  1.00  0.00     0.293 HD
ENDBRANCH  14  20
ENDBRANCH   1  12
BRANCH   2  22
ATOM     22  O   UNL     1       0.181   2.830   8.519  1.00  0.00    -0.502 OA
ATOM     23  H   UNL     1      -0.575   3.444   8.240  1.00  0.00     0.293 HD
ENDBRANCH   2  22
BRANCH   6  24
ATOM     24  O   UNL     1       4.453  -0.189   7.514  1.00  0.00    -0.507 OA
ATOM     25  H   UNL     1       3.931  -0.526   8.309  1.00  0.00     0.293 HD
ENDBRANCH   6  24
BRANCH   8  26
ATOM     26  O   UNL     1       7.481   3.158   5.875  1.00  0.00    -0.508 OA
ATOM     27  H   UNL     1       8.342   2.900   6.345  1.00  0.00     0.293 HD
ENDBRANCH   8  26
TORSDOF 6
ENDMDL
MODEL 8
REMARK VINA RESULT:    -6.657      2.479      5.185
REMARK INTER + INTRA:          -7.832
REMARK INTER:                  -8.081
REMARK INTRA:                   0.249
REMARK UNBOUND:                 0.382
REMARK SMILES COc1cc(-c2oc3cc(O)cc(O)c3c(=O)c2O)ccc1O
REMARK SMILES IDX 6 1 18 2 16 3 17 4 15 5 13 6 12 7 10 8 9 9 8 10 7 11 5 12
REMARK SMILES IDX 3 13 22 14 4 15 21 16 20 17 2 18 1 19 23 20 19 22 14 24
REMARK SMILES IDX 11 26
REMARK H PARENT 23 21 19 23 14 25 11 27
REMARK Flexibility Score: inf
ROOT
ATOM      1  C   UNL     1       1.820   5.109   7.981  1.00  0.00     0.180 A 
ATOM      2  C   UNL     1       0.766   5.278   8.896  1.00  0.00     0.208 A 
ATOM      3  C   UNL     1       0.169   6.544   9.018  1.00  0.00     0.238 A 
ATOM      4  O   UNL     1      -0.738   6.703   9.876  1.00  0.00    -0.285 OA
ATOM      5  C   UNL     1       0.620   7.617   8.212  1.00  0.00     0.111 A 
ATOM      6  C   UNL     1       0.061   8.929   8.224  1.00  0.00     0.134 A 
ATOM      7  C   UNL     1       0.671   9.947   7.480  1.00  0.00     0.093 A 
ATOM      8  C   UNL     1       1.783   9.684   6.676  1.00  0.00     0.123 A 
ATOM      9  C   UNL     1       2.300   8.393   6.612  1.00  0.00     0.094 A 
ATOM     10  C   UNL     1       1.734   7.364   7.371  1.00  0.00     0.146 A 
ATOM     11  O   UNL     1       2.265   6.150   7.289  1.00  0.00    -0.452 OA
ENDROOT
BRANCH   1  12
ATOM     12  C   UNL     1       2.484   3.800   7.779  1.00  0.00     0.025 A 
ATOM     13  C   UNL     1       4.405   2.522   6.968  1.00  0.00     0.161 A 
ATOM     14  C   UNL     1       3.755   1.332   7.322  1.00  0.00     0.157 A 
ATOM     15  C   UNL     1       3.760   3.755   7.194  1.00  0.00     0.062 A 
ATOM     16  C   UNL     1       2.474   1.372   7.887  1.00  0.00     0.051 A 
ATOM     17  C   UNL     1       1.840   2.596   8.109  1.00  0.00     0.016 A 
BRANCH  13  18
ATOM     18  O   UNL     1       5.685   2.441   6.398  1.00  0.00    -0.493 OA
ATOM     19  C   UNL     1       6.890   2.806   7.063  1.00  0.00     0.278 C 
ENDBRANCH  13  18
BRANCH  14  20
ATOM     20  O   UNL     1       4.388   0.110   7.103  1.00  0.00    -0.504 OA
ATOM     21  H   UNL     1       4.500  -0.270   6.170  1.00  0.00     0.293 HD
ENDBRANCH  14  20
ENDBRANCH   1  12
BRANCH   2  22
ATOM     22  O   UNL     1       0.351   4.211   9.696  1.00  0.00    -0.502 OA
ATOM     23  H   UNL     1       0.066   4.334  10.661  1.00  0.00     0.293 HD
ENDBRANCH   2  22
BRANCH   6  24
ATOM     24  O   UNL     1      -1.101   9.277   8.921  1.00  0.00    -0.507 OA
ATOM     25  H   UNL     1      -1.125   9.577   9.883  1.00  0.00     0.293 HD
ENDBRANCH   6  24
BRANCH   8  26
ATOM     26  O   UNL     1       2.375  10.699   5.927  1.00  0.00    -0.508 OA
ATOM     27  H   UNL     1       1.828  11.455   5.534  1.00  0.00     0.293 HD
ENDBRANCH   8  26
TORSDOF 6
ENDMDL
MODEL 9
REMARK VINA RESULT:    -6.636      2.089      3.907
REMARK INTER + INTRA:          -7.806
REMARK INTER:                  -8.147
REMARK INTRA:                   0.341
REMARK UNBOUND:                 0.382
REMARK SMILES COc1cc(-c2oc3cc(O)cc(O)c3c(=O)c2O)ccc1O
REMARK SMILES IDX 6 1 18 2 16 3 17 4 15 5 13 6 12 7 10 8 9 9 8 10 7 11 5 12
REMARK SMILES IDX 3 13 22 14 4 15 21 16 20 17 2 18 1 19 23 20 19 22 14 24
REMARK SMILES IDX 11 26
REMARK H PARENT 23 21 19 23 14 25 11 27
REMARK Flexibility Score: inf
ROOT
ATOM      1  C   UNL     1       2.962   3.584   7.787  1.00  0.00     0.180 A 
ATOM      2  C   UNL     1       1.874   2.761   8.125  1.00  0.00     0.208 A 
ATOM      3  C   UNL     1       0.666   3.359   8.521  1.00  0.00     0.238 A 
ATOM      4  O   UNL     1      -0.287   2.618   8.875  1.00  0.00    -0.285 OA
ATOM      5  C   UNL     1       0.555   4.770   8.556  1.00  0.00     0.111 A 
ATOM      6  C   UNL     1      -0.631   5.482   8.902  1.00  0.00     0.134 A 
ATOM      7  C   UNL     1      -0.589   6.876   9.029  1.00  0.00     0.093 A 
ATOM      8  C   UNL     1       0.583   7.588   8.760  1.00  0.00     0.123 A 
ATOM      9  C   UNL     1       1.731   6.907   8.364  1.00  0.00     0.094 A 
ATOM     10  C   UNL     1       1.729   5.513   8.263  1.00  0.00     0.146 A 
ATOM     11  O   UNL     1       2.848   4.902   7.893  1.00  0.00    -0.452 OA
ENDROOT
BRANCH   1  12
ATOM     12  C   UNL     1       4.259   3.029   7.338  1.00  0.00     0.025 A 
ATOM     13  C   UNL     1       5.536   1.161   6.408  1.00  0.00     0.161 A 
ATOM     14  C   UNL     1       6.713   1.913   6.532  1.00  0.00     0.157 A 
ATOM     15  C   UNL     1       4.311   1.724   6.821  1.00  0.00     0.062 A 
ATOM     16  C   UNL     1       6.668   3.207   7.066  1.00  0.00     0.051 A 
ATOM     17  C   UNL     1       5.452   3.759   7.473  1.00  0.00     0.016 A 
BRANCH  13  18
ATOM     18  O   UNL     1       5.622  -0.134   5.875  1.00  0.00    -0.493 OA
ATOM     19  C   UNL     1       5.373  -1.328   6.610  1.00  0.00     0.278 C 
ENDBRANCH  13  18
BRANCH  14  20
ATOM     20  O   UNL     1       7.927   1.363   6.124  1.00  0.00    -0.504 OA
ATOM     21  H   UNL     1       8.147   0.386   6.284  1.00  0.00     0.293 HD
ENDBRANCH  14  20
ENDBRANCH   1  12
BRANCH   2  22
ATOM     22  O   UNL     1       2.011   1.370   8.105  1.00  0.00    -0.502 OA
ATOM     23  H   UNL     1       2.800   0.896   8.527  1.00  0.00     0.293 HD
ENDBRANCH   2  22
BRANCH   6  24
ATOM     24  O   UNL     1      -1.875   4.875   9.101  1.00  0.00    -0.507 OA
ATOM     25  H   UNL     1      -2.031   3.879   9.125  1.00  0.00     0.293 HD
ENDBRANCH   6  24
BRANCH   8  26
ATOM     26  O   UNL     1       0.613   8.976   8.875  1.00  0.00    -0.508 OA
ATOM     27  H   UNL     1       0.190   9.452   9.664  1.00  0.00     0.293 HD
ENDBRANCH   8  26
TORSDOF 6
ENDMDL
