MODEL 1
REMARK VINA RESULT:    -5.700      0.000      0.000
REMARK INTER + INTRA:          -7.821
REMARK INTER:                  -7.367
REMARK INTRA:                  -0.454
REMARK UNBOUND:                -0.454
REMARK SMILES CCO[C@H]1O[C@@H](CO)[C@H](O)[C@@H](O)[C@H]1O
REMARK SMILES IDX 4 1 13 2 11 3 9 4 6 5 5 6 3 7 2 8 1 9 14 10 12 12 7 14 8 15
REMARK SMILES IDX 10 17
REMARK H PARENT 14 11 12 13 8 16 10 18
REMARK Flexibility Score: inf
ROOT
ATOM      1  C   UNL     1     -15.738 -11.819   0.335  1.00  0.00     0.281 C 
ATOM      2  C   UNL     1     -14.904 -13.097   0.548  1.00  0.00     0.202 C 
ATOM      3  C   UNL     1     -14.506 -13.728  -0.793  1.00  0.00     0.179 C 
ATOM      4  C   UNL     1     -15.754 -13.916  -1.670  1.00  0.00     0.177 C 
ATOM      5  C   UNL     1     -16.620 -12.632  -1.738  1.00  0.00     0.178 C 
ATOM      6  O   UNL     1     -16.893 -12.061  -0.462  1.00  0.00    -0.341 OA
ENDROOT
BRANCH   1   7
ATOM      7  O   UNL     1     -14.934 -10.786  -0.209  1.00  0.00    -0.350 OA
BRANCH   7   8
ATOM      8  C   UNL     1     -15.267  -9.545   0.376  1.00  0.00     0.160 C 
ATOM      9  C   UNL     1     -15.657  -8.567  -0.722  1.00  0.00     0.035 C 
ENDBRANCH   7   8
ENDBRANCH   1   7
BRANCH   2  10
ATOM     10  O   UNL     1     -13.753 -12.812   1.301  1.00  0.00    -0.385 OA
ATOM     11  H   UNL     1     -13.643 -13.556   1.951  1.00  0.00     0.211 HD
ENDBRANCH   2  10
BRANCH   3  12
ATOM     12  O   UNL     1     -13.562 -12.934  -1.465  1.00  0.00    -0.387 OA
ATOM     13  H   UNL     1     -13.100 -12.384  -0.779  1.00  0.00     0.211 HD
ENDBRANCH   3  12
BRANCH   5  14
ATOM     14  C   UNL     1     -16.126 -11.588  -2.760  1.00  0.00     0.191 C 
BRANCH  14  15
ATOM     15  O   UNL     1     -15.198 -12.176  -3.631  1.00  0.00    -0.394 OA
ATOM     16  H   UNL     1     -15.188 -13.143  -3.412  1.00  0.00     0.210 HD
ENDBRANCH  14  15
ENDBRANCH   5  14
BRANCH   4  17
ATOM     17  O   UNL     1     -16.540 -14.960  -1.150  1.00  0.00    -0.387 OA
ATOM     18  H   UNL     1     -16.225 -15.801  -1.574  1.00  0.00     0.211 HD
ENDBRANCH   4  17
TORSDOF 7
ENDMDL
MODEL 2
REMARK VINA RESULT:    -5.682      2.024      4.252
REMARK INTER + INTRA:          -7.797
REMARK INTER:                  -7.357
REMARK INTRA:                  -0.440
REMARK UNBOUND:                -0.454
REMARK SMILES CCO[C@H]1O[C@@H](CO)[C@H](O)[C@@H](O)[C@H]1O
REMARK SMILES IDX 4 1 13 2 11 3 9 4 6 5 5 6 3 7 2 8 1 9 14 10 12 12 7 14 8 15
REMARK SMILES IDX 10 17
REMARK H PARENT 14 11 12 13 8 16 10 18
REMARK Flexibility Score: inf
ROOT
ATOM      1  C   UNL     1     -16.247 -11.681  -2.371  1.00  0.00     0.281 C 
ATOM      2  C   UNL     1     -15.245 -11.167  -1.320  1.00  0.00     0.202 C 
ATOM      3  C   UNL     1     -15.918 -10.993   0.048  1.00  0.00     0.179 C 
ATOM      4  C   UNL     1     -17.185 -10.135  -0.102  1.00  0.00     0.177 C 
ATOM      5  C   UNL     1     -18.089 -10.625  -1.263  1.00  0.00     0.178 C 
ATOM      6  O   UNL     1     -17.385 -10.833  -2.484  1.00  0.00    -0.341 OA
ENDROOT
BRANCH   1   7
ATOM      7  O   UNL     1     -16.619 -13.020  -2.092  1.00  0.00    -0.350 OA
BRANCH   7   8
ATOM      8  C   UNL     1     -16.794 -13.742  -3.293  1.00  0.00     0.160 C 
ATOM      9  C   UNL     1     -17.593 -15.003  -3.003  1.00  0.00     0.035 C 
ENDBRANCH   7   8
ENDBRANCH   1   7
BRANCH   2  10
ATOM     10  O   UNL     1     -14.158 -12.050  -1.206  1.00  0.00    -0.385 OA
ATOM     11  H   UNL     1     -14.022 -12.215  -0.236  1.00  0.00     0.211 HD
ENDBRANCH   2  10
BRANCH   3  12
ATOM     12  O   UNL     1     -16.245 -12.236   0.614  1.00  0.00    -0.387 OA
ATOM     13  H   UNL     1     -16.116 -12.155   1.595  1.00  0.00     0.211 HD
ENDBRANCH   3  12
BRANCH   5  14
ATOM     14  C   UNL     1     -19.002 -11.813  -0.897  1.00  0.00     0.191 C 
BRANCH  14  15
ATOM     15  O   UNL     1     -19.092 -11.933   0.497  1.00  0.00    -0.394 OA
ATOM     16  H   UNL     1     -18.583 -12.751   0.737  1.00  0.00     0.210 HD
ENDBRANCH  14  15
ENDBRANCH   5  14
BRANCH   4  17
ATOM     17  O   UNL     1     -16.821  -8.799  -0.351  1.00  0.00    -0.387 OA
ATOM     18  H   UNL     1     -16.151  -8.812  -1.084  1.00  0.00     0.211 HD
ENDBRANCH   4  17
TORSDOF 7
ENDMDL
MODEL 3
REMARK VINA RESULT:    -5.650      1.923      2.933
REMARK INTER + INTRA:          -7.756
REMARK INTER:                  -7.251
REMARK INTRA:                  -0.505
REMARK UNBOUND:                -0.454
REMARK SMILES CCO[C@H]1O[C@@H](CO)[C@H](O)[C@@H](O)[C@H]1O
REMARK SMILES IDX 4 1 13 2 11 3 9 4 6 5 5 6 3 7 2 8 1 9 14 10 12 12 7 14 8 15
REMARK SMILES IDX 10 17
REMARK H PARENT 14 11 12 13 8 16 10 18
REMARK Flexibility Score: inf
ROOT
ATOM      1  C   UNL     1     -18.104 -11.393  -1.759  1.00  0.00     0.281 C 
ATOM      2  C   UNL     1     -18.573 -12.506  -0.804  1.00  0.00     0.202 C 
ATOM      3  C   UNL     1     -17.381 -13.293  -0.243  1.00  0.00     0.179 C 
ATOM      4  C   UNL     1     -16.486 -13.774  -1.396  1.00  0.00     0.177 C 
ATOM      5  C   UNL     1     -16.157 -12.635  -2.396  1.00  0.00     0.178 C 
ATOM      6  O   UNL     1     -17.302 -11.902  -2.820  1.00  0.00    -0.341 OA
ENDROOT
BRANCH   1   7
ATOM      7  O   UNL     1     -17.434 -10.371  -1.042  1.00  0.00    -0.350 OA
BRANCH   7   8
ATOM      8  C   UNL     1     -17.883  -9.099  -1.461  1.00  0.00     0.160 C 
ATOM      9  C   UNL     1     -16.785  -8.426  -2.271  1.00  0.00     0.035 C 
ENDBRANCH   7   8
ENDBRANCH   1   7
BRANCH   2  10
ATOM     10  O   UNL     1     -19.324 -11.963   0.252  1.00  0.00    -0.385 OA
ATOM     11  H   UNL     1     -20.140 -12.523   0.342  1.00  0.00     0.211 HD
ENDBRANCH   2  10
BRANCH   3  12
ATOM     12  O   UNL     1     -16.633 -12.509   0.651  1.00  0.00    -0.387 OA
ATOM     13  H   UNL     1     -15.980 -11.992   0.111  1.00  0.00     0.211 HD
ENDBRANCH   3  12
BRANCH   5  14
ATOM     14  C   UNL     1     -14.999 -11.718  -1.951  1.00  0.00     0.191 C 
BRANCH  14  15
ATOM     15  O   UNL     1     -14.103 -12.437  -1.149  1.00  0.00    -0.394 OA
ATOM     16  H   UNL     1     -14.496 -12.449  -0.238  1.00  0.00     0.210 HD
ENDBRANCH  14  15
ENDBRANCH   5  14
BRANCH   4  17
ATOM     17  O   UNL     1     -17.136 -14.808  -2.094  1.00  0.00    -0.387 OA
ATOM     18  H   UNL     1     -16.456 -15.511  -2.272  1.00  0.00     0.211 HD
ENDBRANCH   4  17
TORSDOF 7
ENDMDL
MODEL 4
REMARK VINA RESULT:    -5.619      2.049      4.758
REMARK INTER + INTRA:          -7.715
REMARK INTER:                  -7.256
REMARK INTRA:                  -0.460
REMARK UNBOUND:                -0.454
REMARK SMILES CCO[C@H]1O[C@@H](CO)[C@H](O)[C@@H](O)[C@H]1O
REMARK SMILES IDX 4 1 13 2 11 3 9 4 6 5 5 6 3 7 2 8 1 9 14 10 12 12 7 14 8 15
REMARK SMILES IDX 10 17
REMARK H PARENT 14 11 12 13 8 16 10 18
REMARK Flexibility Score: inf
ROOT
ATOM      1  C   UNL     1     -16.343 -10.609  -2.947  1.00  0.00     0.281 C 
ATOM      2  C   UNL     1     -15.394  -9.522  -3.487  1.00  0.00     0.202 C 
ATOM      3  C   UNL     1     -14.604  -8.863  -2.349  1.00  0.00     0.179 C 
ATOM      4  C   UNL     1     -15.572  -8.383  -1.254  1.00  0.00     0.177 C 
ATOM      5  C   UNL     1     -16.587  -9.482  -0.848  1.00  0.00     0.178 C 
ATOM      6  O   UNL     1     -17.232 -10.100  -1.958  1.00  0.00    -0.341 OA
ENDROOT
BRANCH   1   7
ATOM      7  O   UNL     1     -15.607 -11.720  -2.466  1.00  0.00    -0.350 OA
BRANCH   7   8
ATOM      8  C   UNL     1     -16.181 -12.927  -2.923  1.00  0.00     0.160 C 
ATOM      9  C   UNL     1     -15.999 -13.998  -1.858  1.00  0.00     0.035 C 
ENDBRANCH   7   8
ENDBRANCH   1   7
BRANCH   2  10
ATOM     10  O   UNL     1     -14.506 -10.070  -4.428  1.00  0.00    -0.385 OA
ATOM     11  H   UNL     1     -13.604 -10.059  -4.012  1.00  0.00     0.211 HD
ENDBRANCH   2  10
BRANCH   3  12
ATOM     12  O   UNL     1     -13.665  -9.754  -1.802  1.00  0.00    -0.387 OA
ATOM     13  H   UNL     1     -13.387 -10.368  -2.530  1.00  0.00     0.211 HD
ENDBRANCH   3  12
BRANCH   5  14
ATOM     14  C   UNL     1     -16.038 -10.509   0.163  1.00  0.00     0.191 C 
BRANCH  14  15
ATOM     15  O   UNL     1     -17.011 -11.482   0.431  1.00  0.00    -0.394 OA
ATOM     16  H   UNL     1     -16.625 -12.347   0.138  1.00  0.00     0.210 HD
ENDBRANCH  14  15
ENDBRANCH   5  14
BRANCH   4  17
ATOM     17  O   UNL     1     -16.286  -7.263  -1.717  1.00  0.00    -0.387 OA
ATOM     18  H   UNL     1     -15.628  -6.658  -2.152  1.00  0.00     0.211 HD
ENDBRANCH   4  17
TORSDOF 7
ENDMDL
MODEL 5
REMARK VINA RESULT:    -5.599      2.266      4.601
REMARK INTER + INTRA:          -7.690
REMARK INTER:                  -7.164
REMARK INTRA:                  -0.526
REMARK UNBOUND:                -0.454
REMARK SMILES CCO[C@H]1O[C@@H](CO)[C@H](O)[C@@H](O)[C@H]1O
REMARK SMILES IDX 4 1 13 2 11 3 9 4 6 5 5 6 3 7 2 8 1 9 14 10 12 12 7 14 8 15
REMARK SMILES IDX 10 17
REMARK H PARENT 14 11 12 13 8 16 10 18
REMARK Flexibility Score: inf
ROOT
ATOM      1  C   UNL     1     -16.832 -11.624  -0.747  1.00  0.00     0.281 C 
ATOM      2  C   UNL     1     -17.911 -10.914   0.093  1.00  0.00     0.202 C 
ATOM      3  C   UNL     1     -18.375  -9.618  -0.585  1.00  0.00     0.179 C 
ATOM      4  C   UNL     1     -17.156  -8.747  -0.930  1.00  0.00     0.177 C 
ATOM      5  C   UNL     1     -16.049  -9.553  -1.658  1.00  0.00     0.178 C 
ATOM      6  O   UNL     1     -15.718 -10.778  -1.012  1.00  0.00    -0.341 OA
ENDROOT
BRANCH   1   7
ATOM      7  O   UNL     1     -17.391 -12.142  -1.941  1.00  0.00    -0.350 OA
BRANCH   7   8
ATOM      8  C   UNL     1     -16.715 -13.320  -2.331  1.00  0.00     0.160 C 
ATOM      9  C   UNL     1     -16.732 -14.308  -1.175  1.00  0.00     0.035 C 
ENDBRANCH   7   8
ENDBRANCH   1   7
BRANCH   2  10
ATOM     10  O   UNL     1     -19.011 -11.764   0.298  1.00  0.00    -0.385 OA
ATOM     11  H   UNL     1     -19.811 -11.182   0.388  1.00  0.00     0.211 HD
ENDBRANCH   2  10
BRANCH   3  12
ATOM     12  O   UNL     1     -19.114  -9.891  -1.747  1.00  0.00    -0.387 OA
ATOM     13  H   UNL     1     -20.021  -9.509  -1.615  1.00  0.00     0.211 HD
ENDBRANCH   3  12
BRANCH   5  14
ATOM     14  C   UNL     1     -16.285  -9.728  -3.172  1.00  0.00     0.191 C 
BRANCH  14  15
ATOM     15  O   UNL     1     -17.146  -8.725  -3.640  1.00  0.00    -0.394 OA
ATOM     16  H   UNL     1     -17.507  -8.273  -2.834  1.00  0.00     0.210 HD
ENDBRANCH  14  15
ENDBRANCH   5  14
BRANCH   4  17
ATOM     17  O   UNL     1     -16.614  -8.208   0.251  1.00  0.00    -0.387 OA
ATOM     18  H   UNL     1     -15.775  -8.706   0.439  1.00  0.00     0.211 HD
ENDBRANCH   4  17
TORSDOF 7
ENDMDL
MODEL 6
REMARK VINA RESULT:    -5.597      1.271      3.160
REMARK INTER + INTRA:          -7.688
REMARK INTER:                  -7.237
REMARK INTRA:                  -0.451
REMARK UNBOUND:                -0.454
REMARK SMILES CCO[C@H]1O[C@@H](CO)[C@H](O)[C@@H](O)[C@H]1O
REMARK SMILES IDX 4 1 13 2 11 3 9 4 6 5 5 6 3 7 2 8 1 9 14 10 12 12 7 14 8 15
REMARK SMILES IDX 10 17
REMARK H PARENT 14 11 12 13 8 16 10 18
REMARK Flexibility Score: inf
ROOT
ATOM      1  C   UNL     1     -15.742 -11.310  -1.181  1.00  0.00     0.281 C 
ATOM      2  C   UNL     1     -17.157 -11.701  -1.648  1.00  0.00     0.202 C 
ATOM      3  C   UNL     1     -17.694 -12.895  -0.848  1.00  0.00     0.179 C 
ATOM      4  C   UNL     1     -16.671 -14.042  -0.875  1.00  0.00     0.177 C 
ATOM      5  C   UNL     1     -15.240 -13.557  -0.523  1.00  0.00     0.178 C 
ATOM      6  O   UNL     1     -14.834 -12.404  -1.254  1.00  0.00    -0.341 OA
ENDROOT
BRANCH   1   7
ATOM      7  O   UNL     1     -15.785 -10.751   0.121  1.00  0.00    -0.350 OA
BRANCH   7   8
ATOM      8  C   UNL     1     -15.084  -9.525   0.153  1.00  0.00     0.160 C 
ATOM      9  C   UNL     1     -15.975  -8.460   0.774  1.00  0.00     0.035 C 
ENDBRANCH   7   8
ENDBRANCH   1   7
BRANCH   2  10
ATOM     10  O   UNL     1     -18.034 -10.611  -1.523  1.00  0.00    -0.385 OA
ATOM     11  H   UNL     1     -18.893 -10.883  -1.942  1.00  0.00     0.211 HD
ENDBRANCH   2  10
BRANCH   3  12
ATOM     12  O   UNL     1     -17.971 -12.531   0.480  1.00  0.00    -0.387 OA
ATOM     13  H   UNL     1     -18.790 -11.970   0.466  1.00  0.00     0.211 HD
ENDBRANCH   3  12
BRANCH   5  14
ATOM     14  C   UNL     1     -14.970 -13.425   0.989  1.00  0.00     0.191 C 
BRANCH  14  15
ATOM     15  O   UNL     1     -13.697 -12.878   1.201  1.00  0.00    -0.394 OA
ATOM     16  H   UNL     1     -13.560 -12.209   0.481  1.00  0.00     0.210 HD
ENDBRANCH  14  15
ENDBRANCH   5  14
BRANCH   4  17
ATOM     17  O   UNL     1     -16.645 -14.618  -2.158  1.00  0.00    -0.387 OA
ATOM     18  H   UNL     1     -17.346 -14.162  -2.695  1.00  0.00     0.211 HD
ENDBRANCH   4  17
TORSDOF 7
ENDMDL
MODEL 7
REMARK VINA RESULT:    -5.580      2.150      3.772
REMARK INTER + INTRA:          -7.665
REMARK INTER:                  -7.163
REMARK INTRA:                  -0.502
REMARK UNBOUND:                -0.454
REMARK SMILES CCO[C@H]1O[C@@H](CO)[C@H](O)[C@@H](O)[C@H]1O
REMARK SMILES IDX 4 1 13 2 11 3 9 4 6 5 5 6 3 7 2 8 1 9 14 10 12 12 7 14 8 15
REMARK SMILES IDX 10 17
REMARK H PARENT 14 11 12 13 8 16 10 18
REMARK Flexibility Score: inf
ROOT
ATOM      1  C   UNL     1     -16.677  -9.419  -2.335  1.00  0.00     0.281 C 
ATOM      2  C   UNL     1     -16.635  -8.817  -0.918  1.00  0.00     0.202 C 
ATOM      3  C   UNL     1     -15.845  -9.716   0.042  1.00  0.00     0.179 C 
ATOM      4  C   UNL     1     -16.387 -11.153  -0.027  1.00  0.00     0.177 C 
ATOM      5  C   UNL     1     -16.530 -11.654  -1.487  1.00  0.00     0.178 C 
ATOM      6  O   UNL     1     -17.212 -10.738  -2.339  1.00  0.00    -0.341 OA
ENDROOT
BRANCH   1   7
ATOM      7  O   UNL     1     -15.393  -9.374  -2.934  1.00  0.00    -0.350 OA
BRANCH   7   8
ATOM      8  C   UNL     1     -15.508  -9.193  -4.330  1.00  0.00     0.160 C 
ATOM      9  C   UNL     1     -16.524  -8.096  -4.607  1.00  0.00     0.035 C 
ENDBRANCH   7   8
ENDBRANCH   1   7
BRANCH   2  10
ATOM     10  O   UNL     1     -16.063  -7.534  -0.947  1.00  0.00    -0.385 OA
ATOM     11  H   UNL     1     -16.234  -7.164  -1.854  1.00  0.00     0.211 HD
ENDBRANCH   2  10
BRANCH   3  12
ATOM     12  O   UNL     1     -14.474  -9.705  -0.265  1.00  0.00    -0.387 OA
ATOM     13  H   UNL     1     -14.181 -10.651  -0.333  1.00  0.00     0.211 HD
ENDBRANCH   3  12
BRANCH   5  14
ATOM     14  C   UNL     1     -15.219 -12.177  -2.109  1.00  0.00     0.191 C 
BRANCH  14  15
ATOM     15  O   UNL     1     -14.284 -12.440  -1.098  1.00  0.00    -0.394 OA
ATOM     16  H   UNL     1     -14.680 -13.156  -0.536  1.00  0.00     0.210 HD
ENDBRANCH  14  15
ENDBRANCH   5  14
BRANCH   4  17
ATOM     17  O   UNL     1     -17.649 -11.209   0.591  1.00  0.00    -0.387 OA
ATOM     18  H   UNL     1     -17.564 -11.819   1.371  1.00  0.00     0.211 HD
ENDBRANCH   4  17
TORSDOF 7
ENDMDL
MODEL 8
REMARK VINA RESULT:    -5.570      1.672      2.691
REMARK INTER + INTRA:          -7.652
REMARK INTER:                  -7.235
REMARK INTRA:                  -0.417
REMARK UNBOUND:                -0.454
REMARK SMILES CCO[C@H]1O[C@@H](CO)[C@H](O)[C@@H](O)[C@H]1O
REMARK SMILES IDX 4 1 13 2 11 3 9 4 6 5 5 6 3 7 2 8 1 9 14 10 12 12 7 14 8 15
REMARK SMILES IDX 10 17
REMARK H PARENT 14 11 12 13 8 16 10 18
REMARK Flexibility Score: inf
ROOT
ATOM      1  C   UNL     1     -15.834 -11.373   0.017  1.00  0.00     0.281 C 
ATOM      2  C   UNL     1     -14.937 -11.714  -1.189  1.00  0.00     0.202 C 
ATOM      3  C   UNL     1     -15.740 -12.412  -2.295  1.00  0.00     0.179 C 
ATOM      4  C   UNL     1     -16.504 -13.609  -1.706  1.00  0.00     0.177 C 
ATOM      5  C   UNL     1     -17.280 -13.231  -0.418  1.00  0.00     0.178 C 
ATOM      6  O   UNL     1     -16.493 -12.523   0.535  1.00  0.00    -0.341 OA
ENDROOT
BRANCH   1   7
ATOM      7  O   UNL     1     -16.754 -10.350  -0.320  1.00  0.00    -0.350 OA
BRANCH   7   8
ATOM      8  C   UNL     1     -16.588  -9.237   0.534  1.00  0.00     0.160 C 
ATOM      9  C   UNL     1     -17.951  -8.633   0.833  1.00  0.00     0.035 C 
ENDBRANCH   7   8
ENDBRANCH   1   7
BRANCH   2  10
ATOM     10  O   UNL     1     -14.337 -10.550  -1.699  1.00  0.00    -0.385 OA
ATOM     11  H   UNL     1     -14.905 -10.241  -2.453  1.00  0.00     0.211 HD
ENDBRANCH   2  10
BRANCH   3  12
ATOM     12  O   UNL     1     -16.639 -11.523  -2.906  1.00  0.00    -0.387 OA
ATOM     13  H   UNL     1     -16.116 -10.967  -3.541  1.00  0.00     0.211 HD
ENDBRANCH   3  12
BRANCH   5  14
ATOM     14  C   UNL     1     -18.644 -12.557  -0.676  1.00  0.00     0.191 C 
BRANCH  14  15
ATOM     15  O   UNL     1     -19.097 -11.935   0.496  1.00  0.00    -0.394 OA
ATOM     16  H   UNL     1     -19.501 -12.651   1.050  1.00  0.00     0.210 HD
ENDBRANCH  14  15
ENDBRANCH   5  14
BRANCH   4  17
ATOM     17  O   UNL     1     -15.596 -14.638  -1.396  1.00  0.00    -0.387 OA
ATOM     18  H   UNL     1     -15.941 -15.468  -1.820  1.00  0.00     0.211 HD
ENDBRANCH   4  17
TORSDOF 7
ENDMDL
MODEL 9
REMARK VINA RESULT:    -5.480      2.137      4.567
REMARK INTER + INTRA:          -7.536
REMARK INTER:                  -7.096
REMARK INTRA:                  -0.440
REMARK UNBOUND:                -0.454
REMARK SMILES CCO[C@H]1O[C@@H](CO)[C@H](O)[C@@H](O)[C@H]1O
REMARK SMILES IDX 4 1 13 2 11 3 9 4 6 5 5 6 3 7 2 8 1 9 14 10 12 12 7 14 8 15
REMARK SMILES IDX 10 17
REMARK H PARENT 14 11 12 13 8 16 10 18
REMARK Flexibility Score: inf
ROOT
ATOM      1  C   UNL     1     -16.733 -10.963  -1.192  1.00  0.00     0.281 C 
ATOM      2  C   UNL     1     -15.335 -10.498  -1.645  1.00  0.00     0.202 C 
ATOM      3  C   UNL     1     -14.895  -9.244  -0.878  1.00  0.00     0.179 C 
ATOM      4  C   UNL     1     -15.988  -8.168  -0.969  1.00  0.00     0.177 C 
ATOM      5  C   UNL     1     -17.393  -8.731  -0.629  1.00  0.00     0.178 C 
ATOM      6  O   UNL     1     -17.707  -9.934  -1.324  1.00  0.00    -0.341 OA
ENDROOT
BRANCH   1   7
ATOM      7  O   UNL     1     -16.685 -11.471   0.130  1.00  0.00    -0.350 OA
BRANCH   7   8
ATOM      8  C   UNL     1     -17.073 -12.829   0.150  1.00  0.00     0.160 C 
ATOM      9  C   UNL     1     -16.014 -13.638   0.883  1.00  0.00     0.035 C 
ENDBRANCH   7   8
ENDBRANCH   1   7
BRANCH   2  10
ATOM     10  O   UNL     1     -14.393 -11.524  -1.461  1.00  0.00    -0.385 OA
ATOM     11  H   UNL     1     -13.668 -11.150  -0.894  1.00  0.00     0.211 HD
ENDBRANCH   2  10
BRANCH   3  12
ATOM     12  O   UNL     1     -14.625  -9.542   0.468  1.00  0.00    -0.387 OA
ATOM     13  H   UNL     1     -14.968 -10.458   0.640  1.00  0.00     0.211 HD
ENDBRANCH   3  12
BRANCH   5  14
ATOM     14  C   UNL     1     -17.688  -8.826   0.881  1.00  0.00     0.191 C 
BRANCH  14  15
ATOM     15  O   UNL     1     -16.939  -7.865   1.575  1.00  0.00    -0.394 OA
ATOM     16  H   UNL     1     -16.760  -8.249   2.472  1.00  0.00     0.210 HD
ENDBRANCH  14  15
ENDBRANCH   5  14
BRANCH   4  17
ATOM     17  O   UNL     1     -16.021  -7.641  -2.273  1.00  0.00    -0.387 OA
ATOM     18  H   UNL     1     -16.932  -7.807  -2.631  1.00  0.00     0.211 HD
ENDBRANCH   4  17
TORSDOF 7
ENDMDL
