MODEL 1
REMARK VINA RESULT:    -6.190      0.000      0.000
REMARK INTER + INTRA:          -7.700
REMARK INTER:                  -7.456
REMARK INTRA:                  -0.244
REMARK UNBOUND:                -0.244
REMARK SMILES O=c1c(O)c(-c2ccc(O)c(O)c2)oc2cc(O)cc(O)c12
REMARK SMILES IDX 5 1 3 2 2 3 1 4 22 5 20 6 19 7 17 8 16 9 15 10 14 11 6 12
REMARK SMILES IDX 7 13 8 14 9 15 13 16 11 17 10 18 12 20 4 22 21 24 18 26
REMARK H PARENT 10 19 12 21 4 23 21 25 18 27
REMARK Flexibility Score: inf
ROOT
ATOM      1  C   UNL     1      -5.438   5.968   4.467  1.00  0.00     0.180 A 
ATOM      2  C   UNL     1      -4.052   6.191   4.522  1.00  0.00     0.208 A 
ATOM      3  C   UNL     1      -3.354   6.450   3.331  1.00  0.00     0.238 A 
ATOM      4  O   UNL     1      -2.104   6.594   3.381  1.00  0.00    -0.285 OA
ATOM      5  C   UNL     1      -4.055   6.498   2.102  1.00  0.00     0.111 A 
ATOM      6  C   UNL     1      -3.456   6.790   0.839  1.00  0.00     0.134 A 
ATOM      7  C   UNL     1      -4.221   6.682  -0.329  1.00  0.00     0.093 A 
ATOM      8  C   UNL     1      -5.575   6.356  -0.276  1.00  0.00     0.123 A 
ATOM      9  C   UNL     1      -6.185   6.126   0.958  1.00  0.00     0.094 A 
ATOM     10  C   UNL     1      -5.440   6.191   2.139  1.00  0.00     0.146 A 
ATOM     11  O   UNL     1      -6.055   5.956   3.291  1.00  0.00    -0.452 OA
ENDROOT
BRANCH   1  12
ATOM     12  C   UNL     1      -6.245   5.715   5.682  1.00  0.00     0.025 A 
ATOM     13  C   UNL     1      -7.133   6.681   6.186  1.00  0.00     0.016 A 
ATOM     14  C   UNL     1      -7.901   6.410   7.321  1.00  0.00     0.051 A 
ATOM     15  C   UNL     1      -7.806   5.167   7.960  1.00  0.00     0.157 A 
ATOM     16  C   UNL     1      -6.167   4.463   6.313  1.00  0.00     0.062 A 
ATOM     17  C   UNL     1      -6.936   4.188   7.451  1.00  0.00     0.158 A 
BRANCH  15  18
ATOM     18  O   UNL     1      -8.572   4.901   9.094  1.00  0.00    -0.504 OA
ATOM     19  H   UNL     1      -9.495   5.302   9.217  1.00  0.00     0.293 HD
ENDBRANCH  15  18
BRANCH  17  20
ATOM     20  O   UNL     1      -6.823   2.939   8.059  1.00  0.00    -0.504 OA
ATOM     21  H   UNL     1      -6.842   2.077   7.527  1.00  0.00     0.293 HD
ENDBRANCH  17  20
ENDBRANCH   1  12
BRANCH   2  22
ATOM     22  O   UNL     1      -3.375   6.118   5.743  1.00  0.00    -0.502 OA
ATOM     23  H   UNL     1      -3.856   6.147   6.635  1.00  0.00     0.293 HD
ENDBRANCH   2  22
BRANCH   6  24
ATOM     24  O   UNL     1      -2.134   7.216   0.681  1.00  0.00    -0.507 OA
ATOM     25  H   UNL     1      -1.617   7.177  -0.184  1.00  0.00     0.293 HD
ENDBRANCH   6  24
BRANCH   8  26
ATOM     26  O   UNL     1      -6.309   6.273  -1.458  1.00  0.00    -0.508 OA
ATOM     27  H   UNL     1      -7.197   5.785  -1.496  1.00  0.00     0.293 HD
ENDBRANCH   8  26
TORSDOF 6
ENDMDL
MODEL 2
REMARK VINA RESULT:    -5.861      1.723      2.843
REMARK INTER + INTRA:          -7.304
REMARK INTER:                  -7.177
REMARK INTRA:                  -0.127
REMARK UNBOUND:                -0.244
REMARK SMILES O=c1c(O)c(-c2ccc(O)c(O)c2)oc2cc(O)cc(O)c12
REMARK SMILES IDX 5 1 3 2 2 3 1 4 22 5 20 6 19 7 17 8 16 9 15 10 14 11 6 12
REMARK SMILES IDX 7 13 8 14 9 15 13 16 11 17 10 18 12 20 4 22 21 24 18 26
REMARK H PARENT 10 19 12 21 4 23 21 25 18 27
REMARK Flexibility Score: inf
ROOT
ATOM      1  C   UNL     1      -5.621   6.170   5.194  1.00  0.00     0.180 A 
ATOM      2  C   UNL     1      -6.035   7.120   4.244  1.00  0.00     0.208 A 
ATOM      3  C   UNL     1      -5.314   7.243   3.045  1.00  0.00     0.238 A 
ATOM      4  O   UNL     1      -5.656   8.133   2.223  1.00  0.00    -0.285 OA
ATOM      5  C   UNL     1      -4.199   6.405   2.805  1.00  0.00     0.111 A 
ATOM      6  C   UNL     1      -3.419   6.417   1.609  1.00  0.00     0.134 A 
ATOM      7  C   UNL     1      -2.259   5.636   1.533  1.00  0.00     0.093 A 
ATOM      8  C   UNL     1      -1.886   4.797   2.581  1.00  0.00     0.123 A 
ATOM      9  C   UNL     1      -2.673   4.732   3.732  1.00  0.00     0.094 A 
ATOM     10  C   UNL     1      -3.817   5.526   3.852  1.00  0.00     0.146 A 
ATOM     11  O   UNL     1      -4.533   5.444   4.967  1.00  0.00    -0.452 OA
ENDROOT
BRANCH   1  12
ATOM     12  C   UNL     1      -6.345   5.964   6.469  1.00  0.00     0.025 A 
ATOM     13  C   UNL     1      -6.465   6.995   7.417  1.00  0.00     0.016 A 
ATOM     14  C   UNL     1      -7.174   6.784   8.603  1.00  0.00     0.051 A 
ATOM     15  C   UNL     1      -7.785   5.548   8.852  1.00  0.00     0.157 A 
ATOM     16  C   UNL     1      -6.976   4.734   6.714  1.00  0.00     0.062 A 
ATOM     17  C   UNL     1      -7.687   4.519   7.901  1.00  0.00     0.158 A 
BRANCH  15  18
ATOM     18  O   UNL     1      -8.489   5.341  10.038  1.00  0.00    -0.504 OA
ATOM     19  H   UNL     1      -8.160   4.693  10.744  1.00  0.00     0.293 HD
ENDBRANCH  15  18
BRANCH  17  20
ATOM     20  O   UNL     1      -8.289   3.280   8.116  1.00  0.00    -0.504 OA
ATOM     21  H   UNL     1      -9.052   3.158   8.771  1.00  0.00     0.293 HD
ENDBRANCH  17  20
ENDBRANCH   1  12
BRANCH   2  22
ATOM     22  O   UNL     1      -7.125   7.952   4.510  1.00  0.00    -0.502 OA
ATOM     23  H   UNL     1      -7.018   8.925   4.770  1.00  0.00     0.293 HD
ENDBRANCH   2  22
BRANCH   6  24
ATOM     24  O   UNL     1      -3.753   7.150   0.466  1.00  0.00    -0.507 OA
ATOM     25  H   UNL     1      -3.695   6.800  -0.478  1.00  0.00     0.293 HD
ENDBRANCH   6  24
BRANCH   8  26
ATOM     26  O   UNL     1      -0.734   4.021   2.465  1.00  0.00    -0.508 OA
ATOM     27  H   UNL     1      -0.550   3.250   3.095  1.00  0.00     0.293 HD
ENDBRANCH   8  26
TORSDOF 6
ENDMDL
MODEL 3
REMARK VINA RESULT:    -5.780      2.586      7.120
REMARK INTER + INTRA:          -7.206
REMARK INTER:                  -6.878
REMARK INTRA:                  -0.328
REMARK UNBOUND:                -0.244
REMARK SMILES O=c1c(O)c(-c2ccc(O)c(O)c2)oc2cc(O)cc(O)c12
REMARK SMILES IDX 5 1 3 2 2 3 1 4 22 5 20 6 19 7 17 8 16 9 15 10 14 11 6 12
REMARK SMILES IDX 7 13 8 14 9 15 13 16 11 17 10 18 12 20 4 22 21 24 18 26
REMARK H PARENT 10 19 12 21 4 23 21 25 18 27
REMARK Flexibility Score: inf
ROOT
ATOM      1  C   UNL     1      -5.891   7.102   1.339  1.00  0.00     0.180 A 
ATOM      2  C   UNL     1      -6.633   6.202   2.123  1.00  0.00     0.208 A 
ATOM      3  C   UNL     1      -6.164   5.867   3.404  1.00  0.00     0.238 A 
ATOM      4  O   UNL     1      -6.804   5.018   4.079  1.00  0.00    -0.285 OA
ATOM      5  C   UNL     1      -4.969   6.448   3.891  1.00  0.00     0.111 A 
ATOM      6  C   UNL     1      -4.422   6.211   5.187  1.00  0.00     0.134 A 
ATOM      7  C   UNL     1      -3.166   6.737   5.514  1.00  0.00     0.093 A 
ATOM      8  C   UNL     1      -2.468   7.543   4.617  1.00  0.00     0.123 A 
ATOM      9  C   UNL     1      -3.019   7.831   3.368  1.00  0.00     0.094 A 
ATOM     10  C   UNL     1      -4.254   7.291   2.999  1.00  0.00     0.146 A 
ATOM     11  O   UNL     1      -4.740   7.580   1.798  1.00  0.00    -0.452 OA
ENDROOT
BRANCH   1  12
ATOM     12  C   UNL     1      -6.334   7.523  -0.010  1.00  0.00     0.025 A 
ATOM     13  C   UNL     1      -7.122   8.672  -0.196  1.00  0.00     0.016 A 
ATOM     14  C   UNL     1      -7.508   9.063  -1.481  1.00  0.00     0.051 A 
ATOM     15  C   UNL     1      -7.101   8.321  -2.598  1.00  0.00     0.157 A 
ATOM     16  C   UNL     1      -5.912   6.794  -1.134  1.00  0.00     0.062 A 
ATOM     17  C   UNL     1      -6.298   7.183  -2.422  1.00  0.00     0.158 A 
BRANCH  15  18
ATOM     18  O   UNL     1      -7.491   8.713  -3.878  1.00  0.00    -0.504 OA
ATOM     19  H   UNL     1      -8.444   8.597  -4.201  1.00  0.00     0.293 HD
ENDBRANCH  15  18
BRANCH  17  20
ATOM     20  O   UNL     1      -5.870   6.427  -3.514  1.00  0.00    -0.504 OA
ATOM     21  H   UNL     1      -5.929   6.773  -4.464  1.00  0.00     0.293 HD
ENDBRANCH  17  20
ENDBRANCH   1  12
BRANCH   2  22
ATOM     22  O   UNL     1      -7.799   5.623   1.616  1.00  0.00    -0.502 OA
ATOM     23  H   UNL     1      -8.188   5.879   0.716  1.00  0.00     0.293 HD
ENDBRANCH   2  22
BRANCH   6  24
ATOM     24  O   UNL     1      -5.079   5.496   6.193  1.00  0.00    -0.507 OA
ATOM     25  H   UNL     1      -6.036   5.180   6.142  1.00  0.00     0.293 HD
ENDBRANCH   6  24
BRANCH   8  26
ATOM     26  O   UNL     1      -1.227   8.064   4.982  1.00  0.00    -0.508 OA
ATOM     27  H   UNL     1      -0.889   8.007   5.935  1.00  0.00     0.293 HD
ENDBRANCH   8  26
TORSDOF 6
ENDMDL
MODEL 4
REMARK VINA RESULT:    -5.778     11.661     13.760
REMARK INTER + INTRA:          -7.203
REMARK INTER:                  -6.973
REMARK INTRA:                  -0.230
REMARK UNBOUND:                -0.244
REMARK SMILES O=c1c(O)c(-c2ccc(O)c(O)c2)oc2cc(O)cc(O)c12
REMARK SMILES IDX 5 1 3 2 2 3 1 4 22 5 20 6 19 7 17 8 16 9 15 10 14 11 6 12
REMARK SMILES IDX 7 13 8 14 9 15 13 16 11 17 10 18 12 20 4 22 21 24 18 26
REMARK H PARENT 10 19 12 21 4 23 21 25 18 27
REMARK Flexibility Score: inf
ROOT
ATOM      1  C   UNL     1      -3.137  -5.989   6.019  1.00  0.00     0.180 A 
ATOM      2  C   UNL     1      -3.713  -5.915   4.740  1.00  0.00     0.208 A 
ATOM      3  C   UNL     1      -5.082  -6.197   4.591  1.00  0.00     0.238 A 
ATOM      4  O   UNL     1      -5.580  -6.183   3.435  1.00  0.00    -0.285 OA
ATOM      5  C   UNL     1      -5.858  -6.534   5.725  1.00  0.00     0.111 A 
ATOM      6  C   UNL     1      -7.260  -6.802   5.698  1.00  0.00     0.134 A 
ATOM      7  C   UNL     1      -7.900  -7.253   6.858  1.00  0.00     0.093 A 
ATOM      8  C   UNL     1      -7.205  -7.385   8.059  1.00  0.00     0.123 A 
ATOM      9  C   UNL     1      -5.847  -7.070   8.112  1.00  0.00     0.094 A 
ATOM     10  C   UNL     1      -5.172  -6.651   6.963  1.00  0.00     0.146 A 
ATOM     11  O   UNL     1      -3.877  -6.371   7.053  1.00  0.00    -0.452 OA
ENDROOT
BRANCH   1  12
ATOM     12  C   UNL     1      -1.709  -5.680   6.259  1.00  0.00     0.025 A 
ATOM     13  C   UNL     1      -0.776  -6.697   6.528  1.00  0.00     0.016 A 
ATOM     14  C   UNL     1       0.572  -6.384   6.727  1.00  0.00     0.051 A 
ATOM     15  C   UNL     1       1.009  -5.055   6.646  1.00  0.00     0.157 A 
ATOM     16  C   UNL     1      -1.262  -4.353   6.158  1.00  0.00     0.062 A 
ATOM     17  C   UNL     1       0.087  -4.036   6.357  1.00  0.00     0.158 A 
BRANCH  15  18
ATOM     18  O   UNL     1       2.353  -4.746   6.847  1.00  0.00    -0.504 OA
ATOM     19  H   UNL     1       3.012  -5.439   7.183  1.00  0.00     0.293 HD
ENDBRANCH  15  18
BRANCH  17  20
ATOM     20  O   UNL     1       0.491  -2.705   6.262  1.00  0.00    -0.504 OA
ATOM     21  H   UNL     1       1.462  -2.444   6.134  1.00  0.00     0.293 HD
ENDBRANCH  17  20
ENDBRANCH   1  12
BRANCH   2  22
ATOM     22  O   UNL     1      -2.925  -5.601   3.630  1.00  0.00    -0.502 OA
ATOM     23  H   UNL     1      -3.218  -4.937   2.923  1.00  0.00     0.293 HD
ENDBRANCH   2  22
BRANCH   6  24
ATOM     24  O   UNL     1      -8.068  -6.614   4.572  1.00  0.00    -0.507 OA
ATOM     25  H   UNL     1      -9.074  -6.541   4.593  1.00  0.00     0.293 HD
ENDBRANCH   6  24
BRANCH   8  26
ATOM     26  O   UNL     1      -7.878  -7.822   9.199  1.00  0.00    -0.508 OA
ATOM     27  H   UNL     1      -8.887  -7.769   9.270  1.00  0.00     0.293 HD
ENDBRANCH   8  26
TORSDOF 6
ENDMDL
MODEL 5
REMARK VINA RESULT:    -5.744      3.152      7.727
REMARK INTER + INTRA:          -7.163
REMARK INTER:                  -6.829
REMARK INTRA:                  -0.334
REMARK UNBOUND:                -0.244
REMARK SMILES O=c1c(O)c(-c2ccc(O)c(O)c2)oc2cc(O)cc(O)c12
REMARK SMILES IDX 5 1 3 2 2 3 1 4 22 5 20 6 19 7 17 8 16 9 15 10 14 11 6 12
REMARK SMILES IDX 7 13 8 14 9 15 13 16 11 17 10 18 12 20 4 22 21 24 18 26
REMARK H PARENT 10 19 12 21 4 23 21 25 18 27
REMARK Flexibility Score: inf
ROOT
ATOM      1  C   UNL     1      -5.252   7.394  -0.061  1.00  0.00     0.180 A 
ATOM      2  C   UNL     1      -6.187   7.379   0.987  1.00  0.00     0.208 A 
ATOM      3  C   UNL     1      -5.820   6.817   2.222  1.00  0.00     0.238 A 
ATOM      4  O   UNL     1      -6.680   6.757   3.139  1.00  0.00    -0.285 OA
ATOM      5  C   UNL     1      -4.516   6.293   2.395  1.00  0.00     0.111 A 
ATOM      6  C   UNL     1      -4.023   5.736   3.613  1.00  0.00     0.134 A 
ATOM      7  C   UNL     1      -2.762   5.128   3.634  1.00  0.00     0.093 A 
ATOM      8  C   UNL     1      -1.951   5.113   2.500  1.00  0.00     0.123 A 
ATOM      9  C   UNL     1      -2.398   5.708   1.320  1.00  0.00     0.094 A 
ATOM     10  C   UNL     1      -3.667   6.291   1.258  1.00  0.00     0.146 A 
ATOM     11  O   UNL     1      -4.060   6.836   0.113  1.00  0.00    -0.452 OA
ENDROOT
BRANCH   1  12
ATOM     12  C   UNL     1      -5.558   7.992  -1.381  1.00  0.00     0.025 A 
ATOM     13  C   UNL     1      -5.340   9.357  -1.634  1.00  0.00     0.016 A 
ATOM     14  C   UNL     1      -5.614   9.894  -2.896  1.00  0.00     0.051 A 
ATOM     15  C   UNL     1      -6.093   9.073  -3.924  1.00  0.00     0.157 A 
ATOM     16  C   UNL     1      -6.019   7.169  -2.421  1.00  0.00     0.062 A 
ATOM     17  C   UNL     1      -6.294   7.703  -3.686  1.00  0.00     0.158 A 
BRANCH  15  18
ATOM     18  O   UNL     1      -6.368   9.612  -5.181  1.00  0.00    -0.504 OA
ATOM     19  H   UNL     1      -7.288   9.964  -5.418  1.00  0.00     0.293 HD
ENDBRANCH  15  18
BRANCH  17  20
ATOM     20  O   UNL     1      -6.764   6.858  -4.690  1.00  0.00    -0.504 OA
ATOM     21  H   UNL     1      -7.076   7.210  -5.588  1.00  0.00     0.293 HD
ENDBRANCH  17  20
ENDBRANCH   1  12
BRANCH   2  22
ATOM     22  O   UNL     1      -7.476   7.883   0.789  1.00  0.00    -0.502 OA
ATOM     23  H   UNL     1      -7.864   8.036  -0.134  1.00  0.00     0.293 HD
ENDBRANCH   2  22
BRANCH   6  24
ATOM     24  O   UNL     1      -4.714   5.779   4.828  1.00  0.00    -0.507 OA
ATOM     25  H   UNL     1      -4.594   5.119   5.581  1.00  0.00     0.293 HD
ENDBRANCH   6  24
BRANCH   8  26
ATOM     26  O   UNL     1      -0.694   4.513   2.561  1.00  0.00    -0.508 OA
ATOM     27  H   UNL     1       0.156   5.054   2.453  1.00  0.00     0.293 HD
ENDBRANCH   8  26
TORSDOF 6
ENDMDL
MODEL 6
REMARK VINA RESULT:    -5.597     11.542     13.219
REMARK INTER + INTRA:          -6.986
REMARK INTER:                  -6.716
REMARK INTRA:                  -0.271
REMARK UNBOUND:                -0.244
REMARK SMILES O=c1c(O)c(-c2ccc(O)c(O)c2)oc2cc(O)cc(O)c12
REMARK SMILES IDX 5 1 3 2 2 3 1 4 22 5 20 6 19 7 17 8 16 9 15 10 14 11 6 12
REMARK SMILES IDX 7 13 8 14 9 15 13 16 11 17 10 18 12 20 4 22 21 24 18 26
REMARK H PARENT 10 19 12 21 4 23 21 25 18 27
REMARK Flexibility Score: inf
ROOT
ATOM      1  C   UNL     1       0.430  -4.214   6.982  1.00  0.00     0.180 A 
ATOM      2  C   UNL     1       0.420  -2.955   7.606  1.00  0.00     0.208 A 
ATOM      3  C   UNL     1       1.641  -2.365   7.972  1.00  0.00     0.238 A 
ATOM      4  O   UNL     1       1.622  -1.263   8.580  1.00  0.00    -0.285 OA
ATOM      5  C   UNL     1       2.857  -3.035   7.695  1.00  0.00     0.111 A 
ATOM      6  C   UNL     1       4.153  -2.515   7.987  1.00  0.00     0.134 A 
ATOM      7  C   UNL     1       5.282  -3.320   7.789  1.00  0.00     0.093 A 
ATOM      8  C   UNL     1       5.167  -4.601   7.252  1.00  0.00     0.123 A 
ATOM      9  C   UNL     1       3.909  -5.098   6.907  1.00  0.00     0.094 A 
ATOM     10  C   UNL     1       2.761  -4.333   7.126  1.00  0.00     0.146 A 
ATOM     11  O   UNL     1       1.583  -4.846   6.796  1.00  0.00    -0.452 OA
ENDROOT
BRANCH   1  12
ATOM     12  C   UNL     1      -0.814  -4.887   6.545  1.00  0.00     0.025 A 
ATOM     13  C   UNL     1      -1.671  -5.512   7.467  1.00  0.00     0.016 A 
ATOM     14  C   UNL     1      -2.853  -6.120   7.034  1.00  0.00     0.051 A 
ATOM     15  C   UNL     1      -3.202  -6.099   5.678  1.00  0.00     0.157 A 
ATOM     16  C   UNL     1      -1.179  -4.851   5.190  1.00  0.00     0.062 A 
ATOM     17  C   UNL     1      -2.362  -5.459   4.752  1.00  0.00     0.158 A 
BRANCH  15  18
ATOM     18  O   UNL     1      -4.380  -6.709   5.248  1.00  0.00    -0.504 OA
ATOM     19  H   UNL     1      -5.215  -6.170   5.048  1.00  0.00     0.293 HD
ENDBRANCH  15  18
BRANCH  17  20
ATOM     20  O   UNL     1      -2.685  -5.415   3.396  1.00  0.00    -0.504 OA
ATOM     21  H   UNL     1      -3.293  -4.702   3.010  1.00  0.00     0.293 HD
ENDBRANCH  17  20
ENDBRANCH   1  12
BRANCH   2  22
ATOM     22  O   UNL     1      -0.793  -2.320   7.890  1.00  0.00    -0.502 OA
ATOM     23  H   UNL     1      -1.502  -2.161   7.185  1.00  0.00     0.293 HD
ENDBRANCH   2  22
BRANCH   6  24
ATOM     24  O   UNL     1       4.388  -1.213   8.441  1.00  0.00    -0.507 OA
ATOM     25  H   UNL     1       4.698  -0.449   7.860  1.00  0.00     0.293 HD
ENDBRANCH   6  24
BRANCH   8  26
ATOM     26  O   UNL     1       6.313  -5.369   7.053  1.00  0.00    -0.508 OA
ATOM     27  H   UNL     1       7.239  -4.983   7.195  1.00  0.00     0.293 HD
ENDBRANCH   8  26
TORSDOF 6
ENDMDL
MODEL 7
REMARK VINA RESULT:    -5.451      3.301      5.427
REMARK INTER + INTRA:          -6.810
REMARK INTER:                  -6.536
REMARK INTRA:                  -0.274
REMARK UNBOUND:                -0.244
REMARK SMILES O=c1c(O)c(-c2ccc(O)c(O)c2)oc2cc(O)cc(O)c12
REMARK SMILES IDX 5 1 3 2 2 3 1 4 22 5 20 6 19 7 17 8 16 9 15 10 14 11 6 12
REMARK SMILES IDX 7 13 8 14 9 15 13 16 11 17 10 18 12 20 4 22 21 24 18 26
REMARK H PARENT 10 19 12 21 4 23 21 25 18 27
REMARK Flexibility Score: inf
ROOT
ATOM      1  C   UNL     1      -5.326   7.471   0.784  1.00  0.00     0.180 A 
ATOM      2  C   UNL     1      -6.377   8.323   1.162  1.00  0.00     0.208 A 
ATOM      3  C   UNL     1      -7.218   8.851   0.167  1.00  0.00     0.238 A 
ATOM      4  O   UNL     1      -8.124   9.657   0.507  1.00  0.00    -0.285 OA
ATOM      5  C   UNL     1      -7.005   8.508  -1.189  1.00  0.00     0.111 A 
ATOM      6  C   UNL     1      -7.818   8.952  -2.275  1.00  0.00     0.134 A 
ATOM      7  C   UNL     1      -7.437   8.657  -3.589  1.00  0.00     0.093 A 
ATOM      8  C   UNL     1      -6.311   7.879  -3.855  1.00  0.00     0.123 A 
ATOM      9  C   UNL     1      -5.542   7.389  -2.799  1.00  0.00     0.094 A 
ATOM     10  C   UNL     1      -5.876   7.697  -1.478  1.00  0.00     0.146 A 
ATOM     11  O   UNL     1      -5.112   7.220  -0.502  1.00  0.00    -0.452 OA
ENDROOT
BRANCH   1  12
ATOM     12  C   UNL     1      -4.415   6.857   1.777  1.00  0.00     0.025 A 
ATOM     13  C   UNL     1      -3.127   7.371   2.005  1.00  0.00     0.016 A 
ATOM     14  C   UNL     1      -2.293   6.789   2.964  1.00  0.00     0.051 A 
ATOM     15  C   UNL     1      -2.739   5.696   3.718  1.00  0.00     0.157 A 
ATOM     16  C   UNL     1      -4.865   5.774   2.549  1.00  0.00     0.062 A 
ATOM     17  C   UNL     1      -4.032   5.188   3.510  1.00  0.00     0.158 A 
BRANCH  15  18
ATOM     18  O   UNL     1      -1.904   5.116   4.672  1.00  0.00    -0.504 OA
ATOM     19  H   UNL     1      -1.067   5.584   5.000  1.00  0.00     0.293 HD
ENDBRANCH  15  18
BRANCH  17  20
ATOM     20  O   UNL     1      -4.508   4.105   4.249  1.00  0.00    -0.504 OA
ATOM     21  H   UNL     1      -4.209   3.929   5.201  1.00  0.00     0.293 HD
ENDBRANCH  17  20
ENDBRANCH   1  12
BRANCH   2  22
ATOM     22  O   UNL     1      -6.557   8.667   2.505  1.00  0.00    -0.502 OA
ATOM     23  H   UNL     1      -5.914   9.269   3.004  1.00  0.00     0.293 HD
ENDBRANCH   2  22
BRANCH   6  24
ATOM     24  O   UNL     1      -9.015   9.657  -2.116  1.00  0.00    -0.507 OA
ATOM     25  H   UNL     1      -9.087  10.590  -1.739  1.00  0.00     0.293 HD
ENDBRANCH   6  24
BRANCH   8  26
ATOM     26  O   UNL     1      -5.970   7.591  -5.176  1.00  0.00    -0.508 OA
ATOM     27  H   UNL     1      -5.258   8.119  -5.665  1.00  0.00     0.293 HD
ENDBRANCH   8  26
TORSDOF 6
ENDMDL
MODEL 8
REMARK VINA RESULT:    -5.419     11.802     13.684
REMARK INTER + INTRA:          -6.772
REMARK INTER:                  -6.441
REMARK INTRA:                  -0.331
REMARK UNBOUND:                -0.244
REMARK SMILES O=c1c(O)c(-c2ccc(O)c(O)c2)oc2cc(O)cc(O)c12
REMARK SMILES IDX 5 1 3 2 2 3 1 4 22 5 20 6 19 7 17 8 16 9 15 10 14 11 6 12
REMARK SMILES IDX 7 13 8 14 9 15 13 16 11 17 10 18 12 20 4 22 21 24 18 26
REMARK H PARENT 10 19 12 21 4 23 21 25 18 27
REMARK Flexibility Score: inf
ROOT
ATOM      1  C   UNL     1      -3.056  -6.101   6.728  1.00  0.00     0.180 A 
ATOM      2  C   UNL     1      -3.864  -6.086   7.878  1.00  0.00     0.208 A 
ATOM      3  C   UNL     1      -5.220  -6.432   7.763  1.00  0.00     0.238 A 
ATOM      4  O   UNL     1      -5.951  -6.364   8.786  1.00  0.00    -0.285 OA
ATOM      5  C   UNL     1      -5.747  -6.804   6.502  1.00  0.00     0.111 A 
ATOM      6  C   UNL     1      -7.096  -7.211   6.276  1.00  0.00     0.134 A 
ATOM      7  C   UNL     1      -7.541  -7.430   4.967  1.00  0.00     0.093 A 
ATOM      8  C   UNL     1      -6.672  -7.320   3.883  1.00  0.00     0.123 A 
ATOM      9  C   UNL     1      -5.335  -6.981   4.097  1.00  0.00     0.094 A 
ATOM     10  C   UNL     1      -4.870  -6.721   5.389  1.00  0.00     0.146 A 
ATOM     11  O   UNL     1      -3.594  -6.390   5.550  1.00  0.00    -0.452 OA
ENDROOT
BRANCH   1  12
ATOM     12  C   UNL     1      -1.613  -5.773   6.775  1.00  0.00     0.025 A 
ATOM     13  C   UNL     1      -0.650  -6.750   7.081  1.00  0.00     0.016 A 
ATOM     14  C   UNL     1       0.709  -6.422   7.096  1.00  0.00     0.051 A 
ATOM     15  C   UNL     1       1.126  -5.120   6.792  1.00  0.00     0.157 A 
ATOM     16  C   UNL     1      -1.189  -4.474   6.451  1.00  0.00     0.062 A 
ATOM     17  C   UNL     1       0.172  -4.142   6.465  1.00  0.00     0.158 A 
BRANCH  15  18
ATOM     18  O   UNL     1       2.482  -4.796   6.810  1.00  0.00    -0.504 OA
ATOM     19  H   UNL     1       3.074  -5.036   7.597  1.00  0.00     0.293 HD
ENDBRANCH  15  18
BRANCH  17  20
ATOM     20  O   UNL     1       0.554  -2.839   6.150  1.00  0.00    -0.504 OA
ATOM     21  H   UNL     1      -0.061  -2.047   6.294  1.00  0.00     0.293 HD
ENDBRANCH  17  20
ENDBRANCH   1  12
BRANCH   2  22
ATOM     22  O   UNL     1      -3.329  -5.696   9.109  1.00  0.00    -0.502 OA
ATOM     23  H   UNL     1      -3.910  -5.441   9.899  1.00  0.00     0.293 HD
ENDBRANCH   2  22
BRANCH   6  24
ATOM     24  O   UNL     1      -8.024  -7.441   7.297  1.00  0.00    -0.507 OA
ATOM     25  H   UNL     1      -7.962  -8.187   7.973  1.00  0.00     0.293 HD
ENDBRANCH   6  24
BRANCH   8  26
ATOM     26  O   UNL     1      -7.145  -7.561   2.594  1.00  0.00    -0.508 OA
ATOM     27  H   UNL     1      -7.091  -8.482   2.174  1.00  0.00     0.293 HD
ENDBRANCH   8  26
TORSDOF 6
ENDMDL
MODEL 9
REMARK VINA RESULT:    -5.376     11.752     13.427
REMARK INTER + INTRA:          -6.720
REMARK INTER:                  -6.408
REMARK INTRA:                  -0.312
REMARK UNBOUND:                -0.244
REMARK SMILES O=c1c(O)c(-c2ccc(O)c(O)c2)oc2cc(O)cc(O)c12
REMARK SMILES IDX 5 1 3 2 2 3 1 4 22 5 20 6 19 7 17 8 16 9 15 10 14 11 6 12
REMARK SMILES IDX 7 13 8 14 9 15 13 16 11 17 10 18 12 20 4 22 21 24 18 26
REMARK H PARENT 10 19 12 21 4 23 21 25 18 27
REMARK Flexibility Score: inf
ROOT
ATOM      1  C   UNL     1      -1.284  -5.218   6.306  1.00  0.00     0.180 A 
ATOM      2  C   UNL     1      -1.673  -5.266   4.957  1.00  0.00     0.208 A 
ATOM      3  C   UNL     1      -2.982  -5.667   4.639  1.00  0.00     0.238 A 
ATOM      4  O   UNL     1      -3.308  -5.762   3.427  1.00  0.00    -0.285 OA
ATOM      5  C   UNL     1      -3.888  -5.998   5.676  1.00  0.00     0.111 A 
ATOM      6  C   UNL     1      -5.248  -6.379   5.472  1.00  0.00     0.134 A 
ATOM      7  C   UNL     1      -6.015  -6.811   6.560  1.00  0.00     0.093 A 
ATOM      8  C   UNL     1      -5.493  -6.815   7.853  1.00  0.00     0.123 A 
ATOM      9  C   UNL     1      -4.183  -6.388   8.073  1.00  0.00     0.094 A 
ATOM     10  C   UNL     1      -3.381  -5.985   7.002  1.00  0.00     0.146 A 
ATOM     11  O   UNL     1      -2.136  -5.597   7.251  1.00  0.00    -0.452 OA
ENDROOT
BRANCH   1  12
ATOM     12  C   UNL     1       0.069  -4.781   6.720  1.00  0.00     0.025 A 
ATOM     13  C   UNL     1       1.154  -5.674   6.733  1.00  0.00     0.016 A 
ATOM     14  C   UNL     1       2.428  -5.234   7.105  1.00  0.00     0.051 A 
ATOM     15  C   UNL     1       2.638  -3.893   7.453  1.00  0.00     0.157 A 
ATOM     16  C   UNL     1       0.289  -3.434   7.050  1.00  0.00     0.062 A 
ATOM     17  C   UNL     1       1.563  -2.989   7.423  1.00  0.00     0.158 A 
BRANCH  15  18
ATOM     18  O   UNL     1       3.909  -3.457   7.826  1.00  0.00    -0.504 OA
ATOM     19  H   UNL     1       4.041  -2.777   8.566  1.00  0.00     0.293 HD
ENDBRANCH  15  18
BRANCH  17  20
ATOM     20  O   UNL     1       1.741  -1.647   7.758  1.00  0.00    -0.504 OA
ATOM     21  H   UNL     1       2.262  -1.361   8.578  1.00  0.00     0.293 HD
ENDBRANCH  17  20
ENDBRANCH   1  12
BRANCH   2  22
ATOM     22  O   UNL     1      -0.757  -4.956   3.948  1.00  0.00    -0.502 OA
ATOM     23  H   UNL     1      -0.672  -4.026   3.557  1.00  0.00     0.293 HD
ENDBRANCH   2  22
BRANCH   6  24
ATOM     24  O   UNL     1      -5.897  -6.324   4.234  1.00  0.00    -0.507 OA
ATOM     25  H   UNL     1      -6.254  -5.482   3.810  1.00  0.00     0.293 HD
ENDBRANCH   6  24
BRANCH   8  26
ATOM     26  O   UNL     1      -6.290  -7.237   8.916  1.00  0.00    -0.508 OA
ATOM     27  H   UNL     1      -6.607  -6.590   9.628  1.00  0.00     0.293 HD
ENDBRANCH   8  26
TORSDOF 6
ENDMDL
