MODEL 1
REMARK VINA RESULT:    -5.488      0.000      0.000
REMARK INTER + INTRA:          -6.229
REMARK INTER:                  -6.129
REMARK INTRA:                  -0.100
REMARK UNBOUND:                -0.100
REMARK SMILES CCc1ccc(O)cc1O
REMARK SMILES IDX 3 1 9 2 8 3 6 4 5 5 4 6 2 7 1 8 10 9 7 11
REMARK H PARENT 10 10 7 12
REMARK Flexibility Score: inf
ROOT
ATOM      1  C   UNL     1      11.335  20.555  17.569  1.00  0.00    -0.006 A 
ATOM      2  C   UNL     1       9.980  20.190  17.430  1.00  0.00     0.122 A 
ATOM      3  C   UNL     1       9.028  20.684  18.334  1.00  0.00     0.092 A 
ATOM      4  C   UNL     1       9.417  21.528  19.381  1.00  0.00     0.119 A 
ATOM      5  C   UNL     1      10.762  21.879  19.527  1.00  0.00     0.047 A 
ATOM      6  C   UNL     1      11.716  21.391  18.631  1.00  0.00     0.011 A 
ENDROOT
BRANCH   1   7
ATOM      7  C   UNL     1      12.384  20.014  16.630  1.00  0.00     0.036 C 
ATOM      8  C   UNL     1      12.887  21.108  15.694  1.00  0.00     0.009 C 
ENDBRANCH   1   7
BRANCH   2   9
ATOM      9  O   UNL     1       9.585  19.339  16.398  1.00  0.00    -0.508 OA
ATOM     10  H   UNL     1       8.639  18.981  16.337  1.00  0.00     0.293 HD
ENDBRANCH   2   9
BRANCH   4  11
ATOM     11  O   UNL     1       8.476  22.023  20.283  1.00  0.00    -0.508 OA
ATOM     12  H   UNL     1       8.048  22.932  20.156  1.00  0.00     0.293 HD
ENDBRANCH   4  11
TORSDOF 3
ENDMDL
MODEL 2
REMARK VINA RESULT:    -5.476      2.592      3.124
REMARK INTER + INTRA:          -6.216
REMARK INTER:                  -6.131
REMARK INTRA:                  -0.085
REMARK UNBOUND:                -0.100
REMARK SMILES CCc1ccc(O)cc1O
REMARK SMILES IDX 3 1 9 2 8 3 6 4 5 5 4 6 2 7 1 8 10 9 7 11
REMARK H PARENT 10 10 7 12
REMARK Flexibility Score: inf
ROOT
ATOM      1  C   UNL     1      12.987  20.146  18.203  1.00  0.00    -0.006 A 
ATOM      2  C   UNL     1      12.930  21.445  17.656  1.00  0.00     0.122 A 
ATOM      3  C   UNL     1      11.700  22.113  17.573  1.00  0.00     0.092 A 
ATOM      4  C   UNL     1      10.526  21.494  18.020  1.00  0.00     0.119 A 
ATOM      5  C   UNL     1      10.581  20.202  18.548  1.00  0.00     0.047 A 
ATOM      6  C   UNL     1      11.802  19.529  18.635  1.00  0.00     0.011 A 
ENDROOT
BRANCH   1   7
ATOM      7  C   UNL     1      14.292  19.393  18.276  1.00  0.00     0.036 C 
ATOM      8  C   UNL     1      14.176  18.201  19.220  1.00  0.00     0.009 C 
ENDBRANCH   1   7
BRANCH   2   9
ATOM      9  O   UNL     1      14.092  22.065  17.197  1.00  0.00    -0.508 OA
ATOM     10  H   UNL     1      14.379  22.974  17.538  1.00  0.00     0.293 HD
ENDBRANCH   2   9
BRANCH   4  11
ATOM     11  O   UNL     1       9.300  22.153  17.940  1.00  0.00    -0.508 OA
ATOM     12  H   UNL     1       8.423  21.649  17.997  1.00  0.00     0.293 HD
ENDBRANCH   4  11
TORSDOF 3
ENDMDL
MODEL 3
REMARK VINA RESULT:    -5.410      9.367     10.346
REMARK INTER + INTRA:          -6.143
REMARK INTER:                  -6.058
REMARK INTRA:                  -0.085
REMARK UNBOUND:                -0.100
REMARK SMILES CCc1ccc(O)cc1O
REMARK SMILES IDX 3 1 9 2 8 3 6 4 5 5 4 6 2 7 1 8 10 9 7 11
REMARK H PARENT 10 10 7 12
REMARK Flexibility Score: inf
ROOT
ATOM      1  C   UNL     1       9.296  22.268   8.418  1.00  0.00    -0.006 A 
ATOM      2  C   UNL     1       7.948  22.128   8.807  1.00  0.00     0.122 A 
ATOM      3  C   UNL     1       7.030  23.148   8.519  1.00  0.00     0.092 A 
ATOM      4  C   UNL     1       7.446  24.310   7.858  1.00  0.00     0.119 A 
ATOM      5  C   UNL     1       8.785  24.455   7.486  1.00  0.00     0.047 A 
ATOM      6  C   UNL     1       9.706  23.443   7.768  1.00  0.00     0.011 A 
ENDROOT
BRANCH   1   7
ATOM      7  C   UNL     1      10.312  21.200   8.741  1.00  0.00     0.036 C 
ATOM      8  C   UNL     1      11.443  21.202   7.719  1.00  0.00     0.009 C 
ENDBRANCH   1   7
BRANCH   2   9
ATOM      9  O   UNL     1       7.527  20.979   9.477  1.00  0.00    -0.508 OA
ATOM     10  H   UNL     1       6.592  20.900   9.860  1.00  0.00     0.293 HD
ENDBRANCH   2   9
BRANCH   4  11
ATOM     11  O   UNL     1       6.538  25.327   7.569  1.00  0.00    -0.508 OA
ATOM     12  H   UNL     1       6.833  26.191   7.129  1.00  0.00     0.293 HD
ENDBRANCH   4  11
TORSDOF 3
ENDMDL
MODEL 4
REMARK VINA RESULT:    -5.398      1.795      3.938
REMARK INTER + INTRA:          -6.129
REMARK INTER:                  -6.044
REMARK INTRA:                  -0.085
REMARK UNBOUND:                -0.100
REMARK SMILES CCc1ccc(O)cc1O
REMARK SMILES IDX 3 1 9 2 8 3 6 4 5 5 4 6 2 7 1 8 10 9 7 11
REMARK H PARENT 10 10 7 12
REMARK Flexibility Score: inf
ROOT
ATOM      1  C   UNL     1      11.031  20.865  17.789  1.00  0.00    -0.006 A 
ATOM      2  C   UNL     1      10.848  20.135  16.597  1.00  0.00     0.122 A 
ATOM      3  C   UNL     1      11.817  20.196  15.584  1.00  0.00     0.092 A 
ATOM      4  C   UNL     1      12.960  20.989  15.746  1.00  0.00     0.119 A 
ATOM      5  C   UNL     1      13.135  21.723  16.921  1.00  0.00     0.047 A 
ATOM      6  C   UNL     1      12.175  21.667  17.935  1.00  0.00     0.011 A 
ENDROOT
BRANCH   1   7
ATOM      7  C   UNL     1       9.991  20.841  18.881  1.00  0.00     0.036 C 
ATOM      8  C   UNL     1      10.588  21.300  20.207  1.00  0.00     0.009 C 
ENDBRANCH   1   7
BRANCH   2   9
ATOM      9  O   UNL     1       9.706  19.354  16.421  1.00  0.00    -0.508 OA
ATOM     10  H   UNL     1       9.384  19.083  15.500  1.00  0.00     0.293 HD
ENDBRANCH   2   9
BRANCH   4  11
ATOM     11  O   UNL     1      13.927  21.054  14.744  1.00  0.00    -0.508 OA
ATOM     12  H   UNL     1      13.719  21.444  13.833  1.00  0.00     0.293 HD
ENDBRANCH   4  11
TORSDOF 3
ENDMDL
MODEL 5
REMARK VINA RESULT:    -5.350      1.934      2.541
REMARK INTER + INTRA:          -6.075
REMARK INTER:                  -5.976
REMARK INTRA:                  -0.099
REMARK UNBOUND:                -0.100
REMARK SMILES CCc1ccc(O)cc1O
REMARK SMILES IDX 3 1 9 2 8 3 6 4 5 5 4 6 2 7 1 8 10 9 7 11
REMARK H PARENT 10 10 7 12
REMARK Flexibility Score: inf
ROOT
ATOM      1  C   UNL     1      12.070  20.394  16.784  1.00  0.00    -0.006 A 
ATOM      2  C   UNL     1      12.663  21.321  17.664  1.00  0.00     0.122 A 
ATOM      3  C   UNL     1      11.871  21.996  18.605  1.00  0.00     0.092 A 
ATOM      4  C   UNL     1      10.492  21.763  18.666  1.00  0.00     0.119 A 
ATOM      5  C   UNL     1       9.901  20.855  17.784  1.00  0.00     0.047 A 
ATOM      6  C   UNL     1      10.683  20.178  16.844  1.00  0.00     0.011 A 
ENDROOT
BRANCH   1   7
ATOM      7  C   UNL     1      12.893  19.677  15.742  1.00  0.00     0.036 C 
ATOM      8  C   UNL     1      12.433  20.051  14.338  1.00  0.00     0.009 C 
ENDBRANCH   1   7
BRANCH   2   9
ATOM      9  O   UNL     1      14.034  21.570  17.602  1.00  0.00    -0.508 OA
ATOM     10  H   UNL     1      14.715  20.860  17.847  1.00  0.00     0.293 HD
ENDBRANCH   2   9
BRANCH   4  11
ATOM     11  O   UNL     1       9.699  22.430  19.598  1.00  0.00    -0.508 OA
ATOM     12  H   UNL     1       8.715  22.214  19.708  1.00  0.00     0.293 HD
ENDBRANCH   4  11
TORSDOF 3
ENDMDL
MODEL 6
REMARK VINA RESULT:    -5.246      2.573      3.202
REMARK INTER + INTRA:          -5.959
REMARK INTER:                  -5.885
REMARK INTRA:                  -0.074
REMARK UNBOUND:                -0.100
REMARK SMILES CCc1ccc(O)cc1O
REMARK SMILES IDX 3 1 9 2 8 3 6 4 5 5 4 6 2 7 1 8 10 9 7 11
REMARK H PARENT 10 10 7 12
REMARK Flexibility Score: inf
ROOT
ATOM      1  C   UNL     1      13.438  19.614  17.830  1.00  0.00    -0.006 A 
ATOM      2  C   UNL     1      12.506  19.603  18.888  1.00  0.00     0.122 A 
ATOM      3  C   UNL     1      11.523  20.600  18.962  1.00  0.00     0.092 A 
ATOM      4  C   UNL     1      11.469  21.614  17.998  1.00  0.00     0.119 A 
ATOM      5  C   UNL     1      12.401  21.633  16.958  1.00  0.00     0.047 A 
ATOM      6  C   UNL     1      13.384  20.643  16.876  1.00  0.00     0.011 A 
ENDROOT
BRANCH   1   7
ATOM      7  C   UNL     1      14.525  18.571  17.743  1.00  0.00     0.036 C 
ATOM      8  C   UNL     1      15.718  18.960  18.609  1.00  0.00     0.009 C 
ENDBRANCH   1   7
BRANCH   2   9
ATOM      9  O   UNL     1      12.561  18.604  19.860  1.00  0.00    -0.508 OA
ATOM     10  H   UNL     1      11.755  18.371  20.427  1.00  0.00     0.293 HD
ENDBRANCH   2   9
BRANCH   4  11
ATOM     11  O   UNL     1      10.494  22.608  18.066  1.00  0.00    -0.508 OA
ATOM     12  H   UNL     1      10.657  23.477  18.561  1.00  0.00     0.293 HD
ENDBRANCH   4  11
TORSDOF 3
ENDMDL
MODEL 7
REMARK VINA RESULT:    -5.218      2.509      4.519
REMARK INTER + INTRA:          -5.928
REMARK INTER:                  -5.842
REMARK INTRA:                  -0.086
REMARK UNBOUND:                -0.100
REMARK SMILES CCc1ccc(O)cc1O
REMARK SMILES IDX 3 1 9 2 8 3 6 4 5 5 4 6 2 7 1 8 10 9 7 11
REMARK H PARENT 10 10 7 12
REMARK Flexibility Score: inf
ROOT
ATOM      1  C   UNL     1      11.885  21.346  17.701  1.00  0.00    -0.006 A 
ATOM      2  C   UNL     1      13.024  21.505  16.886  1.00  0.00     0.122 A 
ATOM      3  C   UNL     1      13.081  20.875  15.635  1.00  0.00     0.092 A 
ATOM      4  C   UNL     1      12.017  20.078  15.195  1.00  0.00     0.119 A 
ATOM      5  C   UNL     1      10.894  19.909  16.008  1.00  0.00     0.047 A 
ATOM      6  C   UNL     1      10.829  20.533  17.256  1.00  0.00     0.011 A 
ENDROOT
BRANCH   1   7
ATOM      7  C   UNL     1      11.811  21.988  19.065  1.00  0.00     0.036 C 
ATOM      8  C   UNL     1      10.597  21.480  19.836  1.00  0.00     0.009 C 
ENDBRANCH   1   7
BRANCH   2   9
ATOM      9  O   UNL     1      14.095  22.286  17.322  1.00  0.00    -0.508 OA
ATOM     10  H   UNL     1      14.081  22.753  18.221  1.00  0.00     0.293 HD
ENDBRANCH   2   9
BRANCH   4  11
ATOM     11  O   UNL     1      12.067  19.449  13.952  1.00  0.00    -0.508 OA
ATOM     12  H   UNL     1      11.431  19.702  13.205  1.00  0.00     0.293 HD
ENDBRANCH   4  11
TORSDOF 3
ENDMDL
MODEL 8
REMARK VINA RESULT:    -5.182      9.340     10.677
REMARK INTER + INTRA:          -5.888
REMARK INTER:                  -5.795
REMARK INTRA:                  -0.092
REMARK UNBOUND:                -0.100
REMARK SMILES CCc1ccc(O)cc1O
REMARK SMILES IDX 3 1 9 2 8 3 6 4 5 5 4 6 2 7 1 8 10 9 7 11
REMARK H PARENT 10 10 7 12
REMARK Flexibility Score: inf
ROOT
ATOM      1  C   UNL     1       8.339  23.738   7.872  1.00  0.00    -0.006 A 
ATOM      2  C   UNL     1       7.580  22.737   8.512  1.00  0.00     0.122 A 
ATOM      3  C   UNL     1       8.214  21.588   9.006  1.00  0.00     0.092 A 
ATOM      4  C   UNL     1       9.597  21.424   8.858  1.00  0.00     0.119 A 
ATOM      5  C   UNL     1      10.348  22.409   8.211  1.00  0.00     0.047 A 
ATOM      6  C   UNL     1       9.723  23.557   7.716  1.00  0.00     0.011 A 
ENDROOT
BRANCH   1   7
ATOM      7  C   UNL     1       7.678  24.969   7.303  1.00  0.00     0.036 C 
ATOM      8  C   UNL     1       8.120  25.204   5.863  1.00  0.00     0.009 C 
ENDBRANCH   1   7
BRANCH   2   9
ATOM      9  O   UNL     1       6.200  22.886   8.652  1.00  0.00    -0.508 OA
ATOM     10  H   UNL     1       5.554  22.537   7.954  1.00  0.00     0.293 HD
ENDBRANCH   2   9
BRANCH   4  11
ATOM     11  O   UNL     1      10.234  20.285   9.348  1.00  0.00    -0.508 OA
ATOM     12  H   UNL     1      10.589  19.569   8.725  1.00  0.00     0.293 HD
ENDBRANCH   4  11
TORSDOF 3
ENDMDL
MODEL 9
REMARK VINA RESULT:    -5.077      2.493      4.376
REMARK INTER + INTRA:          -5.770
REMARK INTER:                  -5.677
REMARK INTRA:                  -0.093
REMARK UNBOUND:                -0.100
REMARK SMILES CCc1ccc(O)cc1O
REMARK SMILES IDX 3 1 9 2 8 3 6 4 5 5 4 6 2 7 1 8 10 9 7 11
REMARK H PARENT 10 10 7 12
REMARK Flexibility Score: inf
ROOT
ATOM      1  C   UNL     1      11.851  20.875  18.807  1.00  0.00    -0.006 A 
ATOM      2  C   UNL     1      12.596  19.683  18.704  1.00  0.00     0.122 A 
ATOM      3  C   UNL     1      13.340  19.424  17.544  1.00  0.00     0.092 A 
ATOM      4  C   UNL     1      13.337  20.337  16.482  1.00  0.00     0.119 A 
ATOM      5  C   UNL     1      12.587  21.511  16.578  1.00  0.00     0.047 A 
ATOM      6  C   UNL     1      11.843  21.778  17.731  1.00  0.00     0.011 A 
ENDROOT
BRANCH   1   7
ATOM      7  C   UNL     1      11.018  21.166  20.031  1.00  0.00     0.036 C 
ATOM      8  C   UNL     1       9.584  21.510  19.640  1.00  0.00     0.009 C 
ENDBRANCH   1   7
BRANCH   2   9
ATOM      9  O   UNL     1      12.595  18.762  19.751  1.00  0.00    -0.508 OA
ATOM     10  H   UNL     1      12.580  17.764  19.580  1.00  0.00     0.293 HD
ENDBRANCH   2   9
BRANCH   4  11
ATOM     11  O   UNL     1      14.074  20.085  15.326  1.00  0.00    -0.508 OA
ATOM     12  H   UNL     1      15.022  20.428  15.217  1.00  0.00     0.293 HD
ENDBRANCH   4  11
TORSDOF 3
ENDMDL
