MODEL 1
REMARK VINA RESULT:    -2.920      0.000      0.000
REMARK INTER + INTRA:          -3.611
REMARK INTER:                  -3.432
REMARK INTRA:                  -0.179
REMARK UNBOUND:                -0.179
REMARK SMILES O=C([O-])CCC(=O)[O-]
REMARK SMILES IDX 4 1 2 2 1 3 3 4 5 5 6 6 7 7 8 8
REMARK H PARENT
REMARK Flexibility Score: inf
ROOT
ATOM      1  C   UNL     1      33.247  29.190  22.231  1.00  0.00     0.059 C 
ENDROOT
BRANCH   1   2
ATOM      2  C   UNL     1      33.637  30.637  22.266  1.00  0.00     0.042 C 
ATOM      3  O   UNL     1      34.853  30.966  22.286  1.00  0.00    -0.550 OA
ATOM      4  O   UNL     1      32.658  31.622  22.235  1.00  0.00    -0.550 OA
ENDBRANCH   1   2
BRANCH   1   5
ATOM      5  C   UNL     1      32.294  28.891  21.070  1.00  0.00     0.059 C 
BRANCH   5   6
ATOM      6  C   UNL     1      32.967  29.065  19.743  1.00  0.00     0.042 C 
ATOM      7  O   UNL     1      33.861  28.258  19.376  1.00  0.00    -0.550 OA
ATOM      8  O   UNL     1      32.635  30.141  18.930  1.00  0.00    -0.550 OA
ENDBRANCH   5   6
ENDBRANCH   1   5
TORSDOF 3
ENDMDL
MODEL 2
REMARK VINA RESULT:    -2.865      8.937     10.681
REMARK INTER + INTRA:          -3.546
REMARK INTER:                  -3.381
REMARK INTRA:                  -0.166
REMARK UNBOUND:                -0.179
REMARK SMILES O=C([O-])CCC(=O)[O-]
REMARK SMILES IDX 4 1 2 2 1 3 3 4 5 5 6 6 7 7 8 8
REMARK H PARENT
REMARK Flexibility Score: inf
ROOT
ATOM      1  C   UNL     1      36.189  36.622  29.777  1.00  0.00     0.059 C 
ENDROOT
BRANCH   1   2
ATOM      2  C   UNL     1      37.347  37.484  29.374  1.00  0.00     0.042 C 
ATOM      3  O   UNL     1      37.162  38.693  29.070  1.00  0.00    -0.550 OA
ATOM      4  O   UNL     1      38.635  36.964  29.374  1.00  0.00    -0.550 OA
ENDBRANCH   1   2
BRANCH   1   5
ATOM      5  C   UNL     1      35.319  36.247  28.573  1.00  0.00     0.059 C 
BRANCH   5   6
ATOM      6  C   UNL     1      36.018  35.279  27.667  1.00  0.00     0.042 C 
ATOM      7  O   UNL     1      36.022  35.468  26.422  1.00  0.00    -0.550 OA
ATOM      8  O   UNL     1      36.629  34.148  28.194  1.00  0.00    -0.550 OA
ENDBRANCH   5   6
ENDBRANCH   1   5
TORSDOF 3
ENDMDL
MODEL 3
REMARK VINA RESULT:    -2.864      0.889      3.555
REMARK INTER + INTRA:          -3.545
REMARK INTER:                  -3.451
REMARK INTRA:                  -0.094
REMARK UNBOUND:                -0.179
REMARK SMILES O=C([O-])CCC(=O)[O-]
REMARK SMILES IDX 4 1 2 2 1 3 3 4 5 5 6 6 7 7 8 8
REMARK H PARENT
REMARK Flexibility Score: inf
ROOT
ATOM      1  C   UNL     1      32.733  28.619  20.646  1.00  0.00     0.059 C 
ENDROOT
BRANCH   1   2
ATOM      2  C   UNL     1      33.296  28.735  19.262  1.00  0.00     0.042 C 
ATOM      3  O   UNL     1      32.941  29.681  18.510  1.00  0.00    -0.550 OA
ATOM      4  O   UNL     1      34.245  27.823  18.819  1.00  0.00    -0.550 OA
ENDBRANCH   1   2
BRANCH   1   5
ATOM      5  C   UNL     1      32.126  29.944  21.121  1.00  0.00     0.059 C 
BRANCH   5   6
ATOM      6  C   UNL     1      33.078  30.707  21.990  1.00  0.00     0.042 C 
ATOM      7  O   UNL     1      34.087  30.134  22.480  1.00  0.00    -0.550 OA
ATOM      8  O   UNL     1      32.830  32.040  22.293  1.00  0.00    -0.550 OA
ENDBRANCH   5   6
ENDBRANCH   1   5
TORSDOF 3
ENDMDL
MODEL 4
REMARK VINA RESULT:    -2.862      8.922     11.088
REMARK INTER + INTRA:          -3.543
REMARK INTER:                  -3.369
REMARK INTRA:                  -0.174
REMARK UNBOUND:                -0.179
REMARK SMILES O=C([O-])CCC(=O)[O-]
REMARK SMILES IDX 4 1 2 2 1 3 3 4 5 5 6 6 7 7 8 8
REMARK H PARENT
REMARK Flexibility Score: inf
ROOT
ATOM      1  C   UNL     1      35.376  36.160  28.551  1.00  0.00     0.059 C 
ENDROOT
BRANCH   1   2
ATOM      2  C   UNL     1      36.133  35.211  27.672  1.00  0.00     0.042 C 
ATOM      3  O   UNL     1      36.341  35.496  26.463  1.00  0.00    -0.550 OA
ATOM      4  O   UNL     1      36.643  34.031  28.199  1.00  0.00    -0.550 OA
ENDBRANCH   1   2
BRANCH   1   5
ATOM      5  C   UNL     1      36.200  36.574  29.775  1.00  0.00     0.059 C 
BRANCH   5   6
ATOM      6  C   UNL     1      37.355  37.449  29.394  1.00  0.00     0.042 C 
ATOM      7  O   UNL     1      37.150  38.621  28.980  1.00  0.00    -0.550 OA
ATOM      8  O   UNL     1      38.652  36.957  29.458  1.00  0.00    -0.550 OA
ENDBRANCH   5   6
ENDBRANCH   1   5
TORSDOF 3
ENDMDL
MODEL 5
REMARK VINA RESULT:    -2.857      0.876      3.550
REMARK INTER + INTRA:          -3.537
REMARK INTER:                  -3.438
REMARK INTRA:                  -0.099
REMARK UNBOUND:                -0.179
REMARK SMILES O=C([O-])CCC(=O)[O-]
REMARK SMILES IDX 4 1 2 2 1 3 3 4 5 5 6 6 7 7 8 8
REMARK H PARENT
REMARK Flexibility Score: inf
ROOT
ATOM      1  C   UNL     1      32.776  28.626  20.690  1.00  0.00     0.059 C 
ENDROOT
BRANCH   1   2
ATOM      2  C   UNL     1      33.323  28.737  19.300  1.00  0.00     0.042 C 
ATOM      3  O   UNL     1      34.150  27.887  18.874  1.00  0.00    -0.550 OA
ATOM      4  O   UNL     1      32.891  29.756  18.461  1.00  0.00    -0.550 OA
ENDBRANCH   1   2
BRANCH   1   5
ATOM      5  C   UNL     1      32.123  29.935  21.146  1.00  0.00     0.059 C 
BRANCH   5   6
ATOM      6  C   UNL     1      33.085  30.798  21.904  1.00  0.00     0.042 C 
ATOM      7  O   UNL     1      32.868  32.032  22.024  1.00  0.00    -0.550 OA
ATOM      8  O   UNL     1      34.241  30.246  22.442  1.00  0.00    -0.550 OA
ENDBRANCH   5   6
ENDBRANCH   1   5
TORSDOF 3
ENDMDL
MODEL 6
REMARK VINA RESULT:    -2.797      9.203     10.895
REMARK INTER + INTRA:          -3.466
REMARK INTER:                  -3.375
REMARK INTRA:                  -0.091
REMARK UNBOUND:                -0.179
REMARK SMILES O=C([O-])CCC(=O)[O-]
REMARK SMILES IDX 4 1 2 2 1 3 3 4 5 5 6 6 7 7 8 8
REMARK H PARENT
REMARK Flexibility Score: inf
ROOT
ATOM      1  C   UNL     1      36.338  36.906  29.623  1.00  0.00     0.059 C 
ENDROOT
BRANCH   1   2
ATOM      2  C   UNL     1      37.466  37.863  29.388  1.00  0.00     0.042 C 
ATOM      3  O   UNL     1      38.660  37.478  29.504  1.00  0.00    -0.550 OA
ATOM      4  O   UNL     1      37.200  39.170  29.000  1.00  0.00    -0.550 OA
ENDBRANCH   1   2
BRANCH   1   5
ATOM      5  C   UNL     1      36.785  35.452  29.441  1.00  0.00     0.059 C 
BRANCH   5   6
ATOM      6  C   UNL     1      36.359  34.904  28.112  1.00  0.00     0.042 C 
ATOM      7  O   UNL     1      35.559  35.554  27.388  1.00  0.00    -0.550 OA
ATOM      8  O   UNL     1      36.813  33.660  27.693  1.00  0.00    -0.550 OA
ENDBRANCH   5   6
ENDBRANCH   1   5
TORSDOF 3
ENDMDL
MODEL 7
REMARK VINA RESULT:    -2.756     10.002     11.765
REMARK INTER + INTRA:          -3.419
REMARK INTER:                  -3.314
REMARK INTRA:                  -0.105
REMARK UNBOUND:                -0.179
REMARK SMILES O=C([O-])CCC(=O)[O-]
REMARK SMILES IDX 4 1 2 2 1 3 3 4 5 5 6 6 7 7 8 8
REMARK H PARENT
REMARK Flexibility Score: inf
ROOT
ATOM      1  C   UNL     1      37.306  37.988  29.010  1.00  0.00     0.059 C 
ENDROOT
BRANCH   1   2
ATOM      2  C   UNL     1      38.658  37.973  29.655  1.00  0.00     0.042 C 
ATOM      3  O   UNL     1      39.383  36.945  29.585  1.00  0.00    -0.550 OA
ATOM      4  O   UNL     1      39.135  39.109  30.298  1.00  0.00    -0.550 OA
ENDBRANCH   1   2
BRANCH   1   5
ATOM      5  C   UNL     1      36.352  36.991  29.676  1.00  0.00     0.059 C 
BRANCH   5   6
ATOM      6  C   UNL     1      35.963  35.887  28.740  1.00  0.00     0.042 C 
ATOM      7  O   UNL     1      34.973  36.027  27.975  1.00  0.00    -0.550 OA
ATOM      8  O   UNL     1      36.669  34.691  28.742  1.00  0.00    -0.550 OA
ENDBRANCH   5   6
ENDBRANCH   1   5
TORSDOF 3
ENDMDL
MODEL 8
REMARK VINA RESULT:    -2.730      3.561      5.957
REMARK INTER + INTRA:          -3.387
REMARK INTER:                  -3.271
REMARK INTRA:                  -0.116
REMARK UNBOUND:                -0.179
REMARK SMILES O=C([O-])CCC(=O)[O-]
REMARK SMILES IDX 4 1 2 2 1 3 3 4 5 5 6 6 7 7 8 8
REMARK H PARENT
REMARK Flexibility Score: inf
ROOT
ATOM      1  C   UNL     1      34.302  31.867  24.109  1.00  0.00     0.059 C 
ENDROOT
BRANCH   1   2
ATOM      2  C   UNL     1      33.433  32.481  23.055  1.00  0.00     0.042 C 
ATOM      3  O   UNL     1      33.472  33.722  22.844  1.00  0.00    -0.550 OA
ATOM      4  O   UNL     1      32.610  31.677  22.277  1.00  0.00    -0.550 OA
ENDBRANCH   1   2
BRANCH   1   5
ATOM      5  C   UNL     1      33.969  32.411  25.502  1.00  0.00     0.059 C 
BRANCH   5   6
ATOM      6  C   UNL     1      35.029  33.348  25.998  1.00  0.00     0.042 C 
ATOM      7  O   UNL     1      34.908  34.589  25.823  1.00  0.00    -0.550 OA
ATOM      8  O   UNL     1      36.168  32.847  26.616  1.00  0.00    -0.550 OA
ENDBRANCH   5   6
ENDBRANCH   1   5
TORSDOF 3
ENDMDL
MODEL 9
REMARK VINA RESULT:    -2.716      3.607      5.017
REMARK INTER + INTRA:          -3.372
REMARK INTER:                  -3.321
REMARK INTRA:                  -0.051
REMARK UNBOUND:                -0.179
REMARK SMILES O=C([O-])CCC(=O)[O-]
REMARK SMILES IDX 4 1 2 2 1 3 3 4 5 5 6 6 7 7 8 8
REMARK H PARENT
REMARK Flexibility Score: inf
ROOT
ATOM      1  C   UNL     1      34.033  32.530  25.490  1.00  0.00     0.059 C 
ENDROOT
BRANCH   1   2
ATOM      2  C   UNL     1      35.094  33.402  26.088  1.00  0.00     0.042 C 
ATOM      3  O   UNL     1      34.904  34.641  26.208  1.00  0.00    -0.550 OA
ATOM      4  O   UNL     1      36.277  32.839  26.550  1.00  0.00    -0.550 OA
ENDBRANCH   1   2
BRANCH   1   5
ATOM      5  C   UNL     1      33.615  33.021  24.100  1.00  0.00     0.059 C 
BRANCH   5   6
ATOM      6  C   UNL     1      33.583  31.902  23.104  1.00  0.00     0.042 C 
ATOM      7  O   UNL     1      32.845  31.981  22.087  1.00  0.00    -0.550 OA
ATOM      8  O   UNL     1      34.337  30.756  23.321  1.00  0.00    -0.550 OA
ENDBRANCH   5   6
ENDBRANCH   1   5
TORSDOF 3
ENDMDL
