MODEL 1
REMARK VINA RESULT:    -4.864      0.000      0.000
REMARK INTER + INTRA:          -5.549
REMARK INTER:                  -5.575
REMARK INTRA:                   0.026
REMARK UNBOUND:                 0.026
REMARK SMILES CC(C)[C@H]([NH3+])C(=O)[O-]
REMARK SMILES IDX 4 1 5 2 6 6 7 7 8 8 2 9 1 10 3 11
REMARK H PARENT 5 3 5 4 5 5
REMARK Flexibility Score: inf
ROOT
ATOM      1  C   UNL     1     -19.889  69.948  -0.199  1.00  0.00     0.230 C 
ENDROOT
BRANCH   1   2
ATOM      2  N   UNL     1     -19.034  70.454  -1.282  1.00  0.00    -0.350 N 
ATOM      3  H   UNL     1     -19.553  70.467  -2.190  1.00  0.00     0.345 HD
ATOM      4  H   UNL     1     -18.696  71.417  -1.057  1.00  0.00     0.345 HD
ATOM      5  H   UNL     1     -18.187  69.847  -1.385  1.00  0.00     0.345 HD
ENDBRANCH   1   2
BRANCH   1   6
ATOM      6  C   UNL     1     -19.842  68.440  -0.190  1.00  0.00     0.099 C 
ATOM      7  O   UNL     1     -19.542  67.822   0.865  1.00  0.00    -0.544 OA
ATOM      8  O   UNL     1     -20.131  67.724  -1.346  1.00  0.00    -0.544 OA
ENDBRANCH   1   6
BRANCH   1   9
ATOM      9  C   UNL     1     -21.359  70.452  -0.336  1.00  0.00     0.047 C 
ATOM     10  C   UNL     1     -21.498  71.929   0.070  1.00  0.00     0.014 C 
ATOM     11  C   UNL     1     -22.320  69.603   0.514  1.00  0.00     0.014 C 
ENDBRANCH   1   9
TORSDOF 3
ENDMDL
MODEL 2
REMARK VINA RESULT:    -4.842      1.971      2.415
REMARK INTER + INTRA:          -5.524
REMARK INTER:                  -5.478
REMARK INTRA:                  -0.046
REMARK UNBOUND:                 0.026
REMARK SMILES CC(C)[C@H]([NH3+])C(=O)[O-]
REMARK SMILES IDX 4 1 5 2 6 6 7 7 8 8 2 9 1 10 3 11
REMARK H PARENT 5 3 5 4 5 5
REMARK Flexibility Score: inf
ROOT
ATOM      1  C   UNL     1     -21.893  69.479  -0.881  1.00  0.00     0.230 C 
ENDROOT
BRANCH   1   2
ATOM      2  N   UNL     1     -23.192  68.883  -0.533  1.00  0.00    -0.350 N 
ATOM      3  H   UNL     1     -23.063  67.932  -0.116  1.00  0.00     0.345 HD
ATOM      4  H   UNL     1     -23.702  69.496   0.142  1.00  0.00     0.345 HD
ATOM      5  H   UNL     1     -23.790  68.801  -1.388  1.00  0.00     0.345 HD
ENDBRANCH   1   2
BRANCH   1   6
ATOM      6  C   UNL     1     -20.960  68.394  -1.360  1.00  0.00     0.099 C 
ATOM      7  O   UNL     1     -19.829  68.250  -0.825  1.00  0.00    -0.544 OA
ATOM      8  O   UNL     1     -21.343  67.548  -2.394  1.00  0.00    -0.544 OA
ENDBRANCH   1   6
BRANCH   1   9
ATOM      9  C   UNL     1     -21.268  70.252   0.321  1.00  0.00     0.047 C 
ATOM     10  C   UNL     1     -21.777  69.718   1.671  1.00  0.00     0.014 C 
ATOM     11  C   UNL     1     -21.567  71.759   0.230  1.00  0.00     0.014 C 
ENDBRANCH   1   9
TORSDOF 3
ENDMDL
MODEL 3
REMARK VINA RESULT:    -4.804      2.381      3.238
REMARK INTER + INTRA:          -5.480
REMARK INTER:                  -5.428
REMARK INTRA:                  -0.052
REMARK UNBOUND:                 0.026
REMARK SMILES CC(C)[C@H]([NH3+])C(=O)[O-]
REMARK SMILES IDX 4 1 5 2 6 6 7 7 8 8 2 9 1 10 3 11
REMARK H PARENT 5 3 5 4 5 5
REMARK Flexibility Score: inf
ROOT
ATOM      1  C   UNL     1     -20.509  70.210  -0.934  1.00  0.00     0.230 C 
ENDROOT
BRANCH   1   2
ATOM      2  N   UNL     1     -19.094  70.609  -0.892  1.00  0.00    -0.350 N 
ATOM      3  H   UNL     1     -18.868  71.079   0.014  1.00  0.00     0.345 HD
ATOM      4  H   UNL     1     -18.479  69.774  -1.018  1.00  0.00     0.345 HD
ATOM      5  H   UNL     1     -18.884  71.268  -1.678  1.00  0.00     0.345 HD
ENDBRANCH   1   2
BRANCH   1   6
ATOM      6  C   UNL     1     -21.305  71.099  -0.010  1.00  0.00     0.099 C 
ATOM      7  O   UNL     1     -21.176  72.350  -0.069  1.00  0.00    -0.544 OA
ATOM      8  O   UNL     1     -22.186  70.543   0.909  1.00  0.00    -0.544 OA
ENDBRANCH   1   6
BRANCH   1   9
ATOM      9  C   UNL     1     -20.700  68.710  -0.552  1.00  0.00     0.047 C 
ATOM     10  C   UNL     1     -19.583  68.209   0.380  1.00  0.00     0.014 C 
ATOM     11  C   UNL     1     -20.747  67.818  -1.805  1.00  0.00     0.014 C 
ENDBRANCH   1   9
TORSDOF 3
ENDMDL
MODEL 4
REMARK VINA RESULT:    -4.775      2.755      3.525
REMARK INTER + INTRA:          -5.447
REMARK INTER:                  -5.448
REMARK INTRA:                   0.001
REMARK UNBOUND:                 0.026
REMARK SMILES CC(C)[C@H]([NH3+])C(=O)[O-]
REMARK SMILES IDX 4 1 5 2 6 6 7 7 8 8 2 9 1 10 3 11
REMARK H PARENT 5 3 5 4 5 5
REMARK Flexibility Score: inf
ROOT
ATOM      1  C   UNL     1     -22.114  68.988  -0.125  1.00  0.00     0.230 C 
ENDROOT
BRANCH   1   2
ATOM      2  N   UNL     1     -23.482  69.134  -0.642  1.00  0.00    -0.350 N 
ATOM      3  H   UNL     1     -23.583  70.026  -1.178  1.00  0.00     0.345 HD
ATOM      4  H   UNL     1     -23.724  68.325  -1.258  1.00  0.00     0.345 HD
ATOM      5  H   UNL     1     -24.168  69.134   0.149  1.00  0.00     0.345 HD
ENDBRANCH   1   2
BRANCH   1   6
ATOM      6  C   UNL     1     -21.851  70.065   0.900  1.00  0.00     0.099 C 
ATOM      7  O   UNL     1     -21.549  69.754   2.082  1.00  0.00    -0.544 OA
ATOM      8  O   UNL     1     -21.940  71.406   0.544  1.00  0.00    -0.544 OA
ENDBRANCH   1   6
BRANCH   1   9
ATOM      9  C   UNL     1     -21.052  69.044  -1.266  1.00  0.00     0.047 C 
ATOM     10  C   UNL     1     -21.068  67.768  -2.125  1.00  0.00     0.014 C 
ATOM     11  C   UNL     1     -19.637  69.254  -0.701  1.00  0.00     0.014 C 
ENDBRANCH   1   9
TORSDOF 3
ENDMDL
MODEL 5
REMARK VINA RESULT:    -4.507      1.965      2.340
REMARK INTER + INTRA:          -5.140
REMARK INTER:                  -5.089
REMARK INTRA:                  -0.050
REMARK UNBOUND:                 0.026
REMARK SMILES CC(C)[C@H]([NH3+])C(=O)[O-]
REMARK SMILES IDX 4 1 5 2 6 6 7 7 8 8 2 9 1 10 3 11
REMARK H PARENT 5 3 5 4 5 5
REMARK Flexibility Score: inf
ROOT
ATOM      1  C   UNL     1     -20.900  69.347  -1.229  1.00  0.00     0.230 C 
ENDROOT
BRANCH   1   2
ATOM      2  N   UNL     1     -20.874  67.997  -1.810  1.00  0.00    -0.350 N 
ATOM      3  H   UNL     1     -20.059  67.452  -1.445  1.00  0.00     0.345 HD
ATOM      4  H   UNL     1     -21.761  67.491  -1.589  1.00  0.00     0.345 HD
ATOM      5  H   UNL     1     -20.804  68.056  -2.853  1.00  0.00     0.345 HD
ENDBRANCH   1   2
BRANCH   1   6
ATOM      6  C   UNL     1     -19.510  69.722  -0.776  1.00  0.00     0.099 C 
ATOM      7  O   UNL     1     -18.843  68.931  -0.059  1.00  0.00    -0.544 OA
ATOM      8  O   UNL     1     -18.958  70.942  -1.148  1.00  0.00    -0.544 OA
ENDBRANCH   1   6
BRANCH   1   9
ATOM      9  C   UNL     1     -21.911  69.451  -0.045  1.00  0.00     0.047 C 
ATOM     10  C   UNL     1     -23.328  69.023  -0.464  1.00  0.00     0.014 C 
ATOM     11  C   UNL     1     -21.963  70.882   0.519  1.00  0.00     0.014 C 
ENDBRANCH   1   9
TORSDOF 3
ENDMDL
MODEL 6
REMARK VINA RESULT:    -4.490      1.536      2.294
REMARK INTER + INTRA:          -5.121
REMARK INTER:                  -5.309
REMARK INTRA:                   0.188
REMARK UNBOUND:                 0.026
REMARK SMILES CC(C)[C@H]([NH3+])C(=O)[O-]
REMARK SMILES IDX 4 1 5 2 6 6 7 7 8 8 2 9 1 10 3 11
REMARK H PARENT 5 3 5 4 5 5
REMARK Flexibility Score: inf
ROOT
ATOM      1  C   UNL     1     -20.415  69.763  -0.340  1.00  0.00     0.230 C 
ENDROOT
BRANCH   1   2
ATOM      2  N   UNL     1     -19.054  69.764  -0.895  1.00  0.00    -0.350 N 
ATOM      3  H   UNL     1     -19.079  69.778  -1.940  1.00  0.00     0.345 HD
ATOM      4  H   UNL     1     -18.521  70.592  -0.545  1.00  0.00     0.345 HD
ATOM      5  H   UNL     1     -18.537  68.909  -0.579  1.00  0.00     0.345 HD
ENDBRANCH   1   2
BRANCH   1   6
ATOM      6  C   UNL     1     -20.436  68.949   0.930  1.00  0.00     0.099 C 
ATOM      7  O   UNL     1     -19.679  67.951   1.055  1.00  0.00    -0.544 OA
ATOM      8  O   UNL     1     -21.289  69.297   1.971  1.00  0.00    -0.544 OA
ENDBRANCH   1   6
BRANCH   1   9
ATOM      9  C   UNL     1     -21.458  69.215  -1.362  1.00  0.00     0.047 C 
ATOM     10  C   UNL     1     -22.842  69.020  -0.719  1.00  0.00     0.014 C 
ATOM     11  C   UNL     1     -20.993  67.881  -1.971  1.00  0.00     0.014 C 
ENDBRANCH   1   9
TORSDOF 3
ENDMDL
MODEL 7
REMARK VINA RESULT:    -4.404      1.513      1.943
REMARK INTER + INTRA:          -5.022
REMARK INTER:                  -5.187
REMARK INTRA:                   0.165
REMARK UNBOUND:                 0.026
REMARK SMILES CC(C)[C@H]([NH3+])C(=O)[O-]
REMARK SMILES IDX 4 1 5 2 6 6 7 7 8 8 2 9 1 10 3 11
REMARK H PARENT 5 3 5 4 5 5
REMARK Flexibility Score: inf
ROOT
ATOM      1  C   UNL     1     -21.283  69.195   0.134  1.00  0.00     0.230 C 
ENDROOT
BRANCH   1   2
ATOM      2  N   UNL     1     -21.488  69.445   1.568  1.00  0.00    -0.350 N 
ATOM      3  H   UNL     1     -21.944  70.374   1.721  1.00  0.00     0.345 HD
ATOM      4  H   UNL     1     -22.079  68.691   1.986  1.00  0.00     0.345 HD
ATOM      5  H   UNL     1     -20.570  69.431   2.070  1.00  0.00     0.345 HD
ENDBRANCH   1   2
BRANCH   1   6
ATOM      6  C   UNL     1     -20.161  68.202  -0.044  1.00  0.00     0.099 C 
ATOM      7  O   UNL     1     -19.391  67.938   0.917  1.00  0.00    -0.544 OA
ATOM      8  O   UNL     1     -19.971  67.572  -1.268  1.00  0.00    -0.544 OA
ENDBRANCH   1   6
BRANCH   1   9
ATOM      9  C   UNL     1     -20.983  70.510  -0.648  1.00  0.00     0.047 C 
ATOM     10  C   UNL     1     -19.476  70.699  -0.893  1.00  0.00     0.014 C 
ATOM     11  C   UNL     1     -21.529  71.740   0.099  1.00  0.00     0.014 C 
ENDBRANCH   1   9
TORSDOF 3
ENDMDL
MODEL 8
REMARK VINA RESULT:    -4.225      2.489      3.166
REMARK INTER + INTRA:          -4.816
REMARK INTER:                  -4.766
REMARK INTRA:                  -0.050
REMARK UNBOUND:                 0.026
REMARK SMILES CC(C)[C@H]([NH3+])C(=O)[O-]
REMARK SMILES IDX 4 1 5 2 6 6 7 7 8 8 2 9 1 10 3 11
REMARK H PARENT 5 3 5 4 5 5
REMARK Flexibility Score: inf
ROOT
ATOM      1  C   UNL     1     -21.462  70.442  -0.320  1.00  0.00     0.230 C 
ENDROOT
BRANCH   1   2
ATOM      2  N   UNL     1     -20.034  70.653  -0.598  1.00  0.00    -0.350 N 
ATOM      3  H   UNL     1     -19.906  71.321  -1.393  1.00  0.00     0.345 HD
ATOM      4  H   UNL     1     -19.550  71.023   0.252  1.00  0.00     0.345 HD
ATOM      5  H   UNL     1     -19.577  69.743  -0.841  1.00  0.00     0.345 HD
ENDBRANCH   1   2
BRANCH   1   6
ATOM      6  C   UNL     1     -21.761  70.860   1.099  1.00  0.00     0.099 C 
ATOM      7  O   UNL     1     -21.787  70.002   2.020  1.00  0.00    -0.544 OA
ATOM      8  O   UNL     1     -22.007  72.195   1.398  1.00  0.00    -0.544 OA
ENDBRANCH   1   6
BRANCH   1   9
ATOM      9  C   UNL     1     -21.887  68.961  -0.558  1.00  0.00     0.047 C 
ATOM     10  C   UNL     1     -21.079  68.309  -1.693  1.00  0.00     0.014 C 
ATOM     11  C   UNL     1     -23.387  68.858  -0.886  1.00  0.00     0.014 C 
ENDBRANCH   1   9
TORSDOF 3
ENDMDL
MODEL 9
REMARK VINA RESULT:    -4.185      2.013      2.626
REMARK INTER + INTRA:          -4.771
REMARK INTER:                  -4.899
REMARK INTRA:                   0.128
REMARK UNBOUND:                 0.026
REMARK SMILES CC(C)[C@H]([NH3+])C(=O)[O-]
REMARK SMILES IDX 4 1 5 2 6 6 7 7 8 8 2 9 1 10 3 11
REMARK H PARENT 5 3 5 4 5 5
REMARK Flexibility Score: inf
ROOT
ATOM      1  C   UNL     1     -20.896  70.112  -0.031  1.00  0.00     0.230 C 
ENDROOT
BRANCH   1   2
ATOM      2  N   UNL     1     -21.316  71.500   0.214  1.00  0.00    -0.350 N 
ATOM      3  H   UNL     1     -21.120  71.777   1.203  1.00  0.00     0.345 HD
ATOM      4  H   UNL     1     -20.819  72.149  -0.438  1.00  0.00     0.345 HD
ATOM      5  H   UNL     1     -22.341  71.603   0.028  1.00  0.00     0.345 HD
ENDBRANCH   1   2
BRANCH   1   6
ATOM      6  C   UNL     1     -19.453  70.099  -0.472  1.00  0.00     0.099 C 
ATOM      7  O   UNL     1     -19.015  71.001  -1.233  1.00  0.00    -0.544 OA
ATOM      8  O   UNL     1     -18.599  69.091  -0.039  1.00  0.00    -0.544 OA
ENDBRANCH   1   6
BRANCH   1   9
ATOM      9  C   UNL     1     -21.801  69.410  -1.089  1.00  0.00     0.047 C 
ATOM     10  C   UNL     1     -23.159  68.995  -0.496  1.00  0.00     0.014 C 
ATOM     11  C   UNL     1     -21.109  68.168  -1.678  1.00  0.00     0.014 C 
ENDBRANCH   1   9
TORSDOF 3
ENDMDL
