MODEL 1
REMARK VINA RESULT:    -5.550      0.000      0.000
REMARK INTER + INTRA:          -6.677
REMARK INTER:                  -6.361
REMARK INTRA:                  -0.316
REMARK UNBOUND:                -0.316
REMARK SMILES O=C1C[C@@H](c2ccc(O)cc2)Oc2cc(O)cc(O)c21
REMARK SMILES IDX 3 1 4 2 12 3 13 4 14 5 15 6 17 7 18 8 20 9 2 10 1 11 5 12
REMARK SMILES IDX 6 13 11 14 7 15 10 16 8 17 9 18 19 20 16 22
REMARK H PARENT 9 19 19 21 16 23
REMARK Flexibility Score: inf
ROOT
ATOM      1  C   UNL     1      -2.925  88.000  -8.204  1.00  0.00     0.131 C 
ATOM      2  C   UNL     1      -4.436  88.240  -8.333  1.00  0.00     0.211 C 
ATOM      3  O   UNL     1      -5.031  87.256  -9.184  1.00  0.00    -0.484 OA
ATOM      4  C   UNL     1      -4.647  85.909  -9.166  1.00  0.00     0.138 A 
ATOM      5  C   UNL     1      -5.450  84.966  -9.813  1.00  0.00     0.093 A 
ATOM      6  C   UNL     1      -5.102  83.616  -9.799  1.00  0.00     0.123 A 
ATOM      7  C   UNL     1      -3.926  83.207  -9.160  1.00  0.00     0.093 A 
ATOM      8  C   UNL     1      -3.086  84.139  -8.541  1.00  0.00     0.133 A 
ATOM      9  C   UNL     1      -3.461  85.508  -8.511  1.00  0.00     0.102 A 
ATOM     10  C   UNL     1      -2.686  86.570  -7.823  1.00  0.00     0.174 C 
ATOM     11  O   UNL     1      -1.876  86.305  -6.896  1.00  0.00    -0.294 OA
ENDROOT
BRANCH   2  12
ATOM     12  C   UNL     1      -4.714  89.624  -8.868  1.00  0.00    -0.007 A 
ATOM     13  C   UNL     1      -5.465  89.798 -10.043  1.00  0.00     0.011 A 
ATOM     14  C   UNL     1      -4.175  90.751  -8.226  1.00  0.00     0.011 A 
ATOM     15  C   UNL     1      -5.694  91.080 -10.552  1.00  0.00     0.046 A 
ATOM     16  C   UNL     1      -4.406  92.033  -8.737  1.00  0.00     0.046 A 
ATOM     17  C   UNL     1      -5.166  92.201  -9.898  1.00  0.00     0.115 A 
BRANCH  17  18
ATOM     18  O   UNL     1      -5.388  93.483 -10.396  1.00  0.00    -0.508 OA
ATOM     19  H   UNL     1      -5.863  93.634 -11.278  1.00  0.00     0.293 HD
ENDBRANCH  17  18
ENDBRANCH   2  12
BRANCH   8  20
ATOM     20  O   UNL     1      -1.885  83.665  -8.007  1.00  0.00    -0.507 OA
ATOM     21  H   UNL     1      -1.827  83.057  -7.203  1.00  0.00     0.293 HD
ENDBRANCH   8  20
BRANCH   6  22
ATOM     22  O   UNL     1      -5.927  82.688 -10.431  1.00  0.00    -0.508 OA
ATOM     23  H   UNL     1      -6.258  81.860  -9.950  1.00  0.00     0.293 HD
ENDBRANCH   6  22
TORSDOF 4
ENDMDL
MODEL 2
REMARK VINA RESULT:    -5.377      2.014      7.287
REMARK INTER + INTRA:          -6.479
REMARK INTER:                  -6.173
REMARK INTRA:                  -0.306
REMARK UNBOUND:                -0.316
REMARK SMILES O=C1C[C@@H](c2ccc(O)cc2)Oc2cc(O)cc(O)c21
REMARK SMILES IDX 3 1 4 2 12 3 13 4 14 5 15 6 17 7 18 8 20 9 2 10 1 11 5 12
REMARK SMILES IDX 6 13 11 14 7 15 10 16 8 17 9 18 19 20 16 22
REMARK H PARENT 9 19 19 21 16 23
REMARK Flexibility Score: inf
ROOT
ATOM      1  C   UNL     1      -5.449  85.592  -9.999  1.00  0.00     0.131 C 
ATOM      2  C   UNL     1      -4.950  85.193  -8.602  1.00  0.00     0.211 C 
ATOM      3  O   UNL     1      -4.056  86.183  -8.085  1.00  0.00    -0.484 OA
ATOM      4  C   UNL     1      -4.263  87.557  -8.268  1.00  0.00     0.138 A 
ATOM      5  C   UNL     1      -3.515  88.461  -7.508  1.00  0.00     0.093 A 
ATOM      6  C   UNL     1      -3.709  89.835  -7.657  1.00  0.00     0.123 A 
ATOM      7  C   UNL     1      -4.635  90.310  -8.592  1.00  0.00     0.093 A 
ATOM      8  C   UNL     1      -5.365  89.423  -9.392  1.00  0.00     0.133 A 
ATOM      9  C   UNL     1      -5.206  88.024  -9.210  1.00  0.00     0.102 A 
ATOM     10  C   UNL     1      -5.978  86.994  -9.949  1.00  0.00     0.174 C 
ATOM     11  O   UNL     1      -7.087  87.255 -10.486  1.00  0.00    -0.294 OA
ENDROOT
BRANCH   2  12
ATOM     12  C   UNL     1      -4.265  83.849  -8.644  1.00  0.00    -0.007 A 
ATOM     13  C   UNL     1      -3.529  83.388  -7.539  1.00  0.00     0.011 A 
ATOM     14  C   UNL     1      -4.311  83.068  -9.811  1.00  0.00     0.011 A 
ATOM     15  C   UNL     1      -2.871  82.155  -7.593  1.00  0.00     0.046 A 
ATOM     16  C   UNL     1      -3.652  81.835  -9.861  1.00  0.00     0.046 A 
ATOM     17  C   UNL     1      -2.933  81.374  -8.755  1.00  0.00     0.115 A 
BRANCH  17  18
ATOM     18  O   UNL     1      -2.282  80.145  -8.819  1.00  0.00    -0.508 OA
ATOM     19  H   UNL     1      -2.476  79.407  -8.152  1.00  0.00     0.293 HD
ENDBRANCH  17  18
ENDBRANCH   2  12
BRANCH   8  20
ATOM     20  O   UNL     1      -6.201  89.976 -10.365  1.00  0.00    -0.507 OA
ATOM     21  H   UNL     1      -7.209  89.944 -10.327  1.00  0.00     0.293 HD
ENDBRANCH   8  20
BRANCH   6  22
ATOM     22  O   UNL     1      -2.969  90.720  -6.876  1.00  0.00    -0.508 OA
ATOM     23  H   UNL     1      -2.999  91.720  -7.036  1.00  0.00     0.293 HD
ENDBRANCH   6  22
TORSDOF 4
ENDMDL
MODEL 3
REMARK VINA RESULT:    -5.252      6.475      9.745
REMARK INTER + INTRA:          -6.336
REMARK INTER:                  -6.022
REMARK INTRA:                  -0.314
REMARK UNBOUND:                -0.316
REMARK SMILES O=C1C[C@@H](c2ccc(O)cc2)Oc2cc(O)cc(O)c21
REMARK SMILES IDX 3 1 4 2 12 3 13 4 14 5 15 6 17 7 18 8 20 9 2 10 1 11 5 12
REMARK SMILES IDX 6 13 11 14 7 15 10 16 8 17 9 18 19 20 16 22
REMARK H PARENT 9 19 19 21 16 23
REMARK Flexibility Score: inf
ROOT
ATOM      1  C   UNL     1      -4.138  91.162 -14.830  1.00  0.00     0.131 C 
ATOM      2  C   UNL     1      -5.348  90.376 -15.356  1.00  0.00     0.211 C 
ATOM      3  O   UNL     1      -6.020  91.112 -16.381  1.00  0.00    -0.484 OA
ATOM      4  C   UNL     1      -5.333  91.856 -17.351  1.00  0.00     0.138 A 
ATOM      5  C   UNL     1      -6.031  92.314 -18.472  1.00  0.00     0.093 A 
ATOM      6  C   UNL     1      -5.372  93.045 -19.461  1.00  0.00     0.123 A 
ATOM      7  C   UNL     1      -4.014  93.347 -19.314  1.00  0.00     0.093 A 
ATOM      8  C   UNL     1      -3.306  92.933 -18.179  1.00  0.00     0.133 A 
ATOM      9  C   UNL     1      -3.961  92.148 -17.194  1.00  0.00     0.102 A 
ATOM     10  C   UNL     1      -3.293  91.596 -15.990  1.00  0.00     0.174 C 
ATOM     11  O   UNL     1      -2.045  91.433 -15.939  1.00  0.00    -0.294 OA
ENDROOT
BRANCH   2  12
ATOM     12  C   UNL     1      -6.306  90.058 -14.234  1.00  0.00    -0.007 A 
ATOM     13  C   UNL     1      -5.840  89.489 -13.036  1.00  0.00     0.011 A 
ATOM     14  C   UNL     1      -7.684  90.276 -14.399  1.00  0.00     0.011 A 
ATOM     15  C   UNL     1      -6.735  89.168 -12.011  1.00  0.00     0.046 A 
ATOM     16  C   UNL     1      -8.578  89.953 -13.371  1.00  0.00     0.046 A 
ATOM     17  C   UNL     1      -8.107  89.401 -12.176  1.00  0.00     0.115 A 
BRANCH  17  18
ATOM     18  O   UNL     1      -9.008  89.086 -11.162  1.00  0.00    -0.508 OA
ATOM     19  H   UNL     1      -9.400  89.801 -10.560  1.00  0.00     0.293 HD
ENDBRANCH  17  18
ENDBRANCH   2  12
BRANCH   8  20
ATOM     20  O   UNL     1      -1.979  93.353 -18.063  1.00  0.00    -0.507 OA
ATOM     21  H   UNL     1      -1.228  92.764 -17.734  1.00  0.00     0.293 HD
ENDBRANCH   8  20
BRANCH   6  22
ATOM     22  O   UNL     1      -6.079  93.474 -20.582  1.00  0.00    -0.508 OA
ATOM     23  H   UNL     1      -7.018  93.848 -20.505  1.00  0.00     0.293 HD
ENDBRANCH   6  22
TORSDOF 4
ENDMDL
MODEL 4
REMARK VINA RESULT:    -5.122      4.427      7.435
REMARK INTER + INTRA:          -6.187
REMARK INTER:                  -5.874
REMARK INTRA:                  -0.313
REMARK UNBOUND:                -0.316
REMARK SMILES O=C1C[C@@H](c2ccc(O)cc2)Oc2cc(O)cc(O)c21
REMARK SMILES IDX 3 1 4 2 12 3 13 4 14 5 15 6 17 7 18 8 20 9 2 10 1 11 5 12
REMARK SMILES IDX 6 13 11 14 7 15 10 16 8 17 9 18 19 20 16 22
REMARK H PARENT 9 19 19 21 16 23
REMARK Flexibility Score: inf
ROOT
ATOM      1  C   UNL     1      -7.825  85.346  -8.299  1.00  0.00     0.131 C 
ATOM      2  C   UNL     1      -7.386  84.455  -9.470  1.00  0.00     0.211 C 
ATOM      3  O   UNL     1      -8.204  83.284  -9.546  1.00  0.00    -0.484 OA
ATOM      4  C   UNL     1      -9.585  83.311  -9.310  1.00  0.00     0.138 A 
ATOM      5  C   UNL     1     -10.355  82.202  -9.670  1.00  0.00     0.093 A 
ATOM      6  C   UNL     1     -11.734  82.204  -9.462  1.00  0.00     0.123 A 
ATOM      7  C   UNL     1     -12.345  83.310  -8.861  1.00  0.00     0.093 A 
ATOM      8  C   UNL     1     -11.587  84.415  -8.456  1.00  0.00     0.133 A 
ATOM      9  C   UNL     1     -10.191  84.436  -8.710  1.00  0.00     0.102 A 
ATOM     10  C   UNL     1      -9.303  85.582  -8.389  1.00  0.00     0.174 C 
ATOM     11  O   UNL     1      -9.752  86.749  -8.244  1.00  0.00    -0.294 OA
ENDROOT
BRANCH   2  12
ATOM     12  C   UNL     1      -5.935  84.064  -9.329  1.00  0.00    -0.007 A 
ATOM     13  C   UNL     1      -5.434  82.925  -9.984  1.00  0.00     0.011 A 
ATOM     14  C   UNL     1      -5.081  84.806  -8.495  1.00  0.00     0.011 A 
ATOM     15  C   UNL     1      -4.097  82.550  -9.826  1.00  0.00     0.046 A 
ATOM     16  C   UNL     1      -3.743  84.427  -8.340  1.00  0.00     0.046 A 
ATOM     17  C   UNL     1      -3.247  83.302  -9.004  1.00  0.00     0.115 A 
BRANCH  17  18
ATOM     18  O   UNL     1      -1.913  82.938  -8.840  1.00  0.00    -0.508 OA
ATOM     19  H   UNL     1      -1.600  82.427  -8.022  1.00  0.00     0.293 HD
ENDBRANCH  17  18
ENDBRANCH   2  12
BRANCH   8  20
ATOM     20  O   UNL     1     -12.256  85.439  -7.780  1.00  0.00    -0.507 OA
ATOM     21  H   UNL     1     -11.801  86.107  -7.176  1.00  0.00     0.293 HD
ENDBRANCH   8  20
BRANCH   6  22
ATOM     22  O   UNL     1     -12.488  81.098  -9.848  1.00  0.00    -0.508 OA
ATOM     23  H   UNL     1     -12.869  80.452  -9.166  1.00  0.00     0.293 HD
ENDBRANCH   6  22
TORSDOF 4
ENDMDL
MODEL 5
REMARK VINA RESULT:    -5.112      6.098      9.103
REMARK INTER + INTRA:          -6.176
REMARK INTER:                  -5.891
REMARK INTRA:                  -0.285
REMARK UNBOUND:                -0.316
REMARK SMILES O=C1C[C@@H](c2ccc(O)cc2)Oc2cc(O)cc(O)c21
REMARK SMILES IDX 3 1 4 2 12 3 13 4 14 5 15 6 17 7 18 8 20 9 2 10 1 11 5 12
REMARK SMILES IDX 6 13 11 14 7 15 10 16 8 17 9 18 19 20 16 22
REMARK H PARENT 9 19 19 21 16 23
REMARK Flexibility Score: inf
ROOT
ATOM      1  C   UNL     1     -10.479  82.749  -9.494  1.00  0.00     0.131 C 
ATOM      2  C   UNL     1      -9.980  83.739  -8.431  1.00  0.00     0.211 C 
ATOM      3  O   UNL     1     -10.437  85.063  -8.722  1.00  0.00    -0.484 OA
ATOM      4  C   UNL     1     -11.720  85.328  -9.219  1.00  0.00     0.138 A 
ATOM      5  C   UNL     1     -12.190  86.644  -9.215  1.00  0.00     0.093 A 
ATOM      6  C   UNL     1     -13.468  86.937  -9.689  1.00  0.00     0.123 A 
ATOM      7  C   UNL     1     -14.273  85.912 -10.199  1.00  0.00     0.093 A 
ATOM      8  C   UNL     1     -13.807  84.593 -10.250  1.00  0.00     0.133 A 
ATOM      9  C   UNL     1     -12.525  84.283  -9.724  1.00  0.00     0.102 A 
ATOM     10  C   UNL     1     -11.960  82.912  -9.660  1.00  0.00     0.174 C 
ATOM     11  O   UNL     1     -12.694  81.890  -9.688  1.00  0.00    -0.294 OA
ENDROOT
BRANCH   2  12
ATOM     12  C   UNL     1      -8.473  83.718  -8.347  1.00  0.00    -0.007 A 
ATOM     13  C   UNL     1      -7.693  83.687  -9.516  1.00  0.00     0.011 A 
ATOM     14  C   UNL     1      -7.835  83.672  -7.096  1.00  0.00     0.011 A 
ATOM     15  C   UNL     1      -6.298  83.637  -9.433  1.00  0.00     0.046 A 
ATOM     16  C   UNL     1      -6.439  83.622  -7.017  1.00  0.00     0.046 A 
ATOM     17  C   UNL     1      -5.668  83.606  -8.182  1.00  0.00     0.115 A 
BRANCH  17  18
ATOM     18  O   UNL     1      -4.279  83.557  -8.088  1.00  0.00    -0.508 OA
ATOM     19  H   UNL     1      -3.816  83.269  -7.233  1.00  0.00     0.293 HD
ENDBRANCH  17  18
ENDBRANCH   2  12
BRANCH   8  20
ATOM     20  O   UNL     1     -14.633  83.644 -10.858  1.00  0.00    -0.507 OA
ATOM     21  H   UNL     1     -14.661  83.476 -11.853  1.00  0.00     0.293 HD
ENDBRANCH   8  20
BRANCH   6  22
ATOM     22  O   UNL     1     -13.928  88.252  -9.657  1.00  0.00    -0.508 OA
ATOM     23  H   UNL     1     -14.272  88.672  -8.801  1.00  0.00     0.293 HD
ENDBRANCH   6  22
TORSDOF 4
ENDMDL
MODEL 6
REMARK VINA RESULT:    -5.086      6.455      8.308
REMARK INTER + INTRA:          -6.146
REMARK INTER:                  -5.839
REMARK INTRA:                  -0.307
REMARK UNBOUND:                -0.316
REMARK SMILES O=C1C[C@@H](c2ccc(O)cc2)Oc2cc(O)cc(O)c21
REMARK SMILES IDX 3 1 4 2 12 3 13 4 14 5 15 6 17 7 18 8 20 9 2 10 1 11 5 12
REMARK SMILES IDX 6 13 11 14 7 15 10 16 8 17 9 18 19 20 16 22
REMARK H PARENT 9 19 19 21 16 23
REMARK Flexibility Score: inf
ROOT
ATOM      1  C   UNL     1      -8.003  91.531 -12.030  1.00  0.00     0.131 C 
ATOM      2  C   UNL     1      -8.485  90.349 -12.883  1.00  0.00     0.211 C 
ATOM      3  O   UNL     1      -7.867  90.372 -14.172  1.00  0.00    -0.484 OA
ATOM      4  C   UNL     1      -6.524  90.726 -14.360  1.00  0.00     0.138 A 
ATOM      5  C   UNL     1      -5.919  90.460 -15.591  1.00  0.00     0.093 A 
ATOM      6  C   UNL     1      -4.580  90.787 -15.804  1.00  0.00     0.123 A 
ATOM      7  C   UNL     1      -3.847  91.411 -14.788  1.00  0.00     0.093 A 
ATOM      8  C   UNL     1      -4.444  91.723 -13.561  1.00  0.00     0.133 A 
ATOM      9  C   UNL     1      -5.793  91.349 -13.324  1.00  0.00     0.102 A 
ATOM     10  C   UNL     1      -6.504  91.564 -12.040  1.00  0.00     0.174 C 
ATOM     11  O   UNL     1      -5.883  91.718 -10.955  1.00  0.00    -0.294 OA
ENDROOT
BRANCH   2  12
ATOM     12  C   UNL     1      -9.987  90.373 -13.028  1.00  0.00    -0.007 A 
ATOM     13  C   UNL     1     -10.782  91.088 -12.115  1.00  0.00     0.011 A 
ATOM     14  C   UNL     1     -10.611  89.634 -14.048  1.00  0.00     0.011 A 
ATOM     15  C   UNL     1     -12.175  91.083 -12.236  1.00  0.00     0.046 A 
ATOM     16  C   UNL     1     -12.005  89.632 -14.166  1.00  0.00     0.046 A 
ATOM     17  C   UNL     1     -12.790  90.356 -13.264  1.00  0.00     0.115 A 
BRANCH  17  18
ATOM     18  O   UNL     1     -14.177  90.344 -13.394  1.00  0.00    -0.508 OA
ATOM     19  H   UNL     1     -14.637  89.794 -14.110  1.00  0.00     0.293 HD
ENDBRANCH  17  18
ENDBRANCH   2  12
BRANCH   8  20
ATOM     20  O   UNL     1      -3.674  92.429 -12.633  1.00  0.00    -0.507 OA
ATOM     21  H   UNL     1      -3.432  93.404 -12.728  1.00  0.00     0.293 HD
ENDBRANCH   8  20
BRANCH   6  22
ATOM     22  O   UNL     1      -3.988  90.495 -17.030  1.00  0.00    -0.508 OA
ATOM     23  H   UNL     1      -3.206  89.855 -17.102  1.00  0.00     0.293 HD
ENDBRANCH   6  22
TORSDOF 4
ENDMDL
MODEL 7
REMARK VINA RESULT:    -5.074      2.138      6.623
REMARK INTER + INTRA:          -6.132
REMARK INTER:                  -5.814
REMARK INTRA:                  -0.318
REMARK UNBOUND:                -0.316
REMARK SMILES O=C1C[C@@H](c2ccc(O)cc2)Oc2cc(O)cc(O)c21
REMARK SMILES IDX 3 1 4 2 12 3 13 4 14 5 15 6 17 7 18 8 20 9 2 10 1 11 5 12
REMARK SMILES IDX 6 13 11 14 7 15 10 16 8 17 9 18 19 20 16 22
REMARK H PARENT 9 19 19 21 16 23
REMARK Flexibility Score: inf
ROOT
ATOM      1  C   UNL     1      -3.585  86.704  -7.476  1.00  0.00     0.131 C 
ATOM      2  C   UNL     1      -3.491  85.850  -8.749  1.00  0.00     0.211 C 
ATOM      3  O   UNL     1      -4.694  85.953  -9.515  1.00  0.00    -0.484 OA
ATOM      4  C   UNL     1      -5.395  87.158  -9.663  1.00  0.00     0.138 A 
ATOM      5  C   UNL     1      -6.391  87.245 -10.639  1.00  0.00     0.093 A 
ATOM      6  C   UNL     1      -7.096  88.435 -10.821  1.00  0.00     0.123 A 
ATOM      7  C   UNL     1      -6.825  89.537 -10.001  1.00  0.00     0.093 A 
ATOM      8  C   UNL     1      -5.859  89.458  -8.991  1.00  0.00     0.133 A 
ATOM      9  C   UNL     1      -5.106  88.264  -8.835  1.00  0.00     0.102 A 
ATOM     10  C   UNL     1      -4.012  88.093  -7.847  1.00  0.00     0.174 C 
ATOM     11  O   UNL     1      -3.400  89.078  -7.357  1.00  0.00    -0.294 OA
ENDROOT
BRANCH   2  12
ATOM     12  C   UNL     1      -3.218  84.406  -8.404  1.00  0.00    -0.007 A 
ATOM     13  C   UNL     1      -3.736  83.371  -9.202  1.00  0.00     0.011 A 
ATOM     14  C   UNL     1      -2.489  84.081  -7.248  1.00  0.00     0.011 A 
ATOM     15  C   UNL     1      -3.507  82.035  -8.862  1.00  0.00     0.046 A 
ATOM     16  C   UNL     1      -2.261  82.742  -6.911  1.00  0.00     0.046 A 
ATOM     17  C   UNL     1      -2.766  81.717  -7.715  1.00  0.00     0.115 A 
BRANCH  17  18
ATOM     18  O   UNL     1      -2.531  80.389  -7.367  1.00  0.00    -0.508 OA
ATOM     19  H   UNL     1      -1.721  79.887  -7.712  1.00  0.00     0.293 HD
ENDBRANCH  17  18
ENDBRANCH   2  12
BRANCH   8  20
ATOM     20  O   UNL     1      -5.712  90.568  -8.156  1.00  0.00    -0.507 OA
ATOM     21  H   UNL     1      -5.535  91.504  -8.488  1.00  0.00     0.293 HD
ENDBRANCH   8  20
BRANCH   6  22
ATOM     22  O   UNL     1      -8.071  88.510 -11.813  1.00  0.00    -0.508 OA
ATOM     23  H   UNL     1      -8.158  89.326 -12.409  1.00  0.00     0.293 HD
ENDBRANCH   6  22
TORSDOF 4
ENDMDL
MODEL 8
REMARK VINA RESULT:    -5.073      4.644      7.077
REMARK INTER + INTRA:          -6.131
REMARK INTER:                  -5.825
REMARK INTRA:                  -0.306
REMARK UNBOUND:                -0.316
REMARK SMILES O=C1C[C@@H](c2ccc(O)cc2)Oc2cc(O)cc(O)c21
REMARK SMILES IDX 3 1 4 2 12 3 13 4 14 5 15 6 17 7 18 8 20 9 2 10 1 11 5 12
REMARK SMILES IDX 6 13 11 14 7 15 10 16 8 17 9 18 19 20 16 22
REMARK H PARENT 9 19 19 21 16 23
REMARK Flexibility Score: inf
ROOT
ATOM      1  C   UNL     1      -9.068  85.840  -8.269  1.00  0.00     0.131 C 
ATOM      2  C   UNL     1      -9.363  84.345  -8.459  1.00  0.00     0.211 C 
ATOM      3  O   UNL     1      -8.378  83.740  -9.301  1.00  0.00    -0.484 OA
ATOM      4  C   UNL     1      -7.017  84.069  -9.229  1.00  0.00     0.138 A 
ATOM      5  C   UNL     1      -6.088  83.250  -9.875  1.00  0.00     0.093 A 
ATOM      6  C   UNL     1      -4.725  83.542  -9.809  1.00  0.00     0.123 A 
ATOM      7  C   UNL     1      -4.291  84.678  -9.117  1.00  0.00     0.093 A 
ATOM      8  C   UNL     1      -5.208  85.534  -8.496  1.00  0.00     0.133 A 
ATOM      9  C   UNL     1      -6.591  85.214  -8.521  1.00  0.00     0.102 A 
ATOM     10  C   UNL     1      -7.642  86.008  -7.838  1.00  0.00     0.174 C 
ATOM     11  O   UNL     1      -7.374  86.774  -6.875  1.00  0.00    -0.294 OA
ENDROOT
BRANCH   2  12
ATOM     12  C   UNL     1     -10.739  84.142  -9.045  1.00  0.00    -0.007 A 
ATOM     13  C   UNL     1     -11.131  82.882  -9.529  1.00  0.00     0.011 A 
ATOM     14  C   UNL     1     -11.624  85.227  -9.162  1.00  0.00     0.011 A 
ATOM     15  C   UNL     1     -12.396  82.706 -10.099  1.00  0.00     0.046 A 
ATOM     16  C   UNL     1     -12.890  85.047  -9.732  1.00  0.00     0.046 A 
ATOM     17  C   UNL     1     -13.280  83.789 -10.200  1.00  0.00     0.115 A 
BRANCH  17  18
ATOM     18  O   UNL     1     -14.542  83.625 -10.765  1.00  0.00    -0.508 OA
ATOM     19  H   UNL     1     -15.243  84.355 -10.715  1.00  0.00     0.293 HD
ENDBRANCH  17  18
ENDBRANCH   2  12
BRANCH   8  20
ATOM     20  O   UNL     1      -4.704  86.695  -7.906  1.00  0.00    -0.507 OA
ATOM     21  H   UNL     1      -4.636  87.585  -8.379  1.00  0.00     0.293 HD
ENDBRANCH   8  20
BRANCH   6  22
ATOM     22  O   UNL     1      -3.812  82.702 -10.442  1.00  0.00    -0.508 OA
ATOM     23  H   UNL     1      -4.097  82.070 -11.181  1.00  0.00     0.293 HD
ENDBRANCH   6  22
TORSDOF 4
ENDMDL
MODEL 9
REMARK VINA RESULT:    -5.003      5.779      8.270
REMARK INTER + INTRA:          -6.050
REMARK INTER:                  -5.760
REMARK INTRA:                  -0.290
REMARK UNBOUND:                -0.316
REMARK SMILES O=C1C[C@@H](c2ccc(O)cc2)Oc2cc(O)cc(O)c21
REMARK SMILES IDX 3 1 4 2 12 3 13 4 14 5 15 6 17 7 18 8 20 9 2 10 1 11 5 12
REMARK SMILES IDX 6 13 11 14 7 15 10 16 8 17 9 18 19 20 16 22
REMARK H PARENT 9 19 19 21 16 23
REMARK Flexibility Score: inf
ROOT
ATOM      1  C   UNL     1      -4.028  92.488 -14.728  1.00  0.00     0.131 C 
ATOM      2  C   UNL     1      -5.324  92.290 -15.528  1.00  0.00     0.211 C 
ATOM      3  O   UNL     1      -5.978  91.079 -15.136  1.00  0.00    -0.484 OA
ATOM      4  C   UNL     1      -6.035  90.649 -13.803  1.00  0.00     0.138 A 
ATOM      5  C   UNL     1      -6.917  89.620 -13.461  1.00  0.00     0.093 A 
ATOM      6  C   UNL     1      -7.007  89.180 -12.141  1.00  0.00     0.123 A 
ATOM      7  C   UNL     1      -6.190  89.752 -11.159  1.00  0.00     0.093 A 
ATOM      8  C   UNL     1      -5.271  90.756 -11.487  1.00  0.00     0.133 A 
ATOM      9  C   UNL     1      -5.210  91.240 -12.821  1.00  0.00     0.102 A 
ATOM     10  C   UNL     1      -4.328  92.347 -13.266  1.00  0.00     0.174 C 
ATOM     11  O   UNL     1      -3.872  93.197 -12.457  1.00  0.00    -0.294 OA
ENDROOT
BRANCH   2  12
ATOM     12  C   UNL     1      -5.038  92.267 -17.010  1.00  0.00    -0.007 A 
ATOM     13  C   UNL     1      -3.716  92.322 -17.484  1.00  0.00     0.011 A 
ATOM     14  C   UNL     1      -6.097  92.246 -17.934  1.00  0.00     0.011 A 
ATOM     15  C   UNL     1      -3.457  92.331 -18.857  1.00  0.00     0.046 A 
ATOM     16  C   UNL     1      -5.834  92.255 -19.308  1.00  0.00     0.046 A 
ATOM     17  C   UNL     1      -4.517  92.296 -19.774  1.00  0.00     0.115 A 
BRANCH  17  18
ATOM     18  O   UNL     1      -4.271  92.304 -21.145  1.00  0.00    -0.508 OA
ATOM     19  H   UNL     1      -4.807  91.727 -21.782  1.00  0.00     0.293 HD
ENDBRANCH  17  18
ENDBRANCH   2  12
BRANCH   8  20
ATOM     20  O   UNL     1      -4.427  91.210 -10.471  1.00  0.00    -0.507 OA
ATOM     21  H   UNL     1      -3.422  91.114 -10.488  1.00  0.00     0.293 HD
ENDBRANCH   8  20
BRANCH   6  22
ATOM     22  O   UNL     1      -7.907  88.168 -11.815  1.00  0.00    -0.508 OA
ATOM     23  H   UNL     1      -8.786  88.061 -12.309  1.00  0.00     0.293 HD
ENDBRANCH   6  22
TORSDOF 4
ENDMDL
