MODEL 1
REMARK VINA RESULT:    -3.939      0.000      0.000
REMARK INTER + INTRA:          -4.377
REMARK INTER:                  -4.630
REMARK INTRA:                   0.253
REMARK UNBOUND:                 0.253
REMARK SMILES COc1ccc(C=CC(=O)[O-])cc1
REMARK SMILES IDX 6 1 5 2 12 3 4 4 13 5 3 6 7 7 8 8 9 9 10 10 11 11 2 12 1 13
REMARK H PARENT
REMARK Flexibility Score: inf
ROOT
ATOM      1  C   UNL     1     148.451 161.556 160.805  1.00  0.00    -0.025 A 
ATOM      2  C   UNL     1     148.966 160.289 160.497  1.00  0.00     0.012 A 
ATOM      3  C   UNL     1     147.183 161.654 161.398  1.00  0.00     0.012 A 
ATOM      4  C   UNL     1     148.206 159.140 160.728  1.00  0.00     0.047 A 
ATOM      5  C   UNL     1     146.421 160.506 161.630  1.00  0.00     0.047 A 
ATOM      6  C   UNL     1     146.921 159.242 161.295  1.00  0.00     0.118 A 
ENDROOT
BRANCH   1   7
ATOM      7  C   UNL     1     149.296 162.750 160.599  1.00  0.00     0.010 C 
ATOM      8  C   UNL     1     148.929 163.858 159.933  1.00  0.00     0.025 C 
BRANCH   8   9
ATOM      9  C   UNL     1     147.697 164.018 159.138  1.00  0.00     0.064 C 
ATOM     10  O   UNL     1     147.731 164.121 157.883  1.00  0.00    -0.545 OA
ATOM     11  O   UNL     1     146.477 164.125 159.794  1.00  0.00    -0.545 OA
ENDBRANCH   8   9
ENDBRANCH   1   7
BRANCH   6  12
ATOM     12  O   UNL     1     146.117 158.119 161.545  1.00  0.00    -0.497 OA
ATOM     13  C   UNL     1     146.278 157.248 162.659  1.00  0.00     0.278 C 
ENDBRANCH   6  12
TORSDOF 3
ENDMDL
MODEL 2
REMARK VINA RESULT:    -3.340      1.749      5.490
REMARK INTER + INTRA:          -3.673
REMARK INTER:                  -3.381
REMARK INTRA:                  -0.292
REMARK UNBOUND:                 0.253
REMARK SMILES COc1ccc(C=CC(=O)[O-])cc1
REMARK SMILES IDX 6 1 5 2 12 3 4 4 13 5 3 6 7 7 8 8 9 9 10 10 11 11 2 12 1 13
REMARK H PARENT
REMARK Flexibility Score: inf
ROOT
ATOM      1  C   UNL     1     146.972 159.812 160.746  1.00  0.00    -0.025 A 
ATOM      2  C   UNL     1     148.310 159.764 160.331  1.00  0.00     0.012 A 
ATOM      3  C   UNL     1     146.447 161.020 161.230  1.00  0.00     0.012 A 
ATOM      4  C   UNL     1     149.128 160.891 160.449  1.00  0.00     0.047 A 
ATOM      5  C   UNL     1     147.264 162.148 161.348  1.00  0.00     0.047 A 
ATOM      6  C   UNL     1     148.609 162.094 160.964  1.00  0.00     0.118 A 
ENDROOT
BRANCH   1   7
ATOM      7  C   UNL     1     146.115 158.622 160.563  1.00  0.00     0.010 C 
ATOM      8  C   UNL     1     145.828 157.716 161.511  1.00  0.00     0.025 C 
BRANCH   8   9
ATOM      9  C   UNL     1     146.452 157.638 162.846  1.00  0.00     0.064 C 
ATOM     10  O   UNL     1     147.284 156.736 163.133  1.00  0.00    -0.545 OA
ATOM     11  O   UNL     1     146.062 158.538 163.828  1.00  0.00    -0.545 OA
ENDBRANCH   8   9
ENDBRANCH   1   7
BRANCH   6  12
ATOM     12  O   UNL     1     149.389 163.252 161.104  1.00  0.00    -0.497 OA
ATOM     13  C   UNL     1     149.730 164.125 160.033  1.00  0.00     0.278 C 
ENDBRANCH   6  12
TORSDOF 3
ENDMDL
MODEL 3
REMARK VINA RESULT:    -3.012     18.928     20.975
REMARK INTER + INTRA:          -3.287
REMARK INTER:                  -3.042
REMARK INTRA:                  -0.244
REMARK UNBOUND:                 0.253
REMARK SMILES COc1ccc(C=CC(=O)[O-])cc1
REMARK SMILES IDX 6 1 5 2 12 3 4 4 13 5 3 6 7 7 8 8 9 9 10 10 11 11 2 12 1 13
REMARK H PARENT
REMARK Flexibility Score: inf
ROOT
ATOM      1  C   UNL     1     159.475 148.216 171.089  1.00  0.00    -0.025 A 
ATOM      2  C   UNL     1     160.610 148.063 171.897  1.00  0.00     0.012 A 
ATOM      3  C   UNL     1     159.123 147.187 170.200  1.00  0.00     0.012 A 
ATOM      4  C   UNL     1     161.413 146.925 171.783  1.00  0.00     0.047 A 
ATOM      5  C   UNL     1     159.925 146.048 170.086  1.00  0.00     0.047 A 
ATOM      6  C   UNL     1     161.076 145.908 170.869  1.00  0.00     0.118 A 
ENDROOT
BRANCH   1   7
ATOM      7  C   UNL     1     158.615 149.404 171.265  1.00  0.00     0.010 C 
ATOM      8  C   UNL     1     158.662 150.518 170.516  1.00  0.00     0.025 C 
BRANCH   8   9
ATOM      9  C   UNL     1     159.689 150.834 169.506  1.00  0.00     0.064 C 
ATOM     10  O   UNL     1     159.771 150.192 168.425  1.00  0.00    -0.545 OA
ATOM     11  O   UNL     1     160.630 151.817 169.783  1.00  0.00    -0.545 OA
ENDBRANCH   8   9
ENDBRANCH   1   7
BRANCH   6  12
ATOM     12  O   UNL     1     161.850 144.747 170.716  1.00  0.00    -0.497 OA
ATOM     13  C   UNL     1     162.996 144.651 169.879  1.00  0.00     0.278 C 
ENDBRANCH   6  12
TORSDOF 3
ENDMDL
MODEL 4
REMARK VINA RESULT:    -2.831     15.339     16.647
REMARK INTER + INTRA:          -3.074
REMARK INTER:                  -3.367
REMARK INTRA:                   0.293
REMARK UNBOUND:                 0.253
REMARK SMILES COc1ccc(C=CC(=O)[O-])cc1
REMARK SMILES IDX 6 1 5 2 12 3 4 4 13 5 3 6 7 7 8 8 9 9 10 10 11 11 2 12 1 13
REMARK H PARENT
REMARK Flexibility Score: inf
ROOT
ATOM      1  C   UNL     1     147.493 145.286 159.271  1.00  0.00    -0.025 A 
ATOM      2  C   UNL     1     147.528 146.440 160.066  1.00  0.00     0.012 A 
ATOM      3  C   UNL     1     146.588 144.261 159.591  1.00  0.00     0.012 A 
ATOM      4  C   UNL     1     146.711 146.548 161.194  1.00  0.00     0.047 A 
ATOM      5  C   UNL     1     145.770 144.367 160.719  1.00  0.00     0.047 A 
ATOM      6  C   UNL     1     145.826 145.506 161.532  1.00  0.00     0.118 A 
ENDROOT
BRANCH   1   7
ATOM      7  C   UNL     1     148.328 145.219 158.054  1.00  0.00     0.010 C 
ATOM      8  C   UNL     1     149.536 144.637 157.970  1.00  0.00     0.025 C 
BRANCH   8   9
ATOM      9  C   UNL     1     150.325 144.121 159.105  1.00  0.00     0.064 C 
ATOM     10  O   UNL     1     149.810 143.951 160.243  1.00  0.00    -0.545 OA
ATOM     11  O   UNL     1     151.682 143.883 158.933  1.00  0.00    -0.545 OA
ENDBRANCH   8   9
ENDBRANCH   1   7
BRANCH   6  12
ATOM     12  O   UNL     1     144.987 145.565 162.655  1.00  0.00    -0.497 OA
ATOM     13  C   UNL     1     145.050 146.577 163.653  1.00  0.00     0.278 C 
ENDBRANCH   6  12
TORSDOF 3
ENDMDL
MODEL 5
REMARK VINA RESULT:    -2.743     13.358     14.397
REMARK INTER + INTRA:          -2.971
REMARK INTER:                  -2.672
REMARK INTRA:                  -0.299
REMARK UNBOUND:                 0.253
REMARK SMILES COc1ccc(C=CC(=O)[O-])cc1
REMARK SMILES IDX 6 1 5 2 12 3 4 4 13 5 3 6 7 7 8 8 9 9 10 10 11 11 2 12 1 13
REMARK H PARENT
REMARK Flexibility Score: inf
ROOT
ATOM      1  C   UNL     1     161.982 163.626 163.381  1.00  0.00    -0.025 A 
ATOM      2  C   UNL     1     162.468 162.715 164.328  1.00  0.00     0.012 A 
ATOM      3  C   UNL     1     160.677 164.125 163.516  1.00  0.00     0.012 A 
ATOM      4  C   UNL     1     161.646 162.265 165.365  1.00  0.00     0.047 A 
ATOM      5  C   UNL     1     159.854 163.677 164.553  1.00  0.00     0.047 A 
ATOM      6  C   UNL     1     160.326 162.742 165.482  1.00  0.00     0.118 A 
ENDROOT
BRANCH   1   7
ATOM      7  C   UNL     1     162.888 164.125 162.325  1.00  0.00     0.010 C 
ATOM      8  C   UNL     1     162.853 163.759 161.033  1.00  0.00     0.025 C 
BRANCH   8   9
ATOM      9  C   UNL     1     162.035 162.671 160.467  1.00  0.00     0.064 C 
ATOM     10  O   UNL     1     162.380 161.463 160.572  1.00  0.00    -0.545 OA
ATOM     11  O   UNL     1     160.893 162.988 159.743  1.00  0.00    -0.545 OA
ENDBRANCH   8   9
ENDBRANCH   1   7
BRANCH   6  12
ATOM     12  O   UNL     1     159.461 162.321 166.503  1.00  0.00    -0.497 OA
ATOM     13  C   UNL     1     159.890 161.834 167.769  1.00  0.00     0.278 C 
ENDBRANCH   6  12
TORSDOF 3
ENDMDL
MODEL 6
REMARK VINA RESULT:    -2.450     13.303     14.849
REMARK INTER + INTRA:          -2.626
REMARK INTER:                  -2.467
REMARK INTRA:                  -0.159
REMARK UNBOUND:                 0.253
REMARK SMILES COc1ccc(C=CC(=O)[O-])cc1
REMARK SMILES IDX 6 1 5 2 12 3 4 4 13 5 3 6 7 7 8 8 9 9 10 10 11 11 2 12 1 13
REMARK H PARENT
REMARK Flexibility Score: inf
ROOT
ATOM      1  C   UNL     1     161.837 163.378 164.681  1.00  0.00    -0.025 A 
ATOM      2  C   UNL     1     160.936 164.125 163.910  1.00  0.00     0.012 A 
ATOM      3  C   UNL     1     162.856 162.656 164.039  1.00  0.00     0.012 A 
ATOM      4  C   UNL     1     161.017 164.111 162.515  1.00  0.00     0.047 A 
ATOM      5  C   UNL     1     162.938 162.642 162.644  1.00  0.00     0.047 A 
ATOM      6  C   UNL     1     162.020 163.362 161.870  1.00  0.00     0.118 A 
ENDROOT
BRANCH   1   7
ATOM      7  C   UNL     1     161.763 163.451 166.155  1.00  0.00     0.010 C 
ATOM      8  C   UNL     1     160.772 162.949 166.911  1.00  0.00     0.025 C 
BRANCH   8   9
ATOM      9  C   UNL     1     159.500 162.397 166.408  1.00  0.00     0.064 C 
ATOM     10  O   UNL     1     159.393 161.188 166.068  1.00  0.00    -0.545 OA
ATOM     11  O   UNL     1     158.413 163.246 166.241  1.00  0.00    -0.545 OA
ENDBRANCH   8   9
ENDBRANCH   1   7
BRANCH   6  12
ATOM     12  O   UNL     1     162.143 163.314 160.473  1.00  0.00    -0.497 OA
ATOM     13  C   UNL     1     161.218 163.900 159.565  1.00  0.00     0.278 C 
ENDBRANCH   6  12
TORSDOF 3
ENDMDL
MODEL 7
REMARK VINA RESULT:    -2.433     20.570     22.279
REMARK INTER + INTRA:          -2.607
REMARK INTER:                  -2.309
REMARK INTRA:                  -0.298
REMARK UNBOUND:                 0.253
REMARK SMILES COc1ccc(C=CC(=O)[O-])cc1
REMARK SMILES IDX 6 1 5 2 12 3 4 4 13 5 3 6 7 7 8 8 9 9 10 10 11 11 2 12 1 13
REMARK H PARENT
REMARK Flexibility Score: inf
ROOT
ATOM      1  C   UNL     1     159.257 145.681 169.872  1.00  0.00    -0.025 A 
ATOM      2  C   UNL     1     159.506 146.999 170.279  1.00  0.00     0.012 A 
ATOM      3  C   UNL     1     159.791 144.620 170.621  1.00  0.00     0.012 A 
ATOM      4  C   UNL     1     160.320 147.257 171.385  1.00  0.00     0.047 A 
ATOM      5  C   UNL     1     160.604 144.876 171.728  1.00  0.00     0.047 A 
ATOM      6  C   UNL     1     160.880 146.192 172.117  1.00  0.00     0.118 A 
ENDROOT
BRANCH   1   7
ATOM      7  C   UNL     1     158.352 145.435 168.731  1.00  0.00     0.010 C 
ATOM      8  C   UNL     1     158.716 145.418 167.437  1.00  0.00     0.025 C 
BRANCH   8   9
ATOM      9  C   UNL     1     160.033 145.817 166.908  1.00  0.00     0.064 C 
ATOM     10  O   UNL     1     160.997 145.006 166.857  1.00  0.00    -0.545 OA
ATOM     11  O   UNL     1     160.236 147.135 166.520  1.00  0.00    -0.545 OA
ENDBRANCH   8   9
ENDBRANCH   1   7
BRANCH   6  12
ATOM     12  O   UNL     1     161.704 146.398 173.234  1.00  0.00    -0.497 OA
ATOM     13  C   UNL     1     161.572 145.704 174.469  1.00  0.00     0.278 C 
ENDBRANCH   6  12
TORSDOF 3
ENDMDL
MODEL 8
REMARK VINA RESULT:    -2.433      1.631      2.088
REMARK INTER + INTRA:          -2.606
REMARK INTER:                  -2.824
REMARK INTRA:                   0.217
REMARK UNBOUND:                 0.253
REMARK SMILES COc1ccc(C=CC(=O)[O-])cc1
REMARK SMILES IDX 6 1 5 2 12 3 4 4 13 5 3 6 7 7 8 8 9 9 10 10 11 11 2 12 1 13
REMARK H PARENT
REMARK Flexibility Score: inf
ROOT
ATOM      1  C   UNL     1     146.896 161.783 160.798  1.00  0.00    -0.025 A 
ATOM      2  C   UNL     1     148.063 161.113 160.405  1.00  0.00     0.012 A 
ATOM      3  C   UNL     1     145.970 161.121 161.620  1.00  0.00     0.012 A 
ATOM      4  C   UNL     1     148.279 159.785 160.782  1.00  0.00     0.047 A 
ATOM      5  C   UNL     1     146.185 159.793 161.998  1.00  0.00     0.047 A 
ATOM      6  C   UNL     1     147.334 159.112 161.580  1.00  0.00     0.118 A 
ENDROOT
BRANCH   1   7
ATOM      7  C   UNL     1     146.717 163.202 160.430  1.00  0.00     0.010 C 
ATOM      8  C   UNL     1     147.693 164.124 160.384  1.00  0.00     0.025 C 
BRANCH   8   9
ATOM      9  C   UNL     1     149.077 163.939 160.860  1.00  0.00     0.064 C 
ATOM     10  O   UNL     1     149.366 164.000 162.085  1.00  0.00    -0.545 OA
ATOM     11  O   UNL     1     150.094 163.760 159.932  1.00  0.00    -0.545 OA
ENDBRANCH   8   9
ENDBRANCH   1   7
BRANCH   6  12
ATOM     12  O   UNL     1     147.503 157.779 161.984  1.00  0.00    -0.497 OA
ATOM     13  C   UNL     1     146.551 157.042 162.741  1.00  0.00     0.278 C 
ENDBRANCH   6  12
TORSDOF 3
ENDMDL
MODEL 9
REMARK VINA RESULT:    -2.396     21.084     23.754
REMARK INTER + INTRA:          -2.563
REMARK INTER:                  -3.090
REMARK INTRA:                   0.527
REMARK UNBOUND:                 0.253
REMARK SMILES COc1ccc(C=CC(=O)[O-])cc1
REMARK SMILES IDX 6 1 5 2 12 3 4 4 13 5 3 6 7 7 8 8 9 9 10 10 11 11 2 12 1 13
REMARK H PARENT
REMARK Flexibility Score: inf
ROOT
ATOM      1  C   UNL     1     161.029 146.126 172.318  1.00  0.00    -0.025 A 
ATOM      2  C   UNL     1     160.255 147.158 171.768  1.00  0.00     0.012 A 
ATOM      3  C   UNL     1     161.068 144.880 171.673  1.00  0.00     0.012 A 
ATOM      4  C   UNL     1     159.488 146.933 170.622  1.00  0.00     0.047 A 
ATOM      5  C   UNL     1     160.301 144.654 170.526  1.00  0.00     0.047 A 
ATOM      6  C   UNL     1     159.503 145.673 169.994  1.00  0.00     0.118 A 
ENDROOT
BRANCH   1   7
ATOM      7  C   UNL     1     161.871 146.404 173.500  1.00  0.00     0.010 C 
ATOM      8  C   UNL     1     161.831 145.729 174.661  1.00  0.00     0.025 C 
BRANCH   8   9
ATOM      9  C   UNL     1     160.828 144.714 175.033  1.00  0.00     0.064 C 
ATOM     10  O   UNL     1     159.721 144.630 174.436  1.00  0.00    -0.545 OA
ATOM     11  O   UNL     1     161.081 143.877 176.111  1.00  0.00    -0.545 OA
ENDBRANCH   8   9
ENDBRANCH   1   7
BRANCH   6  12
ATOM     12  O   UNL     1     158.750 145.397 168.842  1.00  0.00    -0.497 OA
ATOM     13  C   UNL     1     159.140 145.757 167.522  1.00  0.00     0.278 C 
ENDBRANCH   6  12
TORSDOF 3
ENDMDL
