MODEL 1
REMARK VINA RESULT:    -3.564      0.000      0.000
REMARK INTER + INTRA:          -4.266
REMARK INTER:                  -4.189
REMARK INTRA:                  -0.078
REMARK UNBOUND:                -0.078
REMARK SMILES CCCCC(=O)[O-]
REMARK SMILES IDX 4 1 5 2 6 3 7 4 3 5 2 6 1 7
REMARK H PARENT
REMARK Flexibility Score: inf
ROOT
ATOM      1  C   UNL     1      13.717  49.421  97.215  1.00  0.00     0.053 C 
ENDROOT
BRANCH   1   2
ATOM      2  C   UNL     1      12.244  49.204  97.065  1.00  0.00     0.041 C 
ATOM      3  O   UNL     1      11.461  49.497  98.006  1.00  0.00    -0.550 OA
ATOM      4  O   UNL     1      11.741  48.631  95.904  1.00  0.00    -0.550 OA
ENDBRANCH   1   2
BRANCH   1   5
ATOM      5  C   UNL     1      14.084  50.868  96.865  1.00  0.00     0.006 C 
BRANCH   5   6
ATOM      6  C   UNL     1      14.353  51.062  95.365  1.00  0.00    -0.003 C 
ATOM      7  C   UNL     1      15.590  50.302  94.883  1.00  0.00     0.004 C 
ENDBRANCH   5   6
ENDBRANCH   1   5
TORSDOF 3
ENDMDL
MODEL 2
REMARK VINA RESULT:    -3.553      2.730      3.713
REMARK INTER + INTRA:          -4.254
REMARK INTER:                  -4.154
REMARK INTRA:                  -0.100
REMARK UNBOUND:                -0.078
REMARK SMILES CCCCC(=O)[O-]
REMARK SMILES IDX 4 1 5 2 6 3 7 4 3 5 2 6 1 7
REMARK H PARENT
REMARK Flexibility Score: inf
ROOT
ATOM      1  C   UNL     1      15.611  50.658  94.982  1.00  0.00     0.053 C 
ENDROOT
BRANCH   1   2
ATOM      2  C   UNL     1      15.741  49.214  94.614  1.00  0.00     0.041 C 
ATOM      3  O   UNL     1      16.237  48.393  95.430  1.00  0.00    -0.550 OA
ATOM      4  O   UNL     1      15.362  48.782  93.349  1.00  0.00    -0.550 OA
ENDBRANCH   1   2
BRANCH   1   5
ATOM      5  C   UNL     1      14.193  50.957  95.486  1.00  0.00     0.006 C 
BRANCH   5   6
ATOM      6  C   UNL     1      14.065  50.807  97.010  1.00  0.00    -0.003 C 
ATOM      7  C   UNL     1      13.075  49.716  97.416  1.00  0.00     0.004 C 
ENDBRANCH   5   6
ENDBRANCH   1   5
TORSDOF 3
ENDMDL
MODEL 3
REMARK VINA RESULT:    -3.443      0.659      1.576
REMARK INTER + INTRA:          -4.124
REMARK INTER:                  -4.018
REMARK INTRA:                  -0.107
REMARK UNBOUND:                -0.078
REMARK SMILES CCCCC(=O)[O-]
REMARK SMILES IDX 4 1 5 2 6 3 7 4 3 5 2 6 1 7
REMARK H PARENT
REMARK Flexibility Score: inf
ROOT
ATOM      1  C   UNL     1      14.005  50.300  96.956  1.00  0.00     0.053 C 
ENDROOT
BRANCH   1   2
ATOM      2  C   UNL     1      12.741  49.501  96.910  1.00  0.00     0.041 C 
ATOM      3  O   UNL     1      12.476  48.791  95.903  1.00  0.00    -0.550 OA
ATOM      4  O   UNL     1      11.830  49.578  97.956  1.00  0.00    -0.550 OA
ENDBRANCH   1   2
BRANCH   1   5
ATOM      5  C   UNL     1      14.260  50.977  95.604  1.00  0.00     0.006 C 
BRANCH   5   6
ATOM      6  C   UNL     1      15.626  50.605  95.007  1.00  0.00    -0.003 C 
ATOM      7  C   UNL     1      15.637  49.211  94.379  1.00  0.00     0.004 C 
ENDBRANCH   5   6
ENDBRANCH   1   5
TORSDOF 3
ENDMDL
MODEL 4
REMARK VINA RESULT:    -3.398      0.766      1.463
REMARK INTER + INTRA:          -4.071
REMARK INTER:                  -4.027
REMARK INTRA:                  -0.044
REMARK UNBOUND:                -0.078
REMARK SMILES CCCCC(=O)[O-]
REMARK SMILES IDX 4 1 5 2 6 3 7 4 3 5 2 6 1 7
REMARK H PARENT
REMARK Flexibility Score: inf
ROOT
ATOM      1  C   UNL     1      13.041  49.788  97.544  1.00  0.00     0.053 C 
ENDROOT
BRANCH   1   2
ATOM      2  C   UNL     1      11.682  49.180  97.397  1.00  0.00     0.041 C 
ATOM      3  O   UNL     1      11.377  48.555  96.346  1.00  0.00    -0.550 OA
ATOM      4  O   UNL     1      10.733  49.347  98.398  1.00  0.00    -0.550 OA
ENDBRANCH   1   2
BRANCH   1   5
ATOM      5  C   UNL     1      13.896  49.494  96.305  1.00  0.00     0.006 C 
BRANCH   5   6
ATOM      6  C   UNL     1      14.354  50.774  95.587  1.00  0.00    -0.003 C 
ATOM      7  C   UNL     1      15.671  50.590  94.835  1.00  0.00     0.004 C 
ENDBRANCH   5   6
ENDBRANCH   1   5
TORSDOF 3
ENDMDL
MODEL 5
REMARK VINA RESULT:    -3.381      2.218      3.747
REMARK INTER + INTRA:          -4.052
REMARK INTER:                  -4.001
REMARK INTRA:                  -0.051
REMARK UNBOUND:                -0.078
REMARK SMILES CCCCC(=O)[O-]
REMARK SMILES IDX 4 1 5 2 6 3 7 4 3 5 2 6 1 7
REMARK H PARENT
REMARK Flexibility Score: inf
ROOT
ATOM      1  C   UNL     1      13.853  50.715  96.952  1.00  0.00     0.053 C 
ENDROOT
BRANCH   1   2
ATOM      2  C   UNL     1      14.414  50.781  95.567  1.00  0.00     0.041 C 
ATOM      3  O   UNL     1      13.666  51.059  94.592  1.00  0.00    -0.550 OA
ATOM      4  O   UNL     1      15.754  50.487  95.345  1.00  0.00    -0.550 OA
ENDBRANCH   1   2
BRANCH   1   5
ATOM      5  C   UNL     1      13.382  49.291  97.271  1.00  0.00     0.006 C 
BRANCH   5   6
ATOM      6  C   UNL     1      11.895  49.075  96.950  1.00  0.00    -0.003 C 
ATOM      7  C   UNL     1      10.982  49.394  98.134  1.00  0.00     0.004 C 
ENDBRANCH   5   6
ENDBRANCH   1   5
TORSDOF 3
ENDMDL
MODEL 6
REMARK VINA RESULT:    -3.289      2.331      3.949
REMARK INTER + INTRA:          -3.943
REMARK INTER:                  -3.927
REMARK INTRA:                  -0.017
REMARK UNBOUND:                -0.078
REMARK SMILES CCCCC(=O)[O-]
REMARK SMILES IDX 4 1 5 2 6 3 7 4 3 5 2 6 1 7
REMARK H PARENT
REMARK Flexibility Score: inf
ROOT
ATOM      1  C   UNL     1      13.622  49.861  97.329  1.00  0.00     0.053 C 
ENDROOT
BRANCH   1   2
ATOM      2  C   UNL     1      14.494  50.038  96.125  1.00  0.00     0.041 C 
ATOM      3  O   UNL     1      15.377  49.183  95.851  1.00  0.00    -0.550 OA
ATOM      4  O   UNL     1      14.365  51.172  95.334  1.00  0.00    -0.550 OA
ENDBRANCH   1   2
BRANCH   1   5
ATOM      5  C   UNL     1      12.345  49.099  96.957  1.00  0.00     0.006 C 
BRANCH   5   6
ATOM      6  C   UNL     1      11.195  49.360  97.942  1.00  0.00    -0.003 C 
ATOM      7  C   UNL     1      10.030  48.386  97.762  1.00  0.00     0.004 C 
ENDBRANCH   5   6
ENDBRANCH   1   5
TORSDOF 3
ENDMDL
MODEL 7
REMARK VINA RESULT:    -3.093     11.640     12.173
REMARK INTER + INTRA:          -3.713
REMARK INTER:                  -3.658
REMARK INTRA:                  -0.055
REMARK UNBOUND:                -0.078
REMARK SMILES CCCCC(=O)[O-]
REMARK SMILES IDX 4 1 5 2 6 3 7 4 3 5 2 6 1 7
REMARK H PARENT
REMARK Flexibility Score: inf
ROOT
ATOM      1  C   UNL     1      18.202  38.337  95.349  1.00  0.00     0.053 C 
ENDROOT
BRANCH   1   2
ATOM      2  C   UNL     1      18.410  38.264  96.829  1.00  0.00     0.041 C 
ATOM      3  O   UNL     1      17.591  37.639  97.554  1.00  0.00    -0.550 OA
ATOM      4  O   UNL     1      19.481  38.928  97.414  1.00  0.00    -0.550 OA
ENDBRANCH   1   2
BRANCH   1   5
ATOM      5  C   UNL     1      16.704  38.368  95.020  1.00  0.00     0.006 C 
BRANCH   5   6
ATOM      6  C   UNL     1      16.159  39.798  94.886  1.00  0.00    -0.003 C 
ATOM      7  C   UNL     1      16.312  40.359  93.473  1.00  0.00     0.004 C 
ENDBRANCH   5   6
ENDBRANCH   1   5
TORSDOF 3
ENDMDL
MODEL 8
REMARK VINA RESULT:    -3.066      2.232      3.007
REMARK INTER + INTRA:          -3.681
REMARK INTER:                  -3.665
REMARK INTRA:                  -0.016
REMARK UNBOUND:                -0.078
REMARK SMILES CCCCC(=O)[O-]
REMARK SMILES IDX 4 1 5 2 6 3 7 4 3 5 2 6 1 7
REMARK H PARENT
REMARK Flexibility Score: inf
ROOT
ATOM      1  C   UNL     1      10.663  49.483  98.360  1.00  0.00     0.053 C 
ENDROOT
BRANCH   1   2
ATOM      2  C   UNL     1       9.263  49.463  97.834  1.00  0.00     0.041 C 
ATOM      3  O   UNL     1       8.539  50.490  97.917  1.00  0.00    -0.550 OA
ATOM      4  O   UNL     1       8.738  48.293  97.298  1.00  0.00    -0.550 OA
ENDBRANCH   1   2
BRANCH   1   5
ATOM      5  C   UNL     1      11.649  49.034  97.275  1.00  0.00     0.006 C 
BRANCH   5   6
ATOM      6  C   UNL     1      13.037  49.672  97.439  1.00  0.00    -0.003 C 
ATOM      7  C   UNL     1      13.871  49.610  96.159  1.00  0.00     0.004 C 
ENDBRANCH   5   6
ENDBRANCH   1   5
TORSDOF 3
ENDMDL
MODEL 9
REMARK VINA RESULT:    -2.813      3.604      4.726
REMARK INTER + INTRA:          -3.384
REMARK INTER:                  -3.364
REMARK INTRA:                  -0.020
REMARK UNBOUND:                -0.078
REMARK SMILES CCCCC(=O)[O-]
REMARK SMILES IDX 4 1 5 2 6 3 7 4 3 5 2 6 1 7
REMARK H PARENT
REMARK Flexibility Score: inf
ROOT
ATOM      1  C   UNL     1      15.570  49.013  93.756  1.00  0.00     0.053 C 
ENDROOT
BRANCH   1   2
ATOM      2  C   UNL     1      16.506  47.860  93.578  1.00  0.00     0.041 C 
ATOM      3  O   UNL     1      16.656  47.334  92.443  1.00  0.00    -0.550 OA
ATOM      4  O   UNL     1      17.175  47.331  94.675  1.00  0.00    -0.550 OA
ENDBRANCH   1   2
BRANCH   1   5
ATOM      5  C   UNL     1      15.528  49.446  95.227  1.00  0.00     0.006 C 
BRANCH   5   6
ATOM      6  C   UNL     1      14.708  50.729  95.441  1.00  0.00    -0.003 C 
ATOM      7  C   UNL     1      14.144  50.840  96.857  1.00  0.00     0.004 C 
ENDBRANCH   5   6
ENDBRANCH   1   5
TORSDOF 3
ENDMDL
