MODEL 1
REMARK VINA RESULT:    -6.240      0.000      0.000
REMARK INTER + INTRA:          -7.091
REMARK INTER:                  -6.970
REMARK INTRA:                  -0.121
REMARK UNBOUND:                -0.121
REMARK SMILES COc1cc2ccc(=O)oc2cc1OC
REMARK SMILES IDX 3 1 13 2 12 3 11 4 5 5 4 6 6 7 7 8 8 9 9 10 10 11 2 12 1 13
REMARK SMILES IDX 14 14 15 15
REMARK H PARENT
REMARK Flexibility Score: inf
ROOT
ATOM      1  C   UNL     1       2.390  46.852   9.634  1.00  0.00     0.161 A 
ATOM      2  C   UNL     1       3.774  46.665   9.470  1.00  0.00     0.164 A 
ATOM      3  C   UNL     1       4.383  45.489   9.951  1.00  0.00     0.098 A 
ATOM      4  C   UNL     1       3.621  44.508  10.589  1.00  0.00     0.142 A 
ATOM      5  C   UNL     1       2.234  44.694  10.754  1.00  0.00     0.022 A 
ATOM      6  C   UNL     1       1.623  45.861  10.278  1.00  0.00     0.062 A 
ATOM      7  C   UNL     1       1.498  43.693  11.398  1.00  0.00     0.019 A 
ATOM      8  C   UNL     1       2.151  42.550  11.854  1.00  0.00     0.094 A 
ATOM      9  C   UNL     1       3.531  42.433  11.655  1.00  0.00     0.336 A 
ATOM     10  O   UNL     1       4.141  41.408  12.059  1.00  0.00    -0.246 OA
ATOM     11  O   UNL     1       4.207  43.400  11.040  1.00  0.00    -0.423 OA
ENDROOT
BRANCH   1  12
ATOM     12  O   UNL     1       1.818  48.035   9.143  1.00  0.00    -0.493 OA
ATOM     13  C   UNL     1       0.912  48.099   8.045  1.00  0.00     0.278 C 
ENDBRANCH   1  12
BRANCH   2  14
ATOM     14  O   UNL     1       4.509  47.672   8.824  1.00  0.00    -0.493 OA
ATOM     15  C   UNL     1       5.864  47.996   9.116  1.00  0.00     0.278 C 
ENDBRANCH   2  14
TORSDOF 2
ENDMDL
MODEL 2
REMARK VINA RESULT:    -6.194      1.355      2.933
REMARK INTER + INTRA:          -7.039
REMARK INTER:                  -6.933
REMARK INTRA:                  -0.106
REMARK UNBOUND:                -0.121
REMARK SMILES COc1cc2ccc(=O)oc2cc1OC
REMARK SMILES IDX 3 1 13 2 12 3 11 4 5 5 4 6 6 7 7 8 8 9 9 10 10 11 2 12 1 13
REMARK SMILES IDX 14 14 15 15
REMARK H PARENT
REMARK Flexibility Score: inf
ROOT
ATOM      1  C   UNL     1       4.347  47.198   9.193  1.00  0.00     0.161 A 
ATOM      2  C   UNL     1       2.979  47.168   8.868  1.00  0.00     0.164 A 
ATOM      3  C   UNL     1       2.140  46.208   9.468  1.00  0.00     0.098 A 
ATOM      4  C   UNL     1       2.657  45.288  10.383  1.00  0.00     0.142 A 
ATOM      5  C   UNL     1       4.027  45.318  10.709  1.00  0.00     0.022 A 
ATOM      6  C   UNL     1       4.868  46.269  10.116  1.00  0.00     0.062 A 
ATOM      7  C   UNL     1       4.515  44.383  11.629  1.00  0.00     0.019 A 
ATOM      8  C   UNL     1       3.640  43.457  12.192  1.00  0.00     0.094 A 
ATOM      9  C   UNL     1       2.292  43.486  11.821  1.00  0.00     0.336 A 
ATOM     10  O   UNL     1       1.484  42.657  12.318  1.00  0.00    -0.246 OA
ATOM     11  O   UNL     1       1.854  44.385  10.944  1.00  0.00    -0.423 OA
ENDROOT
BRANCH   1  12
ATOM     12  O   UNL     1       5.154  48.167   8.576  1.00  0.00    -0.493 OA
ATOM     13  C   UNL     1       6.366  48.677   9.125  1.00  0.00     0.278 C 
ENDBRANCH   1  12
BRANCH   2  14
ATOM     14  O   UNL     1       2.494  48.107   7.945  1.00  0.00    -0.493 OA
ATOM     15  C   UNL     1       1.195  48.689   7.992  1.00  0.00     0.278 C 
ENDBRANCH   2  14
TORSDOF 2
ENDMDL
MODEL 3
REMARK VINA RESULT:    -5.753      1.846      4.570
REMARK INTER + INTRA:          -6.547
REMARK INTER:                  -6.432
REMARK INTRA:                  -0.114
REMARK UNBOUND:                -0.121
REMARK SMILES COc1cc2ccc(=O)oc2cc1OC
REMARK SMILES IDX 3 1 13 2 12 3 11 4 5 5 4 6 6 7 7 8 8 9 9 10 10 11 2 12 1 13
REMARK SMILES IDX 14 14 15 15
REMARK H PARENT
REMARK Flexibility Score: inf
ROOT
ATOM      1  C   UNL     1       1.277  45.792   9.961  1.00  0.00     0.161 A 
ATOM      2  C   UNL     1       2.056  45.127  10.925  1.00  0.00     0.164 A 
ATOM      3  C   UNL     1       3.437  45.392  11.010  1.00  0.00     0.098 A 
ATOM      4  C   UNL     1       4.038  46.309  10.145  1.00  0.00     0.142 A 
ATOM      5  C   UNL     1       3.258  46.975   9.178  1.00  0.00     0.022 A 
ATOM      6  C   UNL     1       1.884  46.716   9.087  1.00  0.00     0.062 A 
ATOM      7  C   UNL     1       3.889  47.887   8.325  1.00  0.00     0.019 A 
ATOM      8  C   UNL     1       5.258  48.111   8.455  1.00  0.00     0.094 A 
ATOM      9  C   UNL     1       5.968  47.414   9.438  1.00  0.00     0.336 A 
ATOM     10  O   UNL     1       7.206  47.601   9.572  1.00  0.00    -0.246 OA
ATOM     11  O   UNL     1       5.344  46.551  10.235  1.00  0.00    -0.423 OA
ENDROOT
BRANCH   1  12
ATOM     12  O   UNL     1      -0.095  45.503   9.903  1.00  0.00    -0.493 OA
ATOM     13  C   UNL     1      -1.093  46.412   9.445  1.00  0.00     0.278 C 
ENDBRANCH   1  12
BRANCH   2  14
ATOM     14  O   UNL     1       1.419  44.213  11.778  1.00  0.00    -0.493 OA
ATOM     15  C   UNL     1       1.834  42.864  11.969  1.00  0.00     0.278 C 
ENDBRANCH   2  14
TORSDOF 2
ENDMDL
MODEL 4
REMARK VINA RESULT:    -5.692      1.037      1.168
REMARK INTER + INTRA:          -6.478
REMARK INTER:                  -6.344
REMARK INTRA:                  -0.134
REMARK UNBOUND:                -0.121
REMARK SMILES COc1cc2ccc(=O)oc2cc1OC
REMARK SMILES IDX 3 1 13 2 12 3 11 4 5 5 4 6 6 7 7 8 8 9 9 10 10 11 2 12 1 13
REMARK SMILES IDX 14 14 15 15
REMARK H PARENT
REMARK Flexibility Score: inf
ROOT
ATOM      1  C   UNL     1       2.497  45.940  10.135  1.00  0.00     0.161 A 
ATOM      2  C   UNL     1       3.769  45.465   9.768  1.00  0.00     0.164 A 
ATOM      3  C   UNL     1       4.183  44.184  10.185  1.00  0.00     0.098 A 
ATOM      4  C   UNL     1       3.340  43.384  10.959  1.00  0.00     0.142 A 
ATOM      5  C   UNL     1       2.065  43.859  11.327  1.00  0.00     0.022 A 
ATOM      6  C   UNL     1       1.647  45.132  10.917  1.00  0.00     0.062 A 
ATOM      7  C   UNL     1       1.244  43.034  12.103  1.00  0.00     0.019 A 
ATOM      8  C   UNL     1       1.704  41.776  12.486  1.00  0.00     0.094 A 
ATOM      9  C   UNL     1       2.981  41.370  12.084  1.00  0.00     0.336 A 
ATOM     10  O   UNL     1       3.416  40.237  12.419  1.00  0.00    -0.246 OA
ATOM     11  O   UNL     1       3.742  42.175  11.346  1.00  0.00    -0.423 OA
ENDROOT
BRANCH   1  12
ATOM     12  O   UNL     1       2.118  47.220   9.704  1.00  0.00    -0.493 OA
ATOM     13  C   UNL     1       1.102  47.479   8.739  1.00  0.00     0.278 C 
ENDBRANCH   1  12
BRANCH   2  14
ATOM     14  O   UNL     1       4.590  46.296   8.991  1.00  0.00    -0.493 OA
ATOM     15  C   UNL     1       5.650  47.095   9.507  1.00  0.00     0.278 C 
ENDBRANCH   2  14
TORSDOF 2
ENDMDL
MODEL 5
REMARK VINA RESULT:    -5.643      1.596      2.845
REMARK INTER + INTRA:          -6.424
REMARK INTER:                  -6.322
REMARK INTRA:                  -0.102
REMARK UNBOUND:                -0.121
REMARK SMILES COc1cc2ccc(=O)oc2cc1OC
REMARK SMILES IDX 3 1 13 2 12 3 11 4 5 5 4 6 6 7 7 8 8 9 9 10 10 11 2 12 1 13
REMARK SMILES IDX 14 14 15 15
REMARK H PARENT
REMARK Flexibility Score: inf
ROOT
ATOM      1  C   UNL     1       1.840  46.653   9.385  1.00  0.00     0.161 A 
ATOM      2  C   UNL     1       1.012  45.610   8.934  1.00  0.00     0.164 A 
ATOM      3  C   UNL     1       1.233  44.295   9.391  1.00  0.00     0.098 A 
ATOM      4  C   UNL     1       2.268  44.022  10.288  1.00  0.00     0.142 A 
ATOM      5  C   UNL     1       3.098  45.066  10.740  1.00  0.00     0.022 A 
ATOM      6  C   UNL     1       2.885  46.376  10.289  1.00  0.00     0.062 A 
ATOM      7  C   UNL     1       4.127  44.760  11.637  1.00  0.00     0.019 A 
ATOM      8  C   UNL     1       4.300  43.443  12.057  1.00  0.00     0.094 A 
ATOM      9  C   UNL     1       3.437  42.457  11.566  1.00  0.00     0.336 A 
ATOM     10  O   UNL     1       3.575  41.260  11.932  1.00  0.00    -0.246 OA
ATOM     11  O   UNL     1       2.467  42.775  10.713  1.00  0.00    -0.423 OA
ENDROOT
BRANCH   1  12
ATOM     12  O   UNL     1       1.592  47.950   8.909  1.00  0.00    -0.493 OA
ATOM     13  C   UNL     1       2.188  48.509   7.741  1.00  0.00     0.278 C 
ENDBRANCH   1  12
BRANCH   2  14
ATOM     14  O   UNL     1      -0.018  45.921   8.033  1.00  0.00    -0.493 OA
ATOM     15  C   UNL     1      -0.356  45.140   6.891  1.00  0.00     0.278 C 
ENDBRANCH   2  14
TORSDOF 2
ENDMDL
MODEL 6
REMARK VINA RESULT:    -5.553      1.740      2.044
REMARK INTER + INTRA:          -6.324
REMARK INTER:                  -6.210
REMARK INTRA:                  -0.114
REMARK UNBOUND:                -0.121
REMARK SMILES COc1cc2ccc(=O)oc2cc1OC
REMARK SMILES IDX 3 1 13 2 12 3 11 4 5 5 4 6 6 7 7 8 8 9 9 10 10 11 2 12 1 13
REMARK SMILES IDX 14 14 15 15
REMARK H PARENT
REMARK Flexibility Score: inf
ROOT
ATOM      1  C   UNL     1       0.868  46.539   8.692  1.00  0.00     0.161 A 
ATOM      2  C   UNL     1       2.127  47.158   8.604  1.00  0.00     0.164 A 
ATOM      3  C   UNL     1       3.171  46.742   9.454  1.00  0.00     0.098 A 
ATOM      4  C   UNL     1       2.964  45.720  10.382  1.00  0.00     0.142 A 
ATOM      5  C   UNL     1       1.703  45.098  10.471  1.00  0.00     0.022 A 
ATOM      6  C   UNL     1       0.660  45.507   9.629  1.00  0.00     0.062 A 
ATOM      7  C   UNL     1       1.526  44.077  11.411  1.00  0.00     0.019 A 
ATOM      8  C   UNL     1       2.593  43.705  12.225  1.00  0.00     0.094 A 
ATOM      9  C   UNL     1       3.818  44.366  12.082  1.00  0.00     0.336 A 
ATOM     10  O   UNL     1       4.795  44.046  12.808  1.00  0.00    -0.246 OA
ATOM     11  O   UNL     1       3.958  45.335  11.180  1.00  0.00    -0.423 OA
ENDROOT
BRANCH   1  12
ATOM     12  O   UNL     1      -0.149  46.979   7.831  1.00  0.00    -0.493 OA
ATOM     13  C   UNL     1      -0.866  46.138   6.931  1.00  0.00     0.278 C 
ENDBRANCH   1  12
BRANCH   2  14
ATOM     14  O   UNL     1       2.300  48.183   7.661  1.00  0.00    -0.493 OA
ATOM     15  C   UNL     1       3.563  48.645   7.192  1.00  0.00     0.278 C 
ENDBRANCH   2  14
TORSDOF 2
ENDMDL
MODEL 7
REMARK VINA RESULT:    -5.543      1.597      5.941
REMARK INTER + INTRA:          -6.312
REMARK INTER:                  -6.198
REMARK INTRA:                  -0.114
REMARK UNBOUND:                -0.121
REMARK SMILES COc1cc2ccc(=O)oc2cc1OC
REMARK SMILES IDX 3 1 13 2 12 3 11 4 5 5 4 6 6 7 7 8 8 9 9 10 10 11 2 12 1 13
REMARK SMILES IDX 14 14 15 15
REMARK H PARENT
REMARK Flexibility Score: inf
ROOT
ATOM      1  C   UNL     1       2.974  42.002  11.721  1.00  0.00     0.161 A 
ATOM      2  C   UNL     1       1.721  42.474  12.153  1.00  0.00     0.164 A 
ATOM      3  C   UNL     1       1.292  43.762  11.774  1.00  0.00     0.098 A 
ATOM      4  C   UNL     1       2.101  44.571  10.973  1.00  0.00     0.142 A 
ATOM      5  C   UNL     1       3.356  44.098  10.540  1.00  0.00     0.022 A 
ATOM      6  C   UNL     1       3.790  42.819  10.914  1.00  0.00     0.062 A 
ATOM      7  C   UNL     1       4.144  44.933   9.740  1.00  0.00     0.019 A 
ATOM      8  C   UNL     1       3.669  46.196   9.395  1.00  0.00     0.094 A 
ATOM      9  C   UNL     1       2.413  46.599   9.861  1.00  0.00     0.336 A 
ATOM     10  O   UNL     1       1.966  47.737   9.561  1.00  0.00    -0.246 OA
ATOM     11  O   UNL     1       1.685  45.786  10.621  1.00  0.00    -0.423 OA
ENDROOT
BRANCH   1  12
ATOM     12  O   UNL     1       3.370  40.715  12.118  1.00  0.00    -0.493 OA
ATOM     13  C   UNL     1       4.565  40.424  12.837  1.00  0.00     0.278 C 
ENDBRANCH   1  12
BRANCH   2  14
ATOM     14  O   UNL     1       0.935  41.634  12.956  1.00  0.00    -0.493 OA
ATOM     15  C   UNL     1      -0.305  42.011  13.546  1.00  0.00     0.278 C 
ENDBRANCH   2  14
TORSDOF 2
ENDMDL
MODEL 8
REMARK VINA RESULT:    -5.478      1.788      3.263
REMARK INTER + INTRA:          -6.239
REMARK INTER:                  -6.141
REMARK INTRA:                  -0.098
REMARK UNBOUND:                -0.121
REMARK SMILES COc1cc2ccc(=O)oc2cc1OC
REMARK SMILES IDX 3 1 13 2 12 3 11 4 5 5 4 6 6 7 7 8 8 9 9 10 10 11 2 12 1 13
REMARK SMILES IDX 14 14 15 15
REMARK H PARENT
REMARK Flexibility Score: inf
ROOT
ATOM      1  C   UNL     1       3.556  44.850  10.035  1.00  0.00     0.161 A 
ATOM      2  C   UNL     1       2.294  45.322  10.436  1.00  0.00     0.164 A 
ATOM      3  C   UNL     1       1.487  44.531  11.278  1.00  0.00     0.098 A 
ATOM      4  C   UNL     1       1.932  43.283  11.716  1.00  0.00     0.142 A 
ATOM      5  C   UNL     1       3.197  42.808  11.315  1.00  0.00     0.022 A 
ATOM      6  C   UNL     1       4.004  43.589  10.477  1.00  0.00     0.062 A 
ATOM      7  C   UNL     1       3.614  41.553  11.770  1.00  0.00     0.019 A 
ATOM      8  C   UNL     1       2.776  40.813  12.602  1.00  0.00     0.094 A 
ATOM      9  C   UNL     1       1.533  41.348  12.960  1.00  0.00     0.336 A 
ATOM     10  O   UNL     1       0.760  40.696  13.711  1.00  0.00    -0.246 OA
ATOM     11  O   UNL     1       1.161  42.544  12.512  1.00  0.00    -0.423 OA
ENDROOT
BRANCH   1  12
ATOM     12  O   UNL     1       4.333  45.663   9.195  1.00  0.00    -0.493 OA
ATOM     13  C   UNL     1       5.254  46.650   9.653  1.00  0.00     0.278 C 
ENDBRANCH   1  12
BRANCH   2  14
ATOM     14  O   UNL     1       1.879  46.582   9.976  1.00  0.00    -0.493 OA
ATOM     15  C   UNL     1       1.012  46.790   8.866  1.00  0.00     0.278 C 
ENDBRANCH   2  14
TORSDOF 2
ENDMDL
MODEL 9
REMARK VINA RESULT:    -5.437      1.509      5.262
REMARK INTER + INTRA:          -6.194
REMARK INTER:                  -6.082
REMARK INTRA:                  -0.112
REMARK UNBOUND:                -0.121
REMARK SMILES COc1cc2ccc(=O)oc2cc1OC
REMARK SMILES IDX 3 1 13 2 12 3 11 4 5 5 4 6 6 7 7 8 8 9 9 10 10 11 2 12 1 13
REMARK SMILES IDX 14 14 15 15
REMARK H PARENT
REMARK Flexibility Score: inf
ROOT
ATOM      1  C   UNL     1       1.779  42.452  12.120  1.00  0.00     0.161 A 
ATOM      2  C   UNL     1       3.049  41.992  11.730  1.00  0.00     0.164 A 
ATOM      3  C   UNL     1       3.884  42.821  10.954  1.00  0.00     0.098 A 
ATOM      4  C   UNL     1       3.458  44.094  10.569  1.00  0.00     0.142 A 
ATOM      5  C   UNL     1       2.185  44.556  10.960  1.00  0.00     0.022 A 
ATOM      6  C   UNL     1       1.350  43.737  11.731  1.00  0.00     0.062 A 
ATOM      7  C   UNL     1       1.787  45.835  10.558  1.00  0.00     0.019 A 
ATOM      8  C   UNL     1       2.654  46.612   9.792  1.00  0.00     0.094 A 
ATOM      9  C   UNL     1       3.903  46.089   9.441  1.00  0.00     0.336 A 
ATOM     10  O   UNL     1       4.701  46.774   8.749  1.00  0.00    -0.246 OA
ATOM     11  O   UNL     1       4.256  44.868   9.836  1.00  0.00    -0.423 OA
ENDROOT
BRANCH   1  12
ATOM     12  O   UNL     1       0.973  41.600  12.892  1.00  0.00    -0.493 OA
ATOM     13  C   UNL     1      -0.249  41.988  13.512  1.00  0.00     0.278 C 
ENDBRANCH   1  12
BRANCH   2  14
ATOM     14  O   UNL     1       3.444  40.708  12.134  1.00  0.00    -0.493 OA
ATOM     15  C   UNL     1       4.644  40.418  12.844  1.00  0.00     0.278 C 
ENDBRANCH   2  14
TORSDOF 2
ENDMDL
