MODEL 1
REMARK VINA RESULT:     1.171      0.000      0.000
REMARK INTER + INTRA:           0.855
REMARK INTER:                   1.377
REMARK INTRA:                  -0.522
REMARK UNBOUND:                -0.522
REMARK SMILES C=C(C)[C@@H]1CC[C@@]2(CO)CC[C@@]3(C)[C@H](CC[C@@H]4[C@]5(C)CC[C@@H](O)C(C)(C)[C@H]5CC[C@@]43C)[C@@H]12
REMARK SMILES IDX 4 1 5 2 6 3 7 4 32 5 14 6 15 7 16 8 17 9 18 10 20 11 21 12
REMARK SMILES IDX 22 13 24 14 27 15 28 16 29 17 30 18 12 19 11 20 10 21 13 22
REMARK SMILES IDX 31 23 25 24 26 25 19 26 2 27 3 28 1 29 8 30 9 31 23 33
REMARK H PARENT 9 32 23 34
REMARK Flexibility Score: inf
ROOT
ATOM      1  C   UNL     1      84.482  -0.806  -7.723  1.00  0.00     0.018 C 
ATOM      2  C   UNL     1      84.070  -0.500  -9.155  1.00  0.00     0.009 C 
ATOM      3  C   UNL     1      83.958  -1.858  -9.824  1.00  0.00     0.010 C 
ATOM      4  C   UNL     1      83.443  -2.854  -8.742  1.00  0.00    -0.003 C 
ATOM      5  C   UNL     1      83.682  -2.091  -7.385  1.00  0.00     0.008 C 
ATOM      6  C   UNL     1      84.254  -2.906  -6.165  1.00  0.00    -0.000 C 
ATOM      7  C   UNL     1      83.072  -3.427  -5.334  1.00  0.00     0.005 C 
ATOM      8  C   UNL     1      83.522  -4.057  -4.042  1.00  0.00     0.005 C 
ATOM      9  C   UNL     1      84.436  -5.295  -4.249  1.00  0.00     0.002 C 
ATOM     10  C   UNL     1      84.822  -5.982  -2.838  1.00  0.00    -0.026 C 
ATOM     11  C   UNL     1      83.578  -6.071  -1.883  1.00  0.00     0.010 C 
ATOM     12  C   UNL     1      83.898  -6.570  -0.464  1.00  0.00     0.033 C 
ATOM     13  C   UNL     1      84.953  -5.676   0.210  1.00  0.00     0.120 C 
ATOM     14  C   UNL     1      86.274  -5.537  -0.619  1.00  0.00    -0.006 C 
ATOM     15  C   UNL     1      85.907  -5.103  -2.103  1.00  0.00     0.003 C 
ATOM     16  C   UNL     1      87.125  -4.818  -3.010  1.00  0.00     0.005 C 
ATOM     17  C   UNL     1      86.726  -4.154  -4.339  1.00  0.00     0.008 C 
ATOM     18  C   UNL     1      85.678  -4.938  -5.198  1.00  0.00    -0.024 C 
ATOM     19  C   UNL     1      85.252  -4.065  -6.519  1.00  0.00    -0.024 C 
ATOM     20  C   UNL     1      84.549  -4.959  -7.595  1.00  0.00     0.008 C 
ATOM     21  C   UNL     1      84.181  -4.231  -8.896  1.00  0.00     0.010 C 
ATOM     22  C   UNL     1      86.532  -3.426  -7.162  1.00  0.00     0.012 C 
ATOM     23  C   UNL     1      86.361  -6.258  -5.699  1.00  0.00     0.012 C 
ATOM     24  C   UNL     1      87.116  -4.418   0.057  1.00  0.00     0.014 C 
ATOM     25  C   UNL     1      87.116  -6.839  -0.545  1.00  0.00     0.014 C 
ATOM     26  C   UNL     1      85.290  -7.454  -3.101  1.00  0.00     0.012 C 
ENDROOT
BRANCH   1  27
ATOM     27  C   UNL     1      84.306   0.425  -6.826  1.00  0.00    -0.077 C 
ATOM     28  C   UNL     1      83.592   1.627  -7.392  1.00  0.00     0.039 C 
ATOM     29  C   UNL     1      84.778   0.520  -5.569  1.00  0.00     0.008 C 
ENDBRANCH   1  27
BRANCH   4  30
ATOM     30  C   UNL     1      81.919  -3.071  -8.995  1.00  0.00     0.163 C 
BRANCH  30  31
ATOM     31  O   UNL     1      81.151  -2.186  -8.228  1.00  0.00    -0.396 OA
ATOM     32  H   UNL     1      80.397  -1.901  -8.807  1.00  0.00     0.210 HD
ENDBRANCH  30  31
ENDBRANCH   4  30
BRANCH  13  33
ATOM     33  O   UNL     1      85.198  -6.101   1.532  1.00  0.00    -0.393 OA
ATOM     34  H   UNL     1      85.480  -5.313   2.065  1.00  0.00     0.210 HD
ENDBRANCH  13  33
TORSDOF 4
ENDMDL
MODEL 2
REMARK VINA RESULT:     1.982      2.093      3.969
REMARK INTER + INTRA:           1.808
REMARK INTER:                   2.138
REMARK INTRA:                  -0.330
REMARK UNBOUND:                -0.522
REMARK SMILES C=C(C)[C@@H]1CC[C@@]2(CO)CC[C@@]3(C)[C@H](CC[C@@H]4[C@]5(C)CC[C@@H](O)C(C)(C)[C@H]5CC[C@@]43C)[C@@H]12
REMARK SMILES IDX 4 1 5 2 6 3 7 4 32 5 14 6 15 7 16 8 17 9 18 10 20 11 21 12
REMARK SMILES IDX 22 13 24 14 27 15 28 16 29 17 30 18 12 19 11 20 10 21 13 22
REMARK SMILES IDX 31 23 25 24 26 25 19 26 2 27 3 28 1 29 8 30 9 31 23 33
REMARK H PARENT 9 32 23 34
REMARK Flexibility Score: inf
ROOT
ATOM      1  C   UNL     1      86.000   2.534  -6.407  1.00  0.00     0.018 C 
ATOM      2  C   UNL     1      85.743   3.791  -7.225  1.00  0.00     0.009 C 
ATOM      3  C   UNL     1      85.200   3.287  -8.550  1.00  0.00     0.010 C 
ATOM      4  C   UNL     1      84.362   2.012  -8.240  1.00  0.00    -0.003 C 
ATOM      5  C   UNL     1      84.812   1.611  -6.785  1.00  0.00     0.008 C 
ATOM      6  C   UNL     1      85.055   0.086  -6.475  1.00  0.00    -0.000 C 
ATOM      7  C   UNL     1      83.751  -0.512  -5.929  1.00  0.00     0.005 C 
ATOM      8  C   UNL     1      83.939  -1.919  -5.426  1.00  0.00     0.005 C 
ATOM      9  C   UNL     1      84.395  -2.910  -6.532  1.00  0.00     0.002 C 
ATOM     10  C   UNL     1      84.502  -4.418  -5.961  1.00  0.00    -0.026 C 
ATOM     11  C   UNL     1      83.279  -4.772  -5.040  1.00  0.00     0.010 C 
ATOM     12  C   UNL     1      83.386  -6.134  -4.334  1.00  0.00     0.033 C 
ATOM     13  C   UNL     1      84.663  -6.214  -3.481  1.00  0.00     0.120 C 
ATOM     14  C   UNL     1      85.973  -5.926  -4.290  1.00  0.00    -0.006 C 
ATOM     15  C   UNL     1      85.802  -4.556  -5.077  1.00  0.00     0.003 C 
ATOM     16  C   UNL     1      87.064  -4.086  -5.834  1.00  0.00     0.005 C 
ATOM     17  C   UNL     1      86.935  -2.644  -6.354  1.00  0.00     0.008 C 
ATOM     18  C   UNL     1      85.705  -2.368  -7.282  1.00  0.00    -0.024 C 
ATOM     19  C   UNL     1      85.619  -0.775  -7.661  1.00  0.00    -0.024 C 
ATOM     20  C   UNL     1      84.683  -0.527  -8.890  1.00  0.00     0.008 C 
ATOM     21  C   UNL     1      84.604   0.935  -9.355  1.00  0.00     0.010 C 
ATOM     22  C   UNL     1      87.052  -0.241  -8.012  1.00  0.00     0.012 C 
ATOM     23  C   UNL     1      85.922  -3.165  -8.615  1.00  0.00     0.012 C 
ATOM     24  C   UNL     1      87.124  -5.791  -3.254  1.00  0.00     0.014 C 
ATOM     25  C   UNL     1      86.333  -7.125  -5.208  1.00  0.00     0.014 C 
ATOM     26  C   UNL     1      84.461  -5.420  -7.165  1.00  0.00     0.012 C 
ENDROOT
BRANCH   1  27
ATOM     27  C   UNL     1      86.223   2.875  -4.930  1.00  0.00    -0.077 C 
ATOM     28  C   UNL     1      86.405   4.324  -4.549  1.00  0.00     0.039 C 
ATOM     29  C   UNL     1      86.303   1.962  -3.944  1.00  0.00     0.008 C 
ENDBRANCH   1  27
BRANCH   4  30
ATOM     30  C   UNL     1      82.857   2.425  -8.260  1.00  0.00     0.163 C 
BRANCH  30  31
ATOM     31  O   UNL     1      82.029   1.304  -8.380  1.00  0.00    -0.396 OA
ATOM     32  H   UNL     1      81.774   1.046  -7.456  1.00  0.00     0.210 HD
ENDBRANCH  30  31
ENDBRANCH   4  30
BRANCH  13  33
ATOM     33  O   UNL     1      84.726  -7.440  -2.788  1.00  0.00    -0.393 OA
ATOM     34  H   UNL     1      84.358  -8.149  -3.376  1.00  0.00     0.210 HD
ENDBRANCH  13  33
TORSDOF 4
ENDMDL
MODEL 3
REMARK VINA RESULT:     3.329     12.828     15.768
REMARK INTER + INTRA:           3.391
REMARK INTER:                   3.801
REMARK INTRA:                  -0.410
REMARK UNBOUND:                -0.522
REMARK SMILES C=C(C)[C@@H]1CC[C@@]2(CO)CC[C@@]3(C)[C@H](CC[C@@H]4[C@]5(C)CC[C@@H](O)C(C)(C)[C@H]5CC[C@@]43C)[C@@H]12
REMARK SMILES IDX 4 1 5 2 6 3 7 4 32 5 14 6 15 7 16 8 17 9 18 10 20 11 21 12
REMARK SMILES IDX 22 13 24 14 27 15 28 16 29 17 30 18 12 19 11 20 10 21 13 22
REMARK SMILES IDX 31 23 25 24 26 25 19 26 2 27 3 28 1 29 8 30 9 31 23 33
REMARK H PARENT 9 32 23 34
REMARK Flexibility Score: inf
ROOT
ATOM      1  C   UNL     1      84.964   9.847   1.933  1.00  0.00     0.018 C 
ATOM      2  C   UNL     1      84.976  11.306   1.502  1.00  0.00     0.009 C 
ATOM      3  C   UNL     1      84.788  12.091   2.788  1.00  0.00     0.010 C 
ATOM      4  C   UNL     1      85.509  11.293   3.915  1.00  0.00    -0.003 C 
ATOM      5  C   UNL     1      85.724   9.865   3.285  1.00  0.00     0.008 C 
ATOM      6  C   UNL     1      85.458   8.605   4.192  1.00  0.00    -0.000 C 
ATOM      7  C   UNL     1      86.782   8.198   4.855  1.00  0.00     0.005 C 
ATOM      8  C   UNL     1      86.667   6.890   5.592  1.00  0.00     0.005 C 
ATOM      9  C   UNL     1      85.638   6.927   6.754  1.00  0.00     0.002 C 
ATOM     10  C   UNL     1      85.615   5.528   7.563  1.00  0.00    -0.026 C 
ATOM     11  C   UNL     1      87.067   4.984   7.813  1.00  0.00     0.010 C 
ATOM     12  C   UNL     1      87.123   3.581   8.440  1.00  0.00     0.033 C 
ATOM     13  C   UNL     1      86.375   2.558   7.568  1.00  0.00     0.120 C 
ATOM     14  C   UNL     1      84.888   2.955   7.277  1.00  0.00    -0.006 C 
ATOM     15  C   UNL     1      84.853   4.440   6.710  1.00  0.00     0.003 C 
ATOM     16  C   UNL     1      83.455   4.929   6.272  1.00  0.00     0.005 C 
ATOM     17  C   UNL     1      83.513   6.255   5.495  1.00  0.00     0.008 C 
ATOM     18  C   UNL     1      84.210   7.444   6.238  1.00  0.00    -0.024 C 
ATOM     19  C   UNL     1      84.313   8.753   5.256  1.00  0.00    -0.024 C 
ATOM     20  C   UNL     1      84.611  10.057   6.068  1.00  0.00     0.008 C 
ATOM     21  C   UNL     1      84.652  11.343   5.229  1.00  0.00     0.010 C 
ATOM     22  C   UNL     1      82.957   8.942   4.490  1.00  0.00     0.012 C 
ATOM     23  C   UNL     1      83.312   7.835   7.463  1.00  0.00     0.012 C 
ATOM     24  C   UNL     1      84.362   1.973   6.192  1.00  0.00     0.014 C 
ATOM     25  C   UNL     1      84.002   2.752   8.535  1.00  0.00     0.014 C 
ATOM     26  C   UNL     1      84.977   5.768   8.974  1.00  0.00     0.012 C 
ENDROOT
BRANCH   1  27
ATOM     27  C   UNL     1      85.482   8.938   0.812  1.00  0.00    -0.077 C 
ATOM     28  C   UNL     1      86.896   8.420   0.908  1.00  0.00     0.039 C 
ATOM     29  C   UNL     1      84.769   8.595  -0.276  1.00  0.00     0.008 C 
ENDBRANCH   1  27
BRANCH   4  30
ATOM     30  C   UNL     1      86.878  11.992   4.181  1.00  0.00     0.163 C 
BRANCH  30  31
ATOM     31  O   UNL     1      87.116  12.125   5.554  1.00  0.00    -0.396 OA
ATOM     32  H   UNL     1      87.636  12.963   5.665  1.00  0.00     0.210 HD
ENDBRANCH  30  31
ENDBRANCH   4  30
BRANCH  13  33
ATOM     33  O   UNL     1      86.481   1.263   8.114  1.00  0.00    -0.393 OA
ATOM     34  H   UNL     1      86.518   1.343   9.102  1.00  0.00     0.210 HD
ENDBRANCH  13  33
TORSDOF 4
ENDMDL
