MODEL 1
REMARK VINA RESULT:    -6.835      0.000      0.000
REMARK INTER + INTRA:          -8.540
REMARK INTER:                  -8.234
REMARK INTRA:                  -0.306
REMARK UNBOUND:                -0.306
REMARK SMILES O=c1c(O)c(-c2ccc(O)c(O)c2)oc2cc(O)cc(O)c12
REMARK SMILES IDX 5 1 3 2 2 3 1 4 22 5 20 6 19 7 17 8 16 9 15 10 14 11 6 12
REMARK SMILES IDX 7 13 8 14 9 15 13 16 11 17 10 18 12 20 4 22 21 24 18 26
REMARK H PARENT 10 19 12 21 4 23 21 25 18 27
REMARK Flexibility Score: inf
ROOT
ATOM      1  C   UNL     1      18.353 -10.564  18.084  1.00  0.00     0.180 A 
ATOM      2  C   UNL     1      17.806 -11.762  18.575  1.00  0.00     0.208 A 
ATOM      3  C   UNL     1      17.885 -12.921  17.786  1.00  0.00     0.238 A 
ATOM      4  O   UNL     1      17.443 -14.002  18.255  1.00  0.00    -0.285 OA
ATOM      5  C   UNL     1      18.495 -12.863  16.511  1.00  0.00     0.111 A 
ATOM      6  C   UNL     1      18.595 -13.966  15.610  1.00  0.00     0.134 A 
ATOM      7  C   UNL     1      19.335 -13.828  14.429  1.00  0.00     0.093 A 
ATOM      8  C   UNL     1      19.922 -12.611  14.084  1.00  0.00     0.123 A 
ATOM      9  C   UNL     1      19.780 -11.510  14.928  1.00  0.00     0.094 A 
ATOM     10  C   UNL     1      19.079 -11.626  16.131  1.00  0.00     0.146 A 
ATOM     11  O   UNL     1      18.975 -10.557  16.912  1.00  0.00    -0.452 OA
ENDROOT
BRANCH   1  12
ATOM     12  C   UNL     1      18.285  -9.296  18.847  1.00  0.00     0.025 A 
ATOM     13  C   UNL     1      17.109  -8.529  18.808  1.00  0.00     0.016 A 
ATOM     14  C   UNL     1      17.016  -7.340  19.535  1.00  0.00     0.051 A 
ATOM     15  C   UNL     1      18.085  -6.908  20.325  1.00  0.00     0.157 A 
ATOM     16  C   UNL     1      19.351  -8.870  19.658  1.00  0.00     0.062 A 
ATOM     17  C   UNL     1      19.259  -7.678  20.390  1.00  0.00     0.158 A 
BRANCH  15  18
ATOM     18  O   UNL     1      17.964  -5.716  21.037  1.00  0.00    -0.504 OA
ATOM     19  H   UNL     1      18.216  -4.820  20.636  1.00  0.00     0.293 HD
ENDBRANCH  15  18
BRANCH  17  20
ATOM     20  O   UNL     1      20.324  -7.260  21.187  1.00  0.00    -0.504 OA
ATOM     21  H   UNL     1      20.989  -7.920  21.572  1.00  0.00     0.293 HD
ENDBRANCH  17  20
ENDBRANCH   1  12
BRANCH   2  22
ATOM     22  O   UNL     1      17.228 -11.802  19.847  1.00  0.00    -0.502 OA
ATOM     23  H   UNL     1      16.542 -11.124  20.155  1.00  0.00     0.293 HD
ENDBRANCH   2  22
BRANCH   6  24
ATOM     24  O   UNL     1      17.970 -15.200  15.814  1.00  0.00    -0.507 OA
ATOM     25  H   UNL     1      16.978 -15.363  15.725  1.00  0.00     0.293 HD
ENDBRANCH   6  24
BRANCH   8  26
ATOM     26  O   UNL     1      20.638 -12.505  12.893  1.00  0.00    -0.508 OA
ATOM     27  H   UNL     1      20.170 -12.363  12.005  1.00  0.00     0.293 HD
ENDBRANCH   8  26
TORSDOF 6
ENDMDL
MODEL 2
REMARK VINA RESULT:    -6.826      1.784      7.277
REMARK INTER + INTRA:          -8.529
REMARK INTER:                  -8.216
REMARK INTRA:                  -0.313
REMARK UNBOUND:                -0.306
REMARK SMILES O=c1c(O)c(-c2ccc(O)c(O)c2)oc2cc(O)cc(O)c12
REMARK SMILES IDX 5 1 3 2 2 3 1 4 22 5 20 6 19 7 17 8 16 9 15 10 14 11 6 12
REMARK SMILES IDX 7 13 8 14 9 15 13 16 11 17 10 18 12 20 4 22 21 24 18 26
REMARK H PARENT 10 19 12 21 4 23 21 25 18 27
REMARK Flexibility Score: inf
ROOT
ATOM      1  C   UNL     1      18.322 -10.411  19.041  1.00  0.00     0.180 A 
ATOM      2  C   UNL     1      17.751  -9.219  18.564  1.00  0.00     0.208 A 
ATOM      3  C   UNL     1      17.817  -8.065  19.362  1.00  0.00     0.238 A 
ATOM      4  O   UNL     1      17.353  -6.987  18.905  1.00  0.00    -0.285 OA
ATOM      5  C   UNL     1      18.439  -8.122  20.632  1.00  0.00     0.111 A 
ATOM      6  C   UNL     1      18.528  -7.025  21.541  1.00  0.00     0.134 A 
ATOM      7  C   UNL     1      19.280  -7.160  22.714  1.00  0.00     0.093 A 
ATOM      8  C   UNL     1      19.891  -8.369  23.044  1.00  0.00     0.123 A 
ATOM      9  C   UNL     1      19.760  -9.466  22.192  1.00  0.00     0.094 A 
ATOM     10  C   UNL     1      19.047  -9.352  20.996  1.00  0.00     0.146 A 
ATOM     11  O   UNL     1      18.955 -10.416  20.208  1.00  0.00    -0.452 OA
ENDROOT
BRANCH   1  12
ATOM     12  C   UNL     1      18.269 -11.674  18.268  1.00  0.00     0.025 A 
ATOM     13  C   UNL     1      17.120 -12.477  18.337  1.00  0.00     0.016 A 
ATOM     14  C   UNL     1      17.041 -13.662  17.601  1.00  0.00     0.051 A 
ATOM     15  C   UNL     1      18.097 -14.054  16.775  1.00  0.00     0.157 A 
ATOM     16  C   UNL     1      19.323 -12.059  17.421  1.00  0.00     0.062 A 
ATOM     17  C   UNL     1      19.244 -13.247  16.680  1.00  0.00     0.158 A 
BRANCH  15  18
ATOM     18  O   UNL     1      17.990 -15.243  16.055  1.00  0.00    -0.504 OA
ATOM     19  H   UNL     1      18.483 -15.390  15.182  1.00  0.00     0.293 HD
ENDBRANCH  15  18
BRANCH  17  20
ATOM     20  O   UNL     1      20.295 -13.625  15.846  1.00  0.00    -0.504 OA
ATOM     21  H   UNL     1      20.518 -13.106  15.005  1.00  0.00     0.293 HD
ENDBRANCH  17  20
ENDBRANCH   1  12
BRANCH   2  22
ATOM     22  O   UNL     1      17.162  -9.179  17.297  1.00  0.00    -0.502 OA
ATOM     23  H   UNL     1      16.302  -8.677  17.113  1.00  0.00     0.293 HD
ENDBRANCH   2  22
BRANCH   6  24
ATOM     24  O   UNL     1      17.880  -5.801  21.352  1.00  0.00    -0.507 OA
ATOM     25  H   UNL     1      18.162  -4.930  21.777  1.00  0.00     0.293 HD
ENDBRANCH   6  24
BRANCH   8  26
ATOM     26  O   UNL     1      20.618  -8.472  24.228  1.00  0.00    -0.508 OA
ATOM     27  H   UNL     1      20.335  -7.981  25.068  1.00  0.00     0.293 HD
ENDBRANCH   8  26
TORSDOF 6
ENDMDL
MODEL 3
REMARK VINA RESULT:    -6.740      3.103      5.610
REMARK INTER + INTRA:          -8.425
REMARK INTER:                  -8.255
REMARK INTRA:                  -0.170
REMARK UNBOUND:                -0.306
REMARK SMILES O=c1c(O)c(-c2ccc(O)c(O)c2)oc2cc(O)cc(O)c12
REMARK SMILES IDX 5 1 3 2 2 3 1 4 22 5 20 6 19 7 17 8 16 9 15 10 14 11 6 12
REMARK SMILES IDX 7 13 8 14 9 15 13 16 11 17 10 18 12 20 4 22 21 24 18 26
REMARK H PARENT 10 19 12 21 4 23 21 25 18 27
REMARK Flexibility Score: inf
ROOT
ATOM      1  C   UNL     1      19.949  -7.064  20.604  1.00  0.00     0.180 A 
ATOM      2  C   UNL     1      20.061  -7.513  21.931  1.00  0.00     0.208 A 
ATOM      3  C   UNL     1      19.658  -8.821  22.244  1.00  0.00     0.238 A 
ATOM      4  O   UNL     1      19.813  -9.235  23.422  1.00  0.00    -0.285 OA
ATOM      5  C   UNL     1      19.134  -9.658  21.230  1.00  0.00     0.111 A 
ATOM      6  C   UNL     1      18.658 -10.987  21.441  1.00  0.00     0.134 A 
ATOM      7  C   UNL     1      18.282 -11.768  20.341  1.00  0.00     0.093 A 
ATOM      8  C   UNL     1      18.302 -11.250  19.048  1.00  0.00     0.123 A 
ATOM      9  C   UNL     1      18.708  -9.932  18.836  1.00  0.00     0.094 A 
ATOM     10  C   UNL     1      19.124  -9.139  19.908  1.00  0.00     0.146 A 
ATOM     11  O   UNL     1      19.514  -7.893  19.663  1.00  0.00    -0.452 OA
ENDROOT
BRANCH   1  12
ATOM     12  C   UNL     1      20.328  -5.690  20.203  1.00  0.00     0.025 A 
ATOM     13  C   UNL     1      21.335  -5.504  19.242  1.00  0.00     0.016 A 
ATOM     14  C   UNL     1      21.696  -4.217  18.834  1.00  0.00     0.051 A 
ATOM     15  C   UNL     1      21.046  -3.099  19.365  1.00  0.00     0.157 A 
ATOM     16  C   UNL     1      19.662  -4.565  20.720  1.00  0.00     0.062 A 
ATOM     17  C   UNL     1      20.021  -3.272  20.310  1.00  0.00     0.158 A 
BRANCH  15  18
ATOM     18  O   UNL     1      21.429  -1.828  18.941  1.00  0.00    -0.504 OA
ATOM     19  H   UNL     1      21.433  -1.565  17.962  1.00  0.00     0.293 HD
ENDBRANCH  15  18
BRANCH  17  20
ATOM     20  O   UNL     1      19.359  -2.162  20.833  1.00  0.00    -0.504 OA
ATOM     21  H   UNL     1      18.916  -1.477  20.232  1.00  0.00     0.293 HD
ENDBRANCH  17  20
ENDBRANCH   1  12
BRANCH   2  22
ATOM     22  O   UNL     1      20.602  -6.678  22.912  1.00  0.00    -0.502 OA
ATOM     23  H   UNL     1      21.530  -6.816  23.293  1.00  0.00     0.293 HD
ENDBRANCH   2  22
BRANCH   6  24
ATOM     24  O   UNL     1      18.511 -11.572  22.702  1.00  0.00    -0.507 OA
ATOM     25  H   UNL     1      17.800 -11.321  23.373  1.00  0.00     0.293 HD
ENDBRANCH   6  24
BRANCH   8  26
ATOM     26  O   UNL     1      17.906 -12.051  17.979  1.00  0.00    -0.508 OA
ATOM     27  H   UNL     1      17.959 -11.722  17.021  1.00  0.00     0.293 HD
ENDBRANCH   8  26
TORSDOF 6
ENDMDL
MODEL 4
REMARK VINA RESULT:    -6.717      2.085      7.434
REMARK INTER + INTRA:          -8.397
REMARK INTER:                  -8.181
REMARK INTRA:                  -0.217
REMARK UNBOUND:                -0.306
REMARK SMILES O=c1c(O)c(-c2ccc(O)c(O)c2)oc2cc(O)cc(O)c12
REMARK SMILES IDX 5 1 3 2 2 3 1 4 22 5 20 6 19 7 17 8 16 9 15 10 14 11 6 12
REMARK SMILES IDX 7 13 8 14 9 15 13 16 11 17 10 18 12 20 4 22 21 24 18 26
REMARK H PARENT 10 19 12 21 4 23 21 25 18 27
REMARK Flexibility Score: inf
ROOT
ATOM      1  C   UNL     1      18.339 -10.358  19.228  1.00  0.00     0.180 A 
ATOM      2  C   UNL     1      17.780  -9.160  18.750  1.00  0.00     0.208 A 
ATOM      3  C   UNL     1      17.865  -8.005  19.543  1.00  0.00     0.238 A 
ATOM      4  O   UNL     1      17.412  -6.923  19.086  1.00  0.00    -0.285 OA
ATOM      5  C   UNL     1      18.493  -8.065  20.810  1.00  0.00     0.111 A 
ATOM      6  C   UNL     1      18.601  -6.967  21.715  1.00  0.00     0.134 A 
ATOM      7  C   UNL     1      19.358  -7.107  22.885  1.00  0.00     0.093 A 
ATOM      8  C   UNL     1      19.956  -8.322  23.215  1.00  0.00     0.123 A 
ATOM      9  C   UNL     1      19.806  -9.421  22.368  1.00  0.00     0.094 A 
ATOM     10  C   UNL     1      19.088  -9.302  21.176  1.00  0.00     0.146 A 
ATOM     11  O   UNL     1      18.978 -10.367  20.391  1.00  0.00    -0.452 OA
ENDROOT
BRANCH   1  12
ATOM     12  C   UNL     1      18.265 -11.622  18.461  1.00  0.00     0.025 A 
ATOM     13  C   UNL     1      19.448 -12.216  17.993  1.00  0.00     0.016 A 
ATOM     14  C   UNL     1      19.404 -13.420  17.284  1.00  0.00     0.051 A 
ATOM     15  C   UNL     1      18.183 -14.056  17.046  1.00  0.00     0.157 A 
ATOM     16  C   UNL     1      17.040 -12.274  18.238  1.00  0.00     0.062 A 
ATOM     17  C   UNL     1      16.993 -13.483  17.529  1.00  0.00     0.158 A 
BRANCH  15  18
ATOM     18  O   UNL     1      18.170 -15.254  16.333  1.00  0.00    -0.504 OA
ATOM     19  H   UNL     1      18.992 -15.841  16.252  1.00  0.00     0.293 HD
ENDBRANCH  15  18
BRANCH  17  20
ATOM     20  O   UNL     1      15.773 -14.120  17.306  1.00  0.00    -0.504 OA
ATOM     21  H   UNL     1      14.982 -13.626  16.910  1.00  0.00     0.293 HD
ENDBRANCH  17  20
ENDBRANCH   1  12
BRANCH   2  22
ATOM     22  O   UNL     1      17.184  -9.117  17.487  1.00  0.00    -0.502 OA
ATOM     23  H   UNL     1      16.318  -9.598  17.277  1.00  0.00     0.293 HD
ENDBRANCH   2  22
BRANCH   6  24
ATOM     24  O   UNL     1      17.968  -5.735  21.526  1.00  0.00    -0.507 OA
ATOM     25  H   UNL     1      17.783  -5.065  22.258  1.00  0.00     0.293 HD
ENDBRANCH   6  24
BRANCH   8  26
ATOM     26  O   UNL     1      20.688  -8.431  24.395  1.00  0.00    -0.508 OA
ATOM     27  H   UNL     1      20.298  -8.154  25.289  1.00  0.00     0.293 HD
ENDBRANCH   8  26
TORSDOF 6
ENDMDL
MODEL 5
REMARK VINA RESULT:    -6.591      1.961      7.078
REMARK INTER + INTRA:          -8.246
REMARK INTER:                  -7.924
REMARK INTRA:                  -0.322
REMARK UNBOUND:                -0.306
REMARK SMILES O=c1c(O)c(-c2ccc(O)c(O)c2)oc2cc(O)cc(O)c12
REMARK SMILES IDX 5 1 3 2 2 3 1 4 22 5 20 6 19 7 17 8 16 9 15 10 14 11 6 12
REMARK SMILES IDX 7 13 8 14 9 15 13 16 11 17 10 18 12 20 4 22 21 24 18 26
REMARK H PARENT 10 19 12 21 4 23 21 25 18 27
REMARK Flexibility Score: inf
ROOT
ATOM      1  C   UNL     1      19.361 -11.118  18.912  1.00  0.00     0.180 A 
ATOM      2  C   UNL     1      20.097 -11.607  20.005  1.00  0.00     0.208 A 
ATOM      3  C   UNL     1      20.250 -10.797  21.141  1.00  0.00     0.238 A 
ATOM      4  O   UNL     1      20.862 -11.263  22.137  1.00  0.00    -0.285 OA
ATOM      5  C   UNL     1      19.679  -9.502  21.164  1.00  0.00     0.111 A 
ATOM      6  C   UNL     1      19.805  -8.580  22.247  1.00  0.00     0.134 A 
ATOM      7  C   UNL     1      19.089  -7.377  22.215  1.00  0.00     0.093 A 
ATOM      8  C   UNL     1      18.306  -7.033  21.115  1.00  0.00     0.123 A 
ATOM      9  C   UNL     1      18.224  -7.899  20.025  1.00  0.00     0.094 A 
ATOM     10  C   UNL     1      18.896  -9.123  20.042  1.00  0.00     0.146 A 
ATOM     11  O   UNL     1      18.784  -9.925  18.989  1.00  0.00    -0.452 OA
ENDROOT
BRANCH   1  12
ATOM     12  C   UNL     1      19.179 -11.903  17.669  1.00  0.00     0.025 A 
ATOM     13  C   UNL     1      20.151 -11.832  16.659  1.00  0.00     0.016 A 
ATOM     14  C   UNL     1      20.010 -12.579  15.487  1.00  0.00     0.051 A 
ATOM     15  C   UNL     1      18.907 -13.421  15.313  1.00  0.00     0.157 A 
ATOM     16  C   UNL     1      18.082 -12.765  17.502  1.00  0.00     0.062 A 
ATOM     17  C   UNL     1      17.939 -13.518  16.327  1.00  0.00     0.158 A 
BRANCH  15  18
ATOM     18  O   UNL     1      18.792 -14.152  14.132  1.00  0.00    -0.504 OA
ATOM     19  H   UNL     1      18.003 -14.762  13.951  1.00  0.00     0.293 HD
ENDBRANCH  15  18
BRANCH  17  20
ATOM     20  O   UNL     1      16.844 -14.367  16.166  1.00  0.00    -0.504 OA
ATOM     21  H   UNL     1      16.030 -14.086  15.631  1.00  0.00     0.293 HD
ENDBRANCH  17  20
ENDBRANCH   1  12
BRANCH   2  22
ATOM     22  O   UNL     1      20.633 -12.897  19.970  1.00  0.00    -0.502 OA
ATOM     23  H   UNL     1      20.254 -13.629  19.382  1.00  0.00     0.293 HD
ENDBRANCH   2  22
BRANCH   6  24
ATOM     24  O   UNL     1      20.632  -8.785  23.354  1.00  0.00    -0.507 OA
ATOM     25  H   UNL     1      20.317  -8.797  24.313  1.00  0.00     0.293 HD
ENDBRANCH   6  24
BRANCH   8  26
ATOM     26  O   UNL     1      17.620  -5.820  21.111  1.00  0.00    -0.508 OA
ATOM     27  H   UNL     1      17.411  -5.327  21.972  1.00  0.00     0.293 HD
ENDBRANCH   8  26
TORSDOF 6
ENDMDL
MODEL 6
REMARK VINA RESULT:    -6.483      1.500      3.247
REMARK INTER + INTRA:          -8.115
REMARK INTER:                  -7.792
REMARK INTRA:                  -0.323
REMARK UNBOUND:                -0.306
REMARK SMILES O=c1c(O)c(-c2ccc(O)c(O)c2)oc2cc(O)cc(O)c12
REMARK SMILES IDX 5 1 3 2 2 3 1 4 22 5 20 6 19 7 17 8 16 9 15 10 14 11 6 12
REMARK SMILES IDX 7 13 8 14 9 15 13 16 11 17 10 18 12 20 4 22 21 24 18 26
REMARK H PARENT 10 19 12 21 4 23 21 25 18 27
REMARK Flexibility Score: inf
ROOT
ATOM      1  C   UNL     1      19.391  -9.956  18.261  1.00  0.00     0.180 A 
ATOM      2  C   UNL     1      20.121  -9.471  17.162  1.00  0.00     0.208 A 
ATOM      3  C   UNL     1      20.274 -10.289  16.031  1.00  0.00     0.238 A 
ATOM      4  O   UNL     1      20.882  -9.828  15.030  1.00  0.00    -0.285 OA
ATOM      5  C   UNL     1      19.710 -11.587  16.019  1.00  0.00     0.111 A 
ATOM      6  C   UNL     1      19.838 -12.516  14.943  1.00  0.00     0.134 A 
ATOM      7  C   UNL     1      19.128 -13.723  14.986  1.00  0.00     0.093 A 
ATOM      8  C   UNL     1      18.350 -14.063  16.091  1.00  0.00     0.123 A 
ATOM      9  C   UNL     1      18.267 -13.189  17.175  1.00  0.00     0.094 A 
ATOM     10  C   UNL     1      18.933 -11.961  17.147  1.00  0.00     0.146 A 
ATOM     11  O   UNL     1      18.819 -11.153  18.194  1.00  0.00    -0.452 OA
ENDROOT
BRANCH   1  12
ATOM     12  C   UNL     1      19.208  -9.163  19.498  1.00  0.00     0.025 A 
ATOM     13  C   UNL     1      20.169  -9.244  20.518  1.00  0.00     0.016 A 
ATOM     14  C   UNL     1      20.027  -8.489  21.685  1.00  0.00     0.051 A 
ATOM     15  C   UNL     1      18.935  -7.631  21.844  1.00  0.00     0.157 A 
ATOM     16  C   UNL     1      18.121  -8.284  19.651  1.00  0.00     0.062 A 
ATOM     17  C   UNL     1      17.978  -7.524  20.820  1.00  0.00     0.158 A 
BRANCH  15  18
ATOM     18  O   UNL     1      18.819  -6.892  23.021  1.00  0.00    -0.504 OA
ATOM     19  H   UNL     1      18.728  -7.335  23.928  1.00  0.00     0.293 HD
ENDBRANCH  15  18
BRANCH  17  20
ATOM     20  O   UNL     1      16.894  -6.659  20.967  1.00  0.00    -0.504 OA
ATOM     21  H   UNL     1      16.807  -6.050  21.772  1.00  0.00     0.293 HD
ENDBRANCH  17  20
ENDBRANCH   1  12
BRANCH   2  22
ATOM     22  O   UNL     1      20.651  -8.178  17.186  1.00  0.00    -0.502 OA
ATOM     23  H   UNL     1      20.132  -7.384  17.539  1.00  0.00     0.293 HD
ENDBRANCH   2  22
BRANCH   6  24
ATOM     24  O   UNL     1      20.662 -12.315  13.832  1.00  0.00    -0.507 OA
ATOM     25  H   UNL     1      20.545 -12.773  12.940  1.00  0.00     0.293 HD
ENDBRANCH   6  24
BRANCH   8  26
ATOM     26  O   UNL     1      17.670 -15.279  16.105  1.00  0.00    -0.508 OA
ATOM     27  H   UNL     1      16.686 -15.339  15.871  1.00  0.00     0.293 HD
ENDBRANCH   8  26
TORSDOF 6
ENDMDL
MODEL 7
REMARK VINA RESULT:    -6.476      0.868      1.610
REMARK INTER + INTRA:          -8.107
REMARK INTER:                  -7.941
REMARK INTRA:                  -0.167
REMARK UNBOUND:                -0.306
REMARK SMILES O=c1c(O)c(-c2ccc(O)c(O)c2)oc2cc(O)cc(O)c12
REMARK SMILES IDX 5 1 3 2 2 3 1 4 22 5 20 6 19 7 17 8 16 9 15 10 14 11 6 12
REMARK SMILES IDX 7 13 8 14 9 15 13 16 11 17 10 18 12 20 4 22 21 24 18 26
REMARK H PARENT 10 19 12 21 4 23 21 25 18 27
REMARK Flexibility Score: inf
ROOT
ATOM      1  C   UNL     1      19.005 -10.587  18.653  1.00  0.00     0.180 A 
ATOM      2  C   UNL     1      18.160 -11.634  19.059  1.00  0.00     0.208 A 
ATOM      3  C   UNL     1      17.923 -12.700  18.176  1.00  0.00     0.238 A 
ATOM      4  O   UNL     1      17.210 -13.661  18.567  1.00  0.00    -0.285 OA
ATOM      5  C   UNL     1      18.520 -12.697  16.893  1.00  0.00     0.111 A 
ATOM      6  C   UNL     1      18.317 -13.705  15.903  1.00  0.00     0.134 A 
ATOM      7  C   UNL     1      19.062 -13.667  14.717  1.00  0.00     0.093 A 
ATOM      8  C   UNL     1      19.951 -12.625  14.457  1.00  0.00     0.123 A 
ATOM      9  C   UNL     1      20.112 -11.602  15.392  1.00  0.00     0.094 A 
ATOM     10  C   UNL     1      19.411 -11.631  16.600  1.00  0.00     0.146 A 
ATOM     11  O   UNL     1      19.601 -10.645  17.468  1.00  0.00    -0.452 OA
ENDROOT
BRANCH   1  12
ATOM     12  C   UNL     1      19.281  -9.417  19.518  1.00  0.00     0.025 A 
ATOM     13  C   UNL     1      20.604  -9.136  19.897  1.00  0.00     0.016 A 
ATOM     14  C   UNL     1      20.890  -8.026  20.696  1.00  0.00     0.051 A 
ATOM     15  C   UNL     1      19.865  -7.173  21.115  1.00  0.00     0.157 A 
ATOM     16  C   UNL     1      18.255  -8.546  19.923  1.00  0.00     0.062 A 
ATOM     17  C   UNL     1      18.540  -7.430  20.723  1.00  0.00     0.158 A 
BRANCH  15  18
ATOM     18  O   UNL     1      20.181  -6.075  21.914  1.00  0.00    -0.504 OA
ATOM     19  H   UNL     1      19.671  -5.201  21.854  1.00  0.00     0.293 HD
ENDBRANCH  15  18
BRANCH  17  20
ATOM     20  O   UNL     1      17.515  -6.575  21.126  1.00  0.00    -0.504 OA
ATOM     21  H   UNL     1      16.872  -6.830  21.867  1.00  0.00     0.293 HD
ENDBRANCH  17  20
ENDBRANCH   1  12
BRANCH   2  22
ATOM     22  O   UNL     1      17.598 -11.628  20.339  1.00  0.00    -0.502 OA
ATOM     23  H   UNL     1      16.670 -11.986  20.528  1.00  0.00     0.293 HD
ENDBRANCH   2  22
BRANCH   6  24
ATOM     24  O   UNL     1      17.386 -14.741  16.022  1.00  0.00    -0.507 OA
ATOM     25  H   UNL     1      16.583 -14.723  16.633  1.00  0.00     0.293 HD
ENDBRANCH   6  24
BRANCH   8  26
ATOM     26  O   UNL     1      20.663 -12.611  13.260  1.00  0.00    -0.508 OA
ATOM     27  H   UNL     1      21.460 -12.000  13.124  1.00  0.00     0.293 HD
ENDBRANCH   8  26
TORSDOF 6
ENDMDL
MODEL 8
REMARK VINA RESULT:    -6.324      2.082      7.032
REMARK INTER + INTRA:          -7.924
REMARK INTER:                  -7.905
REMARK INTRA:                  -0.019
REMARK UNBOUND:                -0.306
REMARK SMILES O=c1c(O)c(-c2ccc(O)c(O)c2)oc2cc(O)cc(O)c12
REMARK SMILES IDX 5 1 3 2 2 3 1 4 22 5 20 6 19 7 17 8 16 9 15 10 14 11 6 12
REMARK SMILES IDX 7 13 8 14 9 15 13 16 11 17 10 18 12 20 4 22 21 24 18 26
REMARK H PARENT 10 19 12 21 4 23 21 25 18 27
REMARK Flexibility Score: inf
ROOT
ATOM      1  C   UNL     1      18.835 -10.325  19.621  1.00  0.00     0.180 A 
ATOM      2  C   UNL     1      18.890 -10.612  20.996  1.00  0.00     0.208 A 
ATOM      3  C   UNL     1      19.277  -9.599  21.888  1.00  0.00     0.238 A 
ATOM      4  O   UNL     1      19.271  -9.845  23.122  1.00  0.00    -0.285 OA
ATOM      5  C   UNL     1      19.620  -8.318  21.393  1.00  0.00     0.111 A 
ATOM      6  C   UNL     1      20.065  -7.229  22.201  1.00  0.00     0.134 A 
ATOM      7  C   UNL     1      20.252  -5.969  21.619  1.00  0.00     0.093 A 
ATOM      8  C   UNL     1      20.074  -5.773  20.251  1.00  0.00     0.123 A 
ATOM      9  C   UNL     1      19.698  -6.845  19.441  1.00  0.00     0.094 A 
ATOM     10  C   UNL     1      19.468  -8.105  19.997  1.00  0.00     0.146 A 
ATOM     11  O   UNL     1      19.101  -9.097  19.194  1.00  0.00    -0.452 OA
ENDROOT
BRANCH   1  12
ATOM     12  C   UNL     1      18.461 -11.348  18.618  1.00  0.00     0.025 A 
ATOM     13  C   UNL     1      19.339 -11.631  17.560  1.00  0.00     0.016 A 
ATOM     14  C   UNL     1      19.016 -12.606  16.613  1.00  0.00     0.051 A 
ATOM     15  C   UNL     1      17.821 -13.325  16.717  1.00  0.00     0.157 A 
ATOM     16  C   UNL     1      17.270 -12.087  18.733  1.00  0.00     0.062 A 
ATOM     17  C   UNL     1      16.945 -13.068  17.785  1.00  0.00     0.158 A 
BRANCH  15  18
ATOM     18  O   UNL     1      17.525 -14.290  15.756  1.00  0.00    -0.504 OA
ATOM     19  H   UNL     1      16.579 -14.614  15.593  1.00  0.00     0.293 HD
ENDBRANCH  15  18
BRANCH  17  20
ATOM     20  O   UNL     1      15.759 -13.791  17.903  1.00  0.00    -0.504 OA
ATOM     21  H   UNL     1      14.854 -13.334  17.876  1.00  0.00     0.293 HD
ENDBRANCH  17  20
ENDBRANCH   1  12
BRANCH   2  22
ATOM     22  O   UNL     1      18.526 -11.876  21.466  1.00  0.00    -0.502 OA
ATOM     23  H   UNL     1      19.016 -12.339  22.221  1.00  0.00     0.293 HD
ENDBRANCH   2  22
BRANCH   6  24
ATOM     24  O   UNL     1      20.361  -7.337  23.563  1.00  0.00    -0.507 OA
ATOM     25  H   UNL     1      20.065  -8.098  24.156  1.00  0.00     0.293 HD
ENDBRANCH   6  24
BRANCH   8  26
ATOM     26  O   UNL     1      20.284  -4.509  19.704  1.00  0.00    -0.508 OA
ATOM     27  H   UNL     1      19.543  -3.817  19.668  1.00  0.00     0.293 HD
ENDBRANCH   8  26
TORSDOF 6
ENDMDL
MODEL 9
REMARK VINA RESULT:    -6.264      1.611      3.129
REMARK INTER + INTRA:          -7.852
REMARK INTER:                  -7.854
REMARK INTRA:                   0.001
REMARK UNBOUND:                -0.306
REMARK SMILES O=c1c(O)c(-c2ccc(O)c(O)c2)oc2cc(O)cc(O)c12
REMARK SMILES IDX 5 1 3 2 2 3 1 4 22 5 20 6 19 7 17 8 16 9 15 10 14 11 6 12
REMARK SMILES IDX 7 13 8 14 9 15 13 16 11 17 10 18 12 20 4 22 21 24 18 26
REMARK H PARENT 10 19 12 21 4 23 21 25 18 27
REMARK Flexibility Score: inf
ROOT
ATOM      1  C   UNL     1      18.836 -10.611  17.621  1.00  0.00     0.180 A 
ATOM      2  C   UNL     1      18.837 -10.324  16.245  1.00  0.00     0.208 A 
ATOM      3  C   UNL     1      19.211 -11.330  15.340  1.00  0.00     0.238 A 
ATOM      4  O   UNL     1      19.156 -11.084  14.106  1.00  0.00    -0.285 OA
ATOM      5  C   UNL     1      19.596 -12.604  15.822  1.00  0.00     0.111 A 
ATOM      6  C   UNL     1      20.032 -13.685  14.999  1.00  0.00     0.134 A 
ATOM      7  C   UNL     1      20.263 -14.941  15.573  1.00  0.00     0.093 A 
ATOM      8  C   UNL     1      20.137 -15.139  16.947  1.00  0.00     0.123 A 
ATOM      9  C   UNL     1      19.769 -14.075  17.770  1.00  0.00     0.094 A 
ATOM     10  C   UNL     1      19.496 -12.819  17.222  1.00  0.00     0.146 A 
ATOM     11  O   UNL     1      19.139 -11.834  18.038  1.00  0.00    -0.452 OA
ENDROOT
BRANCH   1  12
ATOM     12  C   UNL     1      18.478  -9.595  18.637  1.00  0.00     0.025 A 
ATOM     13  C   UNL     1      19.371  -9.323  19.685  1.00  0.00     0.016 A 
ATOM     14  C   UNL     1      19.063  -8.354  20.644  1.00  0.00     0.051 A 
ATOM     15  C   UNL     1      17.869  -7.631  20.561  1.00  0.00     0.157 A 
ATOM     16  C   UNL     1      17.287  -8.852  18.544  1.00  0.00     0.062 A 
ATOM     17  C   UNL     1      16.977  -7.878  19.503  1.00  0.00     0.158 A 
BRANCH  15  18
ATOM     18  O   UNL     1      17.588  -6.672  21.533  1.00  0.00    -0.504 OA
ATOM     19  H   UNL     1      16.640  -6.460  21.822  1.00  0.00     0.293 HD
ENDBRANCH  15  18
BRANCH  17  20
ATOM     20  O   UNL     1      15.792  -7.151  19.407  1.00  0.00    -0.504 OA
ATOM     21  H   UNL     1      15.381  -6.696  20.215  1.00  0.00     0.293 HD
ENDBRANCH  17  20
ENDBRANCH   1  12
BRANCH   2  22
ATOM     22  O   UNL     1      18.432  -9.067  15.788  1.00  0.00    -0.502 OA
ATOM     23  H   UNL     1      19.068  -8.420  15.340  1.00  0.00     0.293 HD
ENDBRANCH   2  22
BRANCH   6  24
ATOM     24  O   UNL     1      20.278 -13.571  13.627  1.00  0.00    -0.507 OA
ATOM     25  H   UNL     1      19.608 -13.240  12.949  1.00  0.00     0.293 HD
ENDBRANCH   6  24
BRANCH   8  26
ATOM     26  O   UNL     1      20.389 -16.399  17.486  1.00  0.00    -0.508 OA
ATOM     27  H   UNL     1      19.704 -17.144  17.436  1.00  0.00     0.293 HD
ENDBRANCH   8  26
TORSDOF 6
ENDMDL
