MODEL 1
REMARK VINA RESULT:    -3.761      0.000      0.000
REMARK INTER + INTRA:          -5.461
REMARK INTER:                  -5.080
REMARK INTRA:                  -0.381
REMARK UNBOUND:                -0.381
REMARK SMILES O=c1c(-c2ccc(O)cc2)coc2c([C@H]3O[C@@H](CO)[C@H](O)[C@H](O)[C@H]3O)c(O)ccc12
REMARK SMILES IDX 3 1 11 2 12 3 13 4 30 5 2 6 1 7 29 8 28 9 26 10 14 11 4 12
REMARK SMILES IDX 5 13 6 14 7 15 10 16 9 17 8 18 15 20 24 21 16 22 22 23 17 24
REMARK SMILES IDX 20 25 25 26 23 28 18 30 19 31 21 33 27 35
REMARK H PARENT 8 19 25 27 23 29 19 32 21 34 27 36
REMARK Flexibility Score: inf
ROOT
ATOM      1  C   UNL     1       1.101  23.518 -14.815  1.00  0.00     0.065 A 
ATOM      2  C   UNL     1       0.331  23.635 -13.650  1.00  0.00     0.208 A 
ATOM      3  O   UNL     1      -0.970  23.380 -13.665  1.00  0.00    -0.463 OA
ATOM      4  C   UNL     1      -1.630  22.997 -14.757  1.00  0.00     0.147 A 
ATOM      5  C   UNL     1      -0.927  22.845 -15.975  1.00  0.00     0.066 A 
ATOM      6  C   UNL     1       0.456  23.108 -15.996  1.00  0.00     0.200 A 
ATOM      7  O   UNL     1       1.116  22.973 -17.064  1.00  0.00    -0.288 OA
ATOM      8  C   UNL     1      -1.618  22.444 -17.125  1.00  0.00     0.020 A 
ATOM      9  C   UNL     1      -2.994  22.236 -17.081  1.00  0.00     0.047 A 
ATOM     10  C   UNL     1      -3.711  22.413 -15.896  1.00  0.00     0.125 A 
ATOM     11  C   UNL     1      -3.026  22.749 -14.696  1.00  0.00     0.069 A 
ENDROOT
BRANCH   1  12
ATOM     12  C   UNL     1       2.547  23.844 -14.780  1.00  0.00    -0.011 A 
ATOM     13  C   UNL     1       3.085  24.795 -15.665  1.00  0.00     0.013 A 
ATOM     14  C   UNL     1       4.445  25.119 -15.611  1.00  0.00     0.047 A 
ATOM     15  C   UNL     1       5.280  24.501 -14.675  1.00  0.00     0.115 A 
ATOM     16  C   UNL     1       3.391  23.230 -13.837  1.00  0.00     0.013 A 
ATOM     17  C   UNL     1       4.751  23.553 -13.789  1.00  0.00     0.047 A 
BRANCH  15  18
ATOM     18  O   UNL     1       6.632  24.837 -14.634  1.00  0.00    -0.508 OA
ATOM     19  H   UNL     1       6.938  25.802 -14.570  1.00  0.00     0.293 HD
ENDBRANCH  15  18
ENDBRANCH   1  12
BRANCH  11  20
ATOM     20  C   UNL     1      -3.782  22.905 -13.376  1.00  0.00     0.188 C 
ATOM     21  C   UNL     1      -4.078  24.400 -13.109  1.00  0.00     0.179 C 
ATOM     22  O   UNL     1      -3.046  22.305 -12.322  1.00  0.00    -0.362 OA
ATOM     23  C   UNL     1      -4.831  24.609 -11.770  1.00  0.00     0.177 C 
ATOM     24  C   UNL     1      -3.565  22.525 -11.011  1.00  0.00     0.176 C 
ATOM     25  C   UNL     1      -4.901  23.320 -10.927  1.00  0.00     0.177 C 
BRANCH  21  26
ATOM     26  O   UNL     1      -2.873  25.125 -13.096  1.00  0.00    -0.387 OA
ATOM     27  H   UNL     1      -3.017  25.910 -12.506  1.00  0.00     0.211 HD
ENDBRANCH  21  26
BRANCH  23  28
ATOM     28  O   UNL     1      -6.125  25.096 -12.026  1.00  0.00    -0.387 OA
ATOM     29  H   UNL     1      -6.306  24.936 -12.990  1.00  0.00     0.211 HD
ENDBRANCH  23  28
BRANCH  24  30
ATOM     30  C   UNL     1      -2.469  23.189 -10.162  1.00  0.00     0.191 C 
BRANCH  30  31
ATOM     31  O   UNL     1      -1.475  23.707 -11.002  1.00  0.00    -0.394 OA
ATOM     32  H   UNL     1      -1.020  24.421 -10.483  1.00  0.00     0.210 HD
ENDBRANCH  30  31
ENDBRANCH  24  30
BRANCH  25  33
ATOM     33  O   UNL     1      -5.971  22.519 -11.363  1.00  0.00    -0.388 OA
ATOM     34  H   UNL     1      -5.632  21.969 -12.118  1.00  0.00     0.211 HD
ENDBRANCH  25  33
ENDBRANCH  11  20
BRANCH  10  35
ATOM     35  O   UNL     1      -5.099  22.264 -15.965  1.00  0.00    -0.507 OA
ATOM     36  H   UNL     1      -5.568  21.586 -16.549  1.00  0.00     0.293 HD
ENDBRANCH  10  35
TORSDOF 9
ENDMDL
MODEL 2
REMARK VINA RESULT:    -3.187     16.797     19.804
REMARK INTER + INTRA:          -4.685
REMARK INTER:                  -4.426
REMARK INTRA:                  -0.259
REMARK UNBOUND:                -0.381
REMARK SMILES O=c1c(-c2ccc(O)cc2)coc2c([C@H]3O[C@@H](CO)[C@H](O)[C@H](O)[C@H]3O)c(O)ccc12
REMARK SMILES IDX 3 1 11 2 12 3 13 4 30 5 2 6 1 7 29 8 28 9 26 10 14 11 4 12
REMARK SMILES IDX 5 13 6 14 7 15 10 16 9 17 8 18 15 20 24 21 16 22 22 23 17 24
REMARK SMILES IDX 20 25 25 26 23 28 18 30 19 31 21 33 27 35
REMARK H PARENT 8 19 25 27 23 29 19 32 21 34 27 36
REMARK Flexibility Score: inf
ROOT
ATOM      1  C   UNL     1       6.650  23.116   1.702  1.00  0.00     0.065 A 
ATOM      2  C   UNL     1       7.571  22.174   2.179  1.00  0.00     0.208 A 
ATOM      3  O   UNL     1       8.846  22.226   1.816  1.00  0.00    -0.463 OA
ATOM      4  C   UNL     1       9.340  23.154   0.999  1.00  0.00     0.147 A 
ATOM      5  C   UNL     1       8.480  24.148   0.478  1.00  0.00     0.066 A 
ATOM      6  C   UNL     1       7.119  24.124   0.841  1.00  0.00     0.200 A 
ATOM      7  O   UNL     1       6.326  25.004   0.403  1.00  0.00    -0.288 OA
ATOM      8  C   UNL     1       8.995  25.125  -0.383  1.00  0.00     0.020 A 
ATOM      9  C   UNL     1      10.335  25.093  -0.759  1.00  0.00     0.047 A 
ATOM     10  C   UNL     1      11.192  24.100  -0.282  1.00  0.00     0.125 A 
ATOM     11  C   UNL     1      10.716  23.139   0.650  1.00  0.00     0.069 A 
ENDROOT
BRANCH   1  12
ATOM     12  C   UNL     1       5.223  23.016   2.093  1.00  0.00    -0.011 A 
ATOM     13  C   UNL     1       4.508  24.162   2.484  1.00  0.00     0.013 A 
ATOM     14  C   UNL     1       3.156  24.068   2.826  1.00  0.00     0.047 A 
ATOM     15  C   UNL     1       2.502  22.832   2.782  1.00  0.00     0.115 A 
ATOM     16  C   UNL     1       4.559  21.777   2.045  1.00  0.00     0.013 A 
ATOM     17  C   UNL     1       3.207  21.685   2.393  1.00  0.00     0.047 A 
BRANCH  15  18
ATOM     18  O   UNL     1       1.153  22.757   3.125  1.00  0.00    -0.508 OA
ATOM     19  H   UNL     1       0.822  22.115   3.838  1.00  0.00     0.293 HD
ENDBRANCH  15  18
ENDBRANCH   1  12
BRANCH  11  20
ATOM     20  C   UNL     1      11.645  22.067   1.222  1.00  0.00     0.188 C 
ATOM     21  C   UNL     1      11.887  20.960   0.169  1.00  0.00     0.179 C 
ATOM     22  O   UNL     1      11.109  21.554   2.431  1.00  0.00    -0.362 OA
ATOM     23  C   UNL     1      12.814  19.841   0.711  1.00  0.00     0.177 C 
ATOM     24  C   UNL     1      11.800  20.432   2.979  1.00  0.00     0.176 C 
ATOM     25  C   UNL     1      13.084  19.981   2.222  1.00  0.00     0.177 C 
BRANCH  21  26
ATOM     26  O   UNL     1      10.656  20.408  -0.227  1.00  0.00    -0.387 OA
ATOM     27  H   UNL     1      10.025  21.165  -0.342  1.00  0.00     0.211 HD
ENDBRANCH  21  26
BRANCH  23  28
ATOM     28  O   UNL     1      14.025  19.843  -0.004  1.00  0.00    -0.387 OA
ATOM     29  H   UNL     1      14.394  20.764   0.059  1.00  0.00     0.211 HD
ENDBRANCH  23  28
BRANCH  24  30
ATOM     30  C   UNL     1      10.803  19.272   3.121  1.00  0.00     0.191 C 
BRANCH  30  31
ATOM     31  O   UNL     1       9.675  19.524   2.329  1.00  0.00    -0.394 OA
ATOM     32  H   UNL     1       9.837  20.401   1.892  1.00  0.00     0.210 HD
ENDBRANCH  30  31
ENDBRANCH  24  30
BRANCH  25  33
ATOM     33  O   UNL     1      14.125  20.901   2.440  1.00  0.00    -0.388 OA
ATOM     34  H   UNL     1      14.333  20.876   3.412  1.00  0.00     0.211 HD
ENDBRANCH  25  33
ENDBRANCH  11  20
BRANCH  10  35
ATOM     35  O   UNL     1      12.500  24.098  -0.777  1.00  0.00    -0.507 OA
ATOM     36  H   UNL     1      13.321  23.943  -0.209  1.00  0.00     0.293 HD
ENDBRANCH  10  35
TORSDOF 9
ENDMDL
MODEL 3
REMARK VINA RESULT:    -3.165      1.113      1.839
REMARK INTER + INTRA:          -4.656
REMARK INTER:                  -4.608
REMARK INTRA:                  -0.048
REMARK UNBOUND:                -0.381
REMARK SMILES O=c1c(-c2ccc(O)cc2)coc2c([C@H]3O[C@@H](CO)[C@H](O)[C@H](O)[C@H]3O)c(O)ccc12
REMARK SMILES IDX 3 1 11 2 12 3 13 4 30 5 2 6 1 7 29 8 28 9 26 10 14 11 4 12
REMARK SMILES IDX 5 13 6 14 7 15 10 16 9 17 8 18 15 20 24 21 16 22 22 23 17 24
REMARK SMILES IDX 20 25 25 26 23 28 18 30 19 31 21 33 27 35
REMARK H PARENT 8 19 25 27 23 29 19 32 21 34 27 36
REMARK Flexibility Score: inf
ROOT
ATOM      1  C   UNL     1       1.186  23.515 -14.608  1.00  0.00     0.065 A 
ATOM      2  C   UNL     1       0.261  23.891 -13.626  1.00  0.00     0.208 A 
ATOM      3  O   UNL     1      -1.033  23.645 -13.780  1.00  0.00    -0.463 OA
ATOM      4  C   UNL     1      -1.542  23.032 -14.847  1.00  0.00     0.147 A 
ATOM      5  C   UNL     1      -0.676  22.610 -15.883  1.00  0.00     0.066 A 
ATOM      6  C   UNL     1       0.704  22.856 -15.754  1.00  0.00     0.200 A 
ATOM      7  O   UNL     1       1.506  22.483 -16.655  1.00  0.00    -0.288 OA
ATOM      8  C   UNL     1      -1.208  21.967 -17.007  1.00  0.00     0.020 A 
ATOM      9  C   UNL     1      -2.582  21.780 -17.125  1.00  0.00     0.047 A 
ATOM     10  C   UNL     1      -3.456  22.219 -16.129  1.00  0.00     0.125 A 
ATOM     11  C   UNL     1      -2.940  22.810 -14.943  1.00  0.00     0.069 A 
ENDROOT
BRANCH   1  12
ATOM     12  C   UNL     1       2.624  23.834 -14.430  1.00  0.00    -0.011 A 
ATOM     13  C   UNL     1       3.244  24.804 -15.236  1.00  0.00     0.013 A 
ATOM     14  C   UNL     1       4.593  25.121 -15.047  1.00  0.00     0.047 A 
ATOM     15  C   UNL     1       5.336  24.477 -14.052  1.00  0.00     0.115 A 
ATOM     16  C   UNL     1       3.374  23.193 -13.427  1.00  0.00     0.013 A 
ATOM     17  C   UNL     1       4.724  23.509 -13.244  1.00  0.00     0.047 A 
BRANCH  15  18
ATOM     18  O   UNL     1       6.679  24.806 -13.876  1.00  0.00    -0.508 OA
ATOM     19  H   UNL     1       7.005  25.275 -13.038  1.00  0.00     0.293 HD
ENDBRANCH  15  18
ENDBRANCH   1  12
BRANCH  11  20
ATOM     20  C   UNL     1      -3.873  23.259 -13.817  1.00  0.00     0.188 C 
ATOM     21  C   UNL     1      -3.126  23.211 -12.462  1.00  0.00     0.179 C 
ATOM     22  O   UNL     1      -5.048  22.464 -13.813  1.00  0.00    -0.362 OA
ATOM     23  C   UNL     1      -4.039  23.644 -11.286  1.00  0.00     0.177 C 
ATOM     24  C   UNL     1      -5.925  22.675 -12.709  1.00  0.00     0.176 C 
ATOM     25  C   UNL     1      -5.513  23.797 -11.710  1.00  0.00     0.177 C 
BRANCH  21  26
ATOM     26  O   UNL     1      -2.643  21.910 -12.235  1.00  0.00    -0.387 OA
ATOM     27  H   UNL     1      -1.694  21.902 -12.525  1.00  0.00     0.211 HD
ENDBRANCH  21  26
BRANCH  23  28
ATOM     28  O   UNL     1      -3.563  24.847 -10.736  1.00  0.00    -0.387 OA
ATOM     29  H   UNL     1      -2.689  24.641 -10.310  1.00  0.00     0.211 HD
ENDBRANCH  23  28
BRANCH  24  30
ATOM     30  C   UNL     1      -6.125  21.333 -11.986  1.00  0.00     0.191 C 
BRANCH  30  31
ATOM     31  O   UNL     1      -5.379  20.339 -12.632  1.00  0.00    -0.394 OA
ATOM     32  H   UNL     1      -4.646  20.095 -12.007  1.00  0.00     0.210 HD
ENDBRANCH  30  31
ENDBRANCH  24  30
BRANCH  25  33
ATOM     33  O   UNL     1      -5.718  25.061 -12.288  1.00  0.00    -0.388 OA
ATOM     34  H   UNL     1      -5.711  25.723 -11.547  1.00  0.00     0.211 HD
ENDBRANCH  25  33
ENDBRANCH  11  20
BRANCH  10  35
ATOM     35  O   UNL     1      -4.825  22.064 -16.370  1.00  0.00    -0.507 OA
ATOM     36  H   UNL     1      -5.515  22.779 -16.192  1.00  0.00     0.293 HD
ENDBRANCH  10  35
TORSDOF 9
ENDMDL
MODEL 4
REMARK VINA RESULT:    -2.751     14.739     18.216
REMARK INTER + INTRA:          -4.097
REMARK INTER:                  -4.476
REMARK INTRA:                   0.378
REMARK UNBOUND:                -0.381
REMARK SMILES O=c1c(-c2ccc(O)cc2)coc2c([C@H]3O[C@@H](CO)[C@H](O)[C@H](O)[C@H]3O)c(O)ccc12
REMARK SMILES IDX 3 1 11 2 12 3 13 4 30 5 2 6 1 7 29 8 28 9 26 10 14 11 4 12
REMARK SMILES IDX 5 13 6 14 7 15 10 16 9 17 8 18 15 20 24 21 16 22 22 23 17 24
REMARK SMILES IDX 20 25 25 26 23 28 18 30 19 31 21 33 27 35
REMARK H PARENT 8 19 25 27 23 29 19 32 21 34 27 36
REMARK Flexibility Score: inf
ROOT
ATOM      1  C   UNL     1      11.941  23.307  -3.946  1.00  0.00     0.065 A 
ATOM      2  C   UNL     1      10.809  23.460  -3.135  1.00  0.00     0.208 A 
ATOM      3  O   UNL     1      10.801  23.012  -1.886  1.00  0.00    -0.463 OA
ATOM      4  C   UNL     1      11.842  22.406  -1.317  1.00  0.00     0.147 A 
ATOM      5  C   UNL     1      13.028  22.219  -2.064  1.00  0.00     0.066 A 
ATOM      6  C   UNL     1      13.072  22.680  -3.393  1.00  0.00     0.200 A 
ATOM      7  O   UNL     1      14.119  22.539  -4.084  1.00  0.00    -0.288 OA
ATOM      8  C   UNL     1      14.124  21.580  -1.470  1.00  0.00     0.020 A 
ATOM      9  C   UNL     1      14.032  21.094  -0.168  1.00  0.00     0.047 A 
ATOM     10  C   UNL     1      12.859  21.239   0.573  1.00  0.00     0.125 A 
ATOM     11  C   UNL     1      11.755  21.947   0.023  1.00  0.00     0.069 A 
ENDROOT
BRANCH   1  12
ATOM     12  C   UNL     1      11.912  23.783  -5.350  1.00  0.00    -0.011 A 
ATOM     13  C   UNL     1      12.877  24.693  -5.815  1.00  0.00     0.013 A 
ATOM     14  C   UNL     1      12.863  25.120  -7.147  1.00  0.00     0.047 A 
ATOM     15  C   UNL     1      11.887  24.642  -8.029  1.00  0.00     0.115 A 
ATOM     16  C   UNL     1      10.937  23.302  -6.243  1.00  0.00     0.013 A 
ATOM     17  C   UNL     1      10.922  23.734  -7.574  1.00  0.00     0.047 A 
BRANCH  15  18
ATOM     18  O   UNL     1      11.888  25.076  -9.353  1.00  0.00    -0.508 OA
ATOM     19  H   UNL     1      11.346  25.882  -9.648  1.00  0.00     0.293 HD
ENDBRANCH  15  18
ENDBRANCH   1  12
BRANCH  11  20
ATOM     20  C   UNL     1      10.474  22.159   0.830  1.00  0.00     0.188 C 
ATOM     21  C   UNL     1      10.793  22.919   2.141  1.00  0.00     0.179 C 
ATOM     22  O   UNL     1       9.840  20.913   1.071  1.00  0.00    -0.362 OA
ATOM     23  C   UNL     1       9.524  23.143   3.001  1.00  0.00     0.177 C 
ATOM     24  C   UNL     1       8.720  20.957   1.953  1.00  0.00     0.176 C 
ATOM     25  C   UNL     1       8.304  22.369   2.464  1.00  0.00     0.177 C 
BRANCH  21  26
ATOM     26  O   UNL     1      11.749  22.201   2.881  1.00  0.00    -0.387 OA
ATOM     27  H   UNL     1      12.271  21.663   2.231  1.00  0.00     0.211 HD
ENDBRANCH  21  26
BRANCH  23  28
ATOM     28  O   UNL     1       9.237  24.518   3.071  1.00  0.00    -0.387 OA
ATOM     29  H   UNL     1       8.650  24.648   3.862  1.00  0.00     0.211 HD
ENDBRANCH  23  28
BRANCH  24  30
ATOM     30  C   UNL     1       8.990  20.000   3.125  1.00  0.00     0.191 C 
BRANCH  30  31
ATOM     31  O   UNL     1      10.238  19.388   2.951  1.00  0.00    -0.394 OA
ATOM     32  H   UNL     1      10.050  18.440   2.723  1.00  0.00     0.210 HD
ENDBRANCH  30  31
ENDBRANCH  24  30
BRANCH  25  33
ATOM     33  O   UNL     1       7.689  23.097   1.430  1.00  0.00    -0.388 OA
ATOM     34  H   UNL     1       8.414  23.566   0.936  1.00  0.00     0.211 HD
ENDBRANCH  25  33
ENDBRANCH  11  20
BRANCH  10  35
ATOM     35  O   UNL     1      12.830  20.648   1.840  1.00  0.00    -0.507 OA
ATOM     36  H   UNL     1      12.992  19.666   2.010  1.00  0.00     0.293 HD
ENDBRANCH  10  35
TORSDOF 9
ENDMDL
MODEL 5
REMARK VINA RESULT:    -2.178     14.350     18.160
REMARK INTER + INTRA:          -3.323
REMARK INTER:                  -2.750
REMARK INTRA:                  -0.573
REMARK UNBOUND:                -0.381
REMARK SMILES O=c1c(-c2ccc(O)cc2)coc2c([C@H]3O[C@@H](CO)[C@H](O)[C@H](O)[C@H]3O)c(O)ccc12
REMARK SMILES IDX 3 1 11 2 12 3 13 4 30 5 2 6 1 7 29 8 28 9 26 10 14 11 4 12
REMARK SMILES IDX 5 13 6 14 7 15 10 16 9 17 8 18 15 20 24 21 16 22 22 23 17 24
REMARK SMILES IDX 20 25 25 26 23 28 18 30 19 31 21 33 27 35
REMARK H PARENT 8 19 25 27 23 29 19 32 21 34 27 36
REMARK Flexibility Score: inf
ROOT
ATOM      1  C   UNL     1      11.902  23.583  -4.664  1.00  0.00     0.065 A 
ATOM      2  C   UNL     1      11.086  22.707  -3.935  1.00  0.00     0.208 A 
ATOM      3  O   UNL     1      11.244  22.561  -2.626  1.00  0.00    -0.463 OA
ATOM      4  C   UNL     1      12.159  23.220  -1.919  1.00  0.00     0.147 A 
ATOM      5  C   UNL     1      13.019  24.131  -2.575  1.00  0.00     0.066 A 
ATOM      6  C   UNL     1      12.882  24.311  -3.965  1.00  0.00     0.200 A 
ATOM      7  O   UNL     1      13.626  25.125  -4.580  1.00  0.00    -0.288 OA
ATOM      8  C   UNL     1      13.984  24.825  -1.835  1.00  0.00     0.020 A 
ATOM      9  C   UNL     1      14.125  24.589  -0.469  1.00  0.00     0.047 A 
ATOM     10  C   UNL     1      13.308  23.670   0.190  1.00  0.00     0.125 A 
ATOM     11  C   UNL     1      12.272  23.004  -0.520  1.00  0.00     0.069 A 
ENDROOT
BRANCH   1  12
ATOM     12  C   UNL     1      11.731  23.702  -6.132  1.00  0.00    -0.011 A 
ATOM     13  C   UNL     1      10.564  24.271  -6.670  1.00  0.00     0.013 A 
ATOM     14  C   UNL     1      10.417  24.406  -8.054  1.00  0.00     0.047 A 
ATOM     15  C   UNL     1      11.432  23.977  -8.916  1.00  0.00     0.115 A 
ATOM     16  C   UNL     1      12.751  23.277  -7.003  1.00  0.00     0.013 A 
ATOM     17  C   UNL     1      12.599  23.409  -8.387  1.00  0.00     0.047 A 
BRANCH  15  18
ATOM     18  O   UNL     1      11.270  24.120 -10.292  1.00  0.00    -0.508 OA
ATOM     19  H   UNL     1      10.430  24.528 -10.688  1.00  0.00     0.293 HD
ENDBRANCH  15  18
ENDBRANCH   1  12
BRANCH  11  20
ATOM     20  C   UNL     1      11.334  22.025   0.188  1.00  0.00     0.188 C 
ATOM     21  C   UNL     1      10.388  22.795   1.140  1.00  0.00     0.179 C 
ATOM     22  O   UNL     1      12.089  21.032   0.863  1.00  0.00    -0.362 OA
ATOM     23  C   UNL     1       9.427  21.839   1.894  1.00  0.00     0.177 C 
ATOM     24  C   UNL     1      11.336  20.154   1.698  1.00  0.00     0.176 C 
ATOM     25  C   UNL     1       9.791  20.356   1.689  1.00  0.00     0.177 C 
BRANCH  21  26
ATOM     26  O   UNL     1      11.147  23.532   2.066  1.00  0.00    -0.387 OA
ATOM     27  H   UNL     1      10.506  24.068   2.601  1.00  0.00     0.211 HD
ENDBRANCH  21  26
BRANCH  23  28
ATOM     28  O   UNL     1       8.104  22.078   1.482  1.00  0.00    -0.387 OA
ATOM     29  H   UNL     1       7.894  21.402   0.785  1.00  0.00     0.211 HD
ENDBRANCH  23  28
BRANCH  24  30
ATOM     30  C   UNL     1      11.899  20.241   3.125  1.00  0.00     0.191 C 
BRANCH  30  31
ATOM     31  O   UNL     1      13.144  20.882   3.098  1.00  0.00    -0.394 OA
ATOM     32  H   UNL     1      13.417  20.993   4.047  1.00  0.00     0.210 HD
ENDBRANCH  30  31
ENDBRANCH  24  30
BRANCH  25  33
ATOM     33  O   UNL     1       9.248  19.890   0.478  1.00  0.00    -0.388 OA
ATOM     34  H   UNL     1      10.014  19.669  -0.116  1.00  0.00     0.211 HD
ENDBRANCH  25  33
ENDBRANCH  11  20
BRANCH  10  35
ATOM     35  O   UNL     1      13.576  23.437   1.543  1.00  0.00    -0.507 OA
ATOM     36  H   UNL     1      13.061  23.858   2.302  1.00  0.00     0.293 HD
ENDBRANCH  10  35
TORSDOF 9
ENDMDL
