MODEL 1
REMARK VINA RESULT:    -7.487      0.000      0.000
REMARK INTER + INTRA:          -9.095
REMARK INTER:                  -8.800
REMARK INTRA:                  -0.295
REMARK UNBOUND:                -0.295
REMARK SMILES O=c1cc(-c2ccc(O)c(O)c2)oc2cc(O)cc(O)c12
REMARK SMILES IDX 4 1 3 2 2 3 1 4 21 5 19 6 18 7 16 8 15 9 14 10 13 11 5 12
REMARK SMILES IDX 6 13 7 14 8 15 12 16 10 17 9 18 11 20 20 22 17 24
REMARK H PARENT 9 19 11 21 20 23 17 25
REMARK Flexibility Score: inf
ROOT
ATOM      1  C   UNL     1     -11.774 -42.380 -10.115  1.00  0.00     0.138 A 
ATOM      2  C   UNL     1     -10.725 -41.567  -9.664  1.00  0.00     0.100 A 
ATOM      3  C   UNL     1      -9.409 -41.891  -9.996  1.00  0.00     0.197 A 
ATOM      4  O   UNL     1      -8.486 -41.174  -9.531  1.00  0.00    -0.289 OA
ATOM      5  C   UNL     1      -9.146 -43.017 -10.814  1.00  0.00     0.107 A 
ATOM      6  C   UNL     1      -7.847 -43.424 -11.245  1.00  0.00     0.134 A 
ATOM      7  C   UNL     1      -7.703 -44.613 -11.971  1.00  0.00     0.093 A 
ATOM      8  C   UNL     1      -8.812 -45.378 -12.331  1.00  0.00     0.123 A 
ATOM      9  C   UNL     1     -10.091 -44.962 -11.959  1.00  0.00     0.094 A 
ATOM     10  C   UNL     1     -10.266 -43.800 -11.205  1.00  0.00     0.146 A 
ATOM     11  O   UNL     1     -11.498 -43.449 -10.855  1.00  0.00    -0.456 OA
ENDROOT
BRANCH   1  12
ATOM     12  C   UNL     1     -13.193 -42.080  -9.794  1.00  0.00     0.021 A 
ATOM     13  C   UNL     1     -14.240 -42.920 -10.211  1.00  0.00     0.016 A 
ATOM     14  C   UNL     1     -15.565 -42.605  -9.903  1.00  0.00     0.051 A 
ATOM     15  C   UNL     1     -15.876 -41.450  -9.180  1.00  0.00     0.157 A 
ATOM     16  C   UNL     1     -13.507 -40.911  -9.081  1.00  0.00     0.062 A 
ATOM     17  C   UNL     1     -14.833 -40.589  -8.765  1.00  0.00     0.158 A 
BRANCH  15  18
ATOM     18  O   UNL     1     -17.221 -41.196  -8.902  1.00  0.00    -0.504 OA
ATOM     19  H   UNL     1     -17.541 -40.478  -8.268  1.00  0.00     0.293 HD
ENDBRANCH  15  18
BRANCH  17  20
ATOM     20  O   UNL     1     -15.066 -39.415  -8.045  1.00  0.00    -0.504 OA
ATOM     21  H   UNL     1     -15.460 -39.392  -7.116  1.00  0.00     0.293 HD
ENDBRANCH  17  20
ENDBRANCH   1  12
BRANCH   6  22
ATOM     22  O   UNL     1      -6.678 -42.695 -11.009  1.00  0.00    -0.507 OA
ATOM     23  H   UNL     1      -5.876 -43.033 -10.500  1.00  0.00     0.293 HD
ENDBRANCH   6  22
BRANCH   8  24
ATOM     24  O   UNL     1      -8.631 -46.547 -13.068  1.00  0.00    -0.508 OA
ATOM     25  H   UNL     1      -8.583 -46.533 -14.080  1.00  0.00     0.293 HD
ENDBRANCH   8  24
TORSDOF 5
ENDMDL
MODEL 2
REMARK VINA RESULT:    -7.402      4.362      7.069
REMARK INTER + INTRA:          -8.995
REMARK INTER:                  -8.697
REMARK INTRA:                  -0.298
REMARK UNBOUND:                -0.295
REMARK SMILES O=c1cc(-c2ccc(O)c(O)c2)oc2cc(O)cc(O)c12
REMARK SMILES IDX 4 1 3 2 2 3 1 4 21 5 19 6 18 7 16 8 15 9 14 10 13 11 5 12
REMARK SMILES IDX 6 13 7 14 8 15 12 16 10 17 9 18 11 20 20 22 17 24
REMARK H PARENT 9 19 11 21 20 23 17 25
REMARK Flexibility Score: inf
ROOT
ATOM      1  C   UNL     1     -12.819 -42.935  -6.438  1.00  0.00     0.138 A 
ATOM      2  C   UNL     1     -14.181 -43.262  -6.494  1.00  0.00     0.100 A 
ATOM      3  C   UNL     1     -14.976 -42.732  -7.511  1.00  0.00     0.197 A 
ATOM      4  O   UNL     1     -16.205 -42.998  -7.503  1.00  0.00    -0.289 OA
ATOM      5  C   UNL     1     -14.394 -41.898  -8.498  1.00  0.00     0.107 A 
ATOM      6  C   UNL     1     -15.099 -41.329  -9.601  1.00  0.00     0.134 A 
ATOM      7  C   UNL     1     -14.438 -40.440 -10.457  1.00  0.00     0.093 A 
ATOM      8  C   UNL     1     -13.086 -40.144 -10.286  1.00  0.00     0.123 A 
ATOM      9  C   UNL     1     -12.375 -40.735  -9.241  1.00  0.00     0.094 A 
ATOM     10  C   UNL     1     -13.013 -41.599  -8.349  1.00  0.00     0.146 A 
ATOM     11  O   UNL     1     -12.304 -42.126  -7.357  1.00  0.00    -0.456 OA
ENDROOT
BRANCH   1  12
ATOM     12  C   UNL     1     -11.927 -43.473  -5.379  1.00  0.00     0.021 A 
ATOM     13  C   UNL     1     -12.045 -44.794  -4.911  1.00  0.00     0.016 A 
ATOM     14  C   UNL     1     -11.197 -45.267  -3.907  1.00  0.00     0.051 A 
ATOM     15  C   UNL     1     -10.222 -44.438  -3.345  1.00  0.00     0.157 A 
ATOM     16  C   UNL     1     -10.956 -42.636  -4.803  1.00  0.00     0.062 A 
ATOM     17  C   UNL     1     -10.101 -43.104  -3.797  1.00  0.00     0.158 A 
BRANCH  15  18
ATOM     18  O   UNL     1      -9.405 -44.975  -2.347  1.00  0.00    -0.504 OA
ATOM     19  H   UNL     1      -8.426 -45.186  -2.472  1.00  0.00     0.293 HD
ENDBRANCH  15  18
BRANCH  17  20
ATOM     20  O   UNL     1      -9.155 -42.216  -3.280  1.00  0.00    -0.504 OA
ATOM     21  H   UNL     1      -9.140 -41.903  -2.320  1.00  0.00     0.293 HD
ENDBRANCH  17  20
ENDBRANCH   1  12
BRANCH   6  22
ATOM     22  O   UNL     1     -16.432 -41.616  -9.912  1.00  0.00    -0.507 OA
ATOM     23  H   UNL     1     -17.193 -41.625  -9.251  1.00  0.00     0.293 HD
ENDBRANCH   6  22
BRANCH   8  24
ATOM     24  O   UNL     1     -12.457 -39.267 -11.167  1.00  0.00    -0.508 OA
ATOM     25  H   UNL     1     -12.680 -39.260 -12.156  1.00  0.00     0.293 HD
ENDBRANCH   8  24
TORSDOF 5
ENDMDL
MODEL 3
REMARK VINA RESULT:    -7.347      4.217      6.864
REMARK INTER + INTRA:          -8.931
REMARK INTER:                  -8.668
REMARK INTRA:                  -0.263
REMARK UNBOUND:                -0.295
REMARK SMILES O=c1cc(-c2ccc(O)c(O)c2)oc2cc(O)cc(O)c12
REMARK SMILES IDX 4 1 3 2 2 3 1 4 21 5 19 6 18 7 16 8 15 9 14 10 13 11 5 12
REMARK SMILES IDX 6 13 7 14 8 15 12 16 10 17 9 18 11 20 20 22 17 24
REMARK H PARENT 9 19 11 21 20 23 17 25
REMARK Flexibility Score: inf
ROOT
ATOM      1  C   UNL     1     -11.873 -43.361  -6.986  1.00  0.00     0.138 A 
ATOM      2  C   UNL     1     -11.210 -43.335  -8.221  1.00  0.00     0.100 A 
ATOM      3  C   UNL     1     -11.892 -42.910  -9.361  1.00  0.00     0.197 A 
ATOM      4  O   UNL     1     -11.287 -42.950 -10.464  1.00  0.00    -0.289 OA
ATOM      5  C   UNL     1     -13.236 -42.474  -9.257  1.00  0.00     0.107 A 
ATOM      6  C   UNL     1     -14.021 -41.987 -10.346  1.00  0.00     0.134 A 
ATOM      7  C   UNL     1     -15.370 -41.678 -10.139  1.00  0.00     0.093 A 
ATOM      8  C   UNL     1     -15.949 -41.783  -8.875  1.00  0.00     0.123 A 
ATOM      9  C   UNL     1     -15.178 -42.210  -7.793  1.00  0.00     0.094 A 
ATOM     10  C   UNL     1     -13.838 -42.558  -7.973  1.00  0.00     0.146 A 
ATOM     11  O   UNL     1     -13.143 -42.978  -6.921  1.00  0.00    -0.456 OA
ENDROOT
BRANCH   1  12
ATOM     12  C   UNL     1     -11.195 -43.802  -5.741  1.00  0.00     0.021 A 
ATOM     13  C   UNL     1     -11.292 -45.124  -5.272  1.00  0.00     0.016 A 
ATOM     14  C   UNL     1     -10.651 -45.506  -4.092  1.00  0.00     0.051 A 
ATOM     15  C   UNL     1      -9.906 -44.582  -3.352  1.00  0.00     0.157 A 
ATOM     16  C   UNL     1     -10.458 -42.871  -4.989  1.00  0.00     0.062 A 
ATOM     17  C   UNL     1      -9.810 -43.246  -3.805  1.00  0.00     0.158 A 
BRANCH  15  18
ATOM     18  O   UNL     1      -9.287 -45.030  -2.183  1.00  0.00    -0.504 OA
ATOM     19  H   UNL     1      -9.098 -44.443  -1.384  1.00  0.00     0.293 HD
ENDBRANCH  15  18
BRANCH  17  20
ATOM     20  O   UNL     1      -9.090 -42.267  -3.117  1.00  0.00    -0.504 OA
ATOM     21  H   UNL     1      -8.230 -41.859  -3.453  1.00  0.00     0.293 HD
ENDBRANCH  17  20
ENDBRANCH   1  12
BRANCH   6  22
ATOM     22  O   UNL     1     -13.523 -41.768 -11.635  1.00  0.00    -0.507 OA
ATOM     23  H   UNL     1     -12.798 -42.311 -12.076  1.00  0.00     0.293 HD
ENDBRANCH   6  22
BRANCH   8  24
ATOM     24  O   UNL     1     -17.292 -41.452  -8.703  1.00  0.00    -0.508 OA
ATOM     25  H   UNL     1     -17.894 -41.985  -8.087  1.00  0.00     0.293 HD
ENDBRANCH   8  24
TORSDOF 5
ENDMDL
MODEL 4
REMARK VINA RESULT:    -7.325      9.891     12.900
REMARK INTER + INTRA:          -8.904
REMARK INTER:                  -8.624
REMARK INTRA:                  -0.281
REMARK UNBOUND:                -0.295
REMARK SMILES O=c1cc(-c2ccc(O)c(O)c2)oc2cc(O)cc(O)c12
REMARK SMILES IDX 4 1 3 2 2 3 1 4 21 5 19 6 18 7 16 8 15 9 14 10 13 11 5 12
REMARK SMILES IDX 6 13 7 14 8 15 12 16 10 17 9 18 11 20 20 22 17 24
REMARK H PARENT 9 19 11 21 20 23 17 25
REMARK Flexibility Score: inf
ROOT
ATOM      1  C   UNL     1     -16.212 -46.401  -1.655  1.00  0.00     0.138 A 
ATOM      2  C   UNL     1     -17.259 -45.530  -1.986  1.00  0.00     0.100 A 
ATOM      3  C   UNL     1     -17.995 -44.918  -0.970  1.00  0.00     0.197 A 
ATOM      4  O   UNL     1     -18.963 -44.184  -1.298  1.00  0.00    -0.289 OA
ATOM      5  C   UNL     1     -17.655 -45.153   0.385  1.00  0.00     0.107 A 
ATOM      6  C   UNL     1     -18.313 -44.557   1.504  1.00  0.00     0.134 A 
ATOM      7  C   UNL     1     -17.952 -44.943   2.800  1.00  0.00     0.093 A 
ATOM      8  C   UNL     1     -16.923 -45.857   3.022  1.00  0.00     0.123 A 
ATOM      9  C   UNL     1     -16.240 -46.407   1.937  1.00  0.00     0.094 A 
ATOM     10  C   UNL     1     -16.598 -46.069   0.630  1.00  0.00     0.146 A 
ATOM     11  O   UNL     1     -15.935 -46.630  -0.376  1.00  0.00    -0.456 OA
ENDROOT
BRANCH   1  12
ATOM     12  C   UNL     1     -15.396 -47.077  -2.695  1.00  0.00     0.021 A 
ATOM     13  C   UNL     1     -14.938 -48.396  -2.536  1.00  0.00     0.016 A 
ATOM     14  C   UNL     1     -14.163 -49.001  -3.528  1.00  0.00     0.051 A 
ATOM     15  C   UNL     1     -13.824 -48.306  -4.693  1.00  0.00     0.157 A 
ATOM     16  C   UNL     1     -15.042 -46.374  -3.859  1.00  0.00     0.062 A 
ATOM     17  C   UNL     1     -14.267 -46.974  -4.861  1.00  0.00     0.158 A 
BRANCH  15  18
ATOM     18  O   UNL     1     -13.049 -48.970  -5.647  1.00  0.00    -0.504 OA
ATOM     19  H   UNL     1     -12.083 -48.750  -5.843  1.00  0.00     0.293 HD
ENDBRANCH  15  18
BRANCH  17  20
ATOM     20  O   UNL     1     -13.964 -46.215  -5.993  1.00  0.00    -0.504 OA
ATOM     21  H   UNL     1     -13.650 -45.256  -5.963  1.00  0.00     0.293 HD
ENDBRANCH  17  20
ENDBRANCH   1  12
BRANCH   6  22
ATOM     22  O   UNL     1     -19.302 -43.574   1.400  1.00  0.00    -0.507 OA
ATOM     23  H   UNL     1     -19.811 -43.350   0.559  1.00  0.00     0.293 HD
ENDBRANCH   6  22
BRANCH   8  24
ATOM     24  O   UNL     1     -16.582 -46.206   4.327  1.00  0.00    -0.508 OA
ATOM     25  H   UNL     1     -15.750 -46.748   4.530  1.00  0.00     0.293 HD
ENDBRANCH   8  24
TORSDOF 5
ENDMDL
MODEL 5
REMARK VINA RESULT:    -7.194     10.531     12.666
REMARK INTER + INTRA:          -8.750
REMARK INTER:                  -8.468
REMARK INTRA:                  -0.282
REMARK UNBOUND:                -0.295
REMARK SMILES O=c1cc(-c2ccc(O)c(O)c2)oc2cc(O)cc(O)c12
REMARK SMILES IDX 4 1 3 2 2 3 1 4 21 5 19 6 18 7 16 8 15 9 14 10 13 11 5 12
REMARK SMILES IDX 6 13 7 14 8 15 12 16 10 17 9 18 11 20 20 22 17 24
REMARK H PARENT 9 19 11 21 20 23 17 25
REMARK Flexibility Score: inf
ROOT
ATOM      1  C   UNL     1     -17.420 -44.685   0.431  1.00  0.00     0.138 A 
ATOM      2  C   UNL     1     -18.063 -43.734  -0.373  1.00  0.00     0.100 A 
ATOM      3  C   UNL     1     -17.852 -43.742  -1.753  1.00  0.00     0.197 A 
ATOM      4  O   UNL     1     -18.399 -42.842  -2.442  1.00  0.00    -0.289 OA
ATOM      5  C   UNL     1     -17.019 -44.730  -2.332  1.00  0.00     0.107 A 
ATOM      6  C   UNL     1     -16.758 -44.857  -3.730  1.00  0.00     0.134 A 
ATOM      7  C   UNL     1     -15.838 -45.814  -4.175  1.00  0.00     0.093 A 
ATOM      8  C   UNL     1     -15.214 -46.686  -3.284  1.00  0.00     0.123 A 
ATOM      9  C   UNL     1     -15.501 -46.604  -1.921  1.00  0.00     0.094 A 
ATOM     10  C   UNL     1     -16.388 -45.638  -1.440  1.00  0.00     0.146 A 
ATOM     11  O   UNL     1     -16.619 -45.581  -0.133  1.00  0.00    -0.456 OA
ENDROOT
BRANCH   1  12
ATOM     12  C   UNL     1     -17.612 -44.724   1.903  1.00  0.00     0.021 A 
ATOM     13  C   UNL     1     -16.568 -45.078   2.777  1.00  0.00     0.016 A 
ATOM     14  C   UNL     1     -16.782 -45.115   4.156  1.00  0.00     0.051 A 
ATOM     15  C   UNL     1     -18.036 -44.808   4.694  1.00  0.00     0.157 A 
ATOM     16  C   UNL     1     -18.875 -44.430   2.444  1.00  0.00     0.062 A 
ATOM     17  C   UNL     1     -19.098 -44.463   3.826  1.00  0.00     0.158 A 
BRANCH  15  18
ATOM     18  O   UNL     1     -18.182 -44.862   6.082  1.00  0.00    -0.504 OA
ATOM     19  H   UNL     1     -18.209 -44.048   6.679  1.00  0.00     0.293 HD
ENDBRANCH  15  18
BRANCH  17  20
ATOM     20  O   UNL     1     -20.378 -44.150   4.289  1.00  0.00    -0.504 OA
ATOM     21  H   UNL     1     -20.880 -44.697   4.972  1.00  0.00     0.293 HD
ENDBRANCH  17  20
ENDBRANCH   1  12
BRANCH   6  22
ATOM     22  O   UNL     1     -17.385 -44.091  -4.718  1.00  0.00    -0.507 OA
ATOM     23  H   UNL     1     -17.578 -44.401  -5.657  1.00  0.00     0.293 HD
ENDBRANCH   6  22
BRANCH   8  24
ATOM     24  O   UNL     1     -14.316 -47.636  -3.765  1.00  0.00    -0.508 OA
ATOM     25  H   UNL     1     -14.288 -47.888  -4.746  1.00  0.00     0.293 HD
ENDBRANCH   8  24
TORSDOF 5
ENDMDL
MODEL 6
REMARK VINA RESULT:    -7.101      9.722     12.117
REMARK INTER + INTRA:          -8.641
REMARK INTER:                  -8.347
REMARK INTRA:                  -0.295
REMARK UNBOUND:                -0.295
REMARK SMILES O=c1cc(-c2ccc(O)c(O)c2)oc2cc(O)cc(O)c12
REMARK SMILES IDX 4 1 3 2 2 3 1 4 21 5 19 6 18 7 16 8 15 9 14 10 13 11 5 12
REMARK SMILES IDX 6 13 7 14 8 15 12 16 10 17 9 18 11 20 20 22 17 24
REMARK H PARENT 9 19 11 21 20 23 17 25
REMARK Flexibility Score: inf
ROOT
ATOM      1  C   UNL     1     -15.601 -43.859  -0.548  1.00  0.00     0.138 A 
ATOM      2  C   UNL     1     -16.478 -44.419   0.392  1.00  0.00     0.100 A 
ATOM      3  C   UNL     1     -16.084 -44.521   1.726  1.00  0.00     0.197 A 
ATOM      4  O   UNL     1     -16.870 -45.078   2.536  1.00  0.00    -0.289 OA
ATOM      5  C   UNL     1     -14.818 -44.028   2.127  1.00  0.00     0.107 A 
ATOM      6  C   UNL     1     -14.323 -44.047   3.467  1.00  0.00     0.134 A 
ATOM      7  C   UNL     1     -13.015 -43.620   3.725  1.00  0.00     0.093 A 
ATOM      8  C   UNL     1     -12.205 -43.122   2.706  1.00  0.00     0.123 A 
ATOM      9  C   UNL     1     -12.696 -43.050   1.402  1.00  0.00     0.094 A 
ATOM     10  C   UNL     1     -13.984 -43.501   1.105  1.00  0.00     0.146 A 
ATOM     11  O   UNL     1     -14.407 -43.433  -0.153  1.00  0.00    -0.456 OA
ENDROOT
BRANCH   1  12
ATOM     12  C   UNL     1     -15.970 -43.723  -1.980  1.00  0.00     0.021 A 
ATOM     13  C   UNL     1     -15.055 -43.256  -2.940  1.00  0.00     0.016 A 
ATOM     14  C   UNL     1     -15.435 -43.129  -4.278  1.00  0.00     0.051 A 
ATOM     15  C   UNL     1     -16.731 -43.458  -4.687  1.00  0.00     0.157 A 
ATOM     16  C   UNL     1     -17.277 -44.039  -2.390  1.00  0.00     0.062 A 
ATOM     17  C   UNL     1     -17.666 -43.917  -3.730  1.00  0.00     0.158 A 
BRANCH  15  18
ATOM     18  O   UNL     1     -17.045 -43.311  -6.040  1.00  0.00    -0.504 OA
ATOM     19  H   UNL     1     -16.377 -43.046  -6.749  1.00  0.00     0.293 HD
ENDBRANCH  15  18
BRANCH  17  20
ATOM     20  O   UNL     1     -18.978 -44.259  -4.062  1.00  0.00    -0.504 OA
ATOM     21  H   UNL     1     -19.279 -45.197  -4.283  1.00  0.00     0.293 HD
ENDBRANCH  17  20
ENDBRANCH   1  12
BRANCH   6  22
ATOM     22  O   UNL     1     -15.075 -44.452   4.574  1.00  0.00    -0.507 OA
ATOM     23  H   UNL     1     -16.075 -44.580   4.581  1.00  0.00     0.293 HD
ENDBRANCH   6  22
BRANCH   8  24
ATOM     24  O   UNL     1     -10.913 -42.691   3.003  1.00  0.00    -0.508 OA
ATOM     25  H   UNL     1     -10.099 -43.230   2.731  1.00  0.00     0.293 HD
ENDBRANCH   8  24
TORSDOF 5
ENDMDL
MODEL 7
REMARK VINA RESULT:    -7.086      1.209      2.667
REMARK INTER + INTRA:          -8.624
REMARK INTER:                  -8.308
REMARK INTRA:                  -0.316
REMARK UNBOUND:                -0.295
REMARK SMILES O=c1cc(-c2ccc(O)c(O)c2)oc2cc(O)cc(O)c12
REMARK SMILES IDX 4 1 3 2 2 3 1 4 21 5 19 6 18 7 16 8 15 9 14 10 13 11 5 12
REMARK SMILES IDX 6 13 7 14 8 15 12 16 10 17 9 18 11 20 20 22 17 24
REMARK H PARENT 9 19 11 21 20 23 17 25
REMARK Flexibility Score: inf
ROOT
ATOM      1  C   UNL     1     -11.697 -43.111 -10.603  1.00  0.00     0.138 A 
ATOM      2  C   UNL     1     -11.752 -44.442 -11.041  1.00  0.00     0.100 A 
ATOM      3  C   UNL     1     -10.590 -45.066 -11.497  1.00  0.00     0.197 A 
ATOM      4  O   UNL     1     -10.682 -46.242 -11.936  1.00  0.00    -0.289 OA
ATOM      5  C   UNL     1      -9.360 -44.365 -11.481  1.00  0.00     0.107 A 
ATOM      6  C   UNL     1      -8.106 -44.911 -11.890  1.00  0.00     0.134 A 
ATOM      7  C   UNL     1      -6.973 -44.088 -11.922  1.00  0.00     0.093 A 
ATOM      8  C   UNL     1      -7.035 -42.758 -11.507  1.00  0.00     0.123 A 
ATOM      9  C   UNL     1      -8.245 -42.229 -11.057  1.00  0.00     0.094 A 
ATOM     10  C   UNL     1      -9.401 -43.013 -11.045  1.00  0.00     0.146 A 
ATOM     11  O   UNL     1     -10.537 -42.465 -10.627  1.00  0.00    -0.456 OA
ENDROOT
BRANCH   1  12
ATOM     12  C   UNL     1     -12.901 -42.399 -10.105  1.00  0.00     0.021 A 
ATOM     13  C   UNL     1     -14.086 -43.084  -9.783  1.00  0.00     0.016 A 
ATOM     14  C   UNL     1     -15.206 -42.385  -9.327  1.00  0.00     0.051 A 
ATOM     15  C   UNL     1     -15.173 -40.994  -9.188  1.00  0.00     0.157 A 
ATOM     16  C   UNL     1     -12.874 -41.000  -9.980  1.00  0.00     0.062 A 
ATOM     17  C   UNL     1     -13.991 -40.291  -9.521  1.00  0.00     0.158 A 
BRANCH  15  18
ATOM     18  O   UNL     1     -16.326 -40.357  -8.724  1.00  0.00    -0.504 OA
ATOM     19  H   UNL     1     -17.262 -40.605  -9.011  1.00  0.00     0.293 HD
ENDBRANCH  15  18
BRANCH  17  20
ATOM     20  O   UNL     1     -13.885 -38.903  -9.413  1.00  0.00    -0.504 OA
ATOM     21  H   UNL     1     -14.212 -38.372  -8.620  1.00  0.00     0.293 HD
ENDBRANCH  17  20
ENDBRANCH   1  12
BRANCH   6  22
ATOM     22  O   UNL     1      -7.913 -46.248 -12.250  1.00  0.00    -0.507 OA
ATOM     23  H   UNL     1      -7.946 -46.605 -13.192  1.00  0.00     0.293 HD
ENDBRANCH   6  22
BRANCH   8  24
ATOM     24  O   UNL     1      -5.884 -41.974 -11.537  1.00  0.00    -0.508 OA
ATOM     25  H   UNL     1      -5.724 -41.241 -10.856  1.00  0.00     0.293 HD
ENDBRANCH   8  24
TORSDOF 5
ENDMDL
MODEL 8
REMARK VINA RESULT:    -7.028      5.205      7.203
REMARK INTER + INTRA:          -8.555
REMARK INTER:                  -8.251
REMARK INTRA:                  -0.304
REMARK UNBOUND:                -0.295
REMARK SMILES O=c1cc(-c2ccc(O)c(O)c2)oc2cc(O)cc(O)c12
REMARK SMILES IDX 4 1 3 2 2 3 1 4 21 5 19 6 18 7 16 8 15 9 14 10 13 11 5 12
REMARK SMILES IDX 6 13 7 14 8 15 12 16 10 17 9 18 11 20 20 22 17 24
REMARK H PARENT 9 19 11 21 20 23 17 25
REMARK Flexibility Score: inf
ROOT
ATOM      1  C   UNL     1     -11.357 -42.538  -5.400  1.00  0.00     0.138 A 
ATOM      2  C   UNL     1     -10.535 -43.000  -6.438  1.00  0.00     0.100 A 
ATOM      3  C   UNL     1     -10.851 -42.685  -7.760  1.00  0.00     0.197 A 
ATOM      4  O   UNL     1     -10.127 -43.160  -8.672  1.00  0.00    -0.289 OA
ATOM      5  C   UNL     1     -11.977 -41.873  -8.041  1.00  0.00     0.107 A 
ATOM      6  C   UNL     1     -12.377 -41.459  -9.348  1.00  0.00     0.134 A 
ATOM      7  C   UNL     1     -13.566 -40.738  -9.509  1.00  0.00     0.093 A 
ATOM      8  C   UNL     1     -14.339 -40.366  -8.410  1.00  0.00     0.123 A 
ATOM      9  C   UNL     1     -13.932 -40.722  -7.124  1.00  0.00     0.094 A 
ATOM     10  C   UNL     1     -12.769 -41.471  -6.932  1.00  0.00     0.146 A 
ATOM     11  O   UNL     1     -12.425 -41.805  -5.692  1.00  0.00    -0.456 OA
ENDROOT
BRANCH   1  12
ATOM     12  C   UNL     1     -11.066 -42.841  -3.976  1.00  0.00     0.021 A 
ATOM     13  C   UNL     1      -9.751 -42.996  -3.505  1.00  0.00     0.016 A 
ATOM     14  C   UNL     1      -9.510 -43.291  -2.162  1.00  0.00     0.051 A 
ATOM     15  C   UNL     1     -10.569 -43.444  -1.262  1.00  0.00     0.157 A 
ATOM     16  C   UNL     1     -12.131 -43.010  -3.074  1.00  0.00     0.062 A 
ATOM     17  C   UNL     1     -11.898 -43.304  -1.724  1.00  0.00     0.158 A 
BRANCH  15  18
ATOM     18  O   UNL     1     -10.259 -43.735   0.068  1.00  0.00    -0.504 OA
ATOM     19  H   UNL     1     -10.029 -44.659   0.405  1.00  0.00     0.293 HD
ENDBRANCH  15  18
BRANCH  17  20
ATOM     20  O   UNL     1     -13.007 -43.448  -0.888  1.00  0.00    -0.504 OA
ATOM     21  H   UNL     1     -13.964 -43.386  -1.203  1.00  0.00     0.293 HD
ENDBRANCH  17  20
ENDBRANCH   1  12
BRANCH   6  22
ATOM     22  O   UNL     1     -11.638 -41.708 -10.509  1.00  0.00    -0.507 OA
ATOM     23  H   UNL     1     -10.907 -41.114 -10.869  1.00  0.00     0.293 HD
ENDBRANCH   6  22
BRANCH   8  24
ATOM     24  O   UNL     1     -15.509 -39.635  -8.608  1.00  0.00    -0.508 OA
ATOM     25  H   UNL     1     -15.483 -38.654  -8.860  1.00  0.00     0.293 HD
ENDBRANCH   8  24
TORSDOF 5
ENDMDL
MODEL 9
REMARK VINA RESULT:    -6.950     10.709     12.114
REMARK INTER + INTRA:          -8.464
REMARK INTER:                  -8.170
REMARK INTRA:                  -0.294
REMARK UNBOUND:                -0.295
REMARK SMILES O=c1cc(-c2ccc(O)c(O)c2)oc2cc(O)cc(O)c12
REMARK SMILES IDX 4 1 3 2 2 3 1 4 21 5 19 6 18 7 16 8 15 9 14 10 13 11 5 12
REMARK SMILES IDX 6 13 7 14 8 15 12 16 10 17 9 18 11 20 20 22 17 24
REMARK H PARENT 9 19 11 21 20 23 17 25
REMARK Flexibility Score: inf
ROOT
ATOM      1  C   UNL     1     -15.746 -46.772  -0.023  1.00  0.00     0.138 A 
ATOM      2  C   UNL     1     -15.101 -48.012  -0.134  1.00  0.00     0.100 A 
ATOM      3  C   UNL     1     -14.674 -48.457  -1.386  1.00  0.00     0.197 A 
ATOM      4  O   UNL     1     -14.148 -49.598  -1.462  1.00  0.00    -0.289 OA
ATOM      5  C   UNL     1     -14.863 -47.640  -2.527  1.00  0.00     0.107 A 
ATOM      6  C   UNL     1     -14.439 -47.975  -3.848  1.00  0.00     0.134 A 
ATOM      7  C   UNL     1     -14.770 -47.130  -4.914  1.00  0.00     0.093 A 
ATOM      8  C   UNL     1     -15.458 -45.936  -4.701  1.00  0.00     0.123 A 
ATOM      9  C   UNL     1     -15.833 -45.573  -3.407  1.00  0.00     0.094 A 
ATOM     10  C   UNL     1     -15.548 -46.411  -2.327  1.00  0.00     0.146 A 
ATOM     11  O   UNL     1     -15.939 -46.039  -1.112  1.00  0.00    -0.456 OA
ENDROOT
BRANCH   1  12
ATOM     12  C   UNL     1     -16.217 -46.249   1.285  1.00  0.00     0.021 A 
ATOM     13  C   UNL     1     -16.978 -45.070   1.379  1.00  0.00     0.016 A 
ATOM     14  C   UNL     1     -17.398 -44.597   2.624  1.00  0.00     0.051 A 
ATOM     15  C   UNL     1     -17.067 -45.281   3.798  1.00  0.00     0.157 A 
ATOM     16  C   UNL     1     -15.872 -46.927   2.466  1.00  0.00     0.062 A 
ATOM     17  C   UNL     1     -16.291 -46.461   3.718  1.00  0.00     0.158 A 
BRANCH  15  18
ATOM     18  O   UNL     1     -17.521 -44.756   5.010  1.00  0.00    -0.504 OA
ATOM     19  H   UNL     1     -18.443 -44.368   5.147  1.00  0.00     0.293 HD
ENDBRANCH  15  18
BRANCH  17  20
ATOM     20  O   UNL     1     -15.916 -47.195   4.846  1.00  0.00    -0.504 OA
ATOM     21  H   UNL     1     -15.141 -46.952   5.445  1.00  0.00     0.293 HD
ENDBRANCH  17  20
ENDBRANCH   1  12
BRANCH   6  22
ATOM     22  O   UNL     1     -13.677 -49.105  -4.164  1.00  0.00    -0.507 OA
ATOM     23  H   UNL     1     -13.921 -50.053  -3.926  1.00  0.00     0.293 HD
ENDBRANCH   6  22
BRANCH   8  24
ATOM     24  O   UNL     1     -15.757 -45.112  -5.784  1.00  0.00    -0.508 OA
ATOM     25  H   UNL     1     -16.459 -45.370  -6.468  1.00  0.00     0.293 HD
ENDBRANCH   8  24
TORSDOF 5
ENDMDL
