MODEL 1
REMARK VINA RESULT:    -4.242      0.000      0.000
REMARK INTER + INTRA:          -5.778
REMARK INTER:                  -5.730
REMARK INTRA:                  -0.048
REMARK UNBOUND:                -0.048
REMARK SMILES C=C1C(=O)O[C@H]2[C@@H]1CCC(C)=CCC[C@]1(C)O[C@H]21
REMARK SMILES IDX 6 1 7 2 2 3 1 4 3 5 4 6 5 7 8 8 9 9 10 10 11 11 12 12 18 14
REMARK SMILES IDX 15 15 17 16 16 17 14 18 13 19
REMARK H PARENT
REMARK Flexibility Score: 70.00
ROOT
ATOM      1  C   UNL     1       1.845  -6.912 -36.350  1.00  0.00     0.216 C 
ATOM      2  C   UNL     1       2.343  -7.531 -37.715  1.00  0.00     0.070 C 
ATOM      3  C   UNL     1       3.763  -7.042 -37.817  1.00  0.00     0.037 C 
ATOM      4  C   UNL     1       4.583  -7.214 -38.855  1.00  0.00     0.021 C 
ATOM      5  C   UNL     1       4.019  -6.176 -36.696  1.00  0.00     0.334 C 
ATOM      6  O   UNL     1       5.094  -5.558 -36.477  1.00  0.00    -0.247 OA
ATOM      7  O   UNL     1       2.909  -6.078 -35.891  1.00  0.00    -0.455 OA
ENDROOT
BRANCH   2   8
ATOM      8  C   UNL     1       2.238  -9.083 -37.883  1.00  0.00     0.017 C 
BRANCH   8   9
ATOM      9  C   UNL     1       1.263  -9.526 -39.000  1.00  0.00     0.031 C 
BRANCH   9  10
ATOM     10  C   UNL     1       0.179  -8.501 -39.280  1.00  0.00    -0.077 C 
ATOM     11  C   UNL     1       0.261  -7.690 -40.549  1.00  0.00     0.039 C 
ATOM     12  C   UNL     1      -0.849  -8.253 -38.436  1.00  0.00    -0.028 CG0
ATOM     13  G   UNL     1      -1.144  -9.025 -37.174  1.00  0.00     0.000 G0
ENDBRANCH   9  10
ENDBRANCH   8   9
ENDBRANCH   2   8
BRANCH   1  14
ATOM     14  C   UNL     1       1.548  -7.926 -35.236  1.00  0.00     0.192 C 
ATOM     15  C   UNL     1       0.181  -8.495 -35.034  1.00  0.00     0.096 C 
ATOM     16  O   UNL     1       0.639  -7.380 -34.303  1.00  0.00    -0.362 OA
ATOM     17  C   UNL     1       0.068  -9.729 -34.134  1.00  0.00     0.045 C 
BRANCH  15  18
ATOM     18  C   UNL     1      -1.022  -8.129 -35.932  1.00  0.00     0.042 C 
BRANCH  18  19
ATOM     19  C   UNL     1      -1.158  -9.021 -37.175  1.00  0.00     0.030 CG0
ATOM     20  G   UNL     1      -0.849  -8.263 -38.442  1.00  0.00     0.000 G0
ENDBRANCH  18  19
ENDBRANCH  15  18
ENDBRANCH   1  14
TORSDOF 0
ENDMDL
MODEL 2
REMARK VINA RESULT:    -4.179      3.795      5.885
REMARK INTER + INTRA:          -5.692
REMARK INTER:                  -5.641
REMARK INTRA:                  -0.051
REMARK UNBOUND:                -0.048
REMARK SMILES C=C1C(=O)O[C@H]2[C@@H]1CCC(C)=CCC[C@]1(C)O[C@H]21
REMARK SMILES IDX 6 1 7 2 2 3 1 4 3 5 4 6 5 7 8 8 9 9 10 10 11 11 12 12 18 14
REMARK SMILES IDX 15 15 17 16 16 17 14 18 13 19
REMARK H PARENT
REMARK Flexibility Score: 70.00
ROOT
ATOM      1  C   UNL     1       5.655  -9.317 -35.867  1.00  0.00     0.216 C 
ATOM      2  C   UNL     1       4.130  -9.038 -36.170  1.00  0.00     0.070 C 
ATOM      3  C   UNL     1       3.429 -10.176 -35.480  1.00  0.00     0.037 C 
ATOM      4  C   UNL     1       2.123 -10.444 -35.531  1.00  0.00     0.021 C 
ATOM      5  C   UNL     1       4.430 -11.050 -34.927  1.00  0.00     0.334 C 
ATOM      6  O   UNL     1       4.206 -12.125 -34.310  1.00  0.00    -0.247 OA
ATOM      7  O   UNL     1       5.692 -10.572 -35.188  1.00  0.00    -0.455 OA
ENDROOT
BRANCH   2   8
ATOM      8  C   UNL     1       3.556  -7.645 -35.749  1.00  0.00     0.017 C 
BRANCH   8   9
ATOM      9  C   UNL     1       3.208  -6.725 -36.944  1.00  0.00     0.031 C 
BRANCH   9  10
ATOM     10  C   UNL     1       3.896  -7.142 -38.231  1.00  0.00    -0.077 C 
ATOM     11  C   UNL     1       3.107  -7.919 -39.254  1.00  0.00     0.039 C 
ATOM     12  C   UNL     1       5.195  -6.877 -38.502  1.00  0.00    -0.028 CG0
ATOM     13  G   UNL     1       6.109  -6.036 -37.645  1.00  0.00     0.000 G0
ENDBRANCH   9  10
ENDBRANCH   8   9
ENDBRANCH   2   8
BRANCH   1  14
ATOM     14  C   UNL     1       6.346  -8.288 -34.961  1.00  0.00     0.192 C 
ATOM     15  C   UNL     1       7.115  -7.136 -35.523  1.00  0.00     0.096 C 
ATOM     16  O   UNL     1       7.747  -8.336 -35.141  1.00  0.00    -0.362 OA
ATOM     17  C   UNL     1       7.469  -6.001 -34.558  1.00  0.00     0.045 C 
BRANCH  15  18
ATOM     18  C   UNL     1       7.254  -6.879 -37.040  1.00  0.00     0.042 C 
BRANCH  18  19
ATOM     19  C   UNL     1       6.117  -6.034 -37.631  1.00  0.00     0.030 CG0
ATOM     20  G   UNL     1       5.197  -6.860 -38.495  1.00  0.00     0.000 G0
ENDBRANCH  18  19
ENDBRANCH  15  18
ENDBRANCH   1  14
TORSDOF 0
ENDMDL
MODEL 3
REMARK VINA RESULT:    -4.148      3.109      4.507
REMARK INTER + INTRA:          -5.652
REMARK INTER:                  -5.611
REMARK INTRA:                  -0.041
REMARK UNBOUND:                -0.048
REMARK SMILES C=C1C(=O)O[C@H]2[C@@H]1CCC(C)=CCC[C@]1(C)O[C@H]21
REMARK SMILES IDX 6 1 7 2 2 3 1 4 3 5 4 6 5 7 8 8 9 9 10 10 11 11 12 12 18 14
REMARK SMILES IDX 15 15 17 16 16 17 14 18 13 19
REMARK H PARENT
REMARK Flexibility Score: 70.00
ROOT
ATOM      1  C   UNL     1       3.860  -9.432 -35.885  1.00  0.00     0.216 C 
ATOM      2  C   UNL     1       4.978  -8.319 -35.959  1.00  0.00     0.070 C 
ATOM      3  C   UNL     1       6.212  -9.040 -35.489  1.00  0.00     0.037 C 
ATOM      4  C   UNL     1       7.410  -8.493 -35.276  1.00  0.00     0.021 C 
ATOM      5  C   UNL     1       5.833 -10.374 -35.108  1.00  0.00     0.334 C 
ATOM      6  O   UNL     1       6.605 -11.249 -34.633  1.00  0.00    -0.247 OA
ATOM      7  O   UNL     1       4.486 -10.573 -35.300  1.00  0.00    -0.455 OA
ENDROOT
BRANCH   2   8
ATOM      8  C   UNL     1       5.195  -7.606 -37.335  1.00  0.00     0.017 C 
BRANCH   8   9
ATOM      9  C   UNL     1       4.670  -6.151 -37.374  1.00  0.00     0.031 C 
BRANCH   9  10
ATOM     10  C   UNL     1       3.737  -5.826 -36.221  1.00  0.00    -0.077 C 
ATOM     11  C   UNL     1       4.300  -5.124 -35.012  1.00  0.00     0.039 C 
ATOM     12  C   UNL     1       2.427  -6.160 -36.206  1.00  0.00    -0.028 CG0
ATOM     13  G   UNL     1       1.672  -6.779 -37.357  1.00  0.00     0.000 G0
ENDBRANCH   9  10
ENDBRANCH   8   9
ENDBRANCH   2   8
BRANCH   1  14
ATOM     14  C   UNL     1       3.280  -9.874 -37.237  1.00  0.00     0.192 C 
ATOM     15  C   UNL     1       2.013  -9.295 -37.777  1.00  0.00     0.096 C 
ATOM     16  O   UNL     1       2.030 -10.504 -37.053  1.00  0.00    -0.362 OA
ATOM     17  C   UNL     1       1.708  -9.547 -39.256  1.00  0.00     0.045 C 
BRANCH  15  18
ATOM     18  C   UNL     1       1.206  -8.203 -37.038  1.00  0.00     0.042 C 
BRANCH  18  19
ATOM     19  C   UNL     1       1.661  -6.773 -37.363  1.00  0.00     0.030 CG0
ATOM     20  G   UNL     1       2.430  -6.158 -36.220  1.00  0.00     0.000 G0
ENDBRANCH  18  19
ENDBRANCH  15  18
ENDBRANCH   1  14
TORSDOF 0
ENDMDL
MODEL 4
REMARK VINA RESULT:    -4.045     10.232     12.289
REMARK INTER + INTRA:          -5.512
REMARK INTER:                  -5.456
REMARK INTRA:                  -0.057
REMARK UNBOUND:                -0.048
REMARK SMILES C=C1C(=O)O[C@H]2[C@@H]1CCC(C)=CCC[C@]1(C)O[C@H]21
REMARK SMILES IDX 6 1 7 2 2 3 1 4 3 5 4 6 5 7 8 8 9 9 10 10 11 11 12 12 18 14
REMARK SMILES IDX 15 15 17 16 16 17 14 18 13 19
REMARK H PARENT
REMARK Flexibility Score: 70.00
ROOT
ATOM      1  C   UNL     1       2.993   2.463 -35.748  1.00  0.00     0.216 C 
ATOM      2  C   UNL     1       3.639   2.438 -37.188  1.00  0.00     0.070 C 
ATOM      3  C   UNL     1       2.651   1.640 -37.995  1.00  0.00     0.037 C 
ATOM      4  C   UNL     1       2.800   1.252 -39.262  1.00  0.00     0.021 C 
ATOM      5  C   UNL     1       1.613   1.186 -37.108  1.00  0.00     0.334 C 
ATOM      6  O   UNL     1       0.636   0.459 -37.432  1.00  0.00    -0.247 OA
ATOM      7  O   UNL     1       1.839   1.627 -35.825  1.00  0.00    -0.455 OA
ENDROOT
BRANCH   2   8
ATOM      8  C   UNL     1       3.971   3.816 -37.852  1.00  0.00     0.017 C 
BRANCH   8   9
ATOM      9  C   UNL     1       5.485   4.064 -38.053  1.00  0.00     0.031 C 
BRANCH   9  10
ATOM     10  C   UNL     1       6.349   3.252 -37.106  1.00  0.00    -0.077 C 
ATOM     11  C   UNL     1       7.081   2.049 -37.646  1.00  0.00     0.039 C 
ATOM     12  C   UNL     1       6.477   3.531 -35.789  1.00  0.00    -0.028 CG0
ATOM     13  G   UNL     1       5.898   4.739 -35.094  1.00  0.00     0.000 G0
ENDBRANCH   9  10
ENDBRANCH   8   9
ENDBRANCH   2   8
BRANCH   1  14
ATOM     14  C   UNL     1       2.524   3.842 -35.259  1.00  0.00     0.192 C 
ATOM     15  C   UNL     1       3.405   4.726 -34.437  1.00  0.00     0.096 C 
ATOM     16  O   UNL     1       2.456   3.866 -33.848  1.00  0.00    -0.362 OA
ATOM     17  C   UNL     1       2.979   6.190 -34.294  1.00  0.00     0.045 C 
BRANCH  15  18
ATOM     18  C   UNL     1       4.846   4.339 -34.037  1.00  0.00     0.042 C 
BRANCH  18  19
ATOM     19  C   UNL     1       5.903   4.735 -35.079  1.00  0.00     0.030 CG0
ATOM     20  G   UNL     1       6.475   3.529 -35.781  1.00  0.00     0.000 G0
ENDBRANCH  18  19
ENDBRANCH  15  18
ENDBRANCH   1  14
TORSDOF 0
ENDMDL
MODEL 5
REMARK VINA RESULT:    -4.012     11.040     12.991
REMARK INTER + INTRA:          -5.467
REMARK INTER:                  -5.412
REMARK INTRA:                  -0.055
REMARK UNBOUND:                -0.048
REMARK SMILES C=C1C(=O)O[C@H]2[C@@H]1CCC(C)=CCC[C@]1(C)O[C@H]21
REMARK SMILES IDX 6 1 7 2 2 3 1 4 3 5 4 6 5 7 8 8 9 9 10 10 11 11 12 12 18 14
REMARK SMILES IDX 15 15 17 16 16 17 14 18 13 19
REMARK H PARENT
REMARK Flexibility Score: 70.00
ROOT
ATOM      1  C   UNL     1       3.705   4.009 -35.856  1.00  0.00     0.216 C 
ATOM      2  C   UNL     1       5.233   4.378 -36.010  1.00  0.00     0.070 C 
ATOM      3  C   UNL     1       5.791   4.111 -34.638  1.00  0.00     0.037 C 
ATOM      4  C   UNL     1       7.033   4.371 -34.229  1.00  0.00     0.021 C 
ATOM      5  C   UNL     1       4.702   3.724 -33.780  1.00  0.00     0.334 C 
ATOM      6  O   UNL     1       4.794   3.461 -32.552  1.00  0.00    -0.247 OA
ATOM      7  O   UNL     1       3.515   3.708 -34.474  1.00  0.00    -0.455 OA
ENDROOT
BRANCH   2   8
ATOM      8  C   UNL     1       6.041   3.645 -37.131  1.00  0.00     0.017 C 
BRANCH   8   9
ATOM      9  C   UNL     1       6.430   4.557 -38.320  1.00  0.00     0.031 C 
BRANCH   9  10
ATOM     10  C   UNL     1       5.610   5.833 -38.379  1.00  0.00    -0.077 C 
ATOM     11  C   UNL     1       6.213   7.106 -37.841  1.00  0.00     0.039 C 
ATOM     12  C   UNL     1       4.349   5.886 -38.865  1.00  0.00    -0.028 CG0
ATOM     13  G   UNL     1       3.621   4.742 -39.526  1.00  0.00     0.000 G0
ENDBRANCH   9  10
ENDBRANCH   8   9
ENDBRANCH   2   8
BRANCH   1  14
ATOM     14  C   UNL     1       3.239   2.784 -36.657  1.00  0.00     0.192 C 
ATOM     15  C   UNL     1       2.611   2.918 -38.006  1.00  0.00     0.096 C 
ATOM     16  O   UNL     1       1.838   2.815 -36.833  1.00  0.00    -0.362 OA
ATOM     17  C   UNL     1       2.498   1.645 -38.849  1.00  0.00     0.045 C 
BRANCH  15  18
ATOM     18  C   UNL     1       2.404   4.281 -38.704  1.00  0.00     0.042 C 
BRANCH  18  19
ATOM     19  C   UNL     1       3.610   4.739 -39.537  1.00  0.00     0.030 CG0
ATOM     20  G   UNL     1       4.344   5.880 -38.876  1.00  0.00     0.000 G0
ENDBRANCH  18  19
ENDBRANCH  15  18
ENDBRANCH   1  14
TORSDOF 0
ENDMDL
MODEL 6
REMARK VINA RESULT:    -3.954      1.994      4.643
REMARK INTER + INTRA:          -5.389
REMARK INTER:                  -5.337
REMARK INTRA:                  -0.052
REMARK UNBOUND:                -0.048
REMARK SMILES C=C1C(=O)O[C@H]2[C@@H]1CCC(C)=CCC[C@]1(C)O[C@H]21
REMARK SMILES IDX 6 1 7 2 2 3 1 4 3 5 4 6 5 7 8 8 9 9 10 10 11 11 12 12 18 14
REMARK SMILES IDX 15 15 17 16 16 17 14 18 13 19
REMARK H PARENT
REMARK Flexibility Score: 70.00
ROOT
ATOM      1  C   UNL     1       0.871  -8.219 -35.441  1.00  0.00     0.216 C 
ATOM      2  C   UNL     1       0.021  -9.064 -36.468  1.00  0.00     0.070 C 
ATOM      3  C   UNL     1      -1.382  -8.938 -35.938  1.00  0.00     0.037 C 
ATOM      4  C   UNL     1      -2.460  -9.567 -36.407  1.00  0.00     0.021 C 
ATOM      5  C   UNL     1      -1.331  -8.190 -34.710  1.00  0.00     0.334 C 
ATOM      6  O   UNL     1      -2.316  -7.923 -33.972  1.00  0.00    -0.247 OA
ATOM      7  O   UNL     1      -0.040  -7.820 -34.417  1.00  0.00    -0.455 OA
ENDROOT
BRANCH   2   8
ATOM      8  C   UNL     1       0.121  -8.673 -37.979  1.00  0.00     0.017 C 
BRANCH   8   9
ATOM      9  C   UNL     1       0.817  -9.742 -38.856  1.00  0.00     0.031 C 
BRANCH   9  10
ATOM     10  C   UNL     1       1.706 -10.676 -38.057  1.00  0.00    -0.077 C 
ATOM     11  C   UNL     1       1.206 -12.065 -37.750  1.00  0.00     0.039 C 
ATOM     12  C   UNL     1       2.920 -10.320 -37.577  1.00  0.00    -0.028 CG0
ATOM     13  G   UNL     1       3.620  -9.014 -37.860  1.00  0.00     0.000 G0
ENDBRANCH   9  10
ENDBRANCH   8   9
ENDBRANCH   2   8
BRANCH   1  14
ATOM     14  C   UNL     1       1.508  -6.940 -36.006  1.00  0.00     0.192 C 
ATOM     15  C   UNL     1       2.904  -6.925 -36.538  1.00  0.00     0.096 C 
ATOM     16  O   UNL     1       2.608  -6.546 -35.213  1.00  0.00    -0.362 OA
ATOM     17  C   UNL     1       3.316  -5.711 -37.375  1.00  0.00     0.045 C 
BRANCH  15  18
ATOM     18  C   UNL     1       3.800  -8.183 -36.580  1.00  0.00     0.042 C 
BRANCH  18  19
ATOM     19  C   UNL     1       3.632  -9.018 -37.858  1.00  0.00     0.030 CG0
ATOM     20  G   UNL     1       2.923 -10.321 -37.585  1.00  0.00     0.000 G0
ENDBRANCH  18  19
ENDBRANCH  15  18
ENDBRANCH   1  14
TORSDOF 0
ENDMDL
MODEL 7
REMARK VINA RESULT:    -3.908     10.582     11.950
REMARK INTER + INTRA:          -5.327
REMARK INTER:                  -5.350
REMARK INTRA:                   0.023
REMARK UNBOUND:                -0.048
REMARK SMILES C=C1C(=O)O[C@H]2[C@@H]1CCC(C)=CCC[C@]1(C)O[C@H]21
REMARK SMILES IDX 6 1 7 2 2 3 1 4 3 5 4 6 5 7 8 8 9 9 10 10 11 11 12 12 18 14
REMARK SMILES IDX 15 15 17 16 16 17 14 18 13 19
REMARK H PARENT
REMARK Flexibility Score: 70.00
ROOT
ATOM      1  C   UNL     1       4.747   1.752 -37.338  1.00  0.00     0.216 C 
ATOM      2  C   UNL     1       5.932   2.758 -37.060  1.00  0.00     0.070 C 
ATOM      3  C   UNL     1       7.123   2.060 -37.658  1.00  0.00     0.037 C 
ATOM      4  C   UNL     1       8.392   2.466 -37.586  1.00  0.00     0.021 C 
ATOM      5  C   UNL     1       6.693   0.773 -38.137  1.00  0.00     0.334 C 
ATOM      6  O   UNL     1       7.434  -0.098 -38.665  1.00  0.00    -0.247 OA
ATOM      7  O   UNL     1       5.348   0.593 -37.914  1.00  0.00    -0.455 OA
ENDROOT
BRANCH   2   8
ATOM      8  C   UNL     1       5.774   4.221 -37.593  1.00  0.00     0.017 C 
BRANCH   8   9
ATOM      9  C   UNL     1       5.223   5.213 -36.541  1.00  0.00     0.031 C 
BRANCH   9  10
ATOM     10  C   UNL     1       4.904   4.551 -35.213  1.00  0.00    -0.077 C 
ATOM     11  C   UNL     1       6.013   4.375 -34.207  1.00  0.00     0.039 C 
ATOM     12  C   UNL     1       3.677   4.081 -34.890  1.00  0.00    -0.028 CG0
ATOM     13  G   UNL     1       2.432   4.250 -35.726  1.00  0.00     0.000 G0
ENDBRANCH   9  10
ENDBRANCH   8   9
ENDBRANCH   2   8
BRANCH   1  14
ATOM     14  C   UNL     1       3.678   2.248 -38.323  1.00  0.00     0.192 C 
ATOM     15  C   UNL     1       2.367   2.790 -37.855  1.00  0.00     0.096 C 
ATOM     16  O   UNL     1       2.521   1.443 -38.240  1.00  0.00    -0.362 OA
ATOM     17  C   UNL     1       1.527   3.559 -38.879  1.00  0.00     0.045 C 
BRANCH  15  18
ATOM     18  C   UNL     1       1.995   2.914 -36.360  1.00  0.00     0.042 C 
BRANCH  18  19
ATOM     19  C   UNL     1       2.429   4.242 -35.724  1.00  0.00     0.030 CG0
ATOM     20  G   UNL     1       3.677   4.081 -34.891  1.00  0.00     0.000 G0
ENDBRANCH  18  19
ENDBRANCH  15  18
ENDBRANCH   1  14
TORSDOF 0
ENDMDL
MODEL 8
REMARK VINA RESULT:    -3.864      3.320      4.453
REMARK INTER + INTRA:          -5.267
REMARK INTER:                  -5.318
REMARK INTRA:                   0.051
REMARK UNBOUND:                -0.048
REMARK SMILES C=C1C(=O)O[C@H]2[C@@H]1CCC(C)=CCC[C@]1(C)O[C@H]21
REMARK SMILES IDX 6 1 7 2 2 3 1 4 3 5 4 6 5 7 8 8 9 9 10 10 11 11 12 12 18 14
REMARK SMILES IDX 15 15 17 16 16 17 14 18 13 19
REMARK H PARENT
REMARK Flexibility Score: 70.00
ROOT
ATOM      1  C   UNL     1       5.881  -7.960 -35.207  1.00  0.00     0.216 C 
ATOM      2  C   UNL     1       5.554  -6.943 -36.369  1.00  0.00     0.070 C 
ATOM      3  C   UNL     1       6.674  -5.943 -36.277  1.00  0.00     0.037 C 
ATOM      4  C   UNL     1       6.788  -4.821 -36.989  1.00  0.00     0.021 C 
ATOM      5  C   UNL     1       7.492  -6.291 -35.146  1.00  0.00     0.334 C 
ATOM      6  O   UNL     1       8.501  -5.651 -34.745  1.00  0.00    -0.247 OA
ATOM      7  O   UNL     1       7.009  -7.416 -34.522  1.00  0.00    -0.455 OA
ENDROOT
BRANCH   2   8
ATOM      8  C   UNL     1       5.397  -7.526 -37.813  1.00  0.00     0.017 C 
BRANCH   8   9
ATOM      9  C   UNL     1       3.945  -7.928 -38.170  1.00  0.00     0.031 C 
BRANCH   9  10
ATOM     10  C   UNL     1       2.952  -7.598 -37.071  1.00  0.00    -0.077 C 
ATOM     11  C   UNL     1       2.444  -6.183 -36.956  1.00  0.00     0.039 C 
ATOM     12  C   UNL     1       2.516  -8.503 -36.164  1.00  0.00    -0.028 CG0
ATOM     13  G   UNL     1       2.842  -9.976 -36.179  1.00  0.00     0.000 G0
ENDBRANCH   9  10
ENDBRANCH   8   9
ENDBRANCH   2   8
BRANCH   1  14
ATOM     14  C   UNL     1       6.264  -9.377 -35.659  1.00  0.00     0.192 C 
ATOM     15  C   UNL     1       5.297 -10.514 -35.584  1.00  0.00     0.096 C 
ATOM     16  O   UNL     1       6.236 -10.268 -34.563  1.00  0.00    -0.362 OA
ATOM     17  C   UNL     1       5.656 -11.784 -36.362  1.00  0.00     0.045 C 
BRANCH  15  18
ATOM     18  C   UNL     1       3.847 -10.353 -35.073  1.00  0.00     0.042 C 
BRANCH  18  19
ATOM     19  C   UNL     1       2.843  -9.980 -36.174  1.00  0.00     0.030 CG0
ATOM     20  G   UNL     1       2.531  -8.504 -36.169  1.00  0.00     0.000 G0
ENDBRANCH  18  19
ENDBRANCH  15  18
ENDBRANCH   1  14
TORSDOF 0
ENDMDL
MODEL 9
REMARK VINA RESULT:    -3.685     11.230     13.054
REMARK INTER + INTRA:          -5.026
REMARK INTER:                  -4.970
REMARK INTRA:                  -0.056
REMARK UNBOUND:                -0.048
REMARK SMILES C=C1C(=O)O[C@H]2[C@@H]1CCC(C)=CCC[C@]1(C)O[C@H]21
REMARK SMILES IDX 6 1 7 2 2 3 1 4 3 5 4 6 5 7 8 8 9 9 10 10 11 11 12 12 18 14
REMARK SMILES IDX 15 15 17 16 16 17 14 18 13 19
REMARK H PARENT
REMARK Flexibility Score: 70.00
ROOT
ATOM      1  C   UNL     1       2.888   3.631 -39.416  1.00  0.00     0.216 C 
ATOM      2  C   UNL     1       3.179   5.148 -39.088  1.00  0.00     0.070 C 
ATOM      3  C   UNL     1       2.523   5.878 -40.229  1.00  0.00     0.037 C 
ATOM      4  C   UNL     1       2.582   7.190 -40.461  1.00  0.00     0.021 C 
ATOM      5  C   UNL     1       1.999   4.899 -41.144  1.00  0.00     0.334 C 
ATOM      6  O   UNL     1       1.416   5.150 -42.232  1.00  0.00    -0.247 OA
ATOM      7  O   UNL     1       2.247   3.625 -40.691  1.00  0.00    -0.455 OA
ENDROOT
BRANCH   2   8
ATOM      8  C   UNL     1       2.715   5.686 -37.695  1.00  0.00     0.017 C 
BRANCH   8   9
ATOM      9  C   UNL     1       3.879   6.120 -36.772  1.00  0.00     0.031 C 
BRANCH   9  10
ATOM     10  C   UNL     1       5.186   5.422 -37.101  1.00  0.00    -0.077 C 
ATOM     11  C   UNL     1       6.268   6.206 -37.801  1.00  0.00     0.039 C 
ATOM     12  C   UNL     1       5.426   4.120 -36.825  1.00  0.00    -0.028 CG0
ATOM     13  G   UNL     1       4.504   3.210 -36.052  1.00  0.00     0.000 G0
ENDBRANCH   9  10
ENDBRANCH   8   9
ENDBRANCH   2   8
BRANCH   1  14
ATOM     14  C   UNL     1       1.951   2.913 -38.433  1.00  0.00     0.192 C 
ATOM     15  C   UNL     1       2.476   2.153 -37.257  1.00  0.00     0.096 C 
ATOM     16  O   UNL     1       2.167   1.518 -38.477  1.00  0.00    -0.362 OA
ATOM     17  C   UNL     1       1.468   1.770 -36.171  1.00  0.00     0.045 C 
BRANCH  15  18
ATOM     18  C   UNL     1       3.983   2.050 -36.930  1.00  0.00     0.042 C 
BRANCH  18  19
ATOM     19  C   UNL     1       4.504   3.196 -36.052  1.00  0.00     0.030 CG0
ATOM     20  G   UNL     1       5.423   4.114 -36.819  1.00  0.00     0.000 G0
ENDBRANCH  18  19
ENDBRANCH  15  18
ENDBRANCH   1  14
TORSDOF 0
ENDMDL
