MODEL 1
REMARK VINA RESULT:    -4.949      0.000      0.000
REMARK INTER + INTRA:          -5.664
REMARK INTER:                  -5.527
REMARK INTRA:                  -0.137
REMARK UNBOUND:                -0.137
REMARK SMILES O=C([O-])c1ccccc1C(=O)[O-]
REMARK SMILES IDX 4 1 9 2 5 3 8 4 6 5 7 6 2 7 1 8 3 9 10 10 11 11 12 12
REMARK H PARENT
REMARK Flexibility Score: inf
ROOT
ATOM      1  C   UNL     1      11.362 -15.114   4.920  1.00  0.00     0.006 A 
ATOM      2  C   UNL     1      11.789 -16.366   5.441  1.00  0.00     0.006 A 
ATOM      3  C   UNL     1      12.107 -13.958   5.219  1.00  0.00     0.010 A 
ATOM      4  C   UNL     1      12.908 -16.407   6.294  1.00  0.00     0.010 A 
ATOM      5  C   UNL     1      13.227 -14.025   6.049  1.00  0.00     0.001 A 
ATOM      6  C   UNL     1      13.619 -15.245   6.595  1.00  0.00     0.001 A 
ENDROOT
BRANCH   1   7
ATOM      7  C   UNL     1      10.118 -14.959   4.132  1.00  0.00     0.072 C 
ATOM      8  O   UNL     1      10.135 -15.119   2.883  1.00  0.00    -0.545 OA
ATOM      9  O   UNL     1       8.933 -14.575   4.747  1.00  0.00    -0.545 OA
ENDBRANCH   1   7
BRANCH   2  10
ATOM     10  C   UNL     1      11.149 -17.648   5.064  1.00  0.00     0.072 C 
ATOM     11  O   UNL     1      11.732 -18.441   4.278  1.00  0.00    -0.545 OA
ATOM     12  O   UNL     1       9.873 -17.963   5.517  1.00  0.00    -0.545 OA
ENDBRANCH   2  10
TORSDOF 2
ENDMDL
MODEL 2
REMARK VINA RESULT:    -4.404      6.756      8.100
REMARK INTER + INTRA:          -5.056
REMARK INTER:                  -4.952
REMARK INTRA:                  -0.104
REMARK UNBOUND:                -0.137
REMARK SMILES O=C([O-])c1ccccc1C(=O)[O-]
REMARK SMILES IDX 4 1 9 2 5 3 8 4 6 5 7 6 2 7 1 8 3 9 10 10 11 11 12 12
REMARK H PARENT
REMARK Flexibility Score: inf
ROOT
ATOM      1  C   UNL     1      13.867  -9.565   9.193  1.00  0.00     0.006 A 
ATOM      2  C   UNL     1      13.483 -10.911   9.448  1.00  0.00     0.006 A 
ATOM      3  C   UNL     1      14.071  -9.152   7.864  1.00  0.00     0.010 A 
ATOM      4  C   UNL     1      13.378 -11.808   8.369  1.00  0.00     0.010 A 
ATOM      5  C   UNL     1      13.940 -10.054   6.807  1.00  0.00     0.001 A 
ATOM      6  C   UNL     1      13.606 -11.382   7.060  1.00  0.00     0.001 A 
ENDROOT
BRANCH   1   7
ATOM      7  C   UNL     1      14.137  -8.594  10.278  1.00  0.00     0.072 C 
ATOM      8  O   UNL     1      13.204  -7.890  10.746  1.00  0.00    -0.545 OA
ATOM      9  O   UNL     1      15.430  -8.398  10.749  1.00  0.00    -0.545 OA
ENDBRANCH   1   7
BRANCH   2  10
ATOM     10  C   UNL     1      13.113 -11.394  10.799  1.00  0.00     0.072 C 
ATOM     11  O   UNL     1      13.744 -12.348  11.326  1.00  0.00    -0.545 OA
ATOM     12  O   UNL     1      12.026 -10.849  11.473  1.00  0.00    -0.545 OA
ENDBRANCH   2  10
TORSDOF 2
ENDMDL
MODEL 3
REMARK VINA RESULT:    -4.382      6.726      8.462
REMARK INTER + INTRA:          -5.031
REMARK INTER:                  -4.917
REMARK INTRA:                  -0.114
REMARK UNBOUND:                -0.137
REMARK SMILES O=C([O-])c1ccccc1C(=O)[O-]
REMARK SMILES IDX 4 1 9 2 5 3 8 4 6 5 7 6 2 7 1 8 3 9 10 10 11 11 12 12
REMARK H PARENT
REMARK Flexibility Score: inf
ROOT
ATOM      1  C   UNL     1      13.485 -10.930   9.413  1.00  0.00     0.006 A 
ATOM      2  C   UNL     1      13.850  -9.576   9.181  1.00  0.00     0.006 A 
ATOM      3  C   UNL     1      13.403 -11.814   8.321  1.00  0.00     0.010 A 
ATOM      4  C   UNL     1      14.058  -9.139   7.860  1.00  0.00     0.010 A 
ATOM      5  C   UNL     1      13.635 -11.364   7.021  1.00  0.00     0.001 A 
ATOM      6  C   UNL     1      13.950 -10.028   6.789  1.00  0.00     0.001 A 
ENDROOT
BRANCH   1   7
ATOM      7  C   UNL     1      13.112 -11.438  10.753  1.00  0.00     0.072 C 
ATOM      8  O   UNL     1      13.770 -12.371  11.284  1.00  0.00    -0.545 OA
ATOM      9  O   UNL     1      11.996 -10.939  11.415  1.00  0.00    -0.545 OA
ENDBRANCH   1   7
BRANCH   2  10
ATOM     10  C   UNL     1      14.096  -8.615  10.282  1.00  0.00     0.072 C 
ATOM     11  O   UNL     1      13.145  -7.941  10.759  1.00  0.00    -0.545 OA
ATOM     12  O   UNL     1      15.384  -8.395  10.757  1.00  0.00    -0.545 OA
ENDBRANCH   2  10
TORSDOF 2
ENDMDL
MODEL 4
REMARK VINA RESULT:    -4.250     13.013     13.840
REMARK INTER + INTRA:          -4.884
REMARK INTER:                  -4.662
REMARK INTRA:                  -0.222
REMARK UNBOUND:                -0.137
REMARK SMILES O=C([O-])c1ccccc1C(=O)[O-]
REMARK SMILES IDX 4 1 9 2 5 3 8 4 6 5 7 6 2 7 1 8 3 9 10 10 11 11 12 12
REMARK H PARENT
REMARK Flexibility Score: inf
ROOT
ATOM      1  C   UNL     1       1.105 -15.103  13.778  1.00  0.00     0.006 A 
ATOM      2  C   UNL     1       2.253 -15.132  14.616  1.00  0.00     0.006 A 
ATOM      3  C   UNL     1       1.067 -15.929  12.639  1.00  0.00     0.010 A 
ATOM      4  C   UNL     1       3.347 -15.939  14.251  1.00  0.00     0.010 A 
ATOM      5  C   UNL     1       2.155 -16.738  12.308  1.00  0.00     0.001 A 
ATOM      6  C   UNL     1       3.297 -16.734  13.106  1.00  0.00     0.001 A 
ENDROOT
BRANCH   1   7
ATOM      7  C   UNL     1      -0.030 -14.180  14.010  1.00  0.00     0.072 C 
ATOM      8  O   UNL     1      -1.124 -14.619  14.452  1.00  0.00    -0.545 OA
ATOM      9  O   UNL     1       0.074 -12.833  13.685  1.00  0.00    -0.545 OA
ENDBRANCH   1   7
BRANCH   2  10
ATOM     10  C   UNL     1       2.320 -14.404  15.905  1.00  0.00     0.072 C 
ATOM     11  O   UNL     1       1.900 -14.946  16.962  1.00  0.00    -0.545 OA
ATOM     12  O   UNL     1       2.782 -13.094  15.956  1.00  0.00    -0.545 OA
ENDBRANCH   2  10
TORSDOF 2
ENDMDL
MODEL 5
REMARK VINA RESULT:    -4.240     13.066     14.034
REMARK INTER + INTRA:          -4.872
REMARK INTER:                  -4.646
REMARK INTRA:                  -0.226
REMARK UNBOUND:                -0.137
REMARK SMILES O=C([O-])c1ccccc1C(=O)[O-]
REMARK SMILES IDX 4 1 9 2 5 3 8 4 6 5 7 6 2 7 1 8 3 9 10 10 11 11 12 12
REMARK H PARENT
REMARK Flexibility Score: inf
ROOT
ATOM      1  C   UNL     1       2.232 -15.138  14.670  1.00  0.00     0.006 A 
ATOM      2  C   UNL     1       1.089 -15.110  13.824  1.00  0.00     0.006 A 
ATOM      3  C   UNL     1       3.337 -15.927  14.301  1.00  0.00     0.010 A 
ATOM      4  C   UNL     1       1.068 -15.920  12.674  1.00  0.00     0.010 A 
ATOM      5  C   UNL     1       3.303 -16.706  13.144  1.00  0.00     0.001 A 
ATOM      6  C   UNL     1       2.167 -16.712  12.339  1.00  0.00     0.001 A 
ENDROOT
BRANCH   1   7
ATOM      7  C   UNL     1       2.282 -14.427  15.968  1.00  0.00     0.072 C 
ATOM      8  O   UNL     1       1.859 -14.987  17.014  1.00  0.00    -0.545 OA
ATOM      9  O   UNL     1       2.735 -13.116  16.042  1.00  0.00    -0.545 OA
ENDBRANCH   1   7
BRANCH   2  10
ATOM     10  C   UNL     1      -0.058 -14.203  14.062  1.00  0.00     0.072 C 
ATOM     11  O   UNL     1      -1.136 -14.653  14.534  1.00  0.00    -0.545 OA
ATOM     12  O   UNL     1       0.014 -12.861  13.707  1.00  0.00    -0.545 OA
ENDBRANCH   2  10
TORSDOF 2
ENDMDL
MODEL 6
REMARK VINA RESULT:    -4.118     12.617     13.307
REMARK INTER + INTRA:          -4.736
REMARK INTER:                  -4.612
REMARK INTRA:                  -0.124
REMARK UNBOUND:                -0.137
REMARK SMILES O=C([O-])c1ccccc1C(=O)[O-]
REMARK SMILES IDX 4 1 9 2 5 3 8 4 6 5 7 6 2 7 1 8 3 9 10 10 11 11 12 12
REMARK H PARENT
REMARK Flexibility Score: inf
ROOT
ATOM      1  C   UNL     1       2.967 -15.855  14.456  1.00  0.00     0.006 A 
ATOM      2  C   UNL     1       2.228 -14.698  14.827  1.00  0.00     0.006 A 
ATOM      3  C   UNL     1       4.060 -16.252  15.248  1.00  0.00     0.010 A 
ATOM      4  C   UNL     1       2.648 -13.945  15.939  1.00  0.00     0.010 A 
ATOM      5  C   UNL     1       4.446 -15.502  16.360  1.00  0.00     0.001 A 
ATOM      6  C   UNL     1       3.749 -14.345  16.698  1.00  0.00     0.001 A 
ENDROOT
BRANCH   1   7
ATOM      7  C   UNL     1       2.681 -16.623  13.223  1.00  0.00     0.072 C 
ATOM      8  O   UNL     1       3.192 -16.275  12.126  1.00  0.00    -0.545 OA
ATOM      9  O   UNL     1       1.798 -17.696  13.245  1.00  0.00    -0.545 OA
ENDBRANCH   1   7
BRANCH   2  10
ATOM     10  C   UNL     1       0.984 -14.289  14.135  1.00  0.00     0.072 C 
ATOM     11  O   UNL     1       0.894 -13.144  13.615  1.00  0.00    -0.545 OA
ATOM     12  O   UNL     1      -0.121 -15.131  14.106  1.00  0.00    -0.545 OA
ENDBRANCH   2  10
TORSDOF 2
ENDMDL
MODEL 7
REMARK VINA RESULT:    -4.098     12.561     13.015
REMARK INTER + INTRA:          -4.714
REMARK INTER:                  -4.561
REMARK INTRA:                  -0.153
REMARK UNBOUND:                -0.137
REMARK SMILES O=C([O-])c1ccccc1C(=O)[O-]
REMARK SMILES IDX 4 1 9 2 5 3 8 4 6 5 7 6 2 7 1 8 3 9 10 10 11 11 12 12
REMARK H PARENT
REMARK Flexibility Score: inf
ROOT
ATOM      1  C   UNL     1       2.357 -14.861  14.891  1.00  0.00     0.006 A 
ATOM      2  C   UNL     1       3.052 -16.013  14.430  1.00  0.00     0.006 A 
ATOM      3  C   UNL     1       2.832 -14.185  16.030  1.00  0.00     0.010 A 
ATOM      4  C   UNL     1       4.157 -16.484  15.163  1.00  0.00     0.010 A 
ATOM      5  C   UNL     1       3.944 -14.658  16.728  1.00  0.00     0.001 A 
ATOM      6  C   UNL     1       4.597 -15.812  16.303  1.00  0.00     0.001 A 
ENDROOT
BRANCH   1   7
ATOM      7  C   UNL     1       1.105 -14.380  14.264  1.00  0.00     0.072 C 
ATOM      8  O   UNL     1       1.052 -13.229  13.755  1.00  0.00    -0.545 OA
ATOM      9  O   UNL     1      -0.044 -15.161  14.284  1.00  0.00    -0.545 OA
ENDBRANCH   1   7
BRANCH   2  10
ATOM     10  C   UNL     1       2.706 -16.701  13.164  1.00  0.00     0.072 C 
ATOM     11  O   UNL     1       3.214 -16.319  12.076  1.00  0.00    -0.545 OA
ATOM     12  O   UNL     1       1.770 -17.729  13.148  1.00  0.00    -0.545 OA
ENDBRANCH   2  10
TORSDOF 2
ENDMDL
MODEL 8
REMARK VINA RESULT:    -4.076     16.498     17.772
REMARK INTER + INTRA:          -4.690
REMARK INTER:                  -4.456
REMARK INTRA:                  -0.234
REMARK UNBOUND:                -0.137
REMARK SMILES O=C([O-])c1ccccc1C(=O)[O-]
REMARK SMILES IDX 4 1 9 2 5 3 8 4 6 5 7 6 2 7 1 8 3 9 10 10 11 11 12 12
REMARK H PARENT
REMARK Flexibility Score: inf
ROOT
ATOM      1  C   UNL     1       8.540  -6.574  18.602  1.00  0.00     0.006 A 
ATOM      2  C   UNL     1       8.187  -5.664  19.636  1.00  0.00     0.006 A 
ATOM      3  C   UNL     1       7.744  -7.716  18.394  1.00  0.00     0.010 A 
ATOM      4  C   UNL     1       7.088  -5.960  20.463  1.00  0.00     0.010 A 
ATOM      5  C   UNL     1       6.645  -7.978  19.213  1.00  0.00     0.001 A 
ATOM      6  C   UNL     1       6.325  -7.109  20.252  1.00  0.00     0.001 A 
ENDROOT
BRANCH   1   7
ATOM      7  C   UNL     1       9.760  -6.413  17.779  1.00  0.00     0.072 C 
ATOM      8  O   UNL     1      10.868  -6.845  18.194  1.00  0.00    -0.545 OA
ATOM      9  O   UNL     1       9.714  -5.729  16.570  1.00  0.00    -0.545 OA
ENDBRANCH   1   7
BRANCH   2  10
ATOM     10  C   UNL     1       8.883  -4.371  19.834  1.00  0.00     0.072 C 
ATOM     11  O   UNL     1       8.516  -3.349  19.195  1.00  0.00    -0.545 OA
ATOM     12  O   UNL     1       9.989  -4.282  20.672  1.00  0.00    -0.545 OA
ENDBRANCH   2  10
TORSDOF 2
ENDMDL
MODEL 9
REMARK VINA RESULT:    -4.039     16.537     17.700
REMARK INTER + INTRA:          -4.648
REMARK INTER:                  -4.415
REMARK INTRA:                  -0.232
REMARK UNBOUND:                -0.137
REMARK SMILES O=C([O-])c1ccccc1C(=O)[O-]
REMARK SMILES IDX 4 1 9 2 5 3 8 4 6 5 7 6 2 7 1 8 3 9 10 10 11 11 12 12
REMARK H PARENT
REMARK Flexibility Score: inf
ROOT
ATOM      1  C   UNL     1       8.291  -5.623  19.689  1.00  0.00     0.006 A 
ATOM      2  C   UNL     1       8.579  -6.538  18.639  1.00  0.00     0.006 A 
ATOM      3  C   UNL     1       7.195  -5.875  20.535  1.00  0.00     0.010 A 
ATOM      4  C   UNL     1       7.724  -7.636  18.434  1.00  0.00     0.010 A 
ATOM      5  C   UNL     1       6.373  -6.983  20.327  1.00  0.00     0.001 A 
ATOM      6  C   UNL     1       6.630  -7.855  19.272  1.00  0.00     0.001 A 
ENDROOT
BRANCH   1   7
ATOM      7  C   UNL     1       9.053  -4.369  19.886  1.00  0.00     0.072 C 
ATOM      8  O   UNL     1       8.728  -3.324  19.263  1.00  0.00    -0.545 OA
ATOM      9  O   UNL     1      10.173  -4.342  20.709  1.00  0.00    -0.545 OA
ENDBRANCH   1   7
BRANCH   2  10
ATOM     10  C   UNL     1       9.790  -6.426  17.792  1.00  0.00     0.072 C 
ATOM     11  O   UNL     1      10.888  -6.897  18.191  1.00  0.00    -0.545 OA
ATOM     12  O   UNL     1       9.748  -5.744  16.581  1.00  0.00    -0.545 OA
ENDBRANCH   2  10
TORSDOF 2
ENDMDL
