MODEL 1
REMARK VINA RESULT:     2.399      0.000      0.000
REMARK INTER + INTRA:           4.006
REMARK INTER:                   2.960
REMARK INTRA:                   1.046
REMARK UNBOUND:                 1.046
REMARK SMILES C=C1[C@H]2CC[C@@H]3[C@H]2C(C)(C)CCC[C@]13C
REMARK SMILES IDX 14 1 6 2 7 3 3 4 2 5 1 6 4 7 5 8 15 9 8 10 9 11 10 12 11 13
REMARK SMILES IDX 13 15 12 16
REMARK H PARENT
REMARK Flexibility Score: 80.00
ROOT
ATOM      1  C   UNL     1       7.356   7.567  12.969  1.00  0.00    -0.008 C 
ATOM      2  C   UNL     1       6.338   7.142  14.096  1.00  0.00     0.003 C 
ATOM      3  C   UNL     1       5.384   6.143  13.404  1.00  0.00     0.006 C 
ATOM      4  C   UNL     1       6.512   5.271  12.867  1.00  0.00     0.019 C 
ATOM      5  C   UNL     1       7.378   6.282  12.171  1.00  0.00    -0.068 C 
ATOM      6  C   UNL     1       8.123   6.030  11.088  1.00  0.00     0.009 C 
ATOM      7  C   UNL     1       7.235   4.894  14.181  1.00  0.00     0.008 C 
ATOM      8  C   UNL     1       7.029   6.147  15.069  1.00  0.00     0.005 C 
ATOM      9  C   UNL     1       8.782   7.889  13.491  1.00  0.00     0.016 C 
ENDROOT
BRANCH   3  10
ATOM     10  C   UNL     1       4.276   6.650  12.405  1.00  0.00    -0.032 C 
ATOM     11  C   UNL     1       3.126   7.285  13.231  1.00  0.00     0.011 C 
ATOM     12  C   UNL     1       3.671   5.431  11.665  1.00  0.00     0.011 C 
BRANCH  10  13
ATOM     13  C   UNL     1       4.757   7.650  11.315  1.00  0.00     0.007 CG0
ATOM     14  G   UNL     1       5.391   8.930  11.864  1.00  0.00     0.000 G0
ENDBRANCH  10  13
ENDBRANCH   3  10
BRANCH   1  15
ATOM     15  C   UNL     1       6.890   8.793  12.131  1.00  0.00     0.011 C 
BRANCH  15  16
ATOM     16  C   UNL     1       5.391   8.925  11.867  1.00  0.00     0.001 CG0
ATOM     17  G   UNL     1       4.765   7.641  11.319  1.00  0.00     0.000 G0
ENDBRANCH  15  16
ENDBRANCH   1  15
TORSDOF 0
ENDMDL
MODEL 2
REMARK VINA RESULT:     4.179      1.131      3.602
REMARK INTER + INTRA:           6.202
REMARK INTER:                   5.210
REMARK INTRA:                   0.992
REMARK UNBOUND:                 1.046
REMARK SMILES C=C1[C@H]2CC[C@@H]3[C@H]2C(C)(C)CCC[C@]13C
REMARK SMILES IDX 14 1 6 2 7 3 3 4 2 5 1 6 4 7 5 8 15 9 8 10 9 11 10 12 11 13
REMARK SMILES IDX 13 15 12 16
REMARK H PARENT
REMARK Flexibility Score: 80.00
ROOT
ATOM      1  C   UNL     1       5.203   6.967  12.339  1.00  0.00    -0.008 C 
ATOM      2  C   UNL     1       6.660   6.367  12.275  1.00  0.00     0.003 C 
ATOM      3  C   UNL     1       7.377   6.949  13.515  1.00  0.00     0.006 C 
ATOM      4  C   UNL     1       6.289   6.507  14.485  1.00  0.00     0.019 C 
ATOM      5  C   UNL     1       5.054   7.070  13.841  1.00  0.00    -0.068 C 
ATOM      6  C   UNL     1       3.970   7.486  14.507  1.00  0.00     0.009 C 
ATOM      7  C   UNL     1       6.271   4.982  14.223  1.00  0.00     0.008 C 
ATOM      8  C   UNL     1       6.627   4.879  12.719  1.00  0.00     0.005 C 
ATOM      9  C   UNL     1       4.106   6.032  11.763  1.00  0.00     0.016 C 
ENDROOT
BRANCH   3  10
ATOM     10  C   UNL     1       7.850   8.452  13.538  1.00  0.00    -0.032 C 
ATOM     11  C   UNL     1       9.147   8.570  12.694  1.00  0.00     0.011 C 
ATOM     12  C   UNL     1       8.228   8.836  14.990  1.00  0.00     0.011 C 
BRANCH  10  13
ATOM     13  C   UNL     1       6.805   9.495  13.050  1.00  0.00     0.007 CG0
ATOM     14  G   UNL     1       6.291   9.260  11.628  1.00  0.00     0.000 G0
ENDBRANCH  10  13
ENDBRANCH   3  10
BRANCH   1  15
ATOM     15  C   UNL     1       5.056   8.340  11.620  1.00  0.00     0.011 C 
BRANCH  15  16
ATOM     16  C   UNL     1       6.265   9.272  11.646  1.00  0.00     0.001 CG0
ATOM     17  G   UNL     1       6.795   9.524  13.059  1.00  0.00     0.000 G0
ENDBRANCH  15  16
ENDBRANCH   1  15
TORSDOF 0
ENDMDL
MODEL 3
REMARK VINA RESULT:     4.879      1.609      4.090
REMARK INTER + INTRA:           7.066
REMARK INTER:                   6.001
REMARK INTRA:                   1.065
REMARK UNBOUND:                 1.046
REMARK SMILES C=C1[C@H]2CC[C@@H]3[C@H]2C(C)(C)CCC[C@]13C
REMARK SMILES IDX 14 1 6 2 7 3 3 4 2 5 1 6 4 7 5 8 15 9 8 10 9 11 10 12 11 13
REMARK SMILES IDX 13 15 12 16
REMARK H PARENT
REMARK Flexibility Score: 80.00
ROOT
ATOM      1  C   UNL     1       4.833   7.464  13.516  1.00  0.00    -0.008 C 
ATOM      2  C   UNL     1       5.769   8.639  13.035  1.00  0.00     0.003 C 
ATOM      3  C   UNL     1       6.650   8.009  11.933  1.00  0.00     0.006 C 
ATOM      4  C   UNL     1       5.465   7.456  11.150  1.00  0.00     0.019 C 
ATOM      5  C   UNL     1       4.719   6.702  12.214  1.00  0.00    -0.068 C 
ATOM      6  C   UNL     1       3.990   5.600  11.997  1.00  0.00     0.009 C 
ATOM      7  C   UNL     1       4.668   8.754  10.882  1.00  0.00     0.008 C 
ATOM      8  C   UNL     1       4.958   9.613  12.138  1.00  0.00     0.005 C 
ATOM      9  C   UNL     1       3.426   7.925  13.983  1.00  0.00     0.016 C 
ENDROOT
BRANCH   3  10
ATOM     10  C   UNL     1       7.833   7.036  12.306  1.00  0.00    -0.032 C 
ATOM     11  C   UNL     1       9.001   7.884  12.878  1.00  0.00     0.011 C 
ATOM     12  C   UNL     1       8.360   6.368  11.013  1.00  0.00     0.011 C 
BRANCH  10  13
ATOM     13  C   UNL     1       7.477   5.892  13.297  1.00  0.00     0.007 CG0
ATOM     14  G   UNL     1       6.940   6.366  14.648  1.00  0.00     0.000 G0
ENDBRANCH  10  13
ENDBRANCH   3  10
BRANCH   1  15
ATOM     15  C   UNL     1       5.437   6.609  14.668  1.00  0.00     0.011 C 
BRANCH  15  16
ATOM     16  C   UNL     1       6.947   6.382  14.646  1.00  0.00     0.001 CG0
ATOM     17  G   UNL     1       7.459   5.896  13.289  1.00  0.00     0.000 G0
ENDBRANCH  15  16
ENDBRANCH   1  15
TORSDOF 0
ENDMDL
MODEL 4
REMARK VINA RESULT:     5.352      1.386      3.756
REMARK INTER + INTRA:           7.649
REMARK INTER:                   6.584
REMARK INTRA:                   1.065
REMARK UNBOUND:                 1.046
REMARK SMILES C=C1[C@H]2CC[C@@H]3[C@H]2C(C)(C)CCC[C@]13C
REMARK SMILES IDX 14 1 6 2 7 3 3 4 2 5 1 6 4 7 5 8 15 9 8 10 9 11 10 12 11 13
REMARK SMILES IDX 13 15 12 16
REMARK H PARENT
REMARK Flexibility Score: 80.00
ROOT
ATOM      1  C   UNL     1       4.843   7.766  11.974  1.00  0.00    -0.008 C 
ATOM      2  C   UNL     1       5.067   6.300  11.435  1.00  0.00     0.003 C 
ATOM      3  C   UNL     1       5.471   5.484  12.684  1.00  0.00     0.006 C 
ATOM      4  C   UNL     1       4.273   5.943  13.506  1.00  0.00     0.019 C 
ATOM      5  C   UNL     1       4.360   7.436  13.369  1.00  0.00    -0.068 C 
ATOM      6  C   UNL     1       3.964   8.311  14.302  1.00  0.00     0.009 C 
ATOM      7  C   UNL     1       3.108   5.479  12.600  1.00  0.00     0.008 C 
ATOM      8  C   UNL     1       3.691   5.630  11.172  1.00  0.00     0.005 C 
ATOM      9  C   UNL     1       3.750   8.562  11.210  1.00  0.00     0.016 C 
ENDROOT
BRANCH   3  10
ATOM     10  C   UNL     1       6.914   5.623  13.303  1.00  0.00    -0.032 C 
ATOM     11  C   UNL     1       7.915   4.876  12.382  1.00  0.00     0.011 C 
ATOM     12  C   UNL     1       6.944   4.900  14.672  1.00  0.00     0.011 C 
BRANCH  10  13
ATOM     13  C   UNL     1       7.405   7.078  13.547  1.00  0.00     0.007 CG0
ATOM     14  G   UNL     1       7.438   7.955  12.294  1.00  0.00     0.000 G0
ENDBRANCH  10  13
ENDBRANCH   3  10
BRANCH   1  15
ATOM     15  C   UNL     1       6.131   8.641  11.969  1.00  0.00     0.011 C 
BRANCH  15  16
ATOM     16  C   UNL     1       7.450   7.937  12.278  1.00  0.00     0.001 CG0
ATOM     17  G   UNL     1       7.391   7.088  13.549  1.00  0.00     0.000 G0
ENDBRANCH  15  16
ENDBRANCH   1  15
TORSDOF 0
ENDMDL
