MODEL 1
REMARK VINA RESULT:    -3.822      0.000      0.000
REMARK INTER + INTRA:          -4.395
REMARK INTER:                  -4.381
REMARK INTRA:                  -0.014
REMARK UNBOUND:                -0.014
REMARK SMILES CC(C)[C@@H]([NH3+])C(=O)[O-]
REMARK SMILES IDX 4 1 5 2 6 6 7 7 8 8 2 9 1 10 3 11
REMARK H PARENT 5 3 5 4 5 5
REMARK Flexibility Score: inf
ROOT
ATOM      1  C   UNL     1       5.601   3.501  13.071  1.00  0.00     0.230 C 
ENDROOT
BRANCH   1   2
ATOM      2  N   UNL     1       6.777   2.786  12.551  1.00  0.00    -0.350 N 
ATOM      3  H   UNL     1       6.881   2.950  11.525  1.00  0.00     0.345 HD
ATOM      4  H   UNL     1       7.652   3.081  13.041  1.00  0.00     0.345 HD
ATOM      5  H   UNL     1       6.649   1.757  12.694  1.00  0.00     0.345 HD
ENDBRANCH   1   2
BRANCH   1   6
ATOM      6  C   UNL     1       6.023   4.669  13.930  1.00  0.00     0.099 C 
ATOM      7  O   UNL     1       6.004   4.563  15.185  1.00  0.00    -0.544 OA
ATOM      8  O   UNL     1       6.390   5.880  13.354  1.00  0.00    -0.544 OA
ENDBRANCH   1   6
BRANCH   1   9
ATOM      9  C   UNL     1       4.624   3.964  11.948  1.00  0.00     0.047 C 
ATOM     10  C   UNL     1       5.307   4.182  10.588  1.00  0.00     0.014 C 
ATOM     11  C   UNL     1       3.434   3.005  11.795  1.00  0.00     0.014 C 
ENDBRANCH   1   9
TORSDOF 3
ENDMDL
MODEL 2
REMARK VINA RESULT:    -3.794      0.097      1.145
REMARK INTER + INTRA:          -4.362
REMARK INTER:                  -4.348
REMARK INTRA:                  -0.014
REMARK UNBOUND:                -0.014
REMARK SMILES CC(C)[C@@H]([NH3+])C(=O)[O-]
REMARK SMILES IDX 4 1 5 2 6 6 7 7 8 8 2 9 1 10 3 11
REMARK H PARENT 5 3 5 4 5 5
REMARK Flexibility Score: inf
ROOT
ATOM      1  C   UNL     1       5.581   3.571  13.070  1.00  0.00     0.230 C 
ENDROOT
BRANCH   1   2
ATOM      2  N   UNL     1       6.754   2.839  12.566  1.00  0.00    -0.350 N 
ATOM      3  H   UNL     1       7.600   3.450  12.581  1.00  0.00     0.345 HD
ATOM      4  H   UNL     1       6.938   1.976  13.127  1.00  0.00     0.345 HD
ATOM      5  H   UNL     1       6.587   2.557  11.572  1.00  0.00     0.345 HD
ENDBRANCH   1   2
BRANCH   1   6
ATOM      6  C   UNL     1       6.009   4.765  13.888  1.00  0.00     0.099 C 
ATOM      7  O   UNL     1       6.354   5.830  13.309  1.00  0.00    -0.544 OA
ATOM      8  O   UNL     1       6.073   4.693  15.275  1.00  0.00    -0.544 OA
ENDBRANCH   1   6
BRANCH   1   9
ATOM      9  C   UNL     1       4.597   3.997  11.939  1.00  0.00     0.047 C 
ATOM     10  C   UNL     1       5.261   4.121  10.558  1.00  0.00     0.014 C 
ATOM     11  C   UNL     1       3.379   3.065  11.859  1.00  0.00     0.014 C 
ENDBRANCH   1   9
TORSDOF 3
ENDMDL
MODEL 3
REMARK VINA RESULT:    -3.785      2.325      3.362
REMARK INTER + INTRA:          -4.353
REMARK INTER:                  -4.298
REMARK INTRA:                  -0.055
REMARK UNBOUND:                -0.014
REMARK SMILES CC(C)[C@@H]([NH3+])C(=O)[O-]
REMARK SMILES IDX 4 1 5 2 6 6 7 7 8 8 2 9 1 10 3 11
REMARK H PARENT 5 3 5 4 5 5
REMARK Flexibility Score: inf
ROOT
ATOM      1  C   UNL     1       5.927   3.752  12.184  1.00  0.00     0.230 C 
ENDROOT
BRANCH   1   2
ATOM      2  N   UNL     1       6.679   2.568  12.628  1.00  0.00    -0.350 N 
ATOM      3  H   UNL     1       6.032   1.764  12.790  1.00  0.00     0.345 HD
ATOM      4  H   UNL     1       7.407   2.292  11.931  1.00  0.00     0.345 HD
ATOM      5  H   UNL     1       7.153   2.777  13.537  1.00  0.00     0.345 HD
ENDBRANCH   1   2
BRANCH   1   6
ATOM      6  C   UNL     1       4.617   3.347  11.552  1.00  0.00     0.099 C 
ATOM      7  O   UNL     1       3.554   3.398  12.226  1.00  0.00    -0.544 OA
ATOM      8  O   UNL     1       4.574   2.873  10.246  1.00  0.00    -0.544 OA
ENDBRANCH   1   6
BRANCH   1   9
ATOM      9  C   UNL     1       5.694   4.789  13.326  1.00  0.00     0.047 C 
ATOM     10  C   UNL     1       5.958   4.226  14.732  1.00  0.00     0.014 C 
ATOM     11  C   UNL     1       6.509   6.072  13.107  1.00  0.00     0.014 C 
ENDBRANCH   1   9
TORSDOF 3
ENDMDL
MODEL 4
REMARK VINA RESULT:    -3.710      3.103      3.919
REMARK INTER + INTRA:          -4.267
REMARK INTER:                  -4.218
REMARK INTRA:                  -0.049
REMARK UNBOUND:                -0.014
REMARK SMILES CC(C)[C@@H]([NH3+])C(=O)[O-]
REMARK SMILES IDX 4 1 5 2 6 6 7 7 8 8 2 9 1 10 3 11
REMARK H PARENT 5 3 5 4 5 5
REMARK Flexibility Score: inf
ROOT
ATOM      1  C   UNL     1       6.830   6.772  14.399  1.00  0.00     0.230 C 
ENDROOT
BRANCH   1   2
ATOM      2  N   UNL     1       6.882   7.153  15.819  1.00  0.00    -0.350 N 
ATOM      3  H   UNL     1       7.315   8.097  15.928  1.00  0.00     0.345 HD
ATOM      4  H   UNL     1       5.930   7.156  16.250  1.00  0.00     0.345 HD
ATOM      5  H   UNL     1       7.480   6.471  16.341  1.00  0.00     0.345 HD
ENDBRANCH   1   2
BRANCH   1   6
ATOM      6  C   UNL     1       8.121   7.127  13.703  1.00  0.00     0.099 C 
ATOM      7  O   UNL     1       9.201   7.138  14.353  1.00  0.00    -0.544 OA
ATOM      8  O   UNL     1       8.130   7.489  12.361  1.00  0.00    -0.544 OA
ENDBRANCH   1   6
BRANCH   1   9
ATOM      9  C   UNL     1       6.481   5.267  14.185  1.00  0.00     0.047 C 
ATOM     10  C   UNL     1       5.997   4.559  15.461  1.00  0.00     0.014 C 
ATOM     11  C   UNL     1       5.462   5.072  13.052  1.00  0.00     0.014 C 
ENDBRANCH   1   9
TORSDOF 3
ENDMDL
MODEL 5
REMARK VINA RESULT:    -3.650      3.122      3.796
REMARK INTER + INTRA:          -4.198
REMARK INTER:                  -4.492
REMARK INTRA:                   0.294
REMARK UNBOUND:                -0.014
REMARK SMILES CC(C)[C@@H]([NH3+])C(=O)[O-]
REMARK SMILES IDX 4 1 5 2 6 6 7 7 8 8 2 9 1 10 3 11
REMARK H PARENT 5 3 5 4 5 5
REMARK Flexibility Score: inf
ROOT
ATOM      1  C   UNL     1       7.166   6.817  14.212  1.00  0.00     0.230 C 
ENDROOT
BRANCH   1   2
ATOM      2  N   UNL     1       6.690   8.195  14.011  1.00  0.00    -0.350 N 
ATOM      3  H   UNL     1       6.878   8.507  13.033  1.00  0.00     0.345 HD
ATOM      4  H   UNL     1       5.668   8.281  14.213  1.00  0.00     0.345 HD
ATOM      5  H   UNL     1       7.209   8.839  14.652  1.00  0.00     0.345 HD
ENDBRANCH   1   2
BRANCH   1   6
ATOM      6  C   UNL     1       7.884   6.689  15.534  1.00  0.00     0.099 C 
ATOM      7  O   UNL     1       7.265   6.916  16.608  1.00  0.00    -0.544 OA
ATOM      8  O   UNL     1       9.235   6.367  15.581  1.00  0.00    -0.544 OA
ENDBRANCH   1   6
BRANCH   1   9
ATOM      9  C   UNL     1       6.029   5.756  14.094  1.00  0.00     0.047 C 
ATOM     10  C   UNL     1       5.838   5.215  12.668  1.00  0.00     0.014 C 
ATOM     11  C   UNL     1       6.226   4.595  15.080  1.00  0.00     0.014 C 
ENDBRANCH   1   9
TORSDOF 3
ENDMDL
MODEL 6
REMARK VINA RESULT:    -3.621      2.998      3.867
REMARK INTER + INTRA:          -4.164
REMARK INTER:                  -4.117
REMARK INTRA:                  -0.047
REMARK UNBOUND:                -0.014
REMARK SMILES CC(C)[C@@H]([NH3+])C(=O)[O-]
REMARK SMILES IDX 4 1 5 2 6 6 7 7 8 8 2 9 1 10 3 11
REMARK H PARENT 5 3 5 4 5 5
REMARK Flexibility Score: inf
ROOT
ATOM      1  C   UNL     1       3.305   2.110  11.019  1.00  0.00     0.230 C 
ENDROOT
BRANCH   1   2
ATOM      2  N   UNL     1       2.717   2.911   9.934  1.00  0.00    -0.350 N 
ATOM      3  H   UNL     1       1.817   2.488   9.614  1.00  0.00     0.345 HD
ATOM      4  H   UNL     1       2.551   3.898  10.233  1.00  0.00     0.345 HD
ATOM      5  H   UNL     1       3.369   2.918   9.115  1.00  0.00     0.345 HD
ENDBRANCH   1   2
BRANCH   1   6
ATOM      6  C   UNL     1       4.418   2.869  11.699  1.00  0.00     0.099 C 
ATOM      7  O   UNL     1       4.158   3.919  12.344  1.00  0.00    -0.544 OA
ATOM      8  O   UNL     1       5.739   2.449  11.585  1.00  0.00    -0.544 OA
ENDBRANCH   1   6
BRANCH   1   9
ATOM      9  C   UNL     1       2.249   1.625  12.059  1.00  0.00     0.047 C 
ATOM     10  C   UNL     1       0.825   2.126  11.771  1.00  0.00     0.014 C 
ATOM     11  C   UNL     1       2.253   0.096  12.207  1.00  0.00     0.014 C 
ENDBRANCH   1   9
TORSDOF 3
ENDMDL
MODEL 7
REMARK VINA RESULT:    -3.443      1.838      2.759
REMARK INTER + INTRA:          -3.960
REMARK INTER:                  -3.900
REMARK INTRA:                  -0.060
REMARK UNBOUND:                -0.014
REMARK SMILES CC(C)[C@@H]([NH3+])C(=O)[O-]
REMARK SMILES IDX 4 1 5 2 6 6 7 7 8 8 2 9 1 10 3 11
REMARK H PARENT 5 3 5 4 5 5
REMARK Flexibility Score: inf
ROOT
ATOM      1  C   UNL     1       4.926   2.603  12.066  1.00  0.00     0.230 C 
ENDROOT
BRANCH   1   2
ATOM      2  N   UNL     1       6.117   1.815  11.710  1.00  0.00    -0.350 N 
ATOM      3  H   UNL     1       6.040   1.458  10.733  1.00  0.00     0.345 HD
ATOM      4  H   UNL     1       6.992   2.379  11.807  1.00  0.00     0.345 HD
ATOM      5  H   UNL     1       6.186   0.985  12.344  1.00  0.00     0.345 HD
ENDBRANCH   1   2
BRANCH   1   6
ATOM      6  C   UNL     1       5.109   4.050  11.679  1.00  0.00     0.099 C 
ATOM      7  O   UNL     1       5.307   4.357  10.474  1.00  0.00    -0.544 OA
ATOM      8  O   UNL     1       5.107   5.050  12.645  1.00  0.00    -0.544 OA
ENDBRANCH   1   6
BRANCH   1   9
ATOM      9  C   UNL     1       3.611   2.028  11.455  1.00  0.00     0.047 C 
ATOM     10  C   UNL     1       3.308   0.585  11.891  1.00  0.00     0.014 C 
ATOM     11  C   UNL     1       2.404   2.933  11.742  1.00  0.00     0.014 C 
ENDBRANCH   1   9
TORSDOF 3
ENDMDL
MODEL 8
REMARK VINA RESULT:    -3.393      2.893      3.670
REMARK INTER + INTRA:          -3.903
REMARK INTER:                  -3.842
REMARK INTRA:                  -0.061
REMARK UNBOUND:                -0.014
REMARK SMILES CC(C)[C@@H]([NH3+])C(=O)[O-]
REMARK SMILES IDX 4 1 5 2 6 6 7 7 8 8 2 9 1 10 3 11
REMARK H PARENT 5 3 5 4 5 5
REMARK Flexibility Score: inf
ROOT
ATOM      1  C   UNL     1       5.012   2.489  11.480  1.00  0.00     0.230 C 
ENDROOT
BRANCH   1   2
ATOM      2  N   UNL     1       5.961   1.555  12.106  1.00  0.00    -0.350 N 
ATOM      3  H   UNL     1       6.944   1.857  11.928  1.00  0.00     0.345 HD
ATOM      4  H   UNL     1       5.801   1.481  13.137  1.00  0.00     0.345 HD
ATOM      5  H   UNL     1       5.843   0.604  11.684  1.00  0.00     0.345 HD
ENDBRANCH   1   2
BRANCH   1   6
ATOM      6  C   UNL     1       3.590   2.032  11.698  1.00  0.00     0.099 C 
ATOM      7  O   UNL     1       2.672   2.884  11.835  1.00  0.00    -0.544 OA
ATOM      8  O   UNL     1       3.284   0.680  11.797  1.00  0.00    -0.544 OA
ENDBRANCH   1   6
BRANCH   1   9
ATOM      9  C   UNL     1       5.201   3.961  11.958  1.00  0.00     0.047 C 
ATOM     10  C   UNL     1       5.682   4.079  13.413  1.00  0.00     0.014 C 
ATOM     11  C   UNL     1       6.133   4.750  11.026  1.00  0.00     0.014 C 
ENDBRANCH   1   9
TORSDOF 3
ENDMDL
MODEL 9
REMARK VINA RESULT:    -3.369     11.512     12.622
REMARK INTER + INTRA:          -3.875
REMARK INTER:                  -3.828
REMARK INTRA:                  -0.047
REMARK UNBOUND:                -0.014
REMARK SMILES CC(C)[C@@H]([NH3+])C(=O)[O-]
REMARK SMILES IDX 4 1 5 2 6 6 7 7 8 8 2 9 1 10 3 11
REMARK H PARENT 5 3 5 4 5 5
REMARK Flexibility Score: inf
ROOT
ATOM      1  C   UNL     1      -2.296  -4.873  12.590  1.00  0.00     0.230 C 
ENDROOT
BRANCH   1   2
ATOM      2  N   UNL     1      -3.014  -4.178  13.670  1.00  0.00    -0.350 N 
ATOM      3  H   UNL     1      -2.450  -3.374  14.025  1.00  0.00     0.345 HD
ATOM      4  H   UNL     1      -3.947  -3.834  13.350  1.00  0.00     0.345 HD
ATOM      5  H   UNL     1      -3.160  -4.837  14.470  1.00  0.00     0.345 HD
ENDBRANCH   1   2
BRANCH   1   6
ATOM      6  C   UNL     1      -2.743  -6.311  12.492  1.00  0.00     0.099 C 
ATOM      7  O   UNL     1      -1.900  -7.213  12.238  1.00  0.00    -0.544 OA
ATOM      8  O   UNL     1      -4.083  -6.652  12.633  1.00  0.00    -0.544 OA
ENDBRANCH   1   6
BRANCH   1   9
ATOM      9  C   UNL     1      -2.429  -4.157  11.211  1.00  0.00     0.047 C 
ATOM     10  C   UNL     1      -3.810  -3.525  10.975  1.00  0.00     0.014 C 
ATOM     11  C   UNL     1      -1.325  -3.109  11.002  1.00  0.00     0.014 C 
ENDBRANCH   1   9
TORSDOF 3
ENDMDL
