MODEL 1
REMARK VINA RESULT:    10.934      0.000      0.000
REMARK INTER + INTRA:          11.866
REMARK INTER:                  11.893
REMARK INTRA:                  -0.027
REMARK UNBOUND:                -0.027
REMARK SMILES O=C([O-])c1ccc(O)cc1
REMARK SMILES IDX 4 1 5 2 10 3 6 4 9 5 7 6 2 7 1 8 3 9 8 10
REMARK H PARENT 8 11
REMARK Flexibility Score: inf
ROOT
ATOM      1  C   UNL     1      18.448  17.609  20.206  1.00  0.00    -0.003 A 
ATOM      2  C   UNL     1      17.524  18.294  19.398  1.00  0.00     0.014 A 
ATOM      3  C   UNL     1      18.116  16.328  20.685  1.00  0.00     0.014 A 
ATOM      4  C   UNL     1      16.294  17.711  19.076  1.00  0.00     0.047 A 
ATOM      5  C   UNL     1      16.886  15.748  20.360  1.00  0.00     0.047 A 
ATOM      6  C   UNL     1      15.973  16.435  19.556  1.00  0.00     0.115 A 
ENDROOT
BRANCH   1   7
ATOM      7  C   UNL     1      19.748  18.229  20.546  1.00  0.00     0.071 C 
ATOM      8  O   UNL     1      19.836  19.053  21.494  1.00  0.00    -0.545 OA
ATOM      9  O   UNL     1      20.891  17.908  19.824  1.00  0.00    -0.545 OA
ENDBRANCH   1   7
BRANCH   6  10
ATOM     10  O   UNL     1      14.752  15.844  19.242  1.00  0.00    -0.508 OA
ATOM     11  H   UNL     1      14.143  16.233  18.531  1.00  0.00     0.293 HD
ENDBRANCH   6  10
TORSDOF 2
ENDMDL
MODEL 2
REMARK VINA RESULT:    12.178     14.685     15.621
REMARK INTER + INTRA:          13.218
REMARK INTER:                  13.254
REMARK INTRA:                  -0.035
REMARK UNBOUND:                -0.027
REMARK SMILES O=C([O-])c1ccc(O)cc1
REMARK SMILES IDX 4 1 5 2 10 3 6 4 9 5 7 6 2 7 1 8 3 9 8 10
REMARK H PARENT 8 11
REMARK Flexibility Score: inf
ROOT
ATOM      1  C   UNL     1      29.294   7.368  15.007  1.00  0.00    -0.003 A 
ATOM      2  C   UNL     1      28.507   6.211  15.145  1.00  0.00     0.014 A 
ATOM      3  C   UNL     1      28.864   8.561  15.618  1.00  0.00     0.014 A 
ATOM      4  C   UNL     1      27.316   6.247  15.877  1.00  0.00     0.047 A 
ATOM      5  C   UNL     1      27.673   8.593  16.348  1.00  0.00     0.047 A 
ATOM      6  C   UNL     1      26.896   7.439  16.481  1.00  0.00     0.115 A 
ENDROOT
BRANCH   1   7
ATOM      7  C   UNL     1      30.554   7.328  14.232  1.00  0.00     0.071 C 
ATOM      8  O   UNL     1      31.125   8.395  13.882  1.00  0.00    -0.545 OA
ATOM      9  O   UNL     1      31.125   6.111  13.880  1.00  0.00    -0.545 OA
ENDBRANCH   1   7
BRANCH   6  10
ATOM     10  O   UNL     1      25.712   7.486  17.212  1.00  0.00    -0.508 OA
ATOM     11  H   UNL     1      25.248   6.641  17.523  1.00  0.00     0.293 HD
ENDBRANCH   6  10
TORSDOF 2
ENDMDL
MODEL 3
REMARK VINA RESULT:    12.277      3.322      4.390
REMARK INTER + INTRA:          13.326
REMARK INTER:                  13.354
REMARK INTRA:                  -0.027
REMARK UNBOUND:                -0.027
REMARK SMILES O=C([O-])c1ccc(O)cc1
REMARK SMILES IDX 4 1 5 2 10 3 6 4 9 5 7 6 2 7 1 8 3 9 8 10
REMARK H PARENT 8 11
REMARK Flexibility Score: inf
ROOT
ATOM      1  C   UNL     1      17.261  17.484  16.673  1.00  0.00    -0.003 A 
ATOM      2  C   UNL     1      16.054  17.548  17.391  1.00  0.00     0.014 A 
ATOM      3  C   UNL     1      18.472  17.379  17.383  1.00  0.00     0.014 A 
ATOM      4  C   UNL     1      16.058  17.509  18.789  1.00  0.00     0.047 A 
ATOM      5  C   UNL     1      18.471  17.340  18.781  1.00  0.00     0.047 A 
ATOM      6  C   UNL     1      17.267  17.404  19.487  1.00  0.00     0.115 A 
ENDROOT
BRANCH   1   7
ATOM      7  C   UNL     1      17.255  17.526  15.194  1.00  0.00     0.071 C 
ATOM      8  O   UNL     1      16.877  16.527  14.526  1.00  0.00    -0.545 OA
ATOM      9  O   UNL     1      17.665  18.670  14.521  1.00  0.00    -0.545 OA
ENDBRANCH   1   7
BRANCH   6  10
ATOM     10  O   UNL     1      17.283  17.364  20.879  1.00  0.00    -0.508 OA
ATOM     11  H   UNL     1      17.621  18.147  21.427  1.00  0.00     0.293 HD
ENDBRANCH   6  10
TORSDOF 2
ENDMDL
MODEL 4
REMARK VINA RESULT:    13.182     14.626     15.426
REMARK INTER + INTRA:          14.311
REMARK INTER:                  14.338
REMARK INTRA:                  -0.027
REMARK UNBOUND:                -0.027
REMARK SMILES O=C([O-])c1ccc(O)cc1
REMARK SMILES IDX 4 1 5 2 10 3 6 4 9 5 7 6 2 7 1 8 3 9 8 10
REMARK H PARENT 8 11
REMARK Flexibility Score: inf
ROOT
ATOM      1  C   UNL     1      29.180   7.546  15.520  1.00  0.00    -0.003 A 
ATOM      2  C   UNL     1      28.021   8.165  16.021  1.00  0.00     0.014 A 
ATOM      3  C   UNL     1      29.046   6.397  14.718  1.00  0.00     0.014 A 
ATOM      4  C   UNL     1      26.756   7.646  15.726  1.00  0.00     0.047 A 
ATOM      5  C   UNL     1      27.780   5.881  14.426  1.00  0.00     0.047 A 
ATOM      6  C   UNL     1      26.633   6.502  14.928  1.00  0.00     0.115 A 
ENDROOT
BRANCH   1   7
ATOM      7  C   UNL     1      30.517   8.097  15.833  1.00  0.00     0.071 C 
ATOM      8  O   UNL     1      31.125   7.746  16.880  1.00  0.00    -0.545 OA
ATOM      9  O   UNL     1      31.121   9.008  14.976  1.00  0.00    -0.545 OA
ENDBRANCH   1   7
BRANCH   6  10
ATOM     10  O   UNL     1      25.379   5.976  14.627  1.00  0.00    -0.508 OA
ATOM     11  H   UNL     1      24.692   5.802  15.351  1.00  0.00     0.293 HD
ENDBRANCH   6  10
TORSDOF 2
ENDMDL
