MODEL 1
REMARK VINA RESULT:    66.109      0.000      0.000
REMARK INTER + INTRA:         107.195
REMARK INTER:                 102.825
REMARK INTRA:                   4.370
REMARK UNBOUND:                 4.370
REMARK SMILES C[C@@]12C[C@@]3(O)O[C@@H](O1)[C@]1(COC(=O)c4ccccc4)[C@H]3C[C@@]12O[C@H]1O[C@H](CO)[C@H](O)[C@@H](O)[C@H]1O
REMARK SMILES IDX 1 1 2 2 3 3 4 4 20 5 21 6 22 7 9 8 7 9 8 10 6 11 23 12 24 13
REMARK SMILES IDX 33 14 25 15 31 16 26 17 29 18 34 19 32 21 27 23 28 24 30 26
REMARK SMILES IDX 5 28 10 30 11 31 12 32 13 33 14 34 15 35 19 36 16 37 18 38
REMARK SMILES IDX 17 39
REMARK H PARENT 34 20 32 22 28 25 30 27 5 29
REMARK Flexibility Score: inf
ROOT
ATOM      1  C   UNL     1      11.260   3.160  26.475  1.00  0.00     0.046 C 
ATOM      2  C   UNL     1      11.593   3.690  27.869  1.00  0.00     0.104 C 
ATOM      3  C   UNL     1      11.829   5.246  27.849  1.00  0.00     0.104 C 
ATOM      4  C   UNL     1      12.215   5.582  29.334  1.00  0.00     0.175 C 
ATOM      5  C   UNL     1      13.330   4.613  29.842  1.00  0.00     0.070 C 
ATOM      6  C   UNL     1      14.071   3.895  28.705  1.00  0.00     0.050 C 
ATOM      7  C   UNL     1      12.820   2.996  28.578  1.00  0.00     0.115 C 
ATOM      8  C   UNL     1      12.468   3.374  30.016  1.00  0.00     0.096 C 
ATOM      9  C   UNL     1      11.025   3.841  30.018  1.00  0.00     0.267 C 
ATOM     10  O   UNL     1      10.505   3.480  28.749  1.00  0.00    -0.342 OA
ATOM     11  O   UNL     1      11.082   5.255  30.115  1.00  0.00    -0.320 OA
ENDROOT
BRANCH   7  12
ATOM     12  O   UNL     1      12.975   1.594  28.410  1.00  0.00    -0.339 OA
BRANCH  12  13
ATOM     13  C   UNL     1      14.309   1.236  28.094  1.00  0.00     0.282 C 
ATOM     14  C   UNL     1      15.009   2.471  27.477  1.00  0.00     0.202 C 
ATOM     15  O   UNL     1      14.293   0.081  27.255  1.00  0.00    -0.341 OA
ATOM     16  C   UNL     1      16.470   2.122  27.119  1.00  0.00     0.179 C 
ATOM     17  C   UNL     1      15.236   0.069  26.190  1.00  0.00     0.178 C 
ATOM     18  C   UNL     1      16.616   0.673  26.574  1.00  0.00     0.177 C 
BRANCH  14  19
ATOM     19  O   UNL     1      14.306   2.911  26.341  1.00  0.00    -0.385 OA
ATOM     20  H   UNL     1      14.446   2.232  25.631  1.00  0.00     0.211 HD
ENDBRANCH  14  19
BRANCH  16  21
ATOM     21  O   UNL     1      17.007   3.069  26.227  1.00  0.00    -0.387 OA
ATOM     22  H   UNL     1      17.853   3.413  26.619  1.00  0.00     0.211 HD
ENDBRANCH  16  21
BRANCH  17  23
ATOM     23  C   UNL     1      15.375  -1.379  25.689  1.00  0.00     0.191 C 
BRANCH  23  24
ATOM     24  O   UNL     1      16.453  -1.507  24.802  1.00  0.00    -0.394 OA
ATOM     25  H   UNL     1      16.067  -1.731  23.916  1.00  0.00     0.210 HD
ENDBRANCH  23  24
ENDBRANCH  17  23
BRANCH  18  26
ATOM     26  O   UNL     1      17.299  -0.148  27.490  1.00  0.00    -0.387 OA
ATOM     27  H   UNL     1      17.918  -0.729  26.978  1.00  0.00     0.211 HD
ENDBRANCH  18  26
ENDBRANCH  12  13
ENDBRANCH   7  12
BRANCH   4  28
ATOM     28  O   UNL     1      12.585   6.923  29.501  1.00  0.00    -0.365 OA
ATOM     29  H   UNL     1      12.992   6.997  30.402  1.00  0.00     0.214 HD
ENDBRANCH   4  28
BRANCH   8  30
ATOM     30  C   UNL     1      12.890   2.410  31.141  1.00  0.00     0.249 C 
BRANCH  30  31
ATOM     31  O   UNL     1      13.091   3.147  32.343  1.00  0.00    -0.461 OA
BRANCH  31  32
ATOM     32  C   UNL     1      13.033   2.565  33.612  1.00  0.00     0.338 C 
ATOM     33  O   UNL     1      12.290   1.565  33.817  1.00  0.00    -0.246 OA
BRANCH  32  34
ATOM     34  C   UNL     1      13.843   3.131  34.713  1.00  0.00     0.060 A 
ATOM     35  C   UNL     1      13.591   4.435  35.179  1.00  0.00     0.015 A 
ATOM     36  C   UNL     1      14.865   2.375  35.318  1.00  0.00     0.015 A 
ATOM     37  C   UNL     1      14.344   4.968  36.229  1.00  0.00     0.001 A 
ATOM     38  C   UNL     1      15.615   2.915  36.368  1.00  0.00     0.001 A 
ATOM     39  C   UNL     1      15.355   4.209  36.823  1.00  0.00     0.000 A 
ENDBRANCH  32  34
ENDBRANCH  31  32
ENDBRANCH  30  31
ENDBRANCH   8  30
TORSDOF 12
ENDMDL
MODEL 2
REMARK VINA RESULT:    67.604      0.937      2.020
REMARK INTER + INTRA:         109.519
REMARK INTER:                 109.043
REMARK INTRA:                   0.476
REMARK UNBOUND:                 4.370
REMARK SMILES C[C@@]12C[C@@]3(O)O[C@@H](O1)[C@]1(COC(=O)c4ccccc4)[C@H]3C[C@@]12O[C@H]1O[C@H](CO)[C@H](O)[C@@H](O)[C@H]1O
REMARK SMILES IDX 1 1 2 2 3 3 4 4 20 5 21 6 22 7 9 8 7 9 8 10 6 11 23 12 24 13
REMARK SMILES IDX 33 14 25 15 31 16 26 17 29 18 34 19 32 21 27 23 28 24 30 26
REMARK SMILES IDX 5 28 10 30 11 31 12 32 13 33 14 34 15 35 19 36 16 37 18 38
REMARK SMILES IDX 17 39
REMARK H PARENT 34 20 32 22 28 25 30 27 5 29
REMARK Flexibility Score: inf
ROOT
ATOM      1  C   UNL     1      11.210   3.033  26.893  1.00  0.00     0.046 C 
ATOM      2  C   UNL     1      11.610   3.788  28.160  1.00  0.00     0.104 C 
ATOM      3  C   UNL     1      11.487   5.345  27.961  1.00  0.00     0.104 C 
ATOM      4  C   UNL     1      11.993   5.934  29.326  1.00  0.00     0.175 C 
ATOM      5  C   UNL     1      13.357   5.287  29.730  1.00  0.00     0.070 C 
ATOM      6  C   UNL     1      14.072   4.603  28.555  1.00  0.00     0.050 C 
ATOM      7  C   UNL     1      13.047   3.457  28.717  1.00  0.00     0.115 C 
ATOM      8  C   UNL     1      12.827   3.928  30.154  1.00  0.00     0.096 C 
ATOM      9  C   UNL     1      11.331   4.083  30.350  1.00  0.00     0.267 C 
ATOM     10  O   UNL     1      10.731   3.469  29.222  1.00  0.00    -0.342 OA
ATOM     11  O   UNL     1      11.084   5.479  30.309  1.00  0.00    -0.320 OA
ENDROOT
BRANCH   7  12
ATOM     12  O   UNL     1      13.487   2.107  28.653  1.00  0.00    -0.339 OA
BRANCH  12  13
ATOM     13  C   UNL     1      14.173   1.822  27.445  1.00  0.00     0.282 C 
ATOM     14  C   UNL     1      14.673   0.359  27.505  1.00  0.00     0.202 C 
ATOM     15  O   UNL     1      15.201   2.794  27.256  1.00  0.00    -0.341 OA
ATOM     16  C   UNL     1      15.426   0.008  26.204  1.00  0.00     0.179 C 
ATOM     17  C   UNL     1      16.437   2.306  26.748  1.00  0.00     0.178 C 
ATOM     18  C   UNL     1      16.272   1.198  25.671  1.00  0.00     0.177 C 
BRANCH  14  19
ATOM     19  O   UNL     1      15.499   0.173  28.628  1.00  0.00    -0.385 OA
ATOM     20  H   UNL     1      15.465  -0.792  28.859  1.00  0.00     0.211 HD
ENDBRANCH  14  19
BRANCH  16  21
ATOM     21  O   UNL     1      16.208  -1.150  26.374  1.00  0.00    -0.387 OA
ATOM     22  H   UNL     1      15.977  -1.549  27.254  1.00  0.00     0.211 HD
ENDBRANCH  16  21
BRANCH  17  23
ATOM     23  C   UNL     1      17.239   3.502  26.208  1.00  0.00     0.191 C 
BRANCH  23  24
ATOM     24  O   UNL     1      18.617   3.245  26.244  1.00  0.00    -0.394 OA
ATOM     25  H   UNL     1      18.890   3.029  25.315  1.00  0.00     0.210 HD
ENDBRANCH  23  24
ENDBRANCH  17  23
BRANCH  18  26
ATOM     26  O   UNL     1      15.728   1.716  24.480  1.00  0.00    -0.387 OA
ATOM     27  H   UNL     1      14.775   1.448  24.438  1.00  0.00     0.211 HD
ENDBRANCH  18  26
ENDBRANCH  12  13
ENDBRANCH   7  12
BRANCH   4  28
ATOM     28  O   UNL     1      12.074   7.333  29.308  1.00  0.00    -0.365 OA
ATOM     29  H   UNL     1      11.322   7.669  29.860  1.00  0.00     0.214 HD
ENDBRANCH   4  28
BRANCH   8  30
ATOM     30  C   UNL     1      13.607   3.219  31.275  1.00  0.00     0.249 C 
BRANCH  30  31
ATOM     31  O   UNL     1      13.098   3.633  32.540  1.00  0.00    -0.461 OA
BRANCH  31  32
ATOM     32  C   UNL     1      13.120   2.819  33.674  1.00  0.00     0.338 C 
ATOM     33  O   UNL     1      12.478   1.732  33.686  1.00  0.00    -0.246 OA
BRANCH  32  34
ATOM     34  C   UNL     1      13.894   3.240  34.862  1.00  0.00     0.060 A 
ATOM     35  C   UNL     1      13.514   4.386  35.585  1.00  0.00     0.015 A 
ATOM     36  C   UNL     1      15.011   2.500  35.294  1.00  0.00     0.015 A 
ATOM     37  C   UNL     1      14.235   4.779  36.716  1.00  0.00     0.001 A 
ATOM     38  C   UNL     1      15.729   2.899  36.426  1.00  0.00     0.001 A 
ATOM     39  C   UNL     1      15.340   4.037  37.136  1.00  0.00     0.000 A 
ENDBRANCH  32  34
ENDBRANCH  31  32
ENDBRANCH  30  31
ENDBRANCH   8  30
TORSDOF 12
ENDMDL
