MODEL 1
REMARK VINA RESULT:    -4.992      0.000      0.000
REMARK INTER + INTRA:          -8.498
REMARK INTER:                  -7.618
REMARK INTRA:                  -0.880
REMARK UNBOUND:                -0.880
REMARK SMILES O=C([O-])CCCCCCCCC(=O)[O-]
REMARK SMILES IDX 7 1 6 2 5 3 4 4 2 5 1 6 3 7 8 8 9 9 10 10 11 11 12 12 13 13
REMARK SMILES IDX 14 14
REMARK H PARENT
REMARK Flexibility Score: inf
ROOT
ATOM      1  C   UNL     1      54.950  17.485  -0.747  1.00  0.00     0.000 C 
ENDROOT
BRANCH   1   2
ATOM      2  C   UNL     1      55.208  17.625   0.758  1.00  0.00     0.000 C 
BRANCH   2   3
ATOM      3  C   UNL     1      56.634  17.191   1.116  1.00  0.00     0.006 C 
BRANCH   3   4
ATOM      4  C   UNL     1      57.140  16.114   0.151  1.00  0.00     0.053 C 
BRANCH   4   5
ATOM      5  C   UNL     1      58.435  15.544   0.634  1.00  0.00     0.041 C 
ATOM      6  O   UNL     1      59.448  16.282   0.751  1.00  0.00    -0.550 OA
ATOM      7  O   UNL     1      58.538  14.186   0.908  1.00  0.00    -0.550 OA
ENDBRANCH   4   5
ENDBRANCH   3   4
ENDBRANCH   2   3
ENDBRANCH   1   2
BRANCH   1   8
ATOM      8  C   UNL     1      53.513  17.887  -1.100  1.00  0.00     0.000 C 
BRANCH   8   9
ATOM      9  C   UNL     1      52.708  16.675  -1.592  1.00  0.00     0.000 C 
BRANCH   9  10
ATOM     10  C   UNL     1      53.578  15.420  -1.787  1.00  0.00     0.006 C 
BRANCH  10  11
ATOM     11  C   UNL     1      53.181  14.229  -0.899  1.00  0.00     0.053 C 
BRANCH  11  12
ATOM     12  C   UNL     1      54.270  13.855   0.058  1.00  0.00     0.041 C 
ATOM     13  O   UNL     1      55.252  13.174  -0.334  1.00  0.00    -0.550 OA
ATOM     14  O   UNL     1      54.216  14.289   1.378  1.00  0.00    -0.550 OA
ENDBRANCH  11  12
ENDBRANCH  10  11
ENDBRANCH   9  10
ENDBRANCH   8   9
ENDBRANCH   1   8
TORSDOF 9
ENDMDL
MODEL 2
REMARK VINA RESULT:    -4.972      2.092      2.913
REMARK INTER + INTRA:          -8.468
REMARK INTER:                  -7.544
REMARK INTRA:                  -0.924
REMARK UNBOUND:                -0.880
REMARK SMILES O=C([O-])CCCCCCCCC(=O)[O-]
REMARK SMILES IDX 7 1 6 2 5 3 4 4 2 5 1 6 3 7 8 8 9 9 10 10 11 11 12 12 13 13
REMARK SMILES IDX 14 14
REMARK H PARENT
REMARK Flexibility Score: inf
ROOT
ATOM      1  C   UNL     1      52.379  16.349   1.710  1.00  0.00     0.000 C 
ENDROOT
BRANCH   1   2
ATOM      2  C   UNL     1      53.225  17.485   2.297  1.00  0.00     0.000 C 
BRANCH   2   3
ATOM      3  C   UNL     1      54.696  17.071   2.422  1.00  0.00     0.006 C 
BRANCH   3   4
ATOM      4  C   UNL     1      55.588  17.934   1.525  1.00  0.00     0.053 C 
BRANCH   4   5
ATOM      5  C   UNL     1      56.295  17.085   0.517  1.00  0.00     0.041 C 
ATOM      6  O   UNL     1      55.859  17.004  -0.661  1.00  0.00    -0.550 OA
ATOM      7  O   UNL     1      57.408  16.342   0.890  1.00  0.00    -0.550 OA
ENDBRANCH   4   5
ENDBRANCH   3   4
ENDBRANCH   2   3
ENDBRANCH   1   2
BRANCH   1   8
ATOM      8  C   UNL     1      53.251  15.140   1.351  1.00  0.00     0.000 C 
BRANCH   8   9
ATOM      9  C   UNL     1      53.142  14.807  -0.143  1.00  0.00     0.000 C 
BRANCH   9  10
ATOM     10  C   UNL     1      54.248  13.849  -0.624  1.00  0.00     0.006 C 
BRANCH  10  11
ATOM     11  C   UNL     1      55.303  13.513   0.443  1.00  0.00     0.053 C 
BRANCH  11  12
ATOM     12  C   UNL     1      56.366  12.601  -0.086  1.00  0.00     0.041 C 
ATOM     13  O   UNL     1      57.520  13.044  -0.324  1.00  0.00    -0.550 OA
ATOM     14  O   UNL     1      56.091  11.253  -0.285  1.00  0.00    -0.550 OA
ENDBRANCH  11  12
ENDBRANCH  10  11
ENDBRANCH   9  10
ENDBRANCH   8   9
ENDBRANCH   1   8
TORSDOF 9
ENDMDL
MODEL 3
REMARK VINA RESULT:    -4.959      3.526      5.476
REMARK INTER + INTRA:          -8.448
REMARK INTER:                  -7.647
REMARK INTRA:                  -0.801
REMARK UNBOUND:                -0.880
REMARK SMILES O=C([O-])CCCCCCCCC(=O)[O-]
REMARK SMILES IDX 7 1 6 2 5 3 4 4 2 5 1 6 3 7 8 8 9 9 10 10 11 11 12 12 13 13
REMARK SMILES IDX 14 14
REMARK H PARENT
REMARK Flexibility Score: inf
ROOT
ATOM      1  C   UNL     1      53.409  15.251   1.554  1.00  0.00     0.000 C 
ENDROOT
BRANCH   1   2
ATOM      2  C   UNL     1      54.169  16.463   2.105  1.00  0.00     0.000 C 
BRANCH   2   3
ATOM      3  C   UNL     1      53.202  17.519   2.653  1.00  0.00     0.006 C 
BRANCH   3   4
ATOM      4  C   UNL     1      51.869  17.487   1.900  1.00  0.00     0.053 C 
BRANCH   4   5
ATOM      5  C   UNL     1      50.956  18.559   2.405  1.00  0.00     0.041 C 
ATOM      6  O   UNL     1      50.708  18.652   3.635  1.00  0.00    -0.550 OA
ATOM      7  O   UNL     1      50.338  19.425   1.511  1.00  0.00    -0.550 OA
ENDBRANCH   4   5
ENDBRANCH   3   4
ENDBRANCH   2   3
ENDBRANCH   1   2
BRANCH   1   8
ATOM      8  C   UNL     1      54.378  14.175   1.049  1.00  0.00     0.000 C 
BRANCH   8   9
ATOM      9  C   UNL     1      54.112  13.844  -0.426  1.00  0.00     0.000 C 
BRANCH   9  10
ATOM     10  C   UNL     1      52.993  14.706  -1.040  1.00  0.00     0.006 C 
BRANCH  10  11
ATOM     11  C   UNL     1      53.491  15.810  -1.988  1.00  0.00     0.053 C 
BRANCH  11  12
ATOM     12  C   UNL     1      53.051  17.170  -1.545  1.00  0.00     0.041 C 
ATOM     13  O   UNL     1      53.892  17.998  -1.106  1.00  0.00    -0.550 OA
ATOM     14  O   UNL     1      51.714  17.537  -1.647  1.00  0.00    -0.550 OA
ENDBRANCH  11  12
ENDBRANCH  10  11
ENDBRANCH   9  10
ENDBRANCH   8   9
ENDBRANCH   1   8
TORSDOF 9
ENDMDL
MODEL 4
REMARK VINA RESULT:    -4.903      2.125      4.064
REMARK INTER + INTRA:          -8.362
REMARK INTER:                  -7.509
REMARK INTRA:                  -0.853
REMARK UNBOUND:                -0.880
REMARK SMILES O=C([O-])CCCCCCCCC(=O)[O-]
REMARK SMILES IDX 7 1 6 2 5 3 4 4 2 5 1 6 3 7 8 8 9 9 10 10 11 11 12 12 13 13
REMARK SMILES IDX 14 14
REMARK H PARENT
REMARK Flexibility Score: inf
ROOT
ATOM      1  C   UNL     1      53.314  14.946   1.332  1.00  0.00     0.000 C 
ENDROOT
BRANCH   1   2
ATOM      2  C   UNL     1      53.412  14.666  -0.172  1.00  0.00     0.000 C 
BRANCH   2   3
ATOM      3  C   UNL     1      54.281  13.433  -0.448  1.00  0.00     0.006 C 
BRANCH   3   4
ATOM      4  C   UNL     1      55.529  13.430   0.440  1.00  0.00     0.053 C 
BRANCH   4   5
ATOM      5  C   UNL     1      56.561  12.497  -0.110  1.00  0.00     0.041 C 
ATOM      6  O   UNL     1      56.315  11.266  -0.204  1.00  0.00    -0.550 OA
ATOM      7  O   UNL     1      57.813  12.978  -0.472  1.00  0.00    -0.550 OA
ENDBRANCH   4   5
ENDBRANCH   3   4
ENDBRANCH   2   3
ENDBRANCH   1   2
BRANCH   1   8
ATOM      8  C   UNL     1      52.423  16.163   1.610  1.00  0.00     0.000 C 
BRANCH   8   9
ATOM      9  C   UNL     1      53.205  17.260   2.346  1.00  0.00     0.000 C 
BRANCH   9  10
ATOM     10  C   UNL     1      54.708  16.948   2.462  1.00  0.00     0.006 C 
BRANCH  10  11
ATOM     11  C   UNL     1      55.609  17.840   1.592  1.00  0.00     0.053 C 
BRANCH  11  12
ATOM     12  C   UNL     1      56.305  17.059   0.521  1.00  0.00     0.041 C 
ATOM     13  O   UNL     1      55.852  17.050  -0.653  1.00  0.00    -0.550 OA
ATOM     14  O   UNL     1      57.476  16.368   0.812  1.00  0.00    -0.550 OA
ENDBRANCH  11  12
ENDBRANCH  10  11
ENDBRANCH   9  10
ENDBRANCH   8   9
ENDBRANCH   1   8
TORSDOF 9
ENDMDL
MODEL 5
REMARK VINA RESULT:    -4.897      2.201      3.387
REMARK INTER + INTRA:          -8.353
REMARK INTER:                  -7.261
REMARK INTRA:                  -1.092
REMARK UNBOUND:                -0.880
REMARK SMILES O=C([O-])CCCCCCCCC(=O)[O-]
REMARK SMILES IDX 7 1 6 2 5 3 4 4 2 5 1 6 3 7 8 8 9 9 10 10 11 11 12 12 13 13
REMARK SMILES IDX 14 14
REMARK H PARENT
REMARK Flexibility Score: inf
ROOT
ATOM      1  C   UNL     1      53.622  15.627  -1.900  1.00  0.00     0.000 C 
ENDROOT
BRANCH   1   2
ATOM      2  C   UNL     1      53.244  17.062  -1.515  1.00  0.00     0.000 C 
BRANCH   2   3
ATOM      3  C   UNL     1      54.397  17.760  -0.784  1.00  0.00     0.006 C 
BRANCH   3   4
ATOM      4  C   UNL     1      55.745  17.143  -1.168  1.00  0.00     0.053 C 
BRANCH   4   5
ATOM      5  C   UNL     1      56.520  16.773   0.056  1.00  0.00     0.041 C 
ATOM      6  O   UNL     1      57.215  15.724   0.074  1.00  0.00    -0.550 OA
ATOM      7  O   UNL     1      56.436  17.561   1.198  1.00  0.00    -0.550 OA
ENDBRANCH   4   5
ENDBRANCH   3   4
ENDBRANCH   2   3
ENDBRANCH   1   2
BRANCH   1   8
ATOM      8  C   UNL     1      53.009  14.614  -0.926  1.00  0.00     0.000 C 
BRANCH   8   9
ATOM      9  C   UNL     1      54.058  14.106   0.073  1.00  0.00     0.000 C 
BRANCH   9  10
ATOM     10  C   UNL     1      53.859  14.676   1.490  1.00  0.00     0.006 C 
BRANCH  10  11
ATOM     11  C   UNL     1      52.482  15.317   1.726  1.00  0.00     0.053 C 
BRANCH  11  12
ATOM     12  C   UNL     1      52.591  16.772   2.066  1.00  0.00     0.041 C 
ATOM     13  O   UNL     1      53.598  17.204   2.686  1.00  0.00    -0.550 OA
ATOM     14  O   UNL     1      51.596  17.657   1.667  1.00  0.00    -0.550 OA
ENDBRANCH  11  12
ENDBRANCH  10  11
ENDBRANCH   9  10
ENDBRANCH   8   9
ENDBRANCH   1   8
TORSDOF 9
ENDMDL
MODEL 6
REMARK VINA RESULT:    -4.806      3.322      6.017
REMARK INTER + INTRA:          -8.215
REMARK INTER:                  -7.447
REMARK INTRA:                  -0.768
REMARK UNBOUND:                -0.880
REMARK SMILES O=C([O-])CCCCCCCCC(=O)[O-]
REMARK SMILES IDX 7 1 6 2 5 3 4 4 2 5 1 6 3 7 8 8 9 9 10 10 11 11 12 12 13 13
REMARK SMILES IDX 14 14
REMARK H PARENT
REMARK Flexibility Score: inf
ROOT
ATOM      1  C   UNL     1      54.142  17.754  -1.065  1.00  0.00     0.000 C 
ENDROOT
BRANCH   1   2
ATOM      2  C   UNL     1      53.109  16.737  -1.563  1.00  0.00     0.000 C 
BRANCH   2   3
ATOM      3  C   UNL     1      51.832  17.437  -2.043  1.00  0.00     0.006 C 
BRANCH   3   4
ATOM      4  C   UNL     1      51.417  18.549  -1.075  1.00  0.00     0.053 C 
BRANCH   4   5
ATOM      5  C   UNL     1      49.936  18.537  -0.869  1.00  0.00     0.041 C 
ATOM      6  O   UNL     1      49.165  18.249  -1.821  1.00  0.00    -0.550 OA
ATOM      7  O   UNL     1      49.402  18.894   0.364  1.00  0.00    -0.550 OA
ENDBRANCH   4   5
ENDBRANCH   3   4
ENDBRANCH   2   3
ENDBRANCH   1   2
BRANCH   1   8
ATOM      8  C   UNL     1      55.533  17.119  -0.954  1.00  0.00     0.000 C 
BRANCH   8   9
ATOM      9  C   UNL     1      55.918  16.890   0.514  1.00  0.00     0.000 C 
BRANCH   9  10
ATOM     10  C   UNL     1      55.217  17.869   1.475  1.00  0.00     0.006 C 
BRANCH  10  11
ATOM     11  C   UNL     1      54.410  17.189   2.594  1.00  0.00     0.053 C 
BRANCH  11  12
ATOM     12  C   UNL     1      52.973  17.008   2.218  1.00  0.00     0.041 C 
ATOM     13  O   UNL     1      52.565  15.898   1.787  1.00  0.00    -0.550 OA
ATOM     14  O   UNL     1      52.074  18.057   2.376  1.00  0.00    -0.550 OA
ENDBRANCH  11  12
ENDBRANCH  10  11
ENDBRANCH   9  10
ENDBRANCH   8   9
ENDBRANCH   1   8
TORSDOF 9
ENDMDL
MODEL 7
REMARK VINA RESULT:    -4.765      3.461      5.058
REMARK INTER + INTRA:          -8.152
REMARK INTER:                  -7.357
REMARK INTRA:                  -0.795
REMARK UNBOUND:                -0.880
REMARK SMILES O=C([O-])CCCCCCCCC(=O)[O-]
REMARK SMILES IDX 7 1 6 2 5 3 4 4 2 5 1 6 3 7 8 8 9 9 10 10 11 11 12 12 13 13
REMARK SMILES IDX 14 14
REMARK H PARENT
REMARK Flexibility Score: inf
ROOT
ATOM      1  C   UNL     1      55.857  17.032  -0.770  1.00  0.00     0.000 C 
ENDROOT
BRANCH   1   2
ATOM      2  C   UNL     1      56.040  16.879   0.744  1.00  0.00     0.000 C 
BRANCH   2   3
ATOM      3  C   UNL     1      55.185  17.895   1.509  1.00  0.00     0.006 C 
BRANCH   3   4
ATOM      4  C   UNL     1      54.393  17.215   2.630  1.00  0.00     0.053 C 
BRANCH   4   5
ATOM      5  C   UNL     1      52.969  17.016   2.220  1.00  0.00     0.041 C 
ATOM      6  O   UNL     1      52.601  15.924   1.714  1.00  0.00    -0.550 OA
ATOM      7  O   UNL     1      52.056  18.056   2.349  1.00  0.00    -0.550 OA
ENDBRANCH   4   5
ENDBRANCH   3   4
ENDBRANCH   2   3
ENDBRANCH   1   2
BRANCH   1   8
ATOM      8  C   UNL     1      54.494  17.650  -1.102  1.00  0.00     0.000 C 
BRANCH   8   9
ATOM      9  C   UNL     1      53.499  16.575  -1.562  1.00  0.00     0.000 C 
BRANCH   9  10
ATOM     10  C   UNL     1      52.144  17.162  -1.998  1.00  0.00     0.006 C 
BRANCH  10  11
ATOM     11  C   UNL     1      51.643  18.320  -1.117  1.00  0.00     0.053 C 
BRANCH  11  12
ATOM     12  C   UNL     1      50.479  19.030  -1.734  1.00  0.00     0.041 C 
ATOM     13  O   UNL     1      50.600  20.217  -2.135  1.00  0.00    -0.550 OA
ATOM     14  O   UNL     1      49.266  18.369  -1.897  1.00  0.00    -0.550 OA
ENDBRANCH  11  12
ENDBRANCH  10  11
ENDBRANCH   9  10
ENDBRANCH   8   9
ENDBRANCH   1   8
TORSDOF 9
ENDMDL
MODEL 8
REMARK VINA RESULT:    -4.745      3.116      5.761
REMARK INTER + INTRA:          -8.121
REMARK INTER:                  -7.283
REMARK INTRA:                  -0.839
REMARK UNBOUND:                -0.880
REMARK SMILES O=C([O-])CCCCCCCCC(=O)[O-]
REMARK SMILES IDX 7 1 6 2 5 3 4 4 2 5 1 6 3 7 8 8 9 9 10 10 11 11 12 12 13 13
REMARK SMILES IDX 14 14
REMARK H PARENT
REMARK Flexibility Score: inf
ROOT
ATOM      1  C   UNL     1      52.973  14.893  -0.671  1.00  0.00     0.000 C 
ENDROOT
BRANCH   1   2
ATOM      2  C   UNL     1      53.533  15.655  -1.878  1.00  0.00     0.000 C 
BRANCH   2   3
ATOM      3  C   UNL     1      52.567  16.756  -2.332  1.00  0.00     0.006 C 
BRANCH   3   4
ATOM      4  C   UNL     1      51.989  17.510  -1.130  1.00  0.00     0.053 C 
BRANCH   4   5
ATOM      5  C   UNL     1      50.725  18.212  -1.511  1.00  0.00     0.041 C 
ATOM      6  O   UNL     1      50.579  18.667  -2.676  1.00  0.00    -0.550 OA
ATOM      7  O   UNL     1      49.727  18.410  -0.566  1.00  0.00    -0.550 OA
ENDBRANCH   4   5
ENDBRANCH   3   4
ENDBRANCH   2   3
ENDBRANCH   1   2
BRANCH   1   8
ATOM      8  C   UNL     1      54.098  14.231   0.134  1.00  0.00     0.000 C 
BRANCH   8   9
ATOM      9  C   UNL     1      53.997  14.595   1.622  1.00  0.00     0.000 C 
BRANCH   9  10
ATOM     10  C   UNL     1      53.444  16.014   1.853  1.00  0.00     0.006 C 
BRANCH  10  11
ATOM     11  C   UNL     1      54.506  17.047   2.266  1.00  0.00     0.053 C 
BRANCH  11  12
ATOM     12  C   UNL     1      55.467  17.339   1.156  1.00  0.00     0.041 C 
ATOM     13  O   UNL     1      55.091  17.989   0.146  1.00  0.00    -0.550 OA
ATOM     14  O   UNL     1      56.789  16.920   1.251  1.00  0.00    -0.550 OA
ENDBRANCH  11  12
ENDBRANCH  10  11
ENDBRANCH   9  10
ENDBRANCH   8   9
ENDBRANCH   1   8
TORSDOF 9
ENDMDL
MODEL 9
REMARK VINA RESULT:    -4.742      3.836      5.905
REMARK INTER + INTRA:          -8.117
REMARK INTER:                  -7.319
REMARK INTRA:                  -0.798
REMARK UNBOUND:                -0.880
REMARK SMILES O=C([O-])CCCCCCCCC(=O)[O-]
REMARK SMILES IDX 7 1 6 2 5 3 4 4 2 5 1 6 3 7 8 8 9 9 10 10 11 11 12 12 13 13
REMARK SMILES IDX 14 14
REMARK H PARENT
REMARK Flexibility Score: inf
ROOT
ATOM      1  C   UNL     1      54.451  16.908   2.564  1.00  0.00     0.000 C 
ENDROOT
BRANCH   1   2
ATOM      2  C   UNL     1      52.987  16.703   2.157  1.00  0.00     0.000 C 
BRANCH   2   3
ATOM      3  C   UNL     1      52.136  17.924   2.527  1.00  0.00     0.006 C 
BRANCH   3   4
ATOM      4  C   UNL     1      50.768  17.868   1.842  1.00  0.00     0.053 C 
BRANCH   4   5
ATOM      5  C   UNL     1      50.211  19.246   1.672  1.00  0.00     0.041 C 
ATOM      6  O   UNL     1      50.256  20.070   2.622  1.00  0.00    -0.550 OA
ATOM      7  O   UNL     1      49.594  19.605   0.479  1.00  0.00    -0.550 OA
ENDBRANCH   4   5
ENDBRANCH   3   4
ENDBRANCH   2   3
ENDBRANCH   1   2
BRANCH   1   8
ATOM      8  C   UNL     1      55.153  17.895   1.623  1.00  0.00     0.000 C 
BRANCH   8   9
ATOM      9  C   UNL     1      56.097  17.161   0.660  1.00  0.00     0.000 C 
BRANCH   9  10
ATOM     10  C   UNL     1      55.493  16.977  -0.744  1.00  0.00     0.006 C 
BRANCH  10  11
ATOM     11  C   UNL     1      54.341  17.943  -1.069  1.00  0.00     0.053 C 
BRANCH  11  12
ATOM     12  C   UNL     1      53.097  17.215  -1.476  1.00  0.00     0.041 C 
ATOM     13  O   UNL     1      53.147  15.996  -1.782  1.00  0.00    -0.550 OA
ATOM     14  O   UNL     1      51.874  17.877  -1.485  1.00  0.00    -0.550 OA
ENDBRANCH  11  12
ENDBRANCH  10  11
ENDBRANCH   9  10
ENDBRANCH   8   9
ENDBRANCH   1   8
TORSDOF 9
ENDMDL
