MODEL 1
REMARK VINA RESULT:    -2.519      0.000      0.000
REMARK INTER + INTRA:          -2.898
REMARK INTER:                  -2.667
REMARK INTRA:                  -0.231
REMARK UNBOUND:                -0.231
REMARK SMILES CC1=C[C@@H]2C(=C(C)CC[C@H]2C(C)C)CC1
REMARK SMILES IDX 1 1 2 2 3 3 4 4 10 5 9 6 8 7 6 8 5 9 14 10 15 11 7 12 11 13
REMARK SMILES IDX 12 14 13 15
REMARK H PARENT
REMARK Flexibility Score: inf
ROOT
ATOM      1  C   UNL     1     167.347 155.967 139.434  1.00  0.00     0.039 C 
ATOM      2  C   UNL     1     165.914 156.405 139.550  1.00  0.00    -0.076 C 
ATOM      3  C   UNL     1     165.560 157.320 140.470  1.00  0.00    -0.020 C 
ATOM      4  C   UNL     1     164.120 157.792 140.553  1.00  0.00     0.041 C 
ATOM      5  C   UNL     1     163.966 159.013 141.501  1.00  0.00     0.003 C 
ATOM      6  C   UNL     1     162.585 159.656 141.280  1.00  0.00     0.009 C 
ATOM      7  C   UNL     1     162.468 160.163 139.846  1.00  0.00     0.031 C 
ATOM      8  C   UNL     1     162.806 159.101 138.822  1.00  0.00    -0.073 C 
ATOM      9  C   UNL     1     163.613 158.043 139.127  1.00  0.00    -0.064 C 
ATOM     10  C   UNL     1     164.005 157.029 138.052  1.00  0.00     0.036 C 
ATOM     11  C   UNL     1     164.856 155.875 138.611  1.00  0.00     0.035 C 
ATOM     12  C   UNL     1     162.315 159.328 137.411  1.00  0.00     0.039 C 
ENDROOT
BRANCH   5  13
ATOM     13  C   UNL     1     164.228 158.650 143.003  1.00  0.00    -0.013 C 
ATOM     14  C   UNL     1     163.071 159.021 143.950  1.00  0.00     0.007 C 
ATOM     15  C   UNL     1     165.538 159.272 143.510  1.00  0.00     0.007 C 
ENDBRANCH   5  13
TORSDOF 1
ENDMDL
MODEL 2
REMARK VINA RESULT:    -2.450      2.534      4.667
REMARK INTER + INTRA:          -2.824
REMARK INTER:                  -2.564
REMARK INTRA:                  -0.261
REMARK UNBOUND:                -0.231
REMARK SMILES CC1=C[C@@H]2C(=C(C)CC[C@H]2C(C)C)CC1
REMARK SMILES IDX 1 1 2 2 3 3 4 4 10 5 9 6 8 7 6 8 5 9 14 10 15 11 7 12 11 13
REMARK SMILES IDX 12 14 13 15
REMARK H PARENT
REMARK Flexibility Score: inf
ROOT
ATOM      1  C   UNL     1     166.327 161.893 137.041  1.00  0.00     0.039 C 
ATOM      2  C   UNL     1     165.940 160.798 137.995  1.00  0.00    -0.076 C 
ATOM      3  C   UNL     1     164.747 160.188 137.875  1.00  0.00    -0.020 C 
ATOM      4  C   UNL     1     164.380 159.053 138.813  1.00  0.00     0.041 C 
ATOM      5  C   UNL     1     163.083 158.327 138.362  1.00  0.00     0.003 C 
ATOM      6  C   UNL     1     162.954 156.997 139.125  1.00  0.00     0.009 C 
ATOM      7  C   UNL     1     164.133 156.089 138.796  1.00  0.00     0.031 C 
ATOM      8  C   UNL     1     165.470 156.770 138.999  1.00  0.00    -0.073 C 
ATOM      9  C   UNL     1     165.596 158.128 138.948  1.00  0.00    -0.064 C 
ATOM     10  C   UNL     1     166.970 158.786 139.076  1.00  0.00     0.036 C 
ATOM     11  C   UNL     1     166.893 160.323 139.067  1.00  0.00     0.035 C 
ATOM     12  C   UNL     1     166.681 155.877 139.136  1.00  0.00     0.039 C 
ENDROOT
BRANCH   5  13
ATOM     13  C   UNL     1     161.807 159.227 138.500  1.00  0.00    -0.013 C 
ATOM     14  C   UNL     1     160.750 158.675 139.475  1.00  0.00     0.007 C 
ATOM     15  C   UNL     1     161.162 159.499 137.131  1.00  0.00     0.007 C 
ENDBRANCH   5  13
TORSDOF 1
ENDMDL
MODEL 3
REMARK VINA RESULT:    -2.422     14.691     16.402
REMARK INTER + INTRA:          -2.795
REMARK INTER:                  -2.548
REMARK INTRA:                  -0.247
REMARK UNBOUND:                -0.231
REMARK SMILES CC1=C[C@@H]2C(=C(C)CC[C@H]2C(C)C)CC1
REMARK SMILES IDX 1 1 2 2 3 3 4 4 10 5 9 6 8 7 6 8 5 9 14 10 15 11 7 12 11 13
REMARK SMILES IDX 12 14 13 15
REMARK H PARENT
REMARK Flexibility Score: inf
ROOT
ATOM      1  C   UNL     1     164.551 175.977 139.497  1.00  0.00     0.039 C 
ATOM      2  C   UNL     1     165.983 175.527 139.590  1.00  0.00    -0.076 C 
ATOM      3  C   UNL     1     166.328 174.543 140.440  1.00  0.00    -0.020 C 
ATOM      4  C   UNL     1     167.766 174.063 140.496  1.00  0.00     0.041 C 
ATOM      5  C   UNL     1     167.911 172.773 141.350  1.00  0.00     0.003 C 
ATOM      6  C   UNL     1     169.292 172.145 141.090  1.00  0.00     0.009 C 
ATOM      7  C   UNL     1     169.418 171.748 139.623  1.00  0.00     0.031 C 
ATOM      8  C   UNL     1     169.089 172.886 138.680  1.00  0.00    -0.073 C 
ATOM      9  C   UNL     1     168.283 173.919 139.059  1.00  0.00    -0.064 C 
ATOM     10  C   UNL     1     167.901 175.013 138.062  1.00  0.00     0.036 C 
ATOM     11  C   UNL     1     167.048 176.124 138.701  1.00  0.00     0.035 C 
ATOM     12  C   UNL     1     169.590 172.766 137.260  1.00  0.00     0.039 C 
ENDROOT
BRANCH   5  13
ATOM     13  C   UNL     1     167.639 173.022 142.874  1.00  0.00    -0.013 C 
ATOM     14  C   UNL     1     168.817 172.645 143.792  1.00  0.00     0.007 C 
ATOM     15  C   UNL     1     166.363 172.303 143.340  1.00  0.00     0.007 C 
ENDBRANCH   5  13
TORSDOF 1
ENDMDL
MODEL 4
REMARK VINA RESULT:    -2.404     14.310     15.949
REMARK INTER + INTRA:          -2.775
REMARK INTER:                  -2.511
REMARK INTRA:                  -0.265
REMARK UNBOUND:                -0.231
REMARK SMILES CC1=C[C@@H]2C(=C(C)CC[C@H]2C(C)C)CC1
REMARK SMILES IDX 1 1 2 2 3 3 4 4 10 5 9 6 8 7 6 8 5 9 14 10 15 11 7 12 11 13
REMARK SMILES IDX 12 14 13 15
REMARK H PARENT
REMARK Flexibility Score: inf
ROOT
ATOM      1  C   UNL     1     165.434 169.964 137.610  1.00  0.00     0.039 C 
ATOM      2  C   UNL     1     165.880 171.138 138.437  1.00  0.00    -0.076 C 
ATOM      3  C   UNL     1     167.044 171.753 138.164  1.00  0.00    -0.020 C 
ATOM      4  C   UNL     1     167.467 172.965 138.974  1.00  0.00     0.041 C 
ATOM      5  C   UNL     1     168.705 173.671 138.354  1.00  0.00     0.003 C 
ATOM      6  C   UNL     1     168.871 175.060 138.996  1.00  0.00     0.009 C 
ATOM      7  C   UNL     1     167.648 175.922 138.701  1.00  0.00     0.031 C 
ATOM      8  C   UNL     1     166.349 175.240 139.074  1.00  0.00    -0.073 C 
ATOM      9  C   UNL     1     166.248 173.881 139.142  1.00  0.00    -0.064 C 
ATOM     10  C   UNL     1     164.904 173.216 139.442  1.00  0.00     0.036 C 
ATOM     11  C   UNL     1     165.013 171.684 139.548  1.00  0.00     0.035 C 
ATOM     12  C   UNL     1     165.135 176.124 139.246  1.00  0.00     0.039 C 
ENDROOT
BRANCH   5  13
ATOM     13  C   UNL     1     170.007 172.803 138.450  1.00  0.00    -0.013 C 
ATOM     14  C   UNL     1     171.112 173.423 139.325  1.00  0.00     0.007 C 
ATOM     15  C   UNL     1     170.566 172.477 137.056  1.00  0.00     0.007 C 
ENDBRANCH   5  13
TORSDOF 1
ENDMDL
MODEL 5
REMARK VINA RESULT:    -2.374      4.927      7.467
REMARK INTER + INTRA:          -2.744
REMARK INTER:                  -2.452
REMARK INTRA:                  -0.292
REMARK UNBOUND:                -0.231
REMARK SMILES CC1=C[C@@H]2C(=C(C)CC[C@H]2C(C)C)CC1
REMARK SMILES IDX 1 1 2 2 3 3 4 4 10 5 9 6 8 7 6 8 5 9 14 10 15 11 7 12 11 13
REMARK SMILES IDX 12 14 13 15
REMARK H PARENT
REMARK Flexibility Score: inf
ROOT
ATOM      1  C   UNL     1     161.835 159.954 139.537  1.00  0.00     0.039 C 
ATOM      2  C   UNL     1     160.401 159.694 139.907  1.00  0.00    -0.076 C 
ATOM      3  C   UNL     1     159.715 158.710 139.298  1.00  0.00    -0.020 C 
ATOM      4  C   UNL     1     158.282 158.423 139.708  1.00  0.00     0.041 C 
ATOM      5  C   UNL     1     157.751 157.110 139.069  1.00  0.00     0.003 C 
ATOM      6  C   UNL     1     156.452 156.689 139.778  1.00  0.00     0.009 C 
ATOM      7  C   UNL     1     156.726 156.412 141.252  1.00  0.00     0.031 C 
ATOM      8  C   UNL     1     157.442 157.556 141.939  1.00  0.00    -0.073 C 
ATOM      9  C   UNL     1     158.205 158.445 141.240  1.00  0.00    -0.064 C 
ATOM     10  C   UNL     1     158.982 159.543 141.967  1.00  0.00     0.036 C 
ATOM     11  C   UNL     1     159.720 160.485 140.999  1.00  0.00     0.035 C 
ATOM     12  C   UNL     1     157.378 157.598 143.448  1.00  0.00     0.039 C 
ENDROOT
BRANCH   5  13
ATOM     13  C   UNL     1     157.581 157.218 137.515  1.00  0.00    -0.013 C 
ATOM     14  C   UNL     1     156.640 158.350 137.063  1.00  0.00     0.007 C 
ATOM     15  C   UNL     1     157.123 155.883 136.906  1.00  0.00     0.007 C 
ENDBRANCH   5  13
TORSDOF 1
ENDMDL
MODEL 6
REMARK VINA RESULT:    -2.274     14.502     15.752
REMARK INTER + INTRA:          -2.638
REMARK INTER:                  -2.357
REMARK INTRA:                  -0.281
REMARK UNBOUND:                -0.231
REMARK SMILES CC1=C[C@@H]2C(=C(C)CC[C@H]2C(C)C)CC1
REMARK SMILES IDX 1 1 2 2 3 3 4 4 10 5 9 6 8 7 6 8 5 9 14 10 15 11 7 12 11 13
REMARK SMILES IDX 12 14 13 15
REMARK H PARENT
REMARK Flexibility Score: inf
ROOT
ATOM      1  C   UNL     1     171.611 172.372 137.672  1.00  0.00     0.039 C 
ATOM      2  C   UNL     1     170.187 172.584 138.104  1.00  0.00    -0.076 C 
ATOM      3  C   UNL     1     169.870 172.578 139.411  1.00  0.00    -0.020 C 
ATOM      4  C   UNL     1     168.438 172.838 139.843  1.00  0.00     0.041 C 
ATOM      5  C   UNL     1     168.325 173.030 141.381  1.00  0.00     0.003 C 
ATOM      6  C   UNL     1     166.947 173.627 141.717  1.00  0.00     0.009 C 
ATOM      7  C   UNL     1     166.797 174.997 141.065  1.00  0.00     0.031 C 
ATOM      8  C   UNL     1     167.094 174.973 139.581  1.00  0.00    -0.073 C 
ATOM      9  C   UNL     1     167.895 174.018 139.027  1.00  0.00    -0.064 C 
ATOM     10  C   UNL     1     168.245 174.064 137.539  1.00  0.00     0.036 C 
ATOM     11  C   UNL     1     169.097 172.862 137.095  1.00  0.00     0.035 C 
ATOM     12  C   UNL     1     166.567 176.125 138.757  1.00  0.00     0.039 C 
ENDROOT
BRANCH   5  13
ATOM     13  C   UNL     1     168.624 171.715 142.179  1.00  0.00    -0.013 C 
ATOM     14  C   UNL     1     167.881 170.475 141.647  1.00  0.00     0.007 C 
ATOM     15  C   UNL     1     168.337 171.891 143.679  1.00  0.00     0.007 C 
ENDBRANCH   5  13
TORSDOF 1
ENDMDL
MODEL 7
REMARK VINA RESULT:    -2.274      2.507      3.777
REMARK INTER + INTRA:          -2.638
REMARK INTER:                  -2.345
REMARK INTRA:                  -0.292
REMARK UNBOUND:                -0.231
REMARK SMILES CC1=C[C@@H]2C(=C(C)CC[C@H]2C(C)C)CC1
REMARK SMILES IDX 1 1 2 2 3 3 4 4 10 5 9 6 8 7 6 8 5 9 14 10 15 11 7 12 11 13
REMARK SMILES IDX 12 14 13 15
REMARK H PARENT
REMARK Flexibility Score: inf
ROOT
ATOM      1  C   UNL     1     167.855 161.680 138.643  1.00  0.00     0.039 C 
ATOM      2  C   UNL     1     166.934 160.561 138.241  1.00  0.00    -0.076 C 
ATOM      3  C   UNL     1     166.631 159.589 139.119  1.00  0.00    -0.020 C 
ATOM      4  C   UNL     1     165.665 158.487 138.723  1.00  0.00     0.041 C 
ATOM      5  C   UNL     1     165.260 157.609 139.939  1.00  0.00     0.003 C 
ATOM      6  C   UNL     1     164.038 156.752 139.562  1.00  0.00     0.009 C 
ATOM      7  C   UNL     1     162.854 157.650 139.222  1.00  0.00     0.031 C 
ATOM      8  C   UNL     1     163.195 158.699 138.185  1.00  0.00    -0.073 C 
ATOM      9  C   UNL     1     164.476 159.128 137.994  1.00  0.00    -0.064 C 
ATOM     10  C   UNL     1     164.782 160.245 136.997  1.00  0.00     0.036 C 
ATOM     11  C   UNL     1     166.289 160.533 136.875  1.00  0.00     0.035 C 
ATOM     12  C   UNL     1     162.039 159.342 137.454  1.00  0.00     0.039 C 
ENDROOT
BRANCH   5  13
ATOM     13  C   UNL     1     166.451 156.752 140.490  1.00  0.00    -0.013 C 
ATOM     14  C   UNL     1     167.139 155.876 139.426  1.00  0.00     0.007 C 
ATOM     15  C   UNL     1     166.012 155.881 141.678  1.00  0.00     0.007 C 
ENDBRANCH   5  13
TORSDOF 1
ENDMDL
MODEL 8
REMARK VINA RESULT:    -2.271      1.213      3.769
REMARK INTER + INTRA:          -2.635
REMARK INTER:                  -2.370
REMARK INTRA:                  -0.265
REMARK UNBOUND:                -0.231
REMARK SMILES CC1=C[C@@H]2C(=C(C)CC[C@H]2C(C)C)CC1
REMARK SMILES IDX 1 1 2 2 3 3 4 4 10 5 9 6 8 7 6 8 5 9 14 10 15 11 7 12 11 13
REMARK SMILES IDX 12 14 13 15
REMARK H PARENT
REMARK Flexibility Score: inf
ROOT
ATOM      1  C   UNL     1     160.301 159.565 137.804  1.00  0.00     0.039 C 
ATOM      2  C   UNL     1     161.739 159.371 138.198  1.00  0.00    -0.076 C 
ATOM      3  C   UNL     1     162.090 159.383 139.497  1.00  0.00    -0.020 C 
ATOM      4  C   UNL     1     163.536 159.142 139.891  1.00  0.00     0.041 C 
ATOM      5  C   UNL     1     163.692 158.954 141.425  1.00  0.00     0.003 C 
ATOM      6  C   UNL     1     165.086 158.374 141.726  1.00  0.00     0.009 C 
ATOM      7  C   UNL     1     165.235 157.005 141.072  1.00  0.00     0.031 C 
ATOM      8  C   UNL     1     164.899 157.022 139.597  1.00  0.00    -0.073 C 
ATOM      9  C   UNL     1     164.071 157.967 139.062  1.00  0.00    -0.064 C 
ATOM     10  C   UNL     1     163.683 157.913 137.585  1.00  0.00     0.036 C 
ATOM     11  C   UNL     1     162.804 159.104 137.161  1.00  0.00     0.035 C 
ATOM     12  C   UNL     1     165.417 155.875 138.761  1.00  0.00     0.039 C 
ENDROOT
BRANCH   5  13
ATOM     13  C   UNL     1     163.399 160.267 142.229  1.00  0.00    -0.013 C 
ATOM     14  C   UNL     1     164.662 160.989 142.736  1.00  0.00     0.007 C 
ATOM     15  C   UNL     1     162.442 160.004 143.402  1.00  0.00     0.007 C 
ENDBRANCH   5  13
TORSDOF 1
ENDMDL
MODEL 9
REMARK VINA RESULT:    -2.204     14.623     16.313
REMARK INTER + INTRA:          -2.564
REMARK INTER:                  -2.276
REMARK INTRA:                  -0.287
REMARK UNBOUND:                -0.231
REMARK SMILES CC1=C[C@@H]2C(=C(C)CC[C@H]2C(C)C)CC1
REMARK SMILES IDX 1 1 2 2 3 3 4 4 10 5 9 6 8 7 6 8 5 9 14 10 15 11 7 12 11 13
REMARK SMILES IDX 12 14 13 15
REMARK H PARENT
REMARK Flexibility Score: inf
ROOT
ATOM      1  C   UNL     1     167.536 170.534 142.965  1.00  0.00     0.039 C 
ATOM      2  C   UNL     1     167.769 171.896 142.371  1.00  0.00    -0.076 C 
ATOM      3  C   UNL     1     168.067 172.020 141.065  1.00  0.00    -0.020 C 
ATOM      4  C   UNL     1     168.256 173.399 140.461  1.00  0.00     0.041 C 
ATOM      5  C   UNL     1     168.350 173.343 138.911  1.00  0.00     0.003 C 
ATOM      6  C   UNL     1     168.189 174.764 138.341  1.00  0.00     0.009 C 
ATOM      7  C   UNL     1     166.818 175.321 138.705  1.00  0.00     0.031 C 
ATOM      8  C   UNL     1     166.525 175.233 140.187  1.00  0.00    -0.073 C 
ATOM      9  C   UNL     1     167.140 174.312 140.984  1.00  0.00    -0.064 C 
ATOM     10  C   UNL     1     166.767 174.191 142.462  1.00  0.00     0.036 C 
ATOM     11  C   UNL     1     167.622 173.147 143.203  1.00  0.00     0.035 C 
ATOM     12  C   UNL     1     165.430 176.125 140.725  1.00  0.00     0.039 C 
ENDROOT
BRANCH   5  13
ATOM     13  C   UNL     1     169.655 172.636 138.408  1.00  0.00    -0.013 C 
ATOM     14  C   UNL     1     170.948 173.176 139.047  1.00  0.00     0.007 C 
ATOM     15  C   UNL     1     169.768 172.690 136.876  1.00  0.00     0.007 C 
ENDBRANCH   5  13
TORSDOF 1
ENDMDL
