MODEL 1
REMARK VINA RESULT:    -3.628      0.000      0.000
REMARK INTER + INTRA:          -5.998
REMARK INTER:                  -5.113
REMARK INTRA:                  -0.885
REMARK UNBOUND:                -0.885
REMARK SMILES CCCCCCCCC(=O)[O-]
REMARK SMILES IDX 6 1 7 2 8 3 9 4 10 5 11 6 5 7 4 8 3 9 2 10 1 11
REMARK H PARENT
REMARK Flexibility Score: inf
ROOT
ATOM      1  C   UNL     1      -7.626  39.106  21.878  1.00  0.00     0.000 C 
ENDROOT
BRANCH   1   2
ATOM      2  C   UNL     1      -6.739  38.155  22.695  1.00  0.00     0.006 C 
BRANCH   2   3
ATOM      3  C   UNL     1      -5.400  38.815  23.038  1.00  0.00     0.053 C 
BRANCH   3   4
ATOM      4  C   UNL     1      -4.272  37.856  22.825  1.00  0.00     0.041 C 
ATOM      5  O   UNL     1      -4.455  36.796  22.171  1.00  0.00    -0.550 OA
ATOM      6  O   UNL     1      -3.029  38.108  23.393  1.00  0.00    -0.550 OA
ENDBRANCH   3   4
ENDBRANCH   2   3
ENDBRANCH   1   2
BRANCH   1   7
ATOM      7  C   UNL     1      -7.064  39.381  20.474  1.00  0.00     0.000 C 
BRANCH   7   8
ATOM      8  C   UNL     1      -7.045  38.126  19.587  1.00  0.00    -0.000 C 
BRANCH   8   9
ATOM      9  C   UNL     1      -5.640  37.873  19.027  1.00  0.00    -0.000 C 
BRANCH   9  10
ATOM     10  C   UNL     1      -4.712  39.059  19.315  1.00  0.00    -0.003 C 
ATOM     11  C   UNL     1      -3.249  38.624  19.324  1.00  0.00     0.004 C 
ENDBRANCH   9  10
ENDBRANCH   8   9
ENDBRANCH   7   8
ENDBRANCH   1   7
TORSDOF 7
ENDMDL
MODEL 2
REMARK VINA RESULT:    -3.619      1.532      2.128
REMARK INTER + INTRA:          -5.985
REMARK INTER:                  -5.127
REMARK INTRA:                  -0.858
REMARK UNBOUND:                -0.885
REMARK SMILES CCCCCCCCC(=O)[O-]
REMARK SMILES IDX 6 1 7 2 8 3 9 4 10 5 11 6 5 7 4 8 3 9 2 10 1 11
REMARK H PARENT
REMARK Flexibility Score: inf
ROOT
ATOM      1  C   UNL     1      -6.913  39.535  20.625  1.00  0.00     0.000 C 
ENDROOT
BRANCH   1   2
ATOM      2  C   UNL     1      -7.649  39.263  21.945  1.00  0.00     0.006 C 
BRANCH   2   3
ATOM      3  C   UNL     1      -6.774  38.451  22.904  1.00  0.00     0.053 C 
BRANCH   3   4
ATOM      4  C   UNL     1      -5.665  39.295  23.446  1.00  0.00     0.041 C 
ATOM      5  O   UNL     1      -4.503  38.822  23.559  1.00  0.00    -0.550 OA
ATOM      6  O   UNL     1      -5.924  40.592  23.874  1.00  0.00    -0.550 OA
ENDBRANCH   3   4
ENDBRANCH   2   3
ENDBRANCH   1   2
BRANCH   1   7
ATOM      7  C   UNL     1      -7.133  38.424  19.585  1.00  0.00     0.000 C 
BRANCH   7   8
ATOM      8  C   UNL     1      -5.824  37.743  19.159  1.00  0.00    -0.000 C 
BRANCH   8   9
ATOM      9  C   UNL     1      -4.609  38.574  19.591  1.00  0.00    -0.000 C 
BRANCH   9  10
ATOM     10  C   UNL     1      -3.556  37.692  20.273  1.00  0.00    -0.003 C 
ATOM     11  C   UNL     1      -4.205  36.502  20.974  1.00  0.00     0.004 C 
ENDBRANCH   9  10
ENDBRANCH   8   9
ENDBRANCH   7   8
ENDBRANCH   1   7
TORSDOF 7
ENDMDL
MODEL 3
REMARK VINA RESULT:    -3.587      1.768      3.500
REMARK INTER + INTRA:          -5.939
REMARK INTER:                  -5.140
REMARK INTRA:                  -0.800
REMARK UNBOUND:                -0.885
REMARK SMILES CCCCCCCCC(=O)[O-]
REMARK SMILES IDX 6 1 7 2 8 3 9 4 10 5 11 6 5 7 4 8 3 9 2 10 1 11
REMARK H PARENT
REMARK Flexibility Score: inf
ROOT
ATOM      1  C   UNL     1      -7.160  38.897  20.123  1.00  0.00     0.000 C 
ENDROOT
BRANCH   1   2
ATOM      2  C   UNL     1      -6.569  37.564  19.641  1.00  0.00     0.006 C 
BRANCH   2   3
ATOM      3  C   UNL     1      -5.623  37.782  18.456  1.00  0.00     0.053 C 
BRANCH   3   4
ATOM      4  C   UNL     1      -4.235  38.066  18.938  1.00  0.00     0.041 C 
ATOM      5  O   UNL     1      -3.393  37.135  19.031  1.00  0.00    -0.550 OA
ATOM      6  O   UNL     1      -3.886  39.351  19.333  1.00  0.00    -0.550 OA
ENDBRANCH   3   4
ENDBRANCH   2   3
ENDBRANCH   1   2
BRANCH   1   7
ATOM      7  C   UNL     1      -7.441  38.907  21.635  1.00  0.00     0.000 C 
BRANCH   7   8
ATOM      8  C   UNL     1      -6.569  37.906  22.407  1.00  0.00    -0.000 C 
BRANCH   8   9
ATOM      9  C   UNL     1      -5.312  38.586  22.959  1.00  0.00    -0.000 C 
BRANCH   9  10
ATOM     10  C   UNL     1      -4.054  37.783  22.609  1.00  0.00    -0.003 C 
ATOM     11  C   UNL     1      -4.394  36.323  22.324  1.00  0.00     0.004 C 
ENDBRANCH   9  10
ENDBRANCH   8   9
ENDBRANCH   7   8
ENDBRANCH   1   7
TORSDOF 7
ENDMDL
MODEL 4
REMARK VINA RESULT:    -3.578      0.987      2.962
REMARK INTER + INTRA:          -5.927
REMARK INTER:                  -5.069
REMARK INTRA:                  -0.858
REMARK UNBOUND:                -0.885
REMARK SMILES CCCCCCCCC(=O)[O-]
REMARK SMILES IDX 6 1 7 2 8 3 9 4 10 5 11 6 5 7 4 8 3 9 2 10 1 11
REMARK H PARENT
REMARK Flexibility Score: inf
ROOT
ATOM      1  C   UNL     1      -4.674  39.001  19.459  1.00  0.00     0.000 C 
ENDROOT
BRANCH   1   2
ATOM      2  C   UNL     1      -3.527  38.463  20.327  1.00  0.00     0.006 C 
BRANCH   2   3
ATOM      3  C   UNL     1      -3.776  37.003  20.719  1.00  0.00     0.053 C 
BRANCH   3   4
ATOM      4  C   UNL     1      -4.164  36.906  22.161  1.00  0.00     0.041 C 
ATOM      5  O   UNL     1      -5.192  36.262  22.498  1.00  0.00    -0.550 OA
ATOM      6  O   UNL     1      -3.418  37.568  23.128  1.00  0.00    -0.550 OA
ENDBRANCH   3   4
ENDBRANCH   2   3
ENDBRANCH   1   2
BRANCH   1   7
ATOM      7  C   UNL     1      -5.667  37.903  19.043  1.00  0.00     0.000 C 
BRANCH   7   8
ATOM      8  C   UNL     1      -7.092  38.170  19.552  1.00  0.00    -0.000 C 
BRANCH   8   9
ATOM      9  C   UNL     1      -7.121  39.385  20.486  1.00  0.00    -0.000 C 
BRANCH   9  10
ATOM     10  C   UNL     1      -7.478  38.969  21.918  1.00  0.00    -0.003 C 
ATOM     11  C   UNL     1      -6.518  39.589  22.928  1.00  0.00     0.004 C 
ENDBRANCH   9  10
ENDBRANCH   8   9
ENDBRANCH   7   8
ENDBRANCH   1   7
TORSDOF 7
ENDMDL
MODEL 5
REMARK VINA RESULT:    -3.572      2.023      3.724
REMARK INTER + INTRA:          -5.919
REMARK INTER:                  -5.224
REMARK INTRA:                  -0.695
REMARK UNBOUND:                -0.885
REMARK SMILES CCCCCCCCC(=O)[O-]
REMARK SMILES IDX 6 1 7 2 8 3 9 4 10 5 11 6 5 7 4 8 3 9 2 10 1 11
REMARK H PARENT
REMARK Flexibility Score: inf
ROOT
ATOM      1  C   UNL     1      -5.830  37.872  18.745  1.00  0.00     0.000 C 
ENDROOT
BRANCH   1   2
ATOM      2  C   UNL     1      -4.608  38.580  19.347  1.00  0.00     0.006 C 
BRANCH   2   3
ATOM      3  C   UNL     1      -3.669  37.575  20.021  1.00  0.00     0.053 C 
BRANCH   3   4
ATOM      4  C   UNL     1      -2.386  37.464  19.261  1.00  0.00     0.041 C 
ATOM      5  O   UNL     1      -2.280  36.645  18.311  1.00  0.00    -0.550 OA
ATOM      6  O   UNL     1      -1.288  38.231  19.633  1.00  0.00    -0.550 OA
ENDBRANCH   3   4
ENDBRANCH   2   3
ENDBRANCH   1   2
BRANCH   1   7
ATOM      7  C   UNL     1      -7.157  38.367  19.345  1.00  0.00     0.000 C 
BRANCH   7   8
ATOM      8  C   UNL     1      -6.957  39.478  20.387  1.00  0.00    -0.000 C 
BRANCH   8   9
ATOM      9  C   UNL     1      -7.572  39.082  21.735  1.00  0.00    -0.000 C 
BRANCH   9  10
ATOM     10  C   UNL     1      -6.506  38.510  22.677  1.00  0.00    -0.003 C 
ATOM     11  C   UNL     1      -6.411  36.993  22.546  1.00  0.00     0.004 C 
ENDBRANCH   9  10
ENDBRANCH   8   9
ENDBRANCH   7   8
ENDBRANCH   1   7
TORSDOF 7
ENDMDL
MODEL 6
REMARK VINA RESULT:    -3.569      1.294      3.360
REMARK INTER + INTRA:          -5.915
REMARK INTER:                  -5.195
REMARK INTRA:                  -0.721
REMARK UNBOUND:                -0.885
REMARK SMILES CCCCCCCCC(=O)[O-]
REMARK SMILES IDX 6 1 7 2 8 3 9 4 10 5 11 6 5 7 4 8 3 9 2 10 1 11
REMARK H PARENT
REMARK Flexibility Score: inf
ROOT
ATOM      1  C   UNL     1      -7.097  38.041  19.617  1.00  0.00     0.000 C 
ENDROOT
BRANCH   1   2
ATOM      2  C   UNL     1      -5.797  37.819  18.830  1.00  0.00     0.006 C 
BRANCH   2   3
ATOM      3  C   UNL     1      -4.619  38.527  19.507  1.00  0.00     0.053 C 
BRANCH   3   4
ATOM      4  C   UNL     1      -3.621  37.529  20.002  1.00  0.00     0.041 C 
ATOM      5  O   UNL     1      -3.998  36.538  20.682  1.00  0.00    -0.550 OA
ATOM      6  O   UNL     1      -2.267  37.719  19.755  1.00  0.00    -0.550 OA
ENDBRANCH   3   4
ENDBRANCH   2   3
ENDBRANCH   1   2
BRANCH   1   7
ATOM      7  C   UNL     1      -7.093  39.361  20.405  1.00  0.00     0.000 C 
BRANCH   7   8
ATOM      8  C   UNL     1      -7.670  39.208  21.821  1.00  0.00    -0.000 C 
BRANCH   8   9
ATOM      9  C   UNL     1      -6.886  38.161  22.621  1.00  0.00    -0.000 C 
BRANCH   9  10
ATOM     10  C   UNL     1      -5.531  38.717  23.074  1.00  0.00    -0.003 C 
ATOM     11  C   UNL     1      -5.690  40.082  23.738  1.00  0.00     0.004 C 
ENDBRANCH   9  10
ENDBRANCH   8   9
ENDBRANCH   7   8
ENDBRANCH   1   7
TORSDOF 7
ENDMDL
MODEL 7
REMARK VINA RESULT:    -3.567      1.487      2.640
REMARK INTER + INTRA:          -5.912
REMARK INTER:                  -4.977
REMARK INTRA:                  -0.935
REMARK UNBOUND:                -0.885
REMARK SMILES CCCCCCCCC(=O)[O-]
REMARK SMILES IDX 6 1 7 2 8 3 9 4 10 5 11 6 5 7 4 8 3 9 2 10 1 11
REMARK H PARENT
REMARK Flexibility Score: inf
ROOT
ATOM      1  C   UNL     1      -7.212  38.532  19.423  1.00  0.00     0.000 C 
ENDROOT
BRANCH   1   2
ATOM      2  C   UNL     1      -6.904  39.526  20.552  1.00  0.00     0.006 C 
BRANCH   2   3
ATOM      3  C   UNL     1      -7.572  39.093  21.861  1.00  0.00     0.053 C 
BRANCH   3   4
ATOM      4  C   UNL     1      -6.618  38.306  22.703  1.00  0.00     0.041 C 
ATOM      5  O   UNL     1      -5.870  38.892  23.529  1.00  0.00    -0.550 OA
ATOM      6  O   UNL     1      -6.519  36.930  22.540  1.00  0.00    -0.550 OA
ENDBRANCH   3   4
ENDBRANCH   2   3
ENDBRANCH   1   2
BRANCH   1   7
ATOM      7  C   UNL     1      -5.981  37.713  19.002  1.00  0.00     0.000 C 
BRANCH   7   8
ATOM      8  C   UNL     1      -4.658  38.394  19.383  1.00  0.00    -0.000 C 
BRANCH   8   9
ATOM      9  C   UNL     1      -3.788  37.464  20.237  1.00  0.00    -0.000 C 
BRANCH   9  10
ATOM     10  C   UNL     1      -3.120  38.234  21.381  1.00  0.00    -0.003 C 
ATOM     11  C   UNL     1      -3.267  39.741  21.191  1.00  0.00     0.004 C 
ENDBRANCH   9  10
ENDBRANCH   8   9
ENDBRANCH   7   8
ENDBRANCH   1   7
TORSDOF 7
ENDMDL
MODEL 8
REMARK VINA RESULT:    -3.472     11.951     13.059
REMARK INTER + INTRA:          -5.778
REMARK INTER:                  -5.512
REMARK INTRA:                  -0.267
REMARK UNBOUND:                -0.885
REMARK SMILES CCCCCCCCC(=O)[O-]
REMARK SMILES IDX 6 1 7 2 8 3 9 4 10 5 11 6 5 7 4 8 3 9 2 10 1 11
REMARK H PARENT
REMARK Flexibility Score: inf
ROOT
ATOM      1  C   UNL     1       0.534  25.854  17.701  1.00  0.00     0.000 C 
ENDROOT
BRANCH   1   2
ATOM      2  C   UNL     1      -0.516  25.407  18.729  1.00  0.00     0.006 C 
BRANCH   2   3
ATOM      3  C   UNL     1       0.060  25.436  20.148  1.00  0.00     0.053 C 
BRANCH   3   4
ATOM      4  C   UNL     1      -0.987  25.055  21.147  1.00  0.00     0.041 C 
ATOM      5  O   UNL     1      -1.083  23.863  21.541  1.00  0.00    -0.550 OA
ATOM      6  O   UNL     1      -1.889  26.006  21.606  1.00  0.00    -0.550 OA
ENDBRANCH   3   4
ENDBRANCH   2   3
ENDBRANCH   1   2
BRANCH   1   7
ATOM      7  C   UNL     1      -0.040  26.819  16.650  1.00  0.00     0.000 C 
BRANCH   7   8
ATOM      8  C   UNL     1      -0.171  28.257  17.175  1.00  0.00    -0.000 C 
BRANCH   8   9
ATOM      9  C   UNL     1       0.968  29.138  16.648  1.00  0.00    -0.000 C 
BRANCH   9  10
ATOM     10  C   UNL     1       0.673  30.622  16.894  1.00  0.00    -0.003 C 
ATOM     11  C   UNL     1      -0.652  30.806  17.629  1.00  0.00     0.004 C 
ENDBRANCH   9  10
ENDBRANCH   8   9
ENDBRANCH   7   8
ENDBRANCH   1   7
TORSDOF 7
ENDMDL
MODEL 9
REMARK VINA RESULT:    -3.454      2.119      3.924
REMARK INTER + INTRA:          -5.753
REMARK INTER:                  -5.061
REMARK INTRA:                  -0.691
REMARK UNBOUND:                -0.885
REMARK SMILES CCCCCCCCC(=O)[O-]
REMARK SMILES IDX 6 1 7 2 8 3 9 4 10 5 11 6 5 7 4 8 3 9 2 10 1 11
REMARK H PARENT
REMARK Flexibility Score: inf
ROOT
ATOM      1  C   UNL     1      -4.307  36.954  22.323  1.00  0.00     0.000 C 
ENDROOT
BRANCH   1   2
ATOM      2  C   UNL     1      -3.996  36.590  20.864  1.00  0.00     0.006 C 
BRANCH   2   3
ATOM      3  C   UNL     1      -3.539  37.823  20.078  1.00  0.00     0.053 C 
BRANCH   3   4
ATOM      4  C   UNL     1      -2.367  37.487  19.210  1.00  0.00     0.041 C 
ATOM      5  O   UNL     1      -2.473  36.612  18.312  1.00  0.00    -0.550 OA
ATOM      6  O   UNL     1      -1.142  38.105  19.427  1.00  0.00    -0.550 OA
ENDBRANCH   3   4
ENDBRANCH   2   3
ENDBRANCH   1   2
BRANCH   1   7
ATOM      7  C   UNL     1      -4.360  38.473  22.556  1.00  0.00     0.000 C 
BRANCH   7   8
ATOM      8  C   UNL     1      -5.670  38.926  23.219  1.00  0.00    -0.000 C 
BRANCH   8   9
ATOM      9  C   UNL     1      -6.877  38.229  22.579  1.00  0.00    -0.000 C 
BRANCH   9  10
ATOM     10  C   UNL     1      -7.578  39.154  21.578  1.00  0.00    -0.003 C 
ATOM     11  C   UNL     1      -7.190  38.808  20.143  1.00  0.00     0.004 C 
ENDBRANCH   9  10
ENDBRANCH   8   9
ENDBRANCH   7   8
ENDBRANCH   1   7
TORSDOF 7
ENDMDL
