MODEL 1
REMARK VINA RESULT:    -7.362      0.000      0.000
REMARK INTER + INTRA:         -18.331
REMARK INTER:                 -16.831
REMARK INTRA:                  -1.501
REMARK UNBOUND:                -1.501
REMARK SMILES CCCCCCCCCCCCCCCCCCCCCCCC(=O)[O-]
REMARK SMILES IDX 13 1 14 2 15 3 16 4 17 5 18 6 19 7 20 8 21 9 22 10 23 11
REMARK SMILES IDX 24 12 25 13 26 14 12 15 11 16 10 17 9 18 8 19 7 20 6 21 5 22
REMARK SMILES IDX 4 23 3 24 2 25 1 26
REMARK H PARENT
REMARK Flexibility Score: inf
ROOT
ATOM      1  C   UNL     1       6.073  -0.189  19.965  1.00  0.00     0.000 C 
ENDROOT
BRANCH   1   2
ATOM      2  C   UNL     1       4.777   0.617  19.771  1.00  0.00     0.000 C 
BRANCH   2   3
ATOM      3  C   UNL     1       3.751  -0.127  18.895  1.00  0.00     0.000 C 
BRANCH   3   4
ATOM      4  C   UNL     1       2.333  -0.164  19.492  1.00  0.00     0.000 C 
BRANCH   4   5
ATOM      5  C   UNL     1       1.243  -0.236  18.407  1.00  0.00     0.000 C 
BRANCH   5   6
ATOM      6  C   UNL     1       1.294   0.959  17.440  1.00  0.00     0.000 C 
BRANCH   6   7
ATOM      7  C   UNL     1       0.877   2.279  18.104  1.00  0.00     0.000 C 
BRANCH   7   8
ATOM      8  C   UNL     1       1.604   3.470  17.463  1.00  0.00     0.000 C 
BRANCH   8   9
ATOM      9  C   UNL     1       0.875   4.807  17.717  1.00  0.00     0.000 C 
BRANCH   9  10
ATOM     10  C   UNL     1       1.825   6.013  17.839  1.00  0.00     0.006 C 
BRANCH  10  11
ATOM     11  C   UNL     1       2.634   6.307  16.567  1.00  0.00     0.053 C 
BRANCH  11  12
ATOM     12  C   UNL     1       2.114   7.508  15.835  1.00  0.00     0.041 C 
ATOM     13  O   UNL     1       2.663   7.888  14.768  1.00  0.00    -0.550 OA
ATOM     14  O   UNL     1       1.015   8.201  16.327  1.00  0.00    -0.550 OA
ENDBRANCH  11  12
ENDBRANCH  10  11
ENDBRANCH   9  10
ENDBRANCH   8   9
ENDBRANCH   7   8
ENDBRANCH   6   7
ENDBRANCH   5   6
ENDBRANCH   4   5
ENDBRANCH   3   4
ENDBRANCH   2   3
ENDBRANCH   1   2
BRANCH   1  15
ATOM     15  C   UNL     1       6.274  -0.644  21.420  1.00  0.00     0.000 C 
BRANCH  15  16
ATOM     16  C   UNL     1       5.985  -2.141  21.618  1.00  0.00     0.000 C 
BRANCH  16  17
ATOM     17  C   UNL     1       4.572  -2.534  21.159  1.00  0.00     0.000 C 
BRANCH  17  18
ATOM     18  C   UNL     1       4.583  -3.670  20.122  1.00  0.00    -0.000 C 
BRANCH  18  19
ATOM     19  C   UNL     1       5.892  -3.722  19.316  1.00  0.00    -0.000 C 
BRANCH  19  20
ATOM     20  C   UNL     1       6.729  -4.974  19.634  1.00  0.00    -0.000 C 
BRANCH  20  21
ATOM     21  C   UNL     1       7.667  -4.766  20.833  1.00  0.00    -0.000 C 
BRANCH  21  22
ATOM     22  C   UNL     1       7.871  -6.048  21.660  1.00  0.00    -0.000 C 
BRANCH  22  23
ATOM     23  C   UNL     1       6.900  -7.169  21.256  1.00  0.00    -0.000 C 
BRANCH  23  24
ATOM     24  C   UNL     1       7.570  -8.555  21.247  1.00  0.00    -0.000 C 
BRANCH  24  25
ATOM     25  C   UNL     1       6.939  -9.520  22.263  1.00  0.00    -0.003 C 
ATOM     26  C   UNL     1       6.578  -8.835  23.581  1.00  0.00     0.004 C 
ENDBRANCH  24  25
ENDBRANCH  23  24
ENDBRANCH  22  23
ENDBRANCH  21  22
ENDBRANCH  20  21
ENDBRANCH  19  20
ENDBRANCH  18  19
ENDBRANCH  17  18
ENDBRANCH  16  17
ENDBRANCH  15  16
ENDBRANCH   1  15
TORSDOF 22
ENDMDL
MODEL 2
REMARK VINA RESULT:    -7.058      5.430     12.477
REMARK INTER + INTRA:         -17.636
REMARK INTER:                 -16.071
REMARK INTRA:                  -1.565
REMARK UNBOUND:                -1.501
REMARK SMILES CCCCCCCCCCCCCCCCCCCCCCCC(=O)[O-]
REMARK SMILES IDX 13 1 14 2 15 3 16 4 17 5 18 6 19 7 20 8 21 9 22 10 23 11
REMARK SMILES IDX 24 12 25 13 26 14 12 15 11 16 10 17 9 18 8 19 7 20 6 21 5 22
REMARK SMILES IDX 4 23 3 24 2 25 1 26
REMARK H PARENT
REMARK Flexibility Score: inf
ROOT
ATOM      1  C   UNL     1       3.868  -0.600  18.808  1.00  0.00     0.000 C 
ENDROOT
BRANCH   1   2
ATOM      2  C   UNL     1       4.939   0.451  19.147  1.00  0.00     0.000 C 
BRANCH   2   3
ATOM      3  C   UNL     1       5.774   0.059  20.381  1.00  0.00     0.000 C 
BRANCH   3   4
ATOM      4  C   UNL     1       6.216  -1.416  20.391  1.00  0.00     0.000 C 
BRANCH   4   5
ATOM      5  C   UNL     1       6.001  -2.082  21.761  1.00  0.00     0.000 C 
BRANCH   5   6
ATOM      6  C   UNL     1       5.099  -3.324  21.678  1.00  0.00     0.000 C 
BRANCH   6   7
ATOM      7  C   UNL     1       5.833  -4.557  21.134  1.00  0.00     0.000 C 
BRANCH   7   8
ATOM      8  C   UNL     1       7.319  -4.526  21.520  1.00  0.00     0.000 C 
BRANCH   8   9
ATOM      9  C   UNL     1       8.018  -5.881  21.272  1.00  0.00     0.000 C 
BRANCH   9  10
ATOM     10  C   UNL     1       7.046  -7.015  20.894  1.00  0.00     0.006 C 
BRANCH  10  11
ATOM     11  C   UNL     1       7.491  -8.406  21.369  1.00  0.00     0.053 C 
BRANCH  11  12
ATOM     12  C   UNL     1       6.947  -8.738  22.726  1.00  0.00     0.041 C 
ATOM     13  O   UNL     1       7.557  -8.364  23.763  1.00  0.00    -0.550 OA
ATOM     14  O   UNL     1       5.761  -9.451  22.847  1.00  0.00    -0.550 OA
ENDBRANCH  11  12
ENDBRANCH  10  11
ENDBRANCH   9  10
ENDBRANCH   8   9
ENDBRANCH   7   8
ENDBRANCH   6   7
ENDBRANCH   5   6
ENDBRANCH   4   5
ENDBRANCH   3   4
ENDBRANCH   2   3
ENDBRANCH   1   2
BRANCH   1  15
ATOM     15  C   UNL     1       2.626  -0.490  19.708  1.00  0.00     0.000 C 
BRANCH  15  16
ATOM     16  C   UNL     1       1.335  -0.922  18.992  1.00  0.00     0.000 C 
BRANCH  16  17
ATOM     17  C   UNL     1       0.886   0.091  17.926  1.00  0.00     0.000 C 
BRANCH  17  18
ATOM     18  C   UNL     1       0.946   1.543  18.430  1.00  0.00    -0.000 C 
BRANCH  18  19
ATOM     19  C   UNL     1       1.020   2.565  17.284  1.00  0.00    -0.000 C 
BRANCH  19  20
ATOM     20  C   UNL     1       1.838   3.813  17.661  1.00  0.00    -0.000 C 
BRANCH  20  21
ATOM     21  C   UNL     1       0.953   5.046  17.902  1.00  0.00    -0.000 C 
BRANCH  21  22
ATOM     22  C   UNL     1       0.959   6.026  16.716  1.00  0.00    -0.000 C 
BRANCH  22  23
ATOM     23  C   UNL     1       2.264   5.962  15.907  1.00  0.00    -0.000 C 
BRANCH  23  24
ATOM     24  C   UNL     1       2.863   7.355  15.643  1.00  0.00    -0.000 C 
BRANCH  24  25
ATOM     25  C   UNL     1       2.015   8.484  16.250  1.00  0.00    -0.003 C 
ATOM     26  C   UNL     1       2.057   9.765  15.418  1.00  0.00     0.004 C 
ENDBRANCH  24  25
ENDBRANCH  23  24
ENDBRANCH  22  23
ENDBRANCH  21  22
ENDBRANCH  20  21
ENDBRANCH  19  20
ENDBRANCH  18  19
ENDBRANCH  17  18
ENDBRANCH  16  17
ENDBRANCH  15  16
ENDBRANCH   1  15
TORSDOF 22
ENDMDL
MODEL 3
REMARK VINA RESULT:    -6.703      1.246      2.484
REMARK INTER + INTRA:         -16.825
REMARK INTER:                 -15.294
REMARK INTRA:                  -1.531
REMARK UNBOUND:                -1.501
REMARK SMILES CCCCCCCCCCCCCCCCCCCCCCCC(=O)[O-]
REMARK SMILES IDX 13 1 14 2 15 3 16 4 17 5 18 6 19 7 20 8 21 9 22 10 23 11
REMARK SMILES IDX 24 12 25 13 26 14 12 15 11 16 10 17 9 18 8 19 7 20 6 21 5 22
REMARK SMILES IDX 4 23 3 24 2 25 1 26
REMARK H PARENT
REMARK Flexibility Score: inf
ROOT
ATOM      1  C   UNL     1       1.983  -1.655  19.953  1.00  0.00     0.000 C 
ENDROOT
BRANCH   1   2
ATOM      2  C   UNL     1       1.066  -1.281  18.775  1.00  0.00     0.000 C 
BRANCH   2   3
ATOM      3  C   UNL     1       0.875   0.241  18.642  1.00  0.00     0.000 C 
BRANCH   3   4
ATOM      4  C   UNL     1       2.180   1.047  18.777  1.00  0.00     0.000 C 
BRANCH   4   5
ATOM      5  C   UNL     1       2.273   2.187  17.748  1.00  0.00     0.000 C 
BRANCH   5   6
ATOM      6  C   UNL     1       0.898   2.777  17.395  1.00  0.00     0.000 C 
BRANCH   6   7
ATOM      7  C   UNL     1       0.904   4.311  17.348  1.00  0.00     0.000 C 
BRANCH   7   8
ATOM      8  C   UNL     1       2.144   4.878  18.055  1.00  0.00     0.000 C 
BRANCH   8   9
ATOM      9  C   UNL     1       2.146   6.422  18.087  1.00  0.00     0.000 C 
BRANCH   9  10
ATOM     10  C   UNL     1       0.942   7.054  17.363  1.00  0.00     0.006 C 
BRANCH  10  11
ATOM     11  C   UNL     1       1.124   8.541  17.025  1.00  0.00     0.053 C 
BRANCH  11  12
ATOM     12  C   UNL     1       1.953   8.740  15.791  1.00  0.00     0.041 C 
ATOM     13  O   UNL     1       2.379   9.886  15.490  1.00  0.00    -0.550 OA
ATOM     14  O   UNL     1       2.264   7.656  14.979  1.00  0.00    -0.550 OA
ENDBRANCH  11  12
ENDBRANCH  10  11
ENDBRANCH   9  10
ENDBRANCH   8   9
ENDBRANCH   7   8
ENDBRANCH   6   7
ENDBRANCH   5   6
ENDBRANCH   4   5
ENDBRANCH   3   4
ENDBRANCH   2   3
ENDBRANCH   1   2
BRANCH   1  15
ATOM     15  C   UNL     1       2.954  -2.795  19.607  1.00  0.00     0.000 C 
BRANCH  15  16
ATOM     16  C   UNL     1       4.364  -2.288  19.257  1.00  0.00     0.000 C 
BRANCH  16  17
ATOM     17  C   UNL     1       4.753  -1.033  20.053  1.00  0.00     0.000 C 
BRANCH  17  18
ATOM     18  C   UNL     1       6.242  -1.019  20.442  1.00  0.00    -0.000 C 
BRANCH  18  19
ATOM     19  C   UNL     1       6.499  -1.650  21.821  1.00  0.00    -0.000 C 
BRANCH  19  20
ATOM     20  C   UNL     1       6.364  -3.182  21.802  1.00  0.00    -0.000 C 
BRANCH  20  21
ATOM     21  C   UNL     1       7.314  -3.844  20.791  1.00  0.00    -0.000 C 
BRANCH  21  22
ATOM     22  C   UNL     1       6.891  -5.278  20.425  1.00  0.00    -0.000 C 
BRANCH  22  23
ATOM     23  C   UNL     1       7.566  -6.336  21.312  1.00  0.00    -0.000 C 
BRANCH  23  24
ATOM     24  C   UNL     1       6.594  -7.448  21.746  1.00  0.00    -0.000 C 
BRANCH  24  25
ATOM     25  C   UNL     1       7.229  -8.426  22.747  1.00  0.00    -0.003 C 
ATOM     26  C   UNL     1       6.731  -9.859  22.567  1.00  0.00     0.004 C 
ENDBRANCH  24  25
ENDBRANCH  23  24
ENDBRANCH  22  23
ENDBRANCH  21  22
ENDBRANCH  20  21
ENDBRANCH  19  20
ENDBRANCH  18  19
ENDBRANCH  17  18
ENDBRANCH  16  17
ENDBRANCH  15  16
ENDBRANCH   1  15
TORSDOF 22
ENDMDL
MODEL 4
REMARK VINA RESULT:    -6.031      5.518     12.829
REMARK INTER + INTRA:         -15.288
REMARK INTER:                 -15.020
REMARK INTRA:                  -0.269
REMARK UNBOUND:                -1.501
REMARK SMILES CCCCCCCCCCCCCCCCCCCCCCCC(=O)[O-]
REMARK SMILES IDX 13 1 14 2 15 3 16 4 17 5 18 6 19 7 20 8 21 9 22 10 23 11
REMARK SMILES IDX 24 12 25 13 26 14 12 15 11 16 10 17 9 18 8 19 7 20 6 21 5 22
REMARK SMILES IDX 4 23 3 24 2 25 1 26
REMARK H PARENT
REMARK Flexibility Score: inf
ROOT
ATOM      1  C   UNL     1       3.074   0.925  18.716  1.00  0.00     0.000 C 
ENDROOT
BRANCH   1   2
ATOM      2  C   UNL     1       4.205  -0.033  19.130  1.00  0.00     0.000 C 
BRANCH   2   3
ATOM      3  C   UNL     1       3.736  -1.089  20.148  1.00  0.00     0.000 C 
BRANCH   3   4
ATOM      4  C   UNL     1       3.270  -2.408  19.506  1.00  0.00     0.000 C 
BRANCH   4   5
ATOM      5  C   UNL     1       4.210  -3.582  19.833  1.00  0.00     0.000 C 
BRANCH   5   6
ATOM      6  C   UNL     1       5.457  -3.138  20.615  1.00  0.00     0.000 C 
BRANCH   6   7
ATOM      7  C   UNL     1       6.761  -3.377  19.841  1.00  0.00     0.000 C 
BRANCH   7   8
ATOM      8  C   UNL     1       7.672  -4.362  20.588  1.00  0.00     0.000 C 
BRANCH   8   9
ATOM      9  C   UNL     1       6.892  -5.571  21.149  1.00  0.00     0.000 C 
BRANCH   9  10
ATOM     10  C   UNL     1       7.792  -6.629  21.814  1.00  0.00     0.006 C 
BRANCH  10  11
ATOM     11  C   UNL     1       7.500  -8.070  21.370  1.00  0.00     0.053 C 
BRANCH  11  12
ATOM     12  C   UNL     1       6.936  -8.899  22.486  1.00  0.00     0.041 C 
ATOM     13  O   UNL     1       6.148  -9.849  22.235  1.00  0.00    -0.550 OA
ATOM     14  O   UNL     1       7.288  -8.627  23.802  1.00  0.00    -0.550 OA
ENDBRANCH  11  12
ENDBRANCH  10  11
ENDBRANCH   9  10
ENDBRANCH   8   9
ENDBRANCH   7   8
ENDBRANCH   6   7
ENDBRANCH   5   6
ENDBRANCH   4   5
ENDBRANCH   3   4
ENDBRANCH   2   3
ENDBRANCH   1   2
BRANCH   1  15
ATOM     15  C   UNL     1       2.184   0.344  17.605  1.00  0.00     0.000 C 
BRANCH  15  16
ATOM     16  C   UNL     1       0.970   1.235  17.290  1.00  0.00     0.000 C 
BRANCH  16  17
ATOM     17  C   UNL     1       0.959   2.529  18.119  1.00  0.00     0.000 C 
BRANCH  17  18
ATOM     18  C   UNL     1       1.080   3.789  17.244  1.00  0.00    -0.000 C 
BRANCH  18  19
ATOM     19  C   UNL     1       1.824   4.933  17.954  1.00  0.00    -0.000 C 
BRANCH  19  20
ATOM     20  C   UNL     1       0.875   5.854  18.740  1.00  0.00    -0.000 C 
BRANCH  20  21
ATOM     21  C   UNL     1       1.152   7.343  18.482  1.00  0.00    -0.000 C 
BRANCH  21  22
ATOM     22  C   UNL     1       1.915   7.589  17.169  1.00  0.00    -0.000 C 
BRANCH  22  23
ATOM     23  C   UNL     1       1.618   8.970  16.565  1.00  0.00    -0.000 C 
BRANCH  23  24
ATOM     24  C   UNL     1       2.309   9.181  15.206  1.00  0.00    -0.000 C 
BRANCH  24  25
ATOM     25  C   UNL     1       2.436   7.877  14.403  1.00  0.00    -0.003 C 
ATOM     26  C   UNL     1       3.337   6.849  15.086  1.00  0.00     0.004 C 
ENDBRANCH  24  25
ENDBRANCH  23  24
ENDBRANCH  22  23
ENDBRANCH  21  22
ENDBRANCH  20  21
ENDBRANCH  19  20
ENDBRANCH  18  19
ENDBRANCH  17  18
ENDBRANCH  16  17
ENDBRANCH  15  16
ENDBRANCH   1  15
TORSDOF 22
ENDMDL
MODEL 5
REMARK VINA RESULT:    -5.761      5.264     12.645
REMARK INTER + INTRA:         -14.672
REMARK INTER:                 -13.417
REMARK INTRA:                  -1.255
REMARK UNBOUND:                -1.501
REMARK SMILES CCCCCCCCCCCCCCCCCCCCCCCC(=O)[O-]
REMARK SMILES IDX 13 1 14 2 15 3 16 4 17 5 18 6 19 7 20 8 21 9 22 10 23 11
REMARK SMILES IDX 24 12 25 13 26 14 12 15 11 16 10 17 9 18 8 19 7 20 6 21 5 22
REMARK SMILES IDX 4 23 3 24 2 25 1 26
REMARK H PARENT
REMARK Flexibility Score: inf
ROOT
ATOM      1  C   UNL     1       3.055   0.524  18.468  1.00  0.00     0.000 C 
ENDROOT
BRANCH   1   2
ATOM      2  C   UNL     1       2.669  -0.344  19.679  1.00  0.00     0.000 C 
BRANCH   2   3
ATOM      3  C   UNL     1       2.896  -1.845  19.419  1.00  0.00     0.000 C 
BRANCH   3   4
ATOM      4  C   UNL     1       4.340  -2.310  19.680  1.00  0.00     0.000 C 
BRANCH   4   5
ATOM      5  C   UNL     1       5.172  -1.249  20.421  1.00  0.00     0.000 C 
BRANCH   5   6
ATOM      6  C   UNL     1       5.820  -1.796  21.703  1.00  0.00     0.000 C 
BRANCH   6   7
ATOM      7  C   UNL     1       5.004  -2.927  22.345  1.00  0.00     0.000 C 
BRANCH   7   8
ATOM      8  C   UNL     1       5.419  -4.293  21.780  1.00  0.00     0.000 C 
BRANCH   8   9
ATOM      9  C   UNL     1       6.923  -4.351  21.434  1.00  0.00     0.000 C 
BRANCH   9  10
ATOM     10  C   UNL     1       7.314  -5.580  20.592  1.00  0.00     0.006 C 
BRANCH  10  11
ATOM     11  C   UNL     1       6.587  -6.872  20.993  1.00  0.00     0.053 C 
BRANCH  11  12
ATOM     12  C   UNL     1       7.312  -7.612  22.077  1.00  0.00     0.041 C 
ATOM     13  O   UNL     1       8.463  -7.247  22.435  1.00  0.00    -0.550 OA
ATOM     14  O   UNL     1       6.712  -8.700  22.700  1.00  0.00    -0.550 OA
ENDBRANCH  11  12
ENDBRANCH  10  11
ENDBRANCH   9  10
ENDBRANCH   8   9
ENDBRANCH   7   8
ENDBRANCH   6   7
ENDBRANCH   5   6
ENDBRANCH   4   5
ENDBRANCH   3   4
ENDBRANCH   2   3
ENDBRANCH   1   2
BRANCH   1  15
ATOM     15  C   UNL     1       2.205   0.216  17.225  1.00  0.00     0.000 C 
BRANCH  15  16
ATOM     16  C   UNL     1       1.056   1.220  17.028  1.00  0.00     0.000 C 
BRANCH  16  17
ATOM     17  C   UNL     1       1.095   2.368  18.049  1.00  0.00     0.000 C 
BRANCH  17  18
ATOM     18  C   UNL     1       1.105   3.752  17.379  1.00  0.00    -0.000 C 
BRANCH  18  19
ATOM     19  C   UNL     1       1.735   4.837  18.270  1.00  0.00    -0.000 C 
BRANCH  19  20
ATOM     20  C   UNL     1       1.878   6.185  17.543  1.00  0.00    -0.000 C 
BRANCH  20  21
ATOM     21  C   UNL     1       2.236   6.018  16.057  1.00  0.00    -0.000 C 
BRANCH  21  22
ATOM     22  C   UNL     1       1.602   7.101  15.166  1.00  0.00    -0.000 C 
BRANCH  22  23
ATOM     23  C   UNL     1       2.588   8.229  14.820  1.00  0.00    -0.000 C 
BRANCH  23  24
ATOM     24  C   UNL     1       2.311   9.518  15.614  1.00  0.00    -0.000 C 
BRANCH  24  25
ATOM     25  C   UNL     1       0.890   9.557  16.196  1.00  0.00    -0.003 C 
ATOM     26  C   UNL     1       0.875   9.826  17.700  1.00  0.00     0.004 C 
ENDBRANCH  24  25
ENDBRANCH  23  24
ENDBRANCH  22  23
ENDBRANCH  21  22
ENDBRANCH  20  21
ENDBRANCH  19  20
ENDBRANCH  18  19
ENDBRANCH  17  18
ENDBRANCH  16  17
ENDBRANCH  15  16
ENDBRANCH   1  15
TORSDOF 22
ENDMDL
MODEL 6
REMARK VINA RESULT:    -5.172      5.362     11.849
REMARK INTER + INTRA:         -13.326
REMARK INTER:                 -11.993
REMARK INTRA:                  -1.333
REMARK UNBOUND:                -1.501
REMARK SMILES CCCCCCCCCCCCCCCCCCCCCCCC(=O)[O-]
REMARK SMILES IDX 13 1 14 2 15 3 16 4 17 5 18 6 19 7 20 8 21 9 22 10 23 11
REMARK SMILES IDX 24 12 25 13 26 14 12 15 11 16 10 17 9 18 8 19 7 20 6 21 5 22
REMARK SMILES IDX 4 23 3 24 2 25 1 26
REMARK H PARENT
REMARK Flexibility Score: inf
ROOT
ATOM      1  C   UNL     1       3.454  -0.917  18.160  1.00  0.00     0.000 C 
ENDROOT
BRANCH   1   2
ATOM      2  C   UNL     1       3.232  -1.884  19.337  1.00  0.00     0.000 C 
BRANCH   2   3
ATOM      3  C   UNL     1       3.547  -1.233  20.697  1.00  0.00     0.000 C 
BRANCH   3   4
ATOM      4  C   UNL     1       2.995  -2.014  21.903  1.00  0.00     0.000 C 
BRANCH   4   5
ATOM      5  C   UNL     1       4.111  -2.509  22.841  1.00  0.00     0.000 C 
BRANCH   5   6
ATOM      6  C   UNL     1       5.200  -3.298  22.096  1.00  0.00     0.000 C 
BRANCH   6   7
ATOM      7  C   UNL     1       6.563  -2.594  22.115  1.00  0.00     0.000 C 
BRANCH   7   8
ATOM      8  C   UNL     1       7.070  -2.337  20.689  1.00  0.00     0.000 C 
BRANCH   8   9
ATOM      9  C   UNL     1       7.126  -3.630  19.845  1.00  0.00     0.000 C 
BRANCH   9  10
ATOM     10  C   UNL     1       7.750  -4.825  20.590  1.00  0.00     0.006 C 
BRANCH  10  11
ATOM     11  C   UNL     1       6.922  -6.116  20.510  1.00  0.00     0.053 C 
BRANCH  11  12
ATOM     12  C   UNL     1       7.226  -7.050  21.643  1.00  0.00     0.041 C 
ATOM     13  O   UNL     1       6.575  -8.120  21.775  1.00  0.00    -0.550 OA
ATOM     14  O   UNL     1       8.235  -6.743  22.547  1.00  0.00    -0.550 OA
ENDBRANCH  11  12
ENDBRANCH  10  11
ENDBRANCH   9  10
ENDBRANCH   8   9
ENDBRANCH   7   8
ENDBRANCH   6   7
ENDBRANCH   5   6
ENDBRANCH   4   5
ENDBRANCH   3   4
ENDBRANCH   2   3
ENDBRANCH   1   2
BRANCH   1  15
ATOM     15  C   UNL     1       2.945   0.503  18.458  1.00  0.00     0.000 C 
BRANCH  15  16
ATOM     16  C   UNL     1       1.994   1.032  17.372  1.00  0.00     0.000 C 
BRANCH  16  17
ATOM     17  C   UNL     1       1.038   2.113  17.901  1.00  0.00     0.000 C 
BRANCH  17  18
ATOM     18  C   UNL     1       0.951   3.332  16.967  1.00  0.00    -0.000 C 
BRANCH  18  19
ATOM     19  C   UNL     1       0.877   4.663  17.735  1.00  0.00    -0.000 C 
BRANCH  19  20
ATOM     20  C   UNL     1       2.044   5.605  17.393  1.00  0.00    -0.000 C 
BRANCH  20  21
ATOM     21  C   UNL     1       2.176   6.766  18.392  1.00  0.00    -0.000 C 
BRANCH  21  22
ATOM     22  C   UNL     1       0.875   7.035  19.168  1.00  0.00    -0.000 C 
BRANCH  22  23
ATOM     23  C   UNL     1       1.081   7.005  20.691  1.00  0.00    -0.000 C 
BRANCH  23  24
ATOM     24  C   UNL     1       0.881   8.386  21.340  1.00  0.00    -0.000 C 
BRANCH  24  25
ATOM     25  C   UNL     1       1.456   8.457  22.763  1.00  0.00    -0.003 C 
ATOM     26  C   UNL     1       1.592   7.080  23.413  1.00  0.00     0.004 C 
ENDBRANCH  24  25
ENDBRANCH  23  24
ENDBRANCH  22  23
ENDBRANCH  21  22
ENDBRANCH  20  21
ENDBRANCH  19  20
ENDBRANCH  18  19
ENDBRANCH  17  18
ENDBRANCH  16  17
ENDBRANCH  15  16
ENDBRANCH   1  15
TORSDOF 22
ENDMDL
MODEL 7
REMARK VINA RESULT:    -5.131      1.632      3.660
REMARK INTER + INTRA:         -13.231
REMARK INTER:                 -11.894
REMARK INTRA:                  -1.337
REMARK UNBOUND:                -1.501
REMARK SMILES CCCCCCCCCCCCCCCCCCCCCCCC(=O)[O-]
REMARK SMILES IDX 13 1 14 2 15 3 16 4 17 5 18 6 19 7 20 8 21 9 22 10 23 11
REMARK SMILES IDX 24 12 25 13 26 14 12 15 11 16 10 17 9 18 8 19 7 20 6 21 5 22
REMARK SMILES IDX 4 23 3 24 2 25 1 26
REMARK H PARENT
REMARK Flexibility Score: inf
ROOT
ATOM      1  C   UNL     1       2.232   1.283  18.519  1.00  0.00     0.000 C 
ENDROOT
BRANCH   1   2
ATOM      2  C   UNL     1       1.223   1.597  17.400  1.00  0.00     0.000 C 
BRANCH   2   3
ATOM      3  C   UNL     1       0.880   3.097  17.325  1.00  0.00     0.000 C 
BRANCH   3   4
ATOM      4  C   UNL     1       2.098   4.023  17.497  1.00  0.00     0.000 C 
BRANCH   4   5
ATOM      5  C   UNL     1       1.800   5.216  18.422  1.00  0.00     0.000 C 
BRANCH   5   6
ATOM      6  C   UNL     1       0.875   6.255  17.767  1.00  0.00     0.000 C 
BRANCH   6   7
ATOM      7  C   UNL     1       1.385   7.693  17.933  1.00  0.00     0.000 C 
BRANCH   7   8
ATOM      8  C   UNL     1       1.229   8.485  16.626  1.00  0.00     0.000 C 
BRANCH   8   9
ATOM      9  C   UNL     1       2.539   8.531  15.809  1.00  0.00     0.000 C 
BRANCH   9  10
ATOM     10  C   UNL     1       2.656   7.401  14.769  1.00  0.00     0.006 C 
BRANCH  10  11
ATOM     11  C   UNL     1       3.479   6.194  15.244  1.00  0.00     0.053 C 
BRANCH  11  12
ATOM     12  C   UNL     1       4.645   5.919  14.343  1.00  0.00     0.041 C 
ATOM     13  O   UNL     1       5.365   6.867  13.930  1.00  0.00    -0.550 OA
ATOM     14  O   UNL     1       4.944   4.615  13.968  1.00  0.00    -0.550 OA
ENDBRANCH  11  12
ENDBRANCH  10  11
ENDBRANCH   9  10
ENDBRANCH   8   9
ENDBRANCH   7   8
ENDBRANCH   6   7
ENDBRANCH   5   6
ENDBRANCH   4   5
ENDBRANCH   3   4
ENDBRANCH   2   3
ENDBRANCH   1   2
BRANCH   1  15
ATOM     15  C   UNL     1       1.910  -0.028  19.253  1.00  0.00     0.000 C 
BRANCH  15  16
ATOM     16  C   UNL     1       3.174  -0.802  19.667  1.00  0.00     0.000 C 
BRANCH  16  17
ATOM     17  C   UNL     1       3.041  -2.315  19.434  1.00  0.00     0.000 C 
BRANCH  17  18
ATOM     18  C   UNL     1       4.242  -3.104  19.983  1.00  0.00    -0.000 C 
BRANCH  18  19
ATOM     19  C   UNL     1       5.200  -2.227  20.806  1.00  0.00    -0.000 C 
BRANCH  19  20
ATOM     20  C   UNL     1       6.672  -2.642  20.633  1.00  0.00    -0.000 C 
BRANCH  20  21
ATOM     21  C   UNL     1       6.826  -4.126  20.264  1.00  0.00    -0.000 C 
BRANCH  21  22
ATOM     22  C   UNL     1       8.018  -4.795  20.971  1.00  0.00    -0.000 C 
BRANCH  22  23
ATOM     23  C   UNL     1       7.620  -6.092  21.694  1.00  0.00    -0.000 C 
BRANCH  23  24
ATOM     24  C   UNL     1       7.325  -7.245  20.717  1.00  0.00    -0.000 C 
BRANCH  24  25
ATOM     25  C   UNL     1       7.243  -8.607  21.423  1.00  0.00    -0.003 C 
ATOM     26  C   UNL     1       6.532  -8.529  22.774  1.00  0.00     0.004 C 
ENDBRANCH  24  25
ENDBRANCH  23  24
ENDBRANCH  22  23
ENDBRANCH  21  22
ENDBRANCH  20  21
ENDBRANCH  19  20
ENDBRANCH  18  19
ENDBRANCH  17  18
ENDBRANCH  16  17
ENDBRANCH  15  16
ENDBRANCH   1  15
TORSDOF 22
ENDMDL
MODEL 8
REMARK VINA RESULT:    -4.650      3.065     10.724
REMARK INTER + INTRA:         -12.131
REMARK INTER:                 -11.499
REMARK INTRA:                  -0.632
REMARK UNBOUND:                -1.501
REMARK SMILES CCCCCCCCCCCCCCCCCCCCCCCC(=O)[O-]
REMARK SMILES IDX 13 1 14 2 15 3 16 4 17 5 18 6 19 7 20 8 21 9 22 10 23 11
REMARK SMILES IDX 24 12 25 13 26 14 12 15 11 16 10 17 9 18 8 19 7 20 6 21 5 22
REMARK SMILES IDX 4 23 3 24 2 25 1 26
REMARK H PARENT
REMARK Flexibility Score: inf
ROOT
ATOM      1  C   UNL     1       3.097  -1.898  19.027  1.00  0.00     0.000 C 
ENDROOT
BRANCH   1   2
ATOM      2  C   UNL     1       3.625  -3.344  19.004  1.00  0.00     0.000 C 
BRANCH   2   3
ATOM      3  C   UNL     1       5.067  -3.432  18.471  1.00  0.00     0.000 C 
BRANCH   3   4
ATOM      4  C   UNL     1       5.781  -4.749  18.823  1.00  0.00     0.000 C 
BRANCH   4   5
ATOM      5  C   UNL     1       7.107  -4.515  19.570  1.00  0.00     0.000 C 
BRANCH   5   6
ATOM      6  C   UNL     1       6.962  -4.671  21.092  1.00  0.00     0.000 C 
BRANCH   6   7
ATOM      7  C   UNL     1       5.498  -4.779  21.542  1.00  0.00     0.000 C 
BRANCH   7   8
ATOM      8  C   UNL     1       5.006  -3.452  22.136  1.00  0.00     0.000 C 
BRANCH   8   9
ATOM      9  C   UNL     1       6.172  -2.533  22.563  1.00  0.00     0.000 C 
BRANCH   9  10
ATOM     10  C   UNL     1       6.650  -1.587  21.446  1.00  0.00     0.006 C 
BRANCH  10  11
ATOM     11  C   UNL     1       5.515  -0.978  20.609  1.00  0.00     0.053 C 
BRANCH  11  12
ATOM     12  C   UNL     1       5.935   0.291  19.930  1.00  0.00     0.041 C 
ATOM     13  O   UNL     1       6.916   0.949  20.366  1.00  0.00    -0.550 OA
ATOM     14  O   UNL     1       5.248   0.742  18.810  1.00  0.00    -0.550 OA
ENDBRANCH  11  12
ENDBRANCH  10  11
ENDBRANCH   9  10
ENDBRANCH   8   9
ENDBRANCH   7   8
ENDBRANCH   6   7
ENDBRANCH   5   6
ENDBRANCH   4   5
ENDBRANCH   3   4
ENDBRANCH   2   3
ENDBRANCH   1   2
BRANCH   1  15
ATOM     15  C   UNL     1       1.628  -1.812  19.471  1.00  0.00     0.000 C 
BRANCH  15  16
ATOM     16  C   UNL     1       1.021  -0.416  19.249  1.00  0.00     0.000 C 
BRANCH  16  17
ATOM     17  C   UNL     1       2.035   0.580  18.663  1.00  0.00     0.000 C 
BRANCH  17  18
ATOM     18  C   UNL     1       1.428   1.452  17.551  1.00  0.00    -0.000 C 
BRANCH  18  19
ATOM     19  C   UNL     1       0.879   2.788  18.079  1.00  0.00    -0.000 C 
BRANCH  19  20
ATOM     20  C   UNL     1       1.082   3.943  17.082  1.00  0.00    -0.000 C 
BRANCH  20  21
ATOM     21  C   UNL     1       1.497   5.251  17.773  1.00  0.00    -0.000 C 
BRANCH  21  22
ATOM     22  C   UNL     1       2.383   6.141  16.883  1.00  0.00    -0.000 C 
BRANCH  22  23
ATOM     23  C   UNL     1       1.590   6.816  15.753  1.00  0.00    -0.000 C 
BRANCH  23  24
ATOM     24  C   UNL     1       2.417   7.878  15.005  1.00  0.00    -0.000 C 
BRANCH  24  25
ATOM     25  C   UNL     1       2.266   9.279  15.617  1.00  0.00    -0.003 C 
ATOM     26  C   UNL     1       1.103   9.369  16.605  1.00  0.00     0.004 C 
ENDBRANCH  24  25
ENDBRANCH  23  24
ENDBRANCH  22  23
ENDBRANCH  21  22
ENDBRANCH  20  21
ENDBRANCH  19  20
ENDBRANCH  18  19
ENDBRANCH  17  18
ENDBRANCH  16  17
ENDBRANCH  15  16
ENDBRANCH   1  15
TORSDOF 22
ENDMDL
