MODEL 1
REMARK VINA RESULT:     7.027      0.000      0.000
REMARK INTER + INTRA:           9.450
REMARK INTER:                   8.259
REMARK INTRA:                   1.191
REMARK UNBOUND:                 1.191
REMARK SMILES C=C(C)[C@H]1CC[C@@]2(CO)CC[C@@]3(C)[C@H](CC[C@@H]4[C@]5(C)CC[C@H](O)C(C)(C)[C@H]5CC[C@@]43C)[C@@H]12
REMARK SMILES IDX 4 1 5 2 6 3 7 4 32 5 14 6 15 7 16 8 17 9 18 10 20 11 21 12
REMARK SMILES IDX 22 13 24 14 27 15 28 16 29 17 30 18 12 19 11 20 10 21 13 22
REMARK SMILES IDX 31 23 25 24 26 25 19 26 2 27 3 28 1 29 8 30 9 31 23 33
REMARK H PARENT 9 32 23 34
REMARK Flexibility Score: inf
ROOT
ATOM      1  C   UNL     1     -12.278  15.521 -33.473  1.00  0.00     0.018 C 
ATOM      2  C   UNL     1     -10.807  15.593 -33.891  1.00  0.00     0.009 C 
ATOM      3  C   UNL     1     -10.108  14.426 -33.202  1.00  0.00     0.010 C 
ATOM      4  C   UNL     1     -11.140  13.272 -33.101  1.00  0.00    -0.003 C 
ATOM      5  C   UNL     1     -12.530  13.997 -33.271  1.00  0.00     0.008 C 
ATOM      6  C   UNL     1     -13.740  13.538 -32.358  1.00  0.00    -0.000 C 
ATOM      7  C   UNL     1     -14.542  12.483 -33.138  1.00  0.00     0.005 C 
ATOM      8  C   UNL     1     -15.797  12.054 -32.427  1.00  0.00     0.005 C 
ATOM      9  C   UNL     1     -15.547  11.423 -31.031  1.00  0.00     0.002 C 
ATOM     10  C   UNL     1     -16.934  10.945 -30.351  1.00  0.00    -0.026 C 
ATOM     11  C   UNL     1     -17.861  10.199 -31.378  1.00  0.00     0.010 C 
ATOM     12  C   UNL     1     -19.271   9.876 -30.849  1.00  0.00     0.033 C 
ATOM     13  C   UNL     1     -20.007  11.139 -30.383  1.00  0.00     0.120 C 
ATOM     14  C   UNL     1     -19.207  11.989 -29.336  1.00  0.00    -0.006 C 
ATOM     15  C   UNL     1     -17.717  12.217 -29.838  1.00  0.00     0.003 C 
ATOM     16  C   UNL     1     -16.859  13.087 -28.896  1.00  0.00     0.005 C 
ATOM     17  C   UNL     1     -15.550  13.540 -29.570  1.00  0.00     0.008 C 
ATOM     18  C   UNL     1     -14.638  12.384 -30.121  1.00  0.00    -0.024 C 
ATOM     19  C   UNL     1     -13.352  13.003 -30.929  1.00  0.00    -0.024 C 
ATOM     20  C   UNL     1     -12.228  11.933 -31.126  1.00  0.00     0.008 C 
ATOM     21  C   UNL     1     -10.943  12.479 -31.766  1.00  0.00     0.010 C 
ATOM     22  C   UNL     1     -12.749  14.202 -30.123  1.00  0.00     0.012 C 
ATOM     23  C   UNL     1     -14.095  11.588 -28.883  1.00  0.00     0.012 C 
ATOM     24  C   UNL     1     -19.929  13.360 -29.177  1.00  0.00     0.014 C 
ATOM     25  C   UNL     1     -19.268  11.297 -27.947  1.00  0.00     0.014 C 
ATOM     26  C   UNL     1     -16.608   9.910 -29.219  1.00  0.00     0.012 C 
ENDROOT
BRANCH   1  27
ATOM     27  C   UNL     1     -12.687  16.497 -32.364  1.00  0.00    -0.077 C 
ATOM     28  C   UNL     1     -13.915  16.199 -31.538  1.00  0.00     0.039 C 
ATOM     29  C   UNL     1     -12.082  17.682 -32.172  1.00  0.00     0.008 C 
ENDBRANCH   1  27
BRANCH   4  30
ATOM     30  C   UNL     1     -10.926  12.291 -34.295  1.00  0.00     0.163 C 
BRANCH  30  31
ATOM     31  O   UNL     1      -9.904  11.365 -34.029  1.00  0.00    -0.396 OA
ATOM     32  H   UNL     1     -10.348  10.503 -33.808  1.00  0.00     0.210 HD
ENDBRANCH  30  31
ENDBRANCH   4  30
BRANCH  13  33
ATOM     33  O   UNL     1     -20.446  11.890 -31.499  1.00  0.00    -0.393 OA
ATOM     34  H   UNL     1     -20.887  11.278 -32.131  1.00  0.00     0.210 HD
ENDBRANCH  13  33
TORSDOF 4
ENDMDL
MODEL 2
REMARK VINA RESULT:     9.563      9.497     11.538
REMARK INTER + INTRA:          12.431
REMARK INTER:                  12.121
REMARK INTRA:                   0.310
REMARK UNBOUND:                 1.191
REMARK SMILES C=C(C)[C@H]1CC[C@@]2(CO)CC[C@@]3(C)[C@H](CC[C@@H]4[C@]5(C)CC[C@H](O)C(C)(C)[C@H]5CC[C@@]43C)[C@@H]12
REMARK SMILES IDX 4 1 5 2 6 3 7 4 32 5 14 6 15 7 16 8 17 9 18 10 20 11 21 12
REMARK SMILES IDX 22 13 24 14 27 15 28 16 29 17 30 18 12 19 11 20 10 21 13 22
REMARK SMILES IDX 31 23 25 24 26 25 19 26 2 27 3 28 1 29 8 30 9 31 23 33
REMARK H PARENT 9 32 23 34
REMARK Flexibility Score: inf
ROOT
ATOM      1  C   UNL     1     -25.311  18.751 -34.129  1.00  0.00     0.018 C 
ATOM      2  C   UNL     1     -24.711  20.155 -34.227  1.00  0.00     0.009 C 
ATOM      3  C   UNL     1     -24.067  20.441 -32.875  1.00  0.00     0.010 C 
ATOM      4  C   UNL     1     -23.547  19.087 -32.322  1.00  0.00    -0.003 C 
ATOM      5  C   UNL     1     -24.365  18.013 -33.136  1.00  0.00     0.008 C 
ATOM      6  C   UNL     1     -24.906  16.735 -32.372  1.00  0.00    -0.000 C 
ATOM      7  C   UNL     1     -23.864  15.615 -32.534  1.00  0.00     0.005 C 
ATOM      8  C   UNL     1     -24.318  14.303 -31.957  1.00  0.00     0.005 C 
ATOM      9  C   UNL     1     -24.626  14.353 -30.437  1.00  0.00     0.002 C 
ATOM     10  C   UNL     1     -25.060  12.899 -29.881  1.00  0.00    -0.026 C 
ATOM     11  C   UNL     1     -24.133  11.760 -30.440  1.00  0.00     0.010 C 
ATOM     12  C   UNL     1     -24.597  10.331 -30.097  1.00  0.00     0.033 C 
ATOM     13  C   UNL     1     -26.024  10.062 -30.594  1.00  0.00     0.120 C 
ATOM     14  C   UNL     1     -27.076  11.117 -30.104  1.00  0.00    -0.006 C 
ATOM     15  C   UNL     1     -26.535  12.590 -30.354  1.00  0.00     0.003 C 
ATOM     16  C   UNL     1     -27.521  13.703 -29.947  1.00  0.00     0.005 C 
ATOM     17  C   UNL     1     -27.094  15.076 -30.499  1.00  0.00     0.008 C 
ATOM     18  C   UNL     1     -25.647  15.545 -30.098  1.00  0.00    -0.024 C 
ATOM     19  C   UNL     1     -25.268  16.949 -30.856  1.00  0.00    -0.024 C 
ATOM     20  C   UNL     1     -24.043  17.652 -30.183  1.00  0.00     0.008 C 
ATOM     21  C   UNL     1     -23.712  19.034 -30.766  1.00  0.00     0.010 C 
ATOM     22  C   UNL     1     -26.488  17.928 -30.794  1.00  0.00     0.012 C 
ATOM     23  C   UNL     1     -25.656  15.815 -28.552  1.00  0.00     0.012 C 
ATOM     24  C   UNL     1     -28.392  10.891 -30.904  1.00  0.00     0.014 C 
ATOM     25  C   UNL     1     -27.418  10.854 -28.612  1.00  0.00     0.014 C 
ATOM     26  C   UNL     1     -24.885  12.884 -28.322  1.00  0.00     0.012 C 
ENDROOT
BRANCH   1  27
ATOM     27  C   UNL     1     -26.825  18.706 -33.888  1.00  0.00    -0.077 C 
ATOM     28  C   UNL     1     -27.575  19.999 -33.680  1.00  0.00     0.039 C 
ATOM     29  C   UNL     1     -27.505  17.559 -33.717  1.00  0.00     0.008 C 
ENDBRANCH   1  27
BRANCH   4  30
ATOM     30  C   UNL     1     -22.032  18.944 -32.665  1.00  0.00     0.163 C 
BRANCH  30  31
ATOM     31  O   UNL     1     -21.701  19.629 -33.846  1.00  0.00    -0.396 OA
ATOM     32  H   UNL     1     -21.366  18.948 -34.488  1.00  0.00     0.210 HD
ENDBRANCH  30  31
ENDBRANCH   4  30
BRANCH  13  33
ATOM     33  O   UNL     1     -26.026   9.877 -31.997  1.00  0.00    -0.393 OA
ATOM     34  H   UNL     1     -26.541   9.064 -32.203  1.00  0.00     0.210 HD
ENDBRANCH  13  33
TORSDOF 4
ENDMDL
MODEL 3
REMARK VINA RESULT:     9.972      9.768     13.502
REMARK INTER + INTRA:          12.911
REMARK INTER:                  12.107
REMARK INTRA:                   0.805
REMARK UNBOUND:                 1.191
REMARK SMILES C=C(C)[C@H]1CC[C@@]2(CO)CC[C@@]3(C)[C@H](CC[C@@H]4[C@]5(C)CC[C@H](O)C(C)(C)[C@H]5CC[C@@]43C)[C@@H]12
REMARK SMILES IDX 4 1 5 2 6 3 7 4 32 5 14 6 15 7 16 8 17 9 18 10 20 11 21 12
REMARK SMILES IDX 22 13 24 14 27 15 28 16 29 17 30 18 12 19 11 20 10 21 13 22
REMARK SMILES IDX 31 23 25 24 26 25 19 26 2 27 3 28 1 29 8 30 9 31 23 33
REMARK H PARENT 9 32 23 34
REMARK Flexibility Score: inf
ROOT
ATOM      1  C   UNL     1     -25.647  11.122 -30.867  1.00  0.00     0.018 C 
ATOM      2  C   UNL     1     -26.249  10.035 -29.973  1.00  0.00     0.009 C 
ATOM      3  C   UNL     1     -27.163  10.752 -28.984  1.00  0.00     0.010 C 
ATOM      4  C   UNL     1     -27.751  11.986 -29.718  1.00  0.00    -0.003 C 
ATOM      5  C   UNL     1     -26.758  12.212 -30.922  1.00  0.00     0.008 C 
ATOM      6  C   UNL     1     -26.353  13.696 -31.299  1.00  0.00    -0.000 C 
ATOM      7  C   UNL     1     -27.313  14.178 -32.401  1.00  0.00     0.005 C 
ATOM      8  C   UNL     1     -26.954  15.537 -32.939  1.00  0.00     0.005 C 
ATOM      9  C   UNL     1     -26.965  16.663 -31.871  1.00  0.00     0.002 C 
ATOM     10  C   UNL     1     -26.618  18.096 -32.531  1.00  0.00    -0.026 C 
ATOM     11  C   UNL     1     -27.383  18.315 -33.887  1.00  0.00     0.010 C 
ATOM     12  C   UNL     1     -26.963  19.579 -34.661  1.00  0.00     0.033 C 
ATOM     13  C   UNL     1     -25.459  19.588 -34.964  1.00  0.00     0.120 C 
ATOM     14  C   UNL     1     -24.556  19.392 -33.697  1.00  0.00    -0.006 C 
ATOM     15  C   UNL     1     -25.070  18.156 -32.842  1.00  0.00     0.003 C 
ATOM     16  C   UNL     1     -24.215  17.851 -31.595  1.00  0.00     0.005 C 
ATOM     17  C   UNL     1     -24.555  16.475 -30.991  1.00  0.00     0.008 C 
ATOM     18  C   UNL     1     -26.064  16.260 -30.604  1.00  0.00    -0.024 C 
ATOM     19  C   UNL     1     -26.314  14.719 -30.104  1.00  0.00    -0.024 C 
ATOM     20  C   UNL     1     -27.668  14.578 -29.332  1.00  0.00     0.008 C 
ATOM     21  C   UNL     1     -27.907  13.187 -28.726  1.00  0.00     0.010 C 
ATOM     22  C   UNL     1     -25.158  14.280 -29.144  1.00  0.00     0.012 C 
ATOM     23  C   UNL     1     -26.378  17.218 -29.402  1.00  0.00     0.012 C 
ATOM     24  C   UNL     1     -23.098  19.134 -34.180  1.00  0.00     0.014 C 
ATOM     25  C   UNL     1     -24.519  20.710 -32.876  1.00  0.00     0.014 C 
ATOM     26  C   UNL     1     -27.107  19.228 -31.562  1.00  0.00     0.012 C 
ENDROOT
BRANCH   1  27
ATOM     27  C   UNL     1     -24.215  11.536 -30.511  1.00  0.00    -0.077 C 
ATOM     28  C   UNL     1     -23.421  10.687 -29.549  1.00  0.00     0.039 C 
ATOM     29  C   UNL     1     -23.669  12.699 -30.910  1.00  0.00     0.008 C 
ENDBRANCH   1  27
BRANCH   4  30
ATOM     30  C   UNL     1     -29.160  11.621 -30.280  1.00  0.00     0.163 C 
BRANCH  30  31
ATOM     31  O   UNL     1     -29.947  10.963 -29.319  1.00  0.00    -0.396 OA
ATOM     32  H   UNL     1     -30.767  10.649 -29.786  1.00  0.00     0.210 HD
ENDBRANCH  30  31
ENDBRANCH   4  30
BRANCH  13  33
ATOM     33  O   UNL     1     -25.165  18.680 -36.009  1.00  0.00    -0.393 OA
ATOM     34  H   UNL     1     -25.999  18.478 -36.490  1.00  0.00     0.210 HD
ENDBRANCH  13  33
TORSDOF 4
ENDMDL
