MODEL 1
REMARK VINA RESULT:    -3.480      0.000      0.000
REMARK INTER + INTRA:          -4.540
REMARK INTER:                  -4.294
REMARK INTRA:                  -0.246
REMARK UNBOUND:                -0.246
REMARK SMILES CCCCCC(=O)[O-]
REMARK SMILES IDX 4 1 5 2 6 3 7 4 8 5 3 6 2 7 1 8
REMARK H PARENT
REMARK Flexibility Score: inf
ROOT
ATOM      1  C   UNL     1      17.137  14.951 -17.481  1.00  0.00     0.006 C 
ENDROOT
BRANCH   1   2
ATOM      2  C   UNL     1      17.200  14.976 -19.013  1.00  0.00     0.053 C 
BRANCH   2   3
ATOM      3  C   UNL     1      16.344  13.894 -19.590  1.00  0.00     0.041 C 
ATOM      4  O   UNL     1      16.864  12.964 -20.261  1.00  0.00    -0.550 OA
ATOM      5  O   UNL     1      14.965  13.937 -19.428  1.00  0.00    -0.550 OA
ENDBRANCH   2   3
ENDBRANCH   1   2
BRANCH   1   6
ATOM      6  C   UNL     1      17.550  13.593 -16.894  1.00  0.00     0.000 C 
BRANCH   6   7
ATOM      7  C   UNL     1      16.619  13.130 -15.764  1.00  0.00    -0.003 C 
ATOM      8  C   UNL     1      15.206  13.676 -15.958  1.00  0.00     0.004 C 
ENDBRANCH   6   7
ENDBRANCH   1   6
TORSDOF 4
ENDMDL
MODEL 2
REMARK VINA RESULT:    -3.364      2.980      3.634
REMARK INTER + INTRA:          -4.396
REMARK INTER:                  -4.268
REMARK INTRA:                  -0.128
REMARK UNBOUND:                -0.246
REMARK SMILES CCCCCC(=O)[O-]
REMARK SMILES IDX 4 1 5 2 6 3 7 4 8 5 3 6 2 7 1 8
REMARK H PARENT
REMARK Flexibility Score: inf
ROOT
ATOM      1  C   UNL     1      16.072  16.671 -16.515  1.00  0.00     0.006 C 
ENDROOT
BRANCH   1   2
ATOM      2  C   UNL     1      16.093  15.137 -16.501  1.00  0.00     0.053 C 
BRANCH   2   3
ATOM      3  C   UNL     1      17.199  14.621 -17.366  1.00  0.00     0.041 C 
ATOM      4  O   UNL     1      17.421  15.144 -18.490  1.00  0.00    -0.550 OA
ATOM      5  O   UNL     1      17.954  13.531 -16.953  1.00  0.00    -0.550 OA
ENDBRANCH   2   3
ENDBRANCH   1   2
BRANCH   1   6
ATOM      6  C   UNL     1      14.702  17.240 -16.914  1.00  0.00     0.000 C 
BRANCH   6   7
ATOM      7  C   UNL     1      13.783  17.468 -15.705  1.00  0.00    -0.003 C 
ATOM      8  C   UNL     1      12.572  16.540 -15.752  1.00  0.00     0.004 C 
ENDBRANCH   6   7
ENDBRANCH   1   6
TORSDOF 4
ENDMDL
MODEL 3
REMARK VINA RESULT:    -3.361      4.327      5.984
REMARK INTER + INTRA:          -4.392
REMARK INTER:                  -4.234
REMARK INTRA:                  -0.158
REMARK UNBOUND:                -0.246
REMARK SMILES CCCCCC(=O)[O-]
REMARK SMILES IDX 4 1 5 2 6 3 7 4 8 5 3 6 2 7 1 8
REMARK H PARENT
REMARK Flexibility Score: inf
ROOT
ATOM      1  C   UNL     1      12.727  11.170 -20.281  1.00  0.00     0.006 C 
ENDROOT
BRANCH   1   2
ATOM      2  C   UNL     1      11.457  11.901 -19.827  1.00  0.00     0.053 C 
BRANCH   2   3
ATOM      3  C   UNL     1      11.667  12.532 -18.488  1.00  0.00     0.041 C 
ATOM      4  O   UNL     1      10.747  12.520 -17.629  1.00  0.00    -0.550 OA
ATOM      5  O   UNL     1      12.863  13.179 -18.205  1.00  0.00    -0.550 OA
ENDBRANCH   2   3
ENDBRANCH   1   2
BRANCH   1   6
ATOM      6  C   UNL     1      13.010  11.352 -21.780  1.00  0.00     0.000 C 
BRANCH   6   7
ATOM      7  C   UNL     1      13.962  12.522 -22.064  1.00  0.00    -0.003 C 
ATOM      8  C   UNL     1      15.225  12.422 -21.211  1.00  0.00     0.004 C 
ENDBRANCH   6   7
ENDBRANCH   1   6
TORSDOF 4
ENDMDL
MODEL 4
REMARK VINA RESULT:    -3.354      4.578      5.274
REMARK INTER + INTRA:          -4.384
REMARK INTER:                  -4.326
REMARK INTRA:                  -0.058
REMARK UNBOUND:                -0.246
REMARK SMILES CCCCCC(=O)[O-]
REMARK SMILES IDX 4 1 5 2 6 3 7 4 8 5 3 6 2 7 1 8
REMARK H PARENT
REMARK Flexibility Score: inf
ROOT
ATOM      1  C   UNL     1      12.324  11.440 -20.874  1.00  0.00     0.006 C 
ENDROOT
BRANCH   1   2
ATOM      2  C   UNL     1      13.790  11.022 -21.053  1.00  0.00     0.053 C 
BRANCH   2   3
ATOM      3  C   UNL     1      14.580  12.136 -21.662  1.00  0.00     0.041 C 
ATOM      4  O   UNL     1      14.265  12.592 -22.793  1.00  0.00    -0.550 OA
ATOM      5  O   UNL     1      15.695  12.638 -21.005  1.00  0.00    -0.550 OA
ENDBRANCH   2   3
ENDBRANCH   1   2
BRANCH   1   6
ATOM      6  C   UNL     1      11.970  11.744 -19.411  1.00  0.00     0.000 C 
BRANCH   6   7
ATOM      7  C   UNL     1      10.627  12.476 -19.269  1.00  0.00    -0.003 C 
ATOM      8  C   UNL     1      10.518  13.164 -17.910  1.00  0.00     0.004 C 
ENDBRANCH   6   7
ENDBRANCH   1   6
TORSDOF 4
ENDMDL
MODEL 5
REMARK VINA RESULT:    -3.322      2.895      3.719
REMARK INTER + INTRA:          -4.345
REMARK INTER:                  -4.250
REMARK INTRA:                  -0.095
REMARK UNBOUND:                -0.246
REMARK SMILES CCCCCC(=O)[O-]
REMARK SMILES IDX 4 1 5 2 6 3 7 4 8 5 3 6 2 7 1 8
REMARK H PARENT
REMARK Flexibility Score: inf
ROOT
ATOM      1  C   UNL     1      16.391  16.241 -16.540  1.00  0.00     0.006 C 
ENDROOT
BRANCH   1   2
ATOM      2  C   UNL     1      17.062  15.238 -17.487  1.00  0.00     0.053 C 
BRANCH   2   3
ATOM      3  C   UNL     1      17.089  13.875 -16.871  1.00  0.00     0.041 C 
ATOM      4  O   UNL     1      16.375  13.620 -15.866  1.00  0.00    -0.550 OA
ATOM      5  O   UNL     1      17.940  12.901 -17.377  1.00  0.00    -0.550 OA
ENDBRANCH   2   3
ENDBRANCH   1   2
BRANCH   1   6
ATOM      6  C   UNL     1      16.113  17.594 -17.212  1.00  0.00     0.000 C 
BRANCH   6   7
ATOM      7  C   UNL     1      14.666  18.066 -17.011  1.00  0.00    -0.003 C 
ATOM      8  C   UNL     1      14.029  17.387 -15.801  1.00  0.00     0.004 C 
ENDBRANCH   6   7
ENDBRANCH   1   6
TORSDOF 4
ENDMDL
MODEL 6
REMARK VINA RESULT:    -3.285      2.374      3.394
REMARK INTER + INTRA:          -4.299
REMARK INTER:                  -4.059
REMARK INTRA:                  -0.240
REMARK UNBOUND:                -0.246
REMARK SMILES CCCCCC(=O)[O-]
REMARK SMILES IDX 4 1 5 2 6 3 7 4 8 5 3 6 2 7 1 8
REMARK H PARENT
REMARK Flexibility Score: inf
ROOT
ATOM      1  C   UNL     1      15.290  15.239 -16.531  1.00  0.00     0.006 C 
ENDROOT
BRANCH   1   2
ATOM      2  C   UNL     1      16.161  14.031 -16.164  1.00  0.00     0.053 C 
BRANCH   2   3
ATOM      3  C   UNL     1      17.208  13.806 -17.208  1.00  0.00     0.041 C 
ATOM      4  O   UNL     1      18.325  13.319 -16.891  1.00  0.00    -0.550 OA
ATOM      5  O   UNL     1      16.970  14.180 -18.524  1.00  0.00    -0.550 OA
ENDBRANCH   2   3
ENDBRANCH   1   2
BRANCH   1   6
ATOM      6  C   UNL     1      15.936  16.576 -16.137  1.00  0.00     0.000 C 
BRANCH   6   7
ATOM      7  C   UNL     1      16.225  17.471 -17.351  1.00  0.00    -0.003 C 
ATOM      8  C   UNL     1      15.170  17.280 -18.438  1.00  0.00     0.004 C 
ENDBRANCH   6   7
ENDBRANCH   1   6
TORSDOF 4
ENDMDL
MODEL 7
REMARK VINA RESULT:    -3.243      2.600      4.216
REMARK INTER + INTRA:          -4.247
REMARK INTER:                  -4.197
REMARK INTRA:                  -0.050
REMARK UNBOUND:                -0.246
REMARK SMILES CCCCCC(=O)[O-]
REMARK SMILES IDX 4 1 5 2 6 3 7 4 8 5 3 6 2 7 1 8
REMARK H PARENT
REMARK Flexibility Score: inf
ROOT
ATOM      1  C   UNL     1      15.753  13.563 -19.939  1.00  0.00     0.006 C 
ENDROOT
BRANCH   1   2
ATOM      2  C   UNL     1      17.170  13.973 -19.518  1.00  0.00     0.053 C 
BRANCH   2   3
ATOM      3  C   UNL     1      17.235  14.187 -18.039  1.00  0.00     0.041 C 
ATOM      4  O   UNL     1      16.906  15.298 -17.545  1.00  0.00    -0.550 OA
ATOM      5  O   UNL     1      17.707  13.178 -17.210  1.00  0.00    -0.550 OA
ENDBRANCH   2   3
ENDBRANCH   1   2
BRANCH   1   6
ATOM      6  C   UNL     1      15.750  12.499 -21.047  1.00  0.00     0.000 C 
BRANCH   6   7
ATOM      7  C   UNL     1      14.456  12.513 -21.875  1.00  0.00    -0.003 C 
ATOM      8  C   UNL     1      13.499  11.415 -21.417  1.00  0.00     0.004 C 
ENDBRANCH   6   7
ENDBRANCH   1   6
TORSDOF 4
ENDMDL
MODEL 8
REMARK VINA RESULT:    -3.123      3.453      4.601
REMARK INTER + INTRA:          -4.099
REMARK INTER:                  -3.866
REMARK INTRA:                  -0.232
REMARK UNBOUND:                -0.246
REMARK SMILES CCCCCC(=O)[O-]
REMARK SMILES IDX 4 1 5 2 6 3 7 4 8 5 3 6 2 7 1 8
REMARK H PARENT
REMARK Flexibility Score: inf
ROOT
ATOM      1  C   UNL     1      14.968  17.566 -16.869  1.00  0.00     0.006 C 
ENDROOT
BRANCH   1   2
ATOM      2  C   UNL     1      13.933  17.518 -15.737  1.00  0.00     0.053 C 
BRANCH   2   3
ATOM      3  C   UNL     1      12.855  16.530 -16.056  1.00  0.00     0.041 C 
ATOM      4  O   UNL     1      11.801  16.499 -15.369  1.00  0.00    -0.550 OA
ATOM      5  O   UNL     1      13.036  15.611 -17.081  1.00  0.00    -0.550 OA
ENDBRANCH   2   3
ENDBRANCH   1   2
BRANCH   1   6
ATOM      6  C   UNL     1      16.308  16.928 -16.472  1.00  0.00     0.000 C 
BRANCH   6   7
ATOM      7  C   UNL     1      16.639  15.683 -17.306  1.00  0.00    -0.003 C 
ATOM      8  C   UNL     1      16.345  14.404 -16.526  1.00  0.00     0.004 C 
ENDBRANCH   6   7
ENDBRANCH   1   6
TORSDOF 4
ENDMDL
MODEL 9
REMARK VINA RESULT:    -3.079      2.671      3.309
REMARK INTER + INTRA:          -4.044
REMARK INTER:                  -3.799
REMARK INTRA:                  -0.245
REMARK UNBOUND:                -0.246
REMARK SMILES CCCCCC(=O)[O-]
REMARK SMILES IDX 4 1 5 2 6 3 7 4 8 5 3 6 2 7 1 8
REMARK H PARENT
REMARK Flexibility Score: inf
ROOT
ATOM      1  C   UNL     1      15.679  14.769 -18.393  1.00  0.00     0.006 C 
ENDROOT
BRANCH   1   2
ATOM      2  C   UNL     1      15.702  16.255 -18.773  1.00  0.00     0.053 C 
BRANCH   2   3
ATOM      3  C   UNL     1      15.514  17.108 -17.559  1.00  0.00     0.041 C 
ATOM      4  O   UNL     1      14.488  17.829 -17.443  1.00  0.00    -0.550 OA
ATOM      5  O   UNL     1      16.496  17.146 -16.578  1.00  0.00    -0.550 OA
ENDBRANCH   2   3
ENDBRANCH   1   2
BRANCH   1   6
ATOM      6  C   UNL     1      17.068  14.118 -18.465  1.00  0.00     0.000 C 
BRANCH   6   7
ATOM      7  C   UNL     1      17.579  13.663 -17.090  1.00  0.00    -0.003 C 
ATOM      8  C   UNL     1      16.453  13.661 -16.059  1.00  0.00     0.004 C 
ENDBRANCH   6   7
ENDBRANCH   1   6
TORSDOF 4
ENDMDL
