MODEL 1
REMARK VINA RESULT:    -6.091      0.000      0.000
REMARK INTER + INTRA:         -10.696
REMARK INTER:                  -8.939
REMARK INTRA:                  -1.757
REMARK UNBOUND:                -1.757
REMARK SMILES O=c1c(O[C@H]2O[C@H](CO)[C@@H](O)[C@H](O)[C@H]2O)c(-c2ccc(O)c(O)c2)oc2cc(O)cc(O)c12
REMARK SMILES IDX 4 1 3 2 16 3 25 4 2 5 26 6 1 7 33 8 27 9 31 10 28 11 30 12
REMARK SMILES IDX 17 13 20 14 19 15 22 16 18 17 24 18 21 19 23 21 32 23 29 25
REMARK SMILES IDX 5 27 14 28 6 29 12 30 7 31 10 32 15 33 13 35 8 37 9 38 11 40
REMARK H PARENT 21 20 23 22 32 24 29 26 15 34 13 36 9 39 11 41
REMARK Flexibility Score: inf
ROOT
ATOM      1  O   UNL     1      12.317   1.542   0.895  1.00  0.00    -0.454 OA
ENDROOT
BRANCH   1   2
ATOM      2  C   UNL     1      11.671   2.521   0.111  1.00  0.00     0.214 A 
ATOM      3  C   UNL     1      12.325   2.969  -1.055  1.00  0.00     0.180 A 
ATOM      4  O   UNL     1      11.792   3.937  -1.793  1.00  0.00    -0.452 OA
ATOM      5  C   UNL     1      10.426   3.100   0.444  1.00  0.00     0.239 A 
ATOM      6  C   UNL     1      10.632   4.514  -1.511  1.00  0.00     0.146 A 
ATOM      7  O   UNL     1       9.798   2.722   1.468  1.00  0.00    -0.285 OA
ATOM      8  C   UNL     1       9.887   4.114  -0.378  1.00  0.00     0.111 A 
ATOM      9  C   UNL     1      10.154   5.524  -2.351  1.00  0.00     0.094 A 
ATOM     10  C   UNL     1       8.648   4.750  -0.113  1.00  0.00     0.134 A 
ATOM     11  C   UNL     1       8.933   6.149  -2.082  1.00  0.00     0.123 A 
ATOM     12  C   UNL     1       8.185   5.760  -0.969  1.00  0.00     0.093 A 
BRANCH   3  13
ATOM     13  C   UNL     1      13.625   2.407  -1.486  1.00  0.00     0.025 A 
ATOM     14  C   UNL     1      16.075   1.294  -2.310  1.00  0.00     0.157 A 
ATOM     15  C   UNL     1      14.867   0.753  -2.761  1.00  0.00     0.051 A 
ATOM     16  C   UNL     1      16.062   2.386  -1.426  1.00  0.00     0.158 A 
ATOM     17  C   UNL     1      13.649   1.300  -2.347  1.00  0.00     0.016 A 
ATOM     18  C   UNL     1      14.839   2.930  -1.010  1.00  0.00     0.062 A 
BRANCH  14  19
ATOM     19  O   UNL     1      17.275   0.732  -2.745  1.00  0.00    -0.504 OA
ATOM     20  H   UNL     1      17.325  -0.212  -3.110  1.00  0.00     0.293 HD
ENDBRANCH  14  19
BRANCH  16  21
ATOM     21  O   UNL     1      17.262   2.926  -0.962  1.00  0.00    -0.504 OA
ATOM     22  H   UNL     1      17.356   3.915  -0.760  1.00  0.00     0.293 HD
ENDBRANCH  16  21
ENDBRANCH   3  13
BRANCH  10  23
ATOM     23  O   UNL     1       7.875   4.387   0.992  1.00  0.00    -0.507 OA
ATOM     24  H   UNL     1       8.251   3.821   1.743  1.00  0.00     0.293 HD
ENDBRANCH  10  23
BRANCH  11  25
ATOM     25  O   UNL     1       8.452   7.157  -2.916  1.00  0.00    -0.508 OA
ATOM     26  H   UNL     1       8.907   7.380  -3.794  1.00  0.00     0.293 HD
ENDBRANCH  11  25
ENDBRANCH   1   2
BRANCH   1  27
ATOM     27  C   UNL     1      12.060   0.133   0.922  1.00  0.00     0.339 C 
ATOM     28  C   UNL     1      11.897  -0.351   2.374  1.00  0.00     0.214 C 
ATOM     29  O   UNL     1      13.081  -0.599   0.257  1.00  0.00    -0.332 OA
ATOM     30  C   UNL     1      13.229  -0.240   3.126  1.00  0.00     0.180 C 
ATOM     31  C   UNL     1      14.346  -0.410   0.869  1.00  0.00     0.179 C 
ATOM     32  C   UNL     1      14.346  -0.934   2.325  1.00  0.00     0.177 C 
BRANCH  28  33
ATOM     33  O   UNL     1      10.923   0.414   3.036  1.00  0.00    -0.384 OA
ATOM     34  H   UNL     1      10.856   1.276   2.547  1.00  0.00     0.211 HD
ENDBRANCH  28  33
BRANCH  30  35
ATOM     35  O   UNL     1      13.096  -0.842   4.388  1.00  0.00    -0.387 OA
ATOM     36  H   UNL     1      12.132  -1.042   4.515  1.00  0.00     0.211 HD
ENDBRANCH  30  35
BRANCH  31  37
ATOM     37  C   UNL     1      15.406  -1.125   0.018  1.00  0.00     0.191 C 
BRANCH  37  38
ATOM     38  O   UNL     1      16.652  -0.503   0.165  1.00  0.00    -0.394 OA
ATOM     39  H   UNL     1      16.473   0.472   0.187  1.00  0.00     0.210 HD
ENDBRANCH  37  38
ENDBRANCH  31  37
BRANCH  32  40
ATOM     40  O   UNL     1      15.590  -0.666   2.920  1.00  0.00    -0.387 OA
ATOM     41  H   UNL     1      15.532   0.244   3.314  1.00  0.00     0.211 HD
ENDBRANCH  32  40
ENDBRANCH   1  27
TORSDOF 12
ENDMDL
MODEL 2
REMARK VINA RESULT:    -5.786      1.177      2.296
REMARK INTER + INTRA:         -10.248
REMARK INTER:                  -9.383
REMARK INTRA:                  -0.865
REMARK UNBOUND:                -1.757
REMARK SMILES O=c1c(O[C@H]2O[C@H](CO)[C@@H](O)[C@H](O)[C@H]2O)c(-c2ccc(O)c(O)c2)oc2cc(O)cc(O)c12
REMARK SMILES IDX 4 1 3 2 16 3 25 4 2 5 26 6 1 7 33 8 27 9 31 10 28 11 30 12
REMARK SMILES IDX 17 13 20 14 19 15 22 16 18 17 24 18 21 19 23 21 32 23 29 25
REMARK SMILES IDX 5 27 14 28 6 29 12 30 7 31 10 32 15 33 13 35 8 37 9 38 11 40
REMARK H PARENT 21 20 23 22 32 24 29 26 15 34 13 36 9 39 11 41
REMARK Flexibility Score: inf
ROOT
ATOM      1  O   UNL     1      12.662   2.217   1.500  1.00  0.00    -0.454 OA
ENDROOT
BRANCH   1   2
ATOM      2  C   UNL     1      11.955   3.012   0.574  1.00  0.00     0.214 A 
ATOM      3  C   UNL     1      12.637   3.439  -0.585  1.00  0.00     0.180 A 
ATOM      4  O   UNL     1      12.039   4.243  -1.457  1.00  0.00    -0.452 OA
ATOM      5  C   UNL     1      10.617   3.431   0.754  1.00  0.00     0.239 A 
ATOM      6  C   UNL     1      10.790   4.667  -1.321  1.00  0.00     0.146 A 
ATOM      7  O   UNL     1       9.963   3.063   1.766  1.00  0.00    -0.285 OA
ATOM      8  C   UNL     1      10.015   4.272  -0.207  1.00  0.00     0.111 A 
ATOM      9  C   UNL     1      10.249   5.512  -2.295  1.00  0.00     0.094 A 
ATOM     10  C   UNL     1       8.681   4.740  -0.099  1.00  0.00     0.134 A 
ATOM     11  C   UNL     1       8.934   5.972  -2.181  1.00  0.00     0.123 A 
ATOM     12  C   UNL     1       8.157   5.585  -1.088  1.00  0.00     0.093 A 
BRANCH   3  13
ATOM     13  C   UNL     1      14.034   3.035  -0.861  1.00  0.00     0.025 A 
ATOM     14  C   UNL     1      16.705   2.313  -1.377  1.00  0.00     0.157 A 
ATOM     15  C   UNL     1      16.416   3.390  -0.533  1.00  0.00     0.051 A 
ATOM     16  C   UNL     1      15.656   1.601  -1.984  1.00  0.00     0.158 A 
ATOM     17  C   UNL     1      15.090   3.754  -0.281  1.00  0.00     0.016 A 
ATOM     18  C   UNL     1      14.327   1.972  -1.732  1.00  0.00     0.062 A 
BRANCH  14  19
ATOM     19  O   UNL     1      18.037   1.967  -1.604  1.00  0.00    -0.504 OA
ATOM     20  H   UNL     1      18.404   1.055  -1.365  1.00  0.00     0.293 HD
ENDBRANCH  14  19
BRANCH  16  21
ATOM     21  O   UNL     1      15.934   0.533  -2.835  1.00  0.00    -0.504 OA
ATOM     22  H   UNL     1      16.716   0.559  -3.480  1.00  0.00     0.293 HD
ENDBRANCH  16  21
ENDBRANCH   3  13
BRANCH  10  23
ATOM     23  O   UNL     1       7.875   4.375   0.981  1.00  0.00    -0.507 OA
ATOM     24  H   UNL     1       6.870   4.503   0.964  1.00  0.00     0.293 HD
ENDBRANCH  10  23
BRANCH  11  25
ATOM     25  O   UNL     1       8.391   6.815  -3.149  1.00  0.00    -0.508 OA
ATOM     26  H   UNL     1       8.132   6.471  -4.066  1.00  0.00     0.293 HD
ENDBRANCH  11  25
ENDBRANCH   1   2
BRANCH   1  27
ATOM     27  C   UNL     1      12.276   0.947   2.037  1.00  0.00     0.339 C 
ATOM     28  C   UNL     1      13.522   0.151   2.468  1.00  0.00     0.214 C 
ATOM     29  O   UNL     1      11.495   0.202   1.113  1.00  0.00    -0.332 OA
ATOM     30  C   UNL     1      14.353  -0.244   1.240  1.00  0.00     0.180 C 
ATOM     31  C   UNL     1      12.209  -0.067  -0.082  1.00  0.00     0.179 C 
ATOM     32  C   UNL     1      13.457  -0.939   0.199  1.00  0.00     0.177 C 
BRANCH  28  33
ATOM     33  O   UNL     1      14.313   0.917   3.339  1.00  0.00    -0.384 OA
ATOM     34  H   UNL     1      15.241   0.571   3.262  1.00  0.00     0.211 HD
ENDBRANCH  28  33
BRANCH  30  35
ATOM     35  O   UNL     1      15.384  -1.108   1.642  1.00  0.00    -0.387 OA
ATOM     36  H   UNL     1      16.184  -0.878   1.100  1.00  0.00     0.211 HD
ENDBRANCH  30  35
BRANCH  31  37
ATOM     37  C   UNL     1      11.257  -0.757  -1.069  1.00  0.00     0.191 C 
BRANCH  37  38
ATOM     38  O   UNL     1      10.915   0.116  -2.110  1.00  0.00    -0.394 OA
ATOM     39  H   UNL     1       9.975   0.388  -1.943  1.00  0.00     0.210 HD
ENDBRANCH  37  38
ENDBRANCH  31  37
BRANCH  32  40
ATOM     40  O   UNL     1      14.176  -1.125  -0.994  1.00  0.00    -0.387 OA
ATOM     41  H   UNL     1      13.802  -1.931  -1.435  1.00  0.00     0.211 HD
ENDBRANCH  32  40
ENDBRANCH   1  27
TORSDOF 12
ENDMDL
MODEL 3
REMARK VINA RESULT:    -5.780      1.928      2.931
REMARK INTER + INTRA:         -10.240
REMARK INTER:                  -9.809
REMARK INTRA:                  -0.431
REMARK UNBOUND:                -1.757
REMARK SMILES O=c1c(O[C@H]2O[C@H](CO)[C@@H](O)[C@H](O)[C@H]2O)c(-c2ccc(O)c(O)c2)oc2cc(O)cc(O)c12
REMARK SMILES IDX 4 1 3 2 16 3 25 4 2 5 26 6 1 7 33 8 27 9 31 10 28 11 30 12
REMARK SMILES IDX 17 13 20 14 19 15 22 16 18 17 24 18 21 19 23 21 32 23 29 25
REMARK SMILES IDX 5 27 14 28 6 29 12 30 7 31 10 32 15 33 13 35 8 37 9 38 11 40
REMARK H PARENT 21 20 23 22 32 24 29 26 15 34 13 36 9 39 11 41
REMARK Flexibility Score: inf
ROOT
ATOM      1  O   UNL     1      12.091   2.962   1.495  1.00  0.00    -0.454 OA
ENDROOT
BRANCH   1   2
ATOM      2  C   UNL     1      11.387   3.712   0.530  1.00  0.00     0.214 A 
ATOM      3  C   UNL     1      11.590   3.395  -0.829  1.00  0.00     0.180 A 
ATOM      4  O   UNL     1      11.003   4.114  -1.780  1.00  0.00    -0.452 OA
ATOM      5  C   UNL     1      10.518   4.782   0.844  1.00  0.00     0.239 A 
ATOM      6  C   UNL     1      10.189   5.131  -1.529  1.00  0.00     0.146 A 
ATOM      7  O   UNL     1      10.295   5.093   2.045  1.00  0.00    -0.285 OA
ATOM      8  C   UNL     1       9.901   5.508  -0.197  1.00  0.00     0.111 A 
ATOM      9  C   UNL     1       9.619   5.825  -2.600  1.00  0.00     0.094 A 
ATOM     10  C   UNL     1       9.021   6.596   0.032  1.00  0.00     0.134 A 
ATOM     11  C   UNL     1       8.754   6.898  -2.367  1.00  0.00     0.123 A 
ATOM     12  C   UNL     1       8.458   7.278  -1.056  1.00  0.00     0.093 A 
BRANCH   3  13
ATOM     13  C   UNL     1      12.471   2.282  -1.247  1.00  0.00     0.025 A 
ATOM     14  C   UNL     1      14.121   0.135  -2.015  1.00  0.00     0.157 A 
ATOM     15  C   UNL     1      12.792  -0.093  -1.646  1.00  0.00     0.051 A 
ATOM     16  C   UNL     1      14.638   1.442  -1.983  1.00  0.00     0.158 A 
ATOM     17  C   UNL     1      11.973   0.971  -1.258  1.00  0.00     0.016 A 
ATOM     18  C   UNL     1      13.816   2.506  -1.590  1.00  0.00     0.062 A 
BRANCH  14  19
ATOM     19  O   UNL     1      14.913  -0.945  -2.404  1.00  0.00    -0.504 OA
ATOM     20  H   UNL     1      14.913  -1.296  -3.354  1.00  0.00     0.293 HD
ENDBRANCH  14  19
BRANCH  16  21
ATOM     21  O   UNL     1      15.966   1.678  -2.339  1.00  0.00    -0.504 OA
ATOM     22  H   UNL     1      16.666   1.919  -1.647  1.00  0.00     0.293 HD
ENDBRANCH  16  21
ENDBRANCH   3  13
BRANCH  10  23
ATOM     23  O   UNL     1       8.704   7.004   1.329  1.00  0.00    -0.507 OA
ATOM     24  H   UNL     1       9.402   7.392   1.952  1.00  0.00     0.293 HD
ENDBRANCH  10  23
BRANCH  11  25
ATOM     25  O   UNL     1       8.183   7.594  -3.431  1.00  0.00    -0.508 OA
ATOM     26  H   UNL     1       7.671   7.116  -4.163  1.00  0.00     0.293 HD
ENDBRANCH  11  25
ENDBRANCH   1   2
BRANCH   1  27
ATOM     27  C   UNL     1      12.981   3.450   2.504  1.00  0.00     0.339 C 
ATOM     28  C   UNL     1      14.133   4.245   1.861  1.00  0.00     0.214 C 
ATOM     29  O   UNL     1      13.485   2.397   3.314  1.00  0.00    -0.332 OA
ATOM     30  C   UNL     1      15.034   3.310   1.044  1.00  0.00     0.180 C 
ATOM     31  C   UNL     1      14.221   1.454   2.551  1.00  0.00     0.179 C 
ATOM     32  C   UNL     1      15.466   2.109   1.907  1.00  0.00     0.177 C 
BRANCH  28  33
ATOM     33  O   UNL     1      13.623   5.249   1.022  1.00  0.00    -0.384 OA
ATOM     34  H   UNL     1      13.765   6.113   1.491  1.00  0.00     0.211 HD
ENDBRANCH  28  33
BRANCH  30  35
ATOM     35  O   UNL     1      16.163   4.023   0.611  1.00  0.00    -0.387 OA
ATOM     36  H   UNL     1      16.597   4.400   1.421  1.00  0.00     0.211 HD
ENDBRANCH  30  35
BRANCH  31  37
ATOM     37  C   UNL     1      14.616   0.291   3.472  1.00  0.00     0.191 C 
BRANCH  37  38
ATOM     38  O   UNL     1      15.930   0.452   3.929  1.00  0.00    -0.394 OA
ATOM     39  H   UNL     1      15.858   0.816   4.849  1.00  0.00     0.210 HD
ENDBRANCH  37  38
ENDBRANCH  31  37
BRANCH  32  40
ATOM     40  O   UNL     1      16.129   1.166   1.103  1.00  0.00    -0.387 OA
ATOM     41  H   UNL     1      16.451   1.647   0.297  1.00  0.00     0.211 HD
ENDBRANCH  32  40
ENDBRANCH   1  27
TORSDOF 12
ENDMDL
MODEL 4
REMARK VINA RESULT:    -5.734      1.876      6.308
REMARK INTER + INTRA:         -10.173
REMARK INTER:                  -9.539
REMARK INTRA:                  -0.634
REMARK UNBOUND:                -1.757
REMARK SMILES O=c1c(O[C@H]2O[C@H](CO)[C@@H](O)[C@H](O)[C@H]2O)c(-c2ccc(O)c(O)c2)oc2cc(O)cc(O)c12
REMARK SMILES IDX 4 1 3 2 16 3 25 4 2 5 26 6 1 7 33 8 27 9 31 10 28 11 30 12
REMARK SMILES IDX 17 13 20 14 19 15 22 16 18 17 24 18 21 19 23 21 32 23 29 25
REMARK SMILES IDX 5 27 14 28 6 29 12 30 7 31 10 32 15 33 13 35 8 37 9 38 11 40
REMARK H PARENT 21 20 23 22 32 24 29 26 15 34 13 36 9 39 11 41
REMARK Flexibility Score: inf
ROOT
ATOM      1  O   UNL     1      10.863   1.316  -1.226  1.00  0.00    -0.454 OA
ENDROOT
BRANCH   1   2
ATOM      2  C   UNL     1      12.244   1.597  -1.172  1.00  0.00     0.214 A 
ATOM      3  C   UNL     1      12.641   2.882  -0.748  1.00  0.00     0.180 A 
ATOM      4  O   UNL     1      13.927   3.220  -0.743  1.00  0.00    -0.452 OA
ATOM      5  C   UNL     1      13.250   0.677  -1.548  1.00  0.00     0.239 A 
ATOM      6  C   UNL     1      14.899   2.391  -1.097  1.00  0.00     0.146 A 
ATOM      7  O   UNL     1      12.945  -0.487  -1.919  1.00  0.00    -0.285 OA
ATOM      8  C   UNL     1      14.605   1.072  -1.510  1.00  0.00     0.111 A 
ATOM      9  C   UNL     1      16.223   2.841  -1.056  1.00  0.00     0.094 A 
ATOM     10  C   UNL     1      15.672   0.213  -1.875  1.00  0.00     0.134 A 
ATOM     11  C   UNL     1      17.270   1.990  -1.420  1.00  0.00     0.123 A 
ATOM     12  C   UNL     1      16.993   0.683  -1.826  1.00  0.00     0.093 A 
BRANCH   3  13
ATOM     13  C   UNL     1      11.656   3.901  -0.323  1.00  0.00     0.025 A 
ATOM     14  C   UNL     1       9.788   5.825   0.532  1.00  0.00     0.157 A 
ATOM     15  C   UNL     1      10.799   5.390   1.395  1.00  0.00     0.051 A 
ATOM     16  C   UNL     1       9.696   5.284  -0.762  1.00  0.00     0.158 A 
ATOM     17  C   UNL     1      11.723   4.430   0.975  1.00  0.00     0.016 A 
ATOM     18  C   UNL     1      10.622   4.318  -1.179  1.00  0.00     0.062 A 
BRANCH  14  19
ATOM     19  O   UNL     1       8.884   6.790   0.976  1.00  0.00    -0.504 OA
ATOM     20  H   UNL     1       8.455   7.456   0.345  1.00  0.00     0.293 HD
ENDBRANCH  14  19
BRANCH  16  21
ATOM     21  O   UNL     1       8.686   5.704  -1.626  1.00  0.00    -0.504 OA
ATOM     22  H   UNL     1       7.945   6.323  -1.316  1.00  0.00     0.293 HD
ENDBRANCH  16  21
ENDBRANCH   3  13
BRANCH  10  23
ATOM     23  O   UNL     1      15.432  -1.099  -2.287  1.00  0.00    -0.507 OA
ATOM     24  H   UNL     1      15.275  -1.332  -3.260  1.00  0.00     0.293 HD
ENDBRANCH  10  23
BRANCH  11  25
ATOM     25  O   UNL     1      18.591   2.434  -1.381  1.00  0.00    -0.508 OA
ATOM     26  H   UNL     1      19.226   2.142  -0.648  1.00  0.00     0.293 HD
ENDBRANCH  11  25
ENDBRANCH   1   2
BRANCH   1  27
ATOM     27  C   UNL     1      10.150   0.290  -0.527  1.00  0.00     0.339 C 
ATOM     28  C   UNL     1       8.823   0.843   0.024  1.00  0.00     0.214 C 
ATOM     29  O   UNL     1      10.933  -0.277   0.514  1.00  0.00    -0.332 OA
ATOM     30  C   UNL     1       9.093   1.873   1.129  1.00  0.00     0.180 C 
ATOM     31  C   UNL     1      11.295   0.691   1.486  1.00  0.00     0.179 C 
ATOM     32  C   UNL     1      10.044   1.277   2.183  1.00  0.00     0.177 C 
BRANCH  28  33
ATOM     33  O   UNL     1       8.083   1.447  -1.005  1.00  0.00    -0.384 OA
ATOM     34  H   UNL     1       8.665   1.456  -1.809  1.00  0.00     0.211 HD
ENDBRANCH  28  33
BRANCH  30  35
ATOM     35  O   UNL     1       7.875   2.233   1.728  1.00  0.00    -0.387 OA
ATOM     36  H   UNL     1       7.219   1.523   1.502  1.00  0.00     0.211 HD
ENDBRANCH  30  35
BRANCH  31  37
ATOM     37  C   UNL     1      12.241   0.030   2.498  1.00  0.00     0.191 C 
BRANCH  37  38
ATOM     38  O   UNL     1      13.282   0.902   2.839  1.00  0.00    -0.394 OA
ATOM     39  H   UNL     1      14.079   0.589   2.338  1.00  0.00     0.210 HD
ENDBRANCH  37  38
ENDBRANCH  31  37
BRANCH  32  40
ATOM     40  O   UNL     1      10.437   2.281   3.084  1.00  0.00    -0.387 OA
ATOM     41  H   UNL     1      10.379   3.145   2.599  1.00  0.00     0.211 HD
ENDBRANCH  32  40
ENDBRANCH   1  27
TORSDOF 12
ENDMDL
MODEL 5
REMARK VINA RESULT:    -5.723      2.735      6.851
REMARK INTER + INTRA:         -10.157
REMARK INTER:                  -8.629
REMARK INTRA:                  -1.527
REMARK UNBOUND:                -1.757
REMARK SMILES O=c1c(O[C@H]2O[C@H](CO)[C@@H](O)[C@H](O)[C@H]2O)c(-c2ccc(O)c(O)c2)oc2cc(O)cc(O)c12
REMARK SMILES IDX 4 1 3 2 16 3 25 4 2 5 26 6 1 7 33 8 27 9 31 10 28 11 30 12
REMARK SMILES IDX 17 13 20 14 19 15 22 16 18 17 24 18 21 19 23 21 32 23 29 25
REMARK SMILES IDX 5 27 14 28 6 29 12 30 7 31 10 32 15 33 13 35 8 37 9 38 11 40
REMARK H PARENT 21 20 23 22 32 24 29 26 15 34 13 36 9 39 11 41
REMARK Flexibility Score: inf
ROOT
ATOM      1  O   UNL     1      12.079   1.055  -0.546  1.00  0.00    -0.454 OA
ENDROOT
BRANCH   1   2
ATOM      2  C   UNL     1      13.463   1.297  -0.657  1.00  0.00     0.214 A 
ATOM      3  C   UNL     1      14.013   2.350   0.104  1.00  0.00     0.180 A 
ATOM      4  O   UNL     1      15.300   2.662  -0.014  1.00  0.00    -0.452 OA
ATOM      5  C   UNL     1      14.325   0.568  -1.508  1.00  0.00     0.239 A 
ATOM      6  C   UNL     1      16.138   2.010  -0.808  1.00  0.00     0.146 A 
ATOM      7  O   UNL     1      13.882  -0.391  -2.196  1.00  0.00    -0.285 OA
ATOM      8  C   UNL     1      15.689   0.922  -1.590  1.00  0.00     0.111 A 
ATOM      9  C   UNL     1      17.476   2.415  -0.861  1.00  0.00     0.094 A 
ATOM     10  C   UNL     1      16.617   0.245  -2.421  1.00  0.00     0.134 A 
ATOM     11  C   UNL     1      18.385   1.745  -1.685  1.00  0.00     0.123 A 
ATOM     12  C   UNL     1      17.954   0.666  -2.459  1.00  0.00     0.093 A 
BRANCH   3  13
ATOM     13  C   UNL     1      13.188   3.155   1.031  1.00  0.00     0.025 A 
ATOM     14  C   UNL     1      11.620   4.651   2.827  1.00  0.00     0.157 A 
ATOM     15  C   UNL     1      12.535   3.707   3.306  1.00  0.00     0.051 A 
ATOM     16  C   UNL     1      11.472   4.838   1.443  1.00  0.00     0.158 A 
ATOM     17  C   UNL     1      13.309   2.959   2.415  1.00  0.00     0.016 A 
ATOM     18  C   UNL     1      12.247   4.083   0.552  1.00  0.00     0.062 A 
BRANCH  14  19
ATOM     19  O   UNL     1      10.866   5.388   3.740  1.00  0.00    -0.504 OA
ATOM     20  H   UNL     1      10.841   5.159   4.726  1.00  0.00     0.293 HD
ENDBRANCH  14  19
BRANCH  16  21
ATOM     21  O   UNL     1      10.555   5.769   0.956  1.00  0.00    -0.504 OA
ATOM     22  H   UNL     1      10.855   6.603   0.465  1.00  0.00     0.293 HD
ENDBRANCH  16  21
ENDBRANCH   3  13
BRANCH  10  23
ATOM     23  O   UNL     1      16.221  -0.837  -3.209  1.00  0.00    -0.507 OA
ATOM     24  H   UNL     1      16.208  -1.783  -2.847  1.00  0.00     0.293 HD
ENDBRANCH  10  23
BRANCH  11  25
ATOM     25  O   UNL     1      19.719   2.145  -1.742  1.00  0.00    -0.508 OA
ATOM     26  H   UNL     1      19.981   3.072  -2.057  1.00  0.00     0.293 HD
ENDBRANCH  11  25
ENDBRANCH   1   2
BRANCH   1  27
ATOM     27  C   UNL     1      11.430  -0.168  -0.183  1.00  0.00     0.339 C 
ATOM     28  C   UNL     1      10.131  -0.343  -0.992  1.00  0.00     0.214 C 
ATOM     29  O   UNL     1      11.169  -0.231   1.212  1.00  0.00    -0.332 OA
ATOM     30  C   UNL     1       9.100   0.716  -0.580  1.00  0.00     0.180 C 
ATOM     31  C   UNL     1      10.311   0.818   1.633  1.00  0.00     0.179 C 
ATOM     32  C   UNL     1       8.927   0.715   0.950  1.00  0.00     0.177 C 
BRANCH  28  33
ATOM     33  O   UNL     1      10.393  -0.227  -2.366  1.00  0.00    -0.384 OA
ATOM     34  H   UNL     1      11.118  -0.873  -2.575  1.00  0.00     0.211 HD
ENDBRANCH  28  33
BRANCH  30  35
ATOM     35  O   UNL     1       7.875   0.433  -1.204  1.00  0.00    -0.387 OA
ATOM     36  H   UNL     1       7.456   1.304  -1.432  1.00  0.00     0.211 HD
ENDBRANCH  30  35
BRANCH  31  37
ATOM     37  C   UNL     1      10.186   0.755   3.162  1.00  0.00     0.191 C 
BRANCH  37  38
ATOM     38  O   UNL     1       9.538   1.898   3.648  1.00  0.00    -0.394 OA
ATOM     39  H   UNL     1       9.677   2.604   2.965  1.00  0.00     0.210 HD
ENDBRANCH  37  38
ENDBRANCH  31  37
BRANCH  32  40
ATOM     40  O   UNL     1       8.131   1.807   1.336  1.00  0.00    -0.387 OA
ATOM     41  H   UNL     1       8.744   2.575   1.478  1.00  0.00     0.211 HD
ENDBRANCH  32  40
ENDBRANCH   1  27
TORSDOF 12
ENDMDL
MODEL 6
REMARK VINA RESULT:    -5.676      1.949      4.585
REMARK INTER + INTRA:         -10.087
REMARK INTER:                  -9.874
REMARK INTRA:                  -0.213
REMARK UNBOUND:                -1.757
REMARK SMILES O=c1c(O[C@H]2O[C@H](CO)[C@@H](O)[C@H](O)[C@H]2O)c(-c2ccc(O)c(O)c2)oc2cc(O)cc(O)c12
REMARK SMILES IDX 4 1 3 2 16 3 25 4 2 5 26 6 1 7 33 8 27 9 31 10 28 11 30 12
REMARK SMILES IDX 17 13 20 14 19 15 22 16 18 17 24 18 21 19 23 21 32 23 29 25
REMARK SMILES IDX 5 27 14 28 6 29 12 30 7 31 10 32 15 33 13 35 8 37 9 38 11 40
REMARK H PARENT 21 20 23 22 32 24 29 26 15 34 13 36 9 39 11 41
REMARK Flexibility Score: inf
ROOT
ATOM      1  O   UNL     1      13.187   0.987  -0.390  1.00  0.00    -0.454 OA
ENDROOT
BRANCH   1   2
ATOM      2  C   UNL     1      12.470   2.135   0.004  1.00  0.00     0.214 A 
ATOM      3  C   UNL     1      12.751   2.687   1.272  1.00  0.00     0.180 A 
ATOM      4  O   UNL     1      12.057   3.729   1.719  1.00  0.00    -0.452 OA
ATOM      5  C   UNL     1      11.465   2.745  -0.781  1.00  0.00     0.239 A 
ATOM      6  C   UNL     1      11.100   4.322   1.019  1.00  0.00     0.146 A 
ATOM      7  O   UNL     1      11.189   2.296  -1.926  1.00  0.00    -0.285 OA
ATOM      8  C   UNL     1      10.764   3.860  -0.275  1.00  0.00     0.111 A 
ATOM      9  C   UNL     1      10.428   5.414   1.577  1.00  0.00     0.094 A 
ATOM     10  C   UNL     1       9.740   4.525  -0.996  1.00  0.00     0.134 A 
ATOM     11  C   UNL     1       9.418   6.063   0.862  1.00  0.00     0.123 A 
ATOM     12  C   UNL     1       9.079   5.619  -0.418  1.00  0.00     0.093 A 
BRANCH   3  13
ATOM     13  C   UNL     1      13.797   2.122   2.153  1.00  0.00     0.025 A 
ATOM     14  C   UNL     1      15.819   1.067   3.801  1.00  0.00     0.157 A 
ATOM     15  C   UNL     1      16.046   2.234   3.065  1.00  0.00     0.051 A 
ATOM     16  C   UNL     1      14.581   0.409   3.701  1.00  0.00     0.158 A 
ATOM     17  C   UNL     1      15.045   2.756   2.241  1.00  0.00     0.016 A 
ATOM     18  C   UNL     1      13.581   0.933   2.870  1.00  0.00     0.062 A 
BRANCH  14  19
ATOM     19  O   UNL     1      16.834   0.573   4.621  1.00  0.00    -0.504 OA
ATOM     20  H   UNL     1      17.780   0.934   4.581  1.00  0.00     0.293 HD
ENDBRANCH  14  19
BRANCH  16  21
ATOM     21  O   UNL     1      14.350  -0.761   4.423  1.00  0.00    -0.504 OA
ATOM     22  H   UNL     1      14.770  -0.916   5.332  1.00  0.00     0.293 HD
ENDBRANCH  16  21
ENDBRANCH   3  13
BRANCH  10  23
ATOM     23  O   UNL     1       9.375   4.108  -2.277  1.00  0.00    -0.507 OA
ATOM     24  H   UNL     1       8.432   4.229  -2.628  1.00  0.00     0.293 HD
ENDBRANCH  10  23
BRANCH  11  25
ATOM     25  O   UNL     1       8.744   7.151   1.414  1.00  0.00    -0.508 OA
ATOM     26  H   UNL     1       7.793   7.069   1.753  1.00  0.00     0.293 HD
ENDBRANCH  11  25
ENDBRANCH   1   2
BRANCH   1  27
ATOM     27  C   UNL     1      13.765   0.713  -1.671  1.00  0.00     0.339 C 
ATOM     28  C   UNL     1      15.125   0.010  -1.503  1.00  0.00     0.214 C 
ATOM     29  O   UNL     1      13.899   1.894  -2.450  1.00  0.00    -0.332 OA
ATOM     30  C   UNL     1      16.146   0.968  -0.874  1.00  0.00     0.180 C 
ATOM     31  C   UNL     1      14.746   2.843  -1.823  1.00  0.00     0.179 C 
ATOM     32  C   UNL     1      16.183   2.290  -1.663  1.00  0.00     0.177 C 
BRANCH  28  33
ATOM     33  O   UNL     1      14.989  -1.125  -0.688  1.00  0.00    -0.384 OA
ATOM     34  H   UNL     1      14.704  -0.803   0.207  1.00  0.00     0.211 HD
ENDBRANCH  28  33
BRANCH  30  35
ATOM     35  O   UNL     1      17.412   0.363  -0.889  1.00  0.00    -0.387 OA
ATOM     36  H   UNL     1      17.985   0.901  -1.495  1.00  0.00     0.211 HD
ENDBRANCH  30  35
BRANCH  31  37
ATOM     37  C   UNL     1      14.734   4.130  -2.660  1.00  0.00     0.191 C 
BRANCH  37  38
ATOM     38  O   UNL     1      13.439   4.403  -3.118  1.00  0.00    -0.394 OA
ATOM     39  H   UNL     1      13.534   5.114  -3.804  1.00  0.00     0.210 HD
ENDBRANCH  37  38
ENDBRANCH  31  37
BRANCH  32  40
ATOM     40  O   UNL     1      16.972   3.227  -0.976  1.00  0.00    -0.387 OA
ATOM     41  H   UNL     1      16.439   4.061  -0.908  1.00  0.00     0.211 HD
ENDBRANCH  32  40
ENDBRANCH   1  27
TORSDOF 12
ENDMDL
MODEL 7
REMARK VINA RESULT:    -5.339      2.665      6.863
REMARK INTER + INTRA:          -9.592
REMARK INTER:                  -9.091
REMARK INTRA:                  -0.501
REMARK UNBOUND:                -1.757
REMARK SMILES O=c1c(O[C@H]2O[C@H](CO)[C@@H](O)[C@H](O)[C@H]2O)c(-c2ccc(O)c(O)c2)oc2cc(O)cc(O)c12
REMARK SMILES IDX 4 1 3 2 16 3 25 4 2 5 26 6 1 7 33 8 27 9 31 10 28 11 30 12
REMARK SMILES IDX 17 13 20 14 19 15 22 16 18 17 24 18 21 19 23 21 32 23 29 25
REMARK SMILES IDX 5 27 14 28 6 29 12 30 7 31 10 32 15 33 13 35 8 37 9 38 11 40
REMARK H PARENT 21 20 23 22 32 24 29 26 15 34 13 36 9 39 11 41
REMARK Flexibility Score: inf
ROOT
ATOM      1  O   UNL     1      13.725   2.983   0.163  1.00  0.00    -0.454 OA
ENDROOT
BRANCH   1   2
ATOM      2  C   UNL     1      14.044   2.148   1.254  1.00  0.00     0.214 A 
ATOM      3  C   UNL     1      13.309   0.954   1.408  1.00  0.00     0.180 A 
ATOM      4  O   UNL     1      13.523   0.164   2.455  1.00  0.00    -0.452 OA
ATOM      5  C   UNL     1      15.032   2.453   2.217  1.00  0.00     0.239 A 
ATOM      6  C   UNL     1      14.433   0.419   3.386  1.00  0.00     0.146 A 
ATOM      7  O   UNL     1      15.724   3.501   2.114  1.00  0.00    -0.285 OA
ATOM      8  C   UNL     1      15.239   1.577   3.305  1.00  0.00     0.111 A 
ATOM      9  C   UNL     1      14.584  -0.476   4.450  1.00  0.00     0.094 A 
ATOM     10  C   UNL     1      16.206   1.812   4.316  1.00  0.00     0.134 A 
ATOM     11  C   UNL     1      15.537  -0.237   5.444  1.00  0.00     0.123 A 
ATOM     12  C   UNL     1      16.343   0.901   5.374  1.00  0.00     0.093 A 
BRANCH   3  13
ATOM     13  C   UNL     1      12.266   0.550   0.438  1.00  0.00     0.025 A 
ATOM     14  C   UNL     1      10.316  -0.246  -1.428  1.00  0.00     0.157 A 
ATOM     15  C   UNL     1      11.388  -1.091  -1.124  1.00  0.00     0.051 A 
ATOM     16  C   UNL     1      10.224   1.013  -0.811  1.00  0.00     0.158 A 
ATOM     17  C   UNL     1      12.361  -0.694  -0.202  1.00  0.00     0.016 A 
ATOM     18  C   UNL     1      11.204   1.410   0.109  1.00  0.00     0.062 A 
BRANCH  14  19
ATOM     19  O   UNL     1       9.356  -0.671  -2.346  1.00  0.00    -0.504 OA
ATOM     20  H   UNL     1       8.439  -0.245  -2.401  1.00  0.00     0.293 HD
ENDBRANCH  14  19
BRANCH  16  21
ATOM     21  O   UNL     1       9.165   1.867  -1.116  1.00  0.00    -0.504 OA
ATOM     22  H   UNL     1       9.254   2.593  -1.818  1.00  0.00     0.293 HD
ENDBRANCH  16  21
ENDBRANCH   3  13
BRANCH  10  23
ATOM     23  O   UNL     1      17.028   2.939   4.278  1.00  0.00    -0.507 OA
ATOM     24  H   UNL     1      17.216   3.433   3.413  1.00  0.00     0.293 HD
ENDBRANCH  10  23
BRANCH  11  25
ATOM     25  O   UNL     1      15.691  -1.125   6.507  1.00  0.00    -0.508 OA
ATOM     26  H   UNL     1      16.572  -1.217   6.998  1.00  0.00     0.293 HD
ENDBRANCH  11  25
ENDBRANCH   1   2
BRANCH   1  27
ATOM     27  C   UNL     1      14.580   3.380  -0.915  1.00  0.00     0.339 C 
ATOM     28  C   UNL     1      13.854   3.210  -2.262  1.00  0.00     0.214 C 
ATOM     29  O   UNL     1      15.805   2.659  -0.906  1.00  0.00    -0.332 OA
ATOM     30  C   UNL     1      13.616   1.723  -2.554  1.00  0.00     0.180 C 
ATOM     31  C   UNL     1      15.594   1.264  -1.054  1.00  0.00     0.179 C 
ATOM     32  C   UNL     1      14.936   0.941  -2.416  1.00  0.00     0.177 C 
BRANCH  28  33
ATOM     33  O   UNL     1      12.622   3.883  -2.239  1.00  0.00    -0.384 OA
ATOM     34  H   UNL     1      12.296   3.852  -1.301  1.00  0.00     0.211 HD
ENDBRANCH  28  33
BRANCH  30  35
ATOM     35  O   UNL     1      13.110   1.587  -3.857  1.00  0.00    -0.387 OA
ATOM     36  H   UNL     1      12.197   1.978  -3.857  1.00  0.00     0.211 HD
ENDBRANCH  30  35
BRANCH  31  37
ATOM     37  C   UNL     1      16.946   0.553  -0.904  1.00  0.00     0.191 C 
BRANCH  37  38
ATOM     38  O   UNL     1      17.550   0.381  -2.156  1.00  0.00    -0.394 OA
ATOM     39  H   UNL     1      17.681  -0.596  -2.267  1.00  0.00     0.210 HD
ENDBRANCH  37  38
ENDBRANCH  31  37
BRANCH  32  40
ATOM     40  O   UNL     1      14.678  -0.437  -2.497  1.00  0.00    -0.387 OA
ATOM     41  H   UNL     1      13.755  -0.580  -2.159  1.00  0.00     0.211 HD
ENDBRANCH  32  40
ENDBRANCH   1  27
TORSDOF 12
ENDMDL
MODEL 8
REMARK VINA RESULT:    -4.937      2.102      5.143
REMARK INTER + INTRA:          -9.002
REMARK INTER:                  -8.543
REMARK INTRA:                  -0.460
REMARK UNBOUND:                -1.757
REMARK SMILES O=c1c(O[C@H]2O[C@H](CO)[C@@H](O)[C@H](O)[C@H]2O)c(-c2ccc(O)c(O)c2)oc2cc(O)cc(O)c12
REMARK SMILES IDX 4 1 3 2 16 3 25 4 2 5 26 6 1 7 33 8 27 9 31 10 28 11 30 12
REMARK SMILES IDX 17 13 20 14 19 15 22 16 18 17 24 18 21 19 23 21 32 23 29 25
REMARK SMILES IDX 5 27 14 28 6 29 12 30 7 31 10 32 15 33 13 35 8 37 9 38 11 40
REMARK H PARENT 21 20 23 22 32 24 29 26 15 34 13 36 9 39 11 41
REMARK Flexibility Score: inf
ROOT
ATOM      1  O   UNL     1      15.566   2.071   0.301  1.00  0.00    -0.454 OA
ENDROOT
BRANCH   1   2
ATOM      2  C   UNL     1      14.240   2.461   0.580  1.00  0.00     0.214 A 
ATOM      3  C   UNL     1      13.722   2.174   1.860  1.00  0.00     0.180 A 
ATOM      4  O   UNL     1      12.458   2.459   2.152  1.00  0.00    -0.452 OA
ATOM      5  C   UNL     1      13.390   3.091  -0.358  1.00  0.00     0.239 A 
ATOM      6  C   UNL     1      11.626   3.040   1.299  1.00  0.00     0.146 A 
ATOM      7  O   UNL     1      13.812   3.380  -1.509  1.00  0.00    -0.285 OA
ATOM      8  C   UNL     1      12.058   3.392  -0.000  1.00  0.00     0.111 A 
ATOM      9  C   UNL     1      10.313   3.301   1.702  1.00  0.00     0.094 A 
ATOM     10  C   UNL     1      11.142   4.018  -0.882  1.00  0.00     0.134 A 
ATOM     11  C   UNL     1       9.413   3.916   0.826  1.00  0.00     0.123 A 
ATOM     12  C   UNL     1       9.829   4.272  -0.458  1.00  0.00     0.093 A 
BRANCH   3  13
ATOM     13  C   UNL     1      14.546   1.529   2.907  1.00  0.00     0.025 A 
ATOM     14  C   UNL     1      16.076   0.277   4.911  1.00  0.00     0.157 A 
ATOM     15  C   UNL     1      15.022  -0.408   4.295  1.00  0.00     0.051 A 
ATOM     16  C   UNL     1      16.357   1.602   4.538  1.00  0.00     0.158 A 
ATOM     17  C   UNL     1      14.258   0.216   3.305  1.00  0.00     0.016 A 
ATOM     18  C   UNL     1      15.586   2.226   3.548  1.00  0.00     0.062 A 
BRANCH  14  19
ATOM     19  O   UNL     1      16.826  -0.373   5.890  1.00  0.00    -0.504 OA
ATOM     20  H   UNL     1      17.043   0.064   6.778  1.00  0.00     0.293 HD
ENDBRANCH  14  19
BRANCH  16  21
ATOM     21  O   UNL     1      17.398   2.296   5.154  1.00  0.00    -0.504 OA
ATOM     22  H   UNL     1      17.233   2.909   5.944  1.00  0.00     0.293 HD
ENDBRANCH  16  21
ENDBRANCH   3  13
BRANCH  10  23
ATOM     23  O   UNL     1      11.523   4.387  -2.173  1.00  0.00    -0.507 OA
ATOM     24  H   UNL     1      10.840   4.587  -2.894  1.00  0.00     0.293 HD
ENDBRANCH  10  23
BRANCH  11  25
ATOM     25  O   UNL     1       8.103   4.177   1.223  1.00  0.00    -0.508 OA
ATOM     26  H   UNL     1       7.876   4.966   1.818  1.00  0.00     0.293 HD
ENDBRANCH  11  25
ENDBRANCH   1   2
BRANCH   1  27
ATOM     27  C   UNL     1      16.104   0.744   0.285  1.00  0.00     0.339 C 
ATOM     28  C   UNL     1      17.179   0.618  -0.810  1.00  0.00     0.214 C 
ATOM     29  O   UNL     1      15.087  -0.232   0.109  1.00  0.00    -0.332 OA
ATOM     30  C   UNL     1      16.541   0.737  -2.200  1.00  0.00     0.180 C 
ATOM     31  C   UNL     1      14.402  -0.062  -1.121  1.00  0.00     0.179 C 
ATOM     32  C   UNL     1      15.361  -0.244  -2.323  1.00  0.00     0.177 C 
BRANCH  28  33
ATOM     33  O   UNL     1      18.150   1.621  -0.656  1.00  0.00    -0.384 OA
ATOM     34  H   UNL     1      17.675   2.434  -0.341  1.00  0.00     0.211 HD
ENDBRANCH  28  33
BRANCH  30  35
ATOM     35  O   UNL     1      17.509   0.451  -3.176  1.00  0.00    -0.387 OA
ATOM     36  H   UNL     1      17.058   0.508  -4.058  1.00  0.00     0.211 HD
ENDBRANCH  30  35
BRANCH  31  37
ATOM     37  C   UNL     1      13.244  -1.068  -1.174  1.00  0.00     0.191 C 
BRANCH  37  38
ATOM     38  O   UNL     1      12.122  -0.492  -1.783  1.00  0.00    -0.394 OA
ATOM     39  H   UNL     1      12.047   0.425  -1.410  1.00  0.00     0.210 HD
ENDBRANCH  37  38
ENDBRANCH  31  37
BRANCH  32  40
ATOM     40  O   UNL     1      14.666   0.002  -3.518  1.00  0.00    -0.387 OA
ATOM     41  H   UNL     1      15.336  -0.008  -4.251  1.00  0.00     0.211 HD
ENDBRANCH  32  40
ENDBRANCH   1  27
TORSDOF 12
ENDMDL
MODEL 9
REMARK VINA RESULT:    -4.928      2.544      6.530
REMARK INTER + INTRA:          -8.989
REMARK INTER:                  -8.193
REMARK INTRA:                  -0.797
REMARK UNBOUND:                -1.757
REMARK SMILES O=c1c(O[C@H]2O[C@H](CO)[C@@H](O)[C@H](O)[C@H]2O)c(-c2ccc(O)c(O)c2)oc2cc(O)cc(O)c12
REMARK SMILES IDX 4 1 3 2 16 3 25 4 2 5 26 6 1 7 33 8 27 9 31 10 28 11 30 12
REMARK SMILES IDX 17 13 20 14 19 15 22 16 18 17 24 18 21 19 23 21 32 23 29 25
REMARK SMILES IDX 5 27 14 28 6 29 12 30 7 31 10 32 15 33 13 35 8 37 9 38 11 40
REMARK H PARENT 21 20 23 22 32 24 29 26 15 34 13 36 9 39 11 41
REMARK Flexibility Score: inf
ROOT
ATOM      1  O   UNL     1      12.930   0.111   0.435  1.00  0.00    -0.454 OA
ENDROOT
BRANCH   1   2
ATOM      2  C   UNL     1      13.790   0.663   1.407  1.00  0.00     0.214 A 
ATOM      3  C   UNL     1      14.409   1.897   1.117  1.00  0.00     0.180 A 
ATOM      4  O   UNL     1      15.280   2.427   1.970  1.00  0.00    -0.452 OA
ATOM      5  C   UNL     1      14.093   0.037   2.638  1.00  0.00     0.239 A 
ATOM      6  C   UNL     1      15.599   1.868   3.129  1.00  0.00     0.146 A 
ATOM      7  O   UNL     1      13.554  -1.059   2.947  1.00  0.00    -0.285 OA
ATOM      8  C   UNL     1      15.010   0.644   3.522  1.00  0.00     0.111 A 
ATOM      9  C   UNL     1      16.526   2.506   3.959  1.00  0.00     0.094 A 
ATOM     10  C   UNL     1      15.371   0.080   4.772  1.00  0.00     0.134 A 
ATOM     11  C   UNL     1      16.879   1.943   5.188  1.00  0.00     0.123 A 
ATOM     12  C   UNL     1      16.302   0.737   5.590  1.00  0.00     0.093 A 
BRANCH   3  13
ATOM     13  C   UNL     1      14.139   2.628  -0.141  1.00  0.00     0.025 A 
ATOM     14  C   UNL     1      13.670   4.034  -2.533  1.00  0.00     0.157 A 
ATOM     15  C   UNL     1      14.951   3.561  -2.232  1.00  0.00     0.051 A 
ATOM     16  C   UNL     1      12.617   3.821  -1.626  1.00  0.00     0.158 A 
ATOM     17  C   UNL     1      15.187   2.868  -1.041  1.00  0.00     0.016 A 
ATOM     18  C   UNL     1      12.858   3.130  -0.431  1.00  0.00     0.062 A 
BRANCH  14  19
ATOM     19  O   UNL     1      13.462   4.715  -3.732  1.00  0.00    -0.504 OA
ATOM     20  H   UNL     1      12.669   4.520  -4.331  1.00  0.00     0.293 HD
ENDBRANCH  14  19
BRANCH  16  21
ATOM     21  O   UNL     1      11.339   4.299  -1.913  1.00  0.00    -0.504 OA
ATOM     22  H   UNL     1      11.169   5.280  -2.104  1.00  0.00     0.293 HD
ENDBRANCH  16  21
ENDBRANCH   3  13
BRANCH  10  23
ATOM     23  O   UNL     1      14.815  -1.125   5.205  1.00  0.00    -0.507 OA
ATOM     24  H   UNL     1      13.813  -1.249   5.292  1.00  0.00     0.293 HD
ENDBRANCH  10  23
BRANCH  11  25
ATOM     25  O   UNL     1      17.803   2.575   6.019  1.00  0.00    -0.508 OA
ATOM     26  H   UNL     1      18.395   3.324   5.679  1.00  0.00     0.293 HD
ENDBRANCH  11  25
ENDBRANCH   1   2
BRANCH   1  27
ATOM     27  C   UNL     1      11.711  -0.607   0.652  1.00  0.00     0.339 C 
ATOM     28  C   UNL     1      10.870  -0.631  -0.638  1.00  0.00     0.214 C 
ATOM     29  O   UNL     1      10.966  -0.063   1.732  1.00  0.00    -0.332 OA
ATOM     30  C   UNL     1      10.370   0.780  -0.974  1.00  0.00     0.180 C 
ATOM     31  C   UNL     1      10.599   1.285   1.490  1.00  0.00     0.179 C 
ATOM     32  C   UNL     1       9.675   1.398   0.254  1.00  0.00     0.177 C 
BRANCH  28  33
ATOM     33  O   UNL     1      11.633  -1.121  -1.709  1.00  0.00    -0.384 OA
ATOM     34  H   UNL     1      11.134  -0.903  -2.540  1.00  0.00     0.211 HD
ENDBRANCH  28  33
BRANCH  30  35
ATOM     35  O   UNL     1       9.471   0.705  -2.050  1.00  0.00    -0.387 OA
ATOM     36  H   UNL     1       9.052  -0.194  -2.017  1.00  0.00     0.211 HD
ENDBRANCH  30  35
BRANCH  31  37
ATOM     37  C   UNL     1       9.915   1.834   2.750  1.00  0.00     0.191 C 
BRANCH  37  38
ATOM     38  O   UNL     1      10.395   3.115   3.049  1.00  0.00    -0.394 OA
ATOM     39  H   UNL     1       9.736   3.752   2.669  1.00  0.00     0.210 HD
ENDBRANCH  37  38
ENDBRANCH  31  37
BRANCH  32  40
ATOM     40  O   UNL     1       9.391   2.751   0.002  1.00  0.00    -0.387 OA
ATOM     41  H   UNL     1       9.882   3.282   0.683  1.00  0.00     0.211 HD
ENDBRANCH  32  40
ENDBRANCH   1  27
TORSDOF 12
ENDMDL
