MODEL 1
REMARK VINA RESULT:    -3.612      0.000      0.000
REMARK INTER + INTRA:          -3.948
REMARK INTER:                  -4.457
REMARK INTRA:                   0.509
REMARK UNBOUND:                 0.509
REMARK SMILES C=C1[C@@H]2CC[C@H]3[C@H]2C(C)(C)CCC[C@@]13C
REMARK SMILES IDX 14 1 6 2 7 3 3 4 2 5 1 6 4 7 5 8 15 9 8 10 9 11 10 12 11 13
REMARK SMILES IDX 13 15 12 16
REMARK H PARENT
REMARK Flexibility Score: 80.00
ROOT
ATOM      1  C   UNL     1      13.907   5.939  17.350  1.00  0.00    -0.008 C 
ATOM      2  C   UNL     1      12.883   6.969  16.893  1.00  0.00     0.003 C 
ATOM      3  C   UNL     1      12.081   7.107  18.201  1.00  0.00     0.006 C 
ATOM      4  C   UNL     1      11.570   5.677  18.169  1.00  0.00     0.019 C 
ATOM      5  C   UNL     1      12.948   4.982  18.075  1.00  0.00    -0.068 C 
ATOM      6  C   UNL     1      13.257   3.793  18.601  1.00  0.00     0.009 C 
ATOM      7  C   UNL     1      10.908   5.568  16.801  1.00  0.00     0.008 C 
ATOM      8  C   UNL     1      11.810   6.430  15.916  1.00  0.00     0.005 C 
ATOM      9  C   UNL     1      14.617   5.227  16.179  1.00  0.00     0.016 C 
ENDROOT
BRANCH   3  10
ATOM     10  C   UNL     1      12.035   8.582  18.655  1.00  0.00    -0.032 C 
ATOM     11  C   UNL     1      11.298   9.460  17.620  1.00  0.00     0.011 C 
ATOM     12  C   UNL     1      11.291   8.743  20.010  1.00  0.00     0.011 C 
BRANCH  10  13
ATOM     13  C   UNL     1      13.561   9.036  18.799  1.00  0.00     0.007 CG0
ATOM     14  G   UNL     1      14.606   7.911  19.212  1.00  0.00     0.000 G0
ENDBRANCH  10  13
ENDBRANCH   3  10
BRANCH   1  15
ATOM     15  C   UNL     1      14.982   6.720  18.236  1.00  0.00     0.011 C 
BRANCH  15  16
ATOM     16  C   UNL     1      14.609   7.920  19.222  1.00  0.00     0.001 CG0
ATOM     17  G   UNL     1      13.567   9.042  18.793  1.00  0.00     0.000 G0
ENDBRANCH  15  16
ENDBRANCH   1  15
TORSDOF 0
ENDMDL
MODEL 2
REMARK VINA RESULT:    -3.601      1.736      3.328
REMARK INTER + INTRA:          -3.934
REMARK INTER:                  -4.446
REMARK INTRA:                   0.513
REMARK UNBOUND:                 0.509
REMARK SMILES C=C1[C@@H]2CC[C@H]3[C@H]2C(C)(C)CCC[C@@]13C
REMARK SMILES IDX 14 1 6 2 7 3 3 4 2 5 1 6 4 7 5 8 15 9 8 10 9 11 10 12 11 13
REMARK SMILES IDX 13 15 12 16
REMARK H PARENT
REMARK Flexibility Score: 80.00
ROOT
ATOM      1  C   UNL     1      13.844   4.787  18.088  1.00  0.00    -0.008 C 
ATOM      2  C   UNL     1      13.892   6.263  18.462  1.00  0.00     0.003 C 
ATOM      3  C   UNL     1      13.353   6.860  17.148  1.00  0.00     0.006 C 
ATOM      4  C   UNL     1      14.539   6.397  16.320  1.00  0.00     0.019 C 
ATOM      5  C   UNL     1      14.452   4.895  16.681  1.00  0.00    -0.068 C 
ATOM      6  C   UNL     1      14.780   3.882  15.876  1.00  0.00     0.009 C 
ATOM      7  C   UNL     1      15.736   6.977  17.062  1.00  0.00     0.008 C 
ATOM      8  C   UNL     1      15.314   6.869  18.529  1.00  0.00     0.005 C 
ATOM      9  C   UNL     1      14.718   3.900  19.001  1.00  0.00     0.016 C 
ENDROOT
BRANCH   3  10
ATOM     10  C   UNL     1      12.122   7.751  17.423  1.00  0.00    -0.032 C 
ATOM     11  C   UNL     1      12.502   8.970  18.293  1.00  0.00     0.011 C 
ATOM     12  C   UNL     1      11.503   8.297  16.108  1.00  0.00     0.011 C 
BRANCH  10  13
ATOM     13  C   UNL     1      11.075   6.815  18.187  1.00  0.00     0.007 CG0
ATOM     14  G   UNL     1      11.074   5.274  17.795  1.00  0.00     0.000 G0
ENDBRANCH  10  13
ENDBRANCH   3  10
BRANCH   1  15
ATOM     15  C   UNL     1      12.317   4.332  18.201  1.00  0.00     0.011 C 
BRANCH  15  16
ATOM     16  C   UNL     1      11.085   5.272  17.809  1.00  0.00     0.001 CG0
ATOM     17  G   UNL     1      11.082   6.818  18.178  1.00  0.00     0.000 G0
ENDBRANCH  15  16
ENDBRANCH   1  15
TORSDOF 0
ENDMDL
MODEL 3
REMARK VINA RESULT:    -3.572      1.183      3.841
REMARK INTER + INTRA:          -3.898
REMARK INTER:                  -4.402
REMARK INTRA:                   0.503
REMARK UNBOUND:                 0.509
REMARK SMILES C=C1[C@@H]2CC[C@H]3[C@H]2C(C)(C)CCC[C@@]13C
REMARK SMILES IDX 14 1 6 2 7 3 3 4 2 5 1 6 4 7 5 8 15 9 8 10 9 11 10 12 11 13
REMARK SMILES IDX 13 15 12 16
REMARK H PARENT
REMARK Flexibility Score: 80.00
ROOT
ATOM      1  C   UNL     1      12.735   7.688  18.324  1.00  0.00    -0.008 C 
ATOM      2  C   UNL     1      12.524   6.180  18.325  1.00  0.00     0.003 C 
ATOM      3  C   UNL     1      13.234   5.838  17.002  1.00  0.00     0.006 C 
ATOM      4  C   UNL     1      12.239   6.596  16.142  1.00  0.00     0.019 C 
ATOM      5  C   UNL     1      12.367   7.961  16.857  1.00  0.00    -0.068 C 
ATOM      6  C   UNL     1      12.249   9.158  16.275  1.00  0.00     0.009 C 
ATOM      7  C   UNL     1      10.898   5.995  16.539  1.00  0.00     0.008 C 
ATOM      8  C   UNL     1      11.073   5.727  18.035  1.00  0.00     0.005 C 
ATOM      9  C   UNL     1      11.782   8.436  19.281  1.00  0.00     0.016 C 
ENDROOT
BRANCH   3  10
ATOM     10  C   UNL     1      14.338   4.782  17.238  1.00  0.00    -0.032 C 
ATOM     11  C   UNL     1      13.738   3.458  17.759  1.00  0.00     0.011 C 
ATOM     12  C   UNL     1      15.109   4.457  15.929  1.00  0.00     0.011 C 
BRANCH  10  13
ATOM     13  C   UNL     1      15.322   5.424  18.321  1.00  0.00     0.007 CG0
ATOM     14  G   UNL     1      15.475   7.007  18.302  1.00  0.00     0.000 G0
ENDBRANCH  10  13
ENDBRANCH   3  10
BRANCH   1  15
ATOM     15  C   UNL     1      14.249   7.943  18.766  1.00  0.00     0.011 C 
BRANCH  15  16
ATOM     16  C   UNL     1      15.467   7.010  18.319  1.00  0.00     0.001 CG0
ATOM     17  G   UNL     1      15.329   5.427  18.312  1.00  0.00     0.000 G0
ENDBRANCH  15  16
ENDBRANCH   1  15
TORSDOF 0
ENDMDL
MODEL 4
REMARK VINA RESULT:    -3.470      1.684      2.910
REMARK INTER + INTRA:          -3.772
REMARK INTER:                  -4.271
REMARK INTRA:                   0.499
REMARK UNBOUND:                 0.509
REMARK SMILES C=C1[C@@H]2CC[C@H]3[C@H]2C(C)(C)CCC[C@@]13C
REMARK SMILES IDX 14 1 6 2 7 3 3 4 2 5 1 6 4 7 5 8 15 9 8 10 9 11 10 12 11 13
REMARK SMILES IDX 13 15 12 16
REMARK H PARENT
REMARK Flexibility Score: 80.00
ROOT
ATOM      1  C   UNL     1      15.282   5.329  18.787  1.00  0.00    -0.008 C 
ATOM      2  C   UNL     1      14.752   6.031  17.544  1.00  0.00     0.003 C 
ATOM      3  C   UNL     1      13.423   5.268  17.386  1.00  0.00     0.006 C 
ATOM      4  C   UNL     1      14.093   3.936  17.100  1.00  0.00     0.019 C 
ATOM      5  C   UNL     1      14.969   3.883  18.374  1.00  0.00    -0.068 C 
ATOM      6  C   UNL     1      15.321   2.774  19.030  1.00  0.00     0.009 C 
ATOM      7  C   UNL     1      15.012   4.247  15.926  1.00  0.00     0.008 C 
ATOM      8  C   UNL     1      15.486   5.669  16.231  1.00  0.00     0.005 C 
ATOM      9  C   UNL     1      16.799   5.528  18.996  1.00  0.00     0.016 C 
ENDROOT
BRANCH   3  10
ATOM     10  C   UNL     1      12.233   6.252  17.357  1.00  0.00    -0.032 C 
ATOM     11  C   UNL     1      12.348   7.228  16.165  1.00  0.00     0.011 C 
ATOM     12  C   UNL     1      10.876   5.509  17.217  1.00  0.00     0.011 C 
BRANCH  10  13
ATOM     13  C   UNL     1      12.296   7.044  18.745  1.00  0.00     0.007 CG0
ATOM     14  G   UNL     1      12.930   6.272  19.982  1.00  0.00     0.000 G0
ENDBRANCH  10  13
ENDBRANCH   3  10
BRANCH   1  15
ATOM     15  C   UNL     1      14.485   5.932  20.033  1.00  0.00     0.011 C 
BRANCH  15  16
ATOM     16  C   UNL     1      12.929   6.294  19.993  1.00  0.00     0.001 CG0
ATOM     17  G   UNL     1      12.290   7.033  18.739  1.00  0.00     0.000 G0
ENDBRANCH  15  16
ENDBRANCH   1  15
TORSDOF 0
ENDMDL
MODEL 5
REMARK VINA RESULT:    -3.415      2.121      3.109
REMARK INTER + INTRA:          -3.705
REMARK INTER:                  -4.203
REMARK INTRA:                   0.499
REMARK UNBOUND:                 0.509
REMARK SMILES C=C1[C@@H]2CC[C@H]3[C@H]2C(C)(C)CCC[C@@]13C
REMARK SMILES IDX 14 1 6 2 7 3 3 4 2 5 1 6 4 7 5 8 15 9 8 10 9 11 10 12 11 13
REMARK SMILES IDX 13 15 12 16
REMARK H PARENT
REMARK Flexibility Score: 80.00
ROOT
ATOM      1  C   UNL     1      14.141   6.031  17.749  1.00  0.00    -0.008 C 
ATOM      2  C   UNL     1      13.009   6.265  18.741  1.00  0.00     0.003 C 
ATOM      3  C   UNL     1      12.984   4.877  19.408  1.00  0.00     0.006 C 
ATOM      4  C   UNL     1      12.554   4.153  18.145  1.00  0.00     0.019 C 
ATOM      5  C   UNL     1      13.703   4.650  17.237  1.00  0.00    -0.068 C 
ATOM      6  C   UNL     1      14.257   3.959  16.237  1.00  0.00     0.009 C 
ATOM      7  C   UNL     1      11.289   4.892  17.727  1.00  0.00     0.008 C 
ATOM      8  C   UNL     1      11.598   6.341  18.109  1.00  0.00     0.005 C 
ATOM      9  C   UNL     1      14.167   7.063  16.601  1.00  0.00     0.016 C 
ENDROOT
BRANCH   3  10
ATOM     10  C   UNL     1      13.151   5.010  20.938  1.00  0.00    -0.032 C 
ATOM     11  C   UNL     1      12.003   5.840  21.553  1.00  0.00     0.011 C 
ATOM     12  C   UNL     1      13.145   3.623  21.638  1.00  0.00     0.011 C 
BRANCH  10  13
ATOM     13  C   UNL     1      14.557   5.739  21.156  1.00  0.00     0.007 CG0
ATOM     14  G   UNL     1      15.669   5.496  20.046  1.00  0.00     0.000 G0
ENDBRANCH  10  13
ENDBRANCH   3  10
BRANCH   1  15
ATOM     15  C   UNL     1      15.504   6.114  18.578  1.00  0.00     0.011 C 
BRANCH  15  16
ATOM     16  C   UNL     1      15.681   5.518  20.049  1.00  0.00     0.001 CG0
ATOM     17  G   UNL     1      14.565   5.733  21.161  1.00  0.00     0.000 G0
ENDBRANCH  15  16
ENDBRANCH   1  15
TORSDOF 0
ENDMDL
MODEL 6
REMARK VINA RESULT:    -3.401      1.891      4.198
REMARK INTER + INTRA:          -3.687
REMARK INTER:                  -4.216
REMARK INTRA:                   0.528
REMARK UNBOUND:                 0.509
REMARK SMILES C=C1[C@@H]2CC[C@H]3[C@H]2C(C)(C)CCC[C@@]13C
REMARK SMILES IDX 14 1 6 2 7 3 3 4 2 5 1 6 4 7 5 8 15 9 8 10 9 11 10 12 11 13
REMARK SMILES IDX 13 15 12 16
REMARK H PARENT
REMARK Flexibility Score: 80.00
ROOT
ATOM      1  C   UNL     1      11.870   6.864  17.129  1.00  0.00    -0.008 C 
ATOM      2  C   UNL     1      13.284   6.738  16.579  1.00  0.00     0.003 C 
ATOM      3  C   UNL     1      14.045   6.581  17.908  1.00  0.00     0.006 C 
ATOM      4  C   UNL     1      13.699   7.975  18.401  1.00  0.00     0.019 C 
ATOM      5  C   UNL     1      12.163   7.850  18.270  1.00  0.00    -0.068 C 
ATOM      6  C   UNL     1      11.265   8.442  19.062  1.00  0.00     0.009 C 
ATOM      7  C   UNL     1      14.182   8.878  17.273  1.00  0.00     0.008 C 
ATOM      8  C   UNL     1      13.883   8.052  16.021  1.00  0.00     0.005 C 
ATOM      9  C   UNL     1      10.875   7.471  16.116  1.00  0.00     0.016 C 
ENDROOT
BRANCH   3  10
ATOM     10  C   UNL     1      14.888   5.287  17.900  1.00  0.00    -0.032 C 
ATOM     11  C   UNL     1      16.010   5.361  16.840  1.00  0.00     0.011 C 
ATOM     12  C   UNL     1      15.567   5.034  19.274  1.00  0.00     0.011 C 
BRANCH  10  13
ATOM     13  C   UNL     1      13.863   4.108  17.558  1.00  0.00     0.007 CG0
ATOM     14  G   UNL     1      12.380   4.267  18.110  1.00  0.00     0.000 G0
ENDBRANCH  10  13
ENDBRANCH   3  10
BRANCH   1  15
ATOM     15  C   UNL     1      11.398   5.391  17.528  1.00  0.00     0.011 C 
BRANCH  15  16
ATOM     16  C   UNL     1      12.385   4.274  18.103  1.00  0.00     0.001 CG0
ATOM     17  G   UNL     1      13.867   4.123  17.548  1.00  0.00     0.000 G0
ENDBRANCH  15  16
ENDBRANCH   1  15
TORSDOF 0
ENDMDL
MODEL 7
REMARK VINA RESULT:    -3.345      1.920      4.131
REMARK INTER + INTRA:          -3.618
REMARK INTER:                  -4.118
REMARK INTRA:                   0.500
REMARK UNBOUND:                 0.509
REMARK SMILES C=C1[C@@H]2CC[C@H]3[C@H]2C(C)(C)CCC[C@@]13C
REMARK SMILES IDX 14 1 6 2 7 3 3 4 2 5 1 6 4 7 5 8 15 9 8 10 9 11 10 12 11 13
REMARK SMILES IDX 13 15 12 16
REMARK H PARENT
REMARK Flexibility Score: 80.00
ROOT
ATOM      1  C   UNL     1      12.260   6.057  17.442  1.00  0.00    -0.008 C 
ATOM      2  C   UNL     1      13.200   4.860  17.396  1.00  0.00     0.003 C 
ATOM      3  C   UNL     1      14.375   5.446  18.200  1.00  0.00     0.006 C 
ATOM      4  C   UNL     1      14.693   6.516  17.170  1.00  0.00     0.019 C 
ATOM      5  C   UNL     1      13.285   7.155  17.115  1.00  0.00    -0.068 C 
ATOM      6  C   UNL     1      13.026   8.446  16.896  1.00  0.00     0.009 C 
ATOM      7  C   UNL     1      14.885   5.722  15.884  1.00  0.00     0.008 C 
ATOM      8  C   UNL     1      13.854   4.600  16.017  1.00  0.00     0.005 C 
ATOM      9  C   UNL     1      11.151   6.001  16.369  1.00  0.00     0.016 C 
ENDROOT
BRANCH   3  10
ATOM     10  C   UNL     1      14.719   4.535  19.399  1.00  0.00    -0.032 C 
ATOM     11  C   UNL     1      15.171   3.137  18.923  1.00  0.00     0.011 C 
ATOM     12  C   UNL     1      15.870   5.125  20.258  1.00  0.00     0.011 C 
BRANCH  10  13
ATOM     13  C   UNL     1      13.376   4.433  20.260  1.00  0.00     0.007 CG0
ATOM     14  G   UNL     1      12.405   5.691  20.225  1.00  0.00     0.000 G0
ENDBRANCH  10  13
ENDBRANCH   3  10
BRANCH   1  15
ATOM     15  C   UNL     1      11.601   6.071  18.896  1.00  0.00     0.011 C 
BRANCH  15  16
ATOM     16  C   UNL     1      12.393   5.681  20.228  1.00  0.00     0.001 CG0
ATOM     17  G   UNL     1      13.370   4.427  20.265  1.00  0.00     0.000 G0
ENDBRANCH  15  16
ENDBRANCH   1  15
TORSDOF 0
ENDMDL
MODEL 8
REMARK VINA RESULT:    -3.324      1.578      2.171
REMARK INTER + INTRA:          -3.592
REMARK INTER:                  -4.116
REMARK INTRA:                   0.524
REMARK UNBOUND:                 0.509
REMARK SMILES C=C1[C@@H]2CC[C@H]3[C@H]2C(C)(C)CCC[C@@]13C
REMARK SMILES IDX 14 1 6 2 7 3 3 4 2 5 1 6 4 7 5 8 15 9 8 10 9 11 10 12 11 13
REMARK SMILES IDX 13 15 12 16
REMARK H PARENT
REMARK Flexibility Score: 80.00
ROOT
ATOM      1  C   UNL     1      14.339   5.438  16.766  1.00  0.00    -0.008 C 
ATOM      2  C   UNL     1      12.888   5.749  17.109  1.00  0.00     0.003 C 
ATOM      3  C   UNL     1      13.121   6.716  18.285  1.00  0.00     0.006 C 
ATOM      4  C   UNL     1      13.750   5.660  19.176  1.00  0.00     0.019 C 
ATOM      5  C   UNL     1      14.860   5.216  18.195  1.00  0.00    -0.068 C 
ATOM      6  C   UNL     1      16.078   4.789  18.540  1.00  0.00     0.009 C 
ATOM      7  C   UNL     1      12.702   4.556  19.210  1.00  0.00     0.008 C 
ATOM      8  C   UNL     1      12.121   4.592  17.795  1.00  0.00     0.005 C 
ATOM      9  C   UNL     1      14.502   4.162  15.914  1.00  0.00     0.016 C 
ENDROOT
BRANCH   3  10
ATOM     10  C   UNL     1      12.411   8.064  18.026  1.00  0.00    -0.032 C 
ATOM     11  C   UNL     1      10.878   7.883  17.971  1.00  0.00     0.011 C 
ATOM     12  C   UNL     1      12.715   9.097  19.145  1.00  0.00     0.011 C 
BRANCH  10  13
ATOM     13  C   UNL     1      12.971   8.581  16.621  1.00  0.00     0.007 CG0
ATOM     14  G   UNL     1      14.478   8.213  16.270  1.00  0.00     0.000 G0
ENDBRANCH  10  13
ENDBRANCH   3  10
BRANCH   1  15
ATOM     15  C   UNL     1      14.902   6.698  15.961  1.00  0.00     0.011 C 
BRANCH  15  16
ATOM     16  C   UNL     1      14.482   8.207  16.277  1.00  0.00     0.001 CG0
ATOM     17  G   UNL     1      12.974   8.587  16.609  1.00  0.00     0.000 G0
ENDBRANCH  15  16
ENDBRANCH   1  15
TORSDOF 0
ENDMDL
MODEL 9
REMARK VINA RESULT:    -3.303      1.815      3.907
REMARK INTER + INTRA:          -3.566
REMARK INTER:                  -4.078
REMARK INTRA:                   0.512
REMARK UNBOUND:                 0.509
REMARK SMILES C=C1[C@@H]2CC[C@H]3[C@H]2C(C)(C)CCC[C@@]13C
REMARK SMILES IDX 14 1 6 2 7 3 3 4 2 5 1 6 4 7 5 8 15 9 8 10 9 11 10 12 11 13
REMARK SMILES IDX 13 15 12 16
REMARK H PARENT
REMARK Flexibility Score: 80.00
ROOT
ATOM      1  C   UNL     1      13.214   7.491  17.347  1.00  0.00    -0.008 C 
ATOM      2  C   UNL     1      13.524   6.801  18.668  1.00  0.00     0.003 C 
ATOM      3  C   UNL     1      13.385   5.336  18.212  1.00  0.00     0.006 C 
ATOM      4  C   UNL     1      11.900   5.453  17.913  1.00  0.00     0.019 C 
ATOM      5  C   UNL     1      11.993   6.652  16.940  1.00  0.00    -0.068 C 
ATOM      6  C   UNL     1      11.193   6.865  15.892  1.00  0.00     0.009 C 
ATOM      7  C   UNL     1      11.316   5.970  19.221  1.00  0.00     0.008 C 
ATOM      8  C   UNL     1      12.409   6.910  19.735  1.00  0.00     0.005 C 
ATOM      9  C   UNL     1      12.832   8.978  17.512  1.00  0.00     0.016 C 
ENDROOT
BRANCH   3  10
ATOM     10  C   UNL     1      14.675   4.547  18.524  1.00  0.00    -0.032 C 
ATOM     11  C   UNL     1      14.931   4.481  20.046  1.00  0.00     0.011 C 
ATOM     12  C   UNL     1      14.593   3.084  18.006  1.00  0.00     0.011 C 
BRANCH  10  13
ATOM     13  C   UNL     1      15.852   5.336  17.785  1.00  0.00     0.007 CG0
ATOM     14  G   UNL     1      15.474   6.086  16.436  1.00  0.00     0.000 G0
ENDBRANCH  10  13
ENDBRANCH   3  10
BRANCH   1  15
ATOM     15  C   UNL     1      14.527   7.372  16.444  1.00  0.00     0.011 C 
BRANCH  15  16
ATOM     16  C   UNL     1      15.478   6.088  16.436  1.00  0.00     0.001 CG0
ATOM     17  G   UNL     1      15.843   5.328  17.784  1.00  0.00     0.000 G0
ENDBRANCH  15  16
ENDBRANCH   1  15
TORSDOF 0
ENDMDL
