MODEL 1
REMARK VINA RESULT:    -2.919      0.000      0.000
REMARK INTER + INTRA:          -7.538
REMARK INTER:                  -5.393
REMARK INTRA:                  -2.145
REMARK UNBOUND:                -2.145
REMARK SMILES CCCCCCCCCCCCCCCCO
REMARK SMILES IDX 9 1 8 2 7 3 6 4 5 5 4 6 3 7 2 8 1 9 10 10 11 11 12 12 13 13
REMARK SMILES IDX 14 14 15 15 16 16 17 17
REMARK H PARENT 17 18
REMARK Flexibility Score: inf
ROOT
ATOM      1  C   UNL     1     140.243 146.269 138.404  1.00  0.00     0.000 C 
ENDROOT
BRANCH   1   2
ATOM      2  C   UNL     1     140.031 144.740 138.431  1.00  0.00    -0.000 C 
BRANCH   2   3
ATOM      3  C   UNL     1     138.645 144.299 137.922  1.00  0.00    -0.000 C 
BRANCH   3   4
ATOM      4  C   UNL     1     137.658 143.875 139.025  1.00  0.00    -0.000 C 
BRANCH   4   5
ATOM      5  C   UNL     1     136.480 144.844 139.247  1.00  0.00    -0.000 C 
BRANCH   5   6
ATOM      6  C   UNL     1     136.446 145.467 140.659  1.00  0.00    -0.000 C 
BRANCH   6   7
ATOM      7  C   UNL     1     137.697 146.314 140.953  1.00  0.00    -0.000 C 
BRANCH   7   8
ATOM      8  C   UNL     1     137.718 146.854 142.390  1.00  0.00    -0.003 C 
ATOM      9  C   UNL     1     137.433 148.354 142.461  1.00  0.00     0.004 C 
ENDBRANCH   7   8
ENDBRANCH   6   7
ENDBRANCH   5   6
ENDBRANCH   4   5
ENDBRANCH   3   4
ENDBRANCH   2   3
ENDBRANCH   1   2
BRANCH   1  10
ATOM     10  C   UNL     1     139.463 146.944 137.263  1.00  0.00     0.000 C 
BRANCH  10  11
ATOM     11  C   UNL     1     139.296 148.460 137.467  1.00  0.00     0.000 C 
BRANCH  11  12
ATOM     12  C   UNL     1     138.072 148.877 138.309  1.00  0.00     0.000 C 
BRANCH  12  13
ATOM     13  C   UNL     1     136.776 148.105 138.002  1.00  0.00     0.000 C 
BRANCH  13  14
ATOM     14  C   UNL     1     135.475 148.888 138.268  1.00  0.00     0.002 C 
BRANCH  14  15
ATOM     15  C   UNL     1     134.952 148.752 139.713  1.00  0.00     0.028 C 
BRANCH  15  16
ATOM     16  C   UNL     1     133.481 148.333 139.772  1.00  0.00     0.156 C 
BRANCH  16  17
ATOM     17  O   UNL     1     133.350 147.026 139.290  1.00  0.00    -0.396 OA
ATOM     18  H   UNL     1     133.867 146.991 138.443  1.00  0.00     0.210 HD
ENDBRANCH  16  17
ENDBRANCH  15  16
ENDBRANCH  14  15
ENDBRANCH  13  14
ENDBRANCH  12  13
ENDBRANCH  11  12
ENDBRANCH  10  11
ENDBRANCH   1  10
TORSDOF 15
ENDMDL
MODEL 2
REMARK VINA RESULT:    -2.909      7.892     10.675
REMARK INTER + INTRA:          -7.520
REMARK INTER:                  -5.195
REMARK INTRA:                  -2.324
REMARK UNBOUND:                -2.145
REMARK SMILES CCCCCCCCCCCCCCCCO
REMARK SMILES IDX 9 1 8 2 7 3 6 4 5 5 4 6 3 7 2 8 1 9 10 10 11 11 12 12 13 13
REMARK SMILES IDX 14 14 15 15 16 16 17 17
REMARK H PARENT 17 18
REMARK Flexibility Score: inf
ROOT
ATOM      1  C   UNL     1     146.175 140.987 138.350  1.00  0.00     0.000 C 
ENDROOT
BRANCH   1   2
ATOM      2  C   UNL     1     144.682 141.367 138.437  1.00  0.00    -0.000 C 
BRANCH   2   3
ATOM      3  C   UNL     1     144.360 142.753 137.845  1.00  0.00    -0.000 C 
BRANCH   3   4
ATOM      4  C   UNL     1     143.283 143.546 138.607  1.00  0.00    -0.000 C 
BRANCH   4   5
ATOM      5  C   UNL     1     143.817 144.730 139.436  1.00  0.00    -0.000 C 
BRANCH   5   6
ATOM      6  C   UNL     1     145.357 144.811 139.484  1.00  0.00    -0.000 C 
BRANCH   6   7
ATOM      7  C   UNL     1     145.905 144.667 140.915  1.00  0.00    -0.000 C 
BRANCH   7   8
ATOM      8  C   UNL     1     146.661 143.347 141.127  1.00  0.00    -0.003 C 
ATOM      9  C   UNL     1     147.922 143.519 141.973  1.00  0.00     0.004 C 
ENDBRANCH   7   8
ENDBRANCH   6   7
ENDBRANCH   5   6
ENDBRANCH   4   5
ENDBRANCH   3   4
ENDBRANCH   2   3
ENDBRANCH   1   2
BRANCH   1  10
ATOM     10  C   UNL     1     147.022 142.100 137.707  1.00  0.00     0.000 C 
BRANCH  10  11
ATOM     11  C   UNL     1     148.504 142.036 138.115  1.00  0.00     0.000 C 
BRANCH  11  12
ATOM     12  C   UNL     1     149.350 143.261 137.706  1.00  0.00     0.000 C 
BRANCH  12  13
ATOM     13  C   UNL     1     149.576 144.298 138.822  1.00  0.00     0.000 C 
BRANCH  13  14
ATOM     14  C   UNL     1     148.921 145.671 138.574  1.00  0.00     0.002 C 
BRANCH  14  15
ATOM     15  C   UNL     1     148.803 146.540 139.844  1.00  0.00     0.028 C 
BRANCH  15  16
ATOM     16  C   UNL     1     148.360 147.973 139.539  1.00  0.00     0.156 C 
BRANCH  16  17
ATOM     17  O   UNL     1     146.971 148.004 139.370  1.00  0.00    -0.396 OA
ATOM     18  H   UNL     1     146.652 148.809 139.856  1.00  0.00     0.210 HD
ENDBRANCH  16  17
ENDBRANCH  15  16
ENDBRANCH  14  15
ENDBRANCH  13  14
ENDBRANCH  12  13
ENDBRANCH  11  12
ENDBRANCH  10  11
ENDBRANCH   1  10
TORSDOF 15
ENDMDL
MODEL 3
REMARK VINA RESULT:    -2.888      7.917      9.762
REMARK INTER + INTRA:          -7.481
REMARK INTER:                  -5.081
REMARK INTRA:                  -2.400
REMARK UNBOUND:                -2.145
REMARK SMILES CCCCCCCCCCCCCCCCO
REMARK SMILES IDX 9 1 8 2 7 3 6 4 5 5 4 6 3 7 2 8 1 9 10 10 11 11 12 12 13 13
REMARK SMILES IDX 14 14 15 15 16 16 17 17
REMARK H PARENT 17 18
REMARK Flexibility Score: inf
ROOT
ATOM      1  C   UNL     1     137.021 139.604 136.917  1.00  0.00     0.000 C 
ENDROOT
BRANCH   1   2
ATOM      2  C   UNL     1     137.585 139.339 138.329  1.00  0.00    -0.000 C 
BRANCH   2   3
ATOM      3  C   UNL     1     138.371 138.018 138.443  1.00  0.00    -0.000 C 
BRANCH   3   4
ATOM      4  C   UNL     1     137.813 137.023 139.477  1.00  0.00    -0.000 C 
BRANCH   4   5
ATOM      5  C   UNL     1     136.410 136.473 139.155  1.00  0.00    -0.000 C 
BRANCH   5   6
ATOM      6  C   UNL     1     135.431 136.531 140.346  1.00  0.00    -0.000 C 
BRANCH   6   7
ATOM      7  C   UNL     1     135.959 137.413 141.492  1.00  0.00    -0.000 C 
BRANCH   7   8
ATOM      8  C   UNL     1     135.124 138.688 141.686  1.00  0.00    -0.003 C 
ATOM      9  C   UNL     1     135.977 139.957 141.680  1.00  0.00     0.004 C 
ENDBRANCH   7   8
ENDBRANCH   6   7
ENDBRANCH   5   6
ENDBRANCH   4   5
ENDBRANCH   3   4
ENDBRANCH   2   3
ENDBRANCH   1   2
BRANCH   1  10
ATOM     10  C   UNL     1     135.486 139.503 136.875  1.00  0.00     0.000 C 
BRANCH  10  11
ATOM     11  C   UNL     1     134.821 139.959 138.185  1.00  0.00     0.000 C 
BRANCH  11  12
ATOM     12  C   UNL     1     133.400 139.406 138.426  1.00  0.00     0.000 C 
BRANCH  12  13
ATOM     13  C   UNL     1     133.186 137.945 137.988  1.00  0.00     0.000 C 
BRANCH  13  14
ATOM     14  C   UNL     1     131.779 137.383 138.267  1.00  0.00     0.002 C 
BRANCH  14  15
ATOM     15  C   UNL     1     131.767 135.877 138.603  1.00  0.00     0.028 C 
BRANCH  15  16
ATOM     16  C   UNL     1     132.637 135.052 137.653  1.00  0.00     0.156 C 
BRANCH  16  17
ATOM     17  O   UNL     1     133.528 134.271 138.398  1.00  0.00    -0.396 OA
ATOM     18  H   UNL     1     133.895 133.595 137.770  1.00  0.00     0.210 HD
ENDBRANCH  16  17
ENDBRANCH  15  16
ENDBRANCH  14  15
ENDBRANCH  13  14
ENDBRANCH  12  13
ENDBRANCH  11  12
ENDBRANCH  10  11
ENDBRANCH   1  10
TORSDOF 15
ENDMDL
MODEL 4
REMARK VINA RESULT:    -2.847      8.100     10.843
REMARK INTER + INTRA:          -7.405
REMARK INTER:                  -5.166
REMARK INTRA:                  -2.239
REMARK UNBOUND:                -2.145
REMARK SMILES CCCCCCCCCCCCCCCCO
REMARK SMILES IDX 9 1 8 2 7 3 6 4 5 5 4 6 3 7 2 8 1 9 10 10 11 11 12 12 13 13
REMARK SMILES IDX 14 14 15 15 16 16 17 17
REMARK H PARENT 17 18
REMARK Flexibility Score: inf
ROOT
ATOM      1  C   UNL     1     135.588 136.387 140.541  1.00  0.00     0.000 C 
ENDROOT
BRANCH   1   2
ATOM      2  C   UNL     1     136.963 136.706 141.165  1.00  0.00    -0.000 C 
BRANCH   2   3
ATOM      3  C   UNL     1     138.056 137.019 140.124  1.00  0.00    -0.000 C 
BRANCH   3   4
ATOM      4  C   UNL     1     137.529 137.391 138.727  1.00  0.00    -0.000 C 
BRANCH   4   5
ATOM      5  C   UNL     1     138.269 138.559 138.045  1.00  0.00    -0.000 C 
BRANCH   5   6
ATOM      6  C   UNL     1     137.349 139.735 137.656  1.00  0.00    -0.000 C 
BRANCH   6   7
ATOM      7  C   UNL     1     136.092 139.809 138.540  1.00  0.00    -0.000 C 
BRANCH   7   8
ATOM      8  C   UNL     1     136.256 140.781 139.718  1.00  0.00    -0.003 C 
ATOM      9  C   UNL     1     135.677 140.231 141.021  1.00  0.00     0.004 C 
ENDBRANCH   7   8
ENDBRANCH   6   7
ENDBRANCH   5   6
ENDBRANCH   4   5
ENDBRANCH   3   4
ENDBRANCH   2   3
ENDBRANCH   1   2
BRANCH   1  10
ATOM     10  C   UNL     1     134.424 136.755 141.478  1.00  0.00     0.000 C 
BRANCH  10  11
ATOM     11  C   UNL     1     133.211 137.333 140.729  1.00  0.00     0.000 C 
BRANCH  11  12
ATOM     12  C   UNL     1     133.422 137.563 139.218  1.00  0.00     0.000 C 
BRANCH  12  13
ATOM     13  C   UNL     1     132.540 136.700 138.297  1.00  0.00     0.000 C 
BRANCH  13  14
ATOM     14  C   UNL     1     133.053 135.265 138.065  1.00  0.00     0.002 C 
BRANCH  14  15
ATOM     15  C   UNL     1     132.358 134.206 138.948  1.00  0.00     0.028 C 
BRANCH  15  16
ATOM     16  C   UNL     1     133.322 133.524 139.922  1.00  0.00     0.156 C 
BRANCH  16  17
ATOM     17  O   UNL     1     134.525 133.243 139.264  1.00  0.00    -0.396 OA
ATOM     18  H   UNL     1     135.209 133.831 139.678  1.00  0.00     0.210 HD
ENDBRANCH  16  17
ENDBRANCH  15  16
ENDBRANCH  14  15
ENDBRANCH  13  14
ENDBRANCH  12  13
ENDBRANCH  11  12
ENDBRANCH  10  11
ENDBRANCH   1  10
TORSDOF 15
ENDMDL
MODEL 5
REMARK VINA RESULT:    -2.831     12.135     15.138
REMARK INTER + INTRA:          -7.376
REMARK INTER:                  -5.157
REMARK INTRA:                  -2.219
REMARK UNBOUND:                -2.145
REMARK SMILES CCCCCCCCCCCCCCCCO
REMARK SMILES IDX 9 1 8 2 7 3 6 4 5 5 4 6 3 7 2 8 1 9 10 10 11 11 12 12 13 13
REMARK SMILES IDX 14 14 15 15 16 16 17 17
REMARK H PARENT 17 18
REMARK Flexibility Score: inf
ROOT
ATOM      1  C   UNL     1     141.532 135.450 138.364  1.00  0.00     0.000 C 
ENDROOT
BRANCH   1   2
ATOM      2  C   UNL     1     142.648 136.321 137.750  1.00  0.00    -0.000 C 
BRANCH   2   3
ATOM      3  C   UNL     1     143.316 137.273 138.761  1.00  0.00    -0.000 C 
BRANCH   3   4
ATOM      4  C   UNL     1     144.671 136.787 139.306  1.00  0.00    -0.000 C 
BRANCH   4   5
ATOM      5  C   UNL     1     144.904 137.065 140.805  1.00  0.00    -0.000 C 
BRANCH   5   6
ATOM      6  C   UNL     1     145.085 135.789 141.653  1.00  0.00    -0.000 C 
BRANCH   6   7
ATOM      7  C   UNL     1     144.419 134.561 141.007  1.00  0.00    -0.000 C 
BRANCH   7   8
ATOM      8  C   UNL     1     143.261 134.006 141.851  1.00  0.00    -0.003 C 
ATOM      9  C   UNL     1     142.080 134.973 141.938  1.00  0.00     0.004 C 
ENDBRANCH   7   8
ENDBRANCH   6   7
ENDBRANCH   5   6
ENDBRANCH   4   5
ENDBRANCH   3   4
ENDBRANCH   2   3
ENDBRANCH   1   2
BRANCH   1  10
ATOM     10  C   UNL     1     141.747 133.951 138.091  1.00  0.00     0.000 C 
BRANCH  10  11
ATOM     11  C   UNL     1     143.220 133.596 137.823  1.00  0.00     0.000 C 
BRANCH  11  12
ATOM     12  C   UNL     1     143.552 132.091 137.875  1.00  0.00     0.000 C 
BRANCH  12  13
ATOM     13  C   UNL     1     144.854 131.735 138.617  1.00  0.00     0.000 C 
BRANCH  13  14
ATOM     14  C   UNL     1     146.029 132.699 138.363  1.00  0.00     0.002 C 
BRANCH  14  15
ATOM     15  C   UNL     1     147.341 132.276 139.058  1.00  0.00     0.028 C 
BRANCH  15  16
ATOM     16  C   UNL     1     148.014 133.432 139.802  1.00  0.00     0.156 C 
BRANCH  16  17
ATOM     17  O   UNL     1     147.553 134.648 139.287  1.00  0.00    -0.396 OA
ATOM     18  H   UNL     1     148.362 135.184 139.077  1.00  0.00     0.210 HD
ENDBRANCH  16  17
ENDBRANCH  15  16
ENDBRANCH  14  15
ENDBRANCH  13  14
ENDBRANCH  12  13
ENDBRANCH  11  12
ENDBRANCH  10  11
ENDBRANCH   1  10
TORSDOF 15
ENDMDL
MODEL 6
REMARK VINA RESULT:    -2.824      7.415     10.006
REMARK INTER + INTRA:          -7.363
REMARK INTER:                  -4.769
REMARK INTRA:                  -2.595
REMARK UNBOUND:                -2.145
REMARK SMILES CCCCCCCCCCCCCCCCO
REMARK SMILES IDX 9 1 8 2 7 3 6 4 5 5 4 6 3 7 2 8 1 9 10 10 11 11 12 12 13 13
REMARK SMILES IDX 14 14 15 15 16 16 17 17
REMARK H PARENT 17 18
REMARK Flexibility Score: inf
ROOT
ATOM      1  C   UNL     1     137.182 138.758 138.971  1.00  0.00     0.000 C 
ENDROOT
BRANCH   1   2
ATOM      2  C   UNL     1     136.332 139.276 137.792  1.00  0.00    -0.000 C 
BRANCH   2   3
ATOM      3  C   UNL     1     135.220 140.256 138.216  1.00  0.00    -0.000 C 
BRANCH   3   4
ATOM      4  C   UNL     1     133.822 139.923 137.663  1.00  0.00    -0.000 C 
BRANCH   4   5
ATOM      5  C   UNL     1     133.485 138.420 137.615  1.00  0.00    -0.000 C 
BRANCH   5   6
ATOM      6  C   UNL     1     131.993 138.109 137.854  1.00  0.00    -0.000 C 
BRANCH   6   7
ATOM      7  C   UNL     1     131.761 136.648 138.276  1.00  0.00    -0.000 C 
BRANCH   7   8
ATOM      8  C   UNL     1     132.932 135.731 137.891  1.00  0.00    -0.003 C 
ATOM      9  C   UNL     1     133.020 134.486 138.774  1.00  0.00     0.004 C 
ENDBRANCH   7   8
ENDBRANCH   6   7
ENDBRANCH   5   6
ENDBRANCH   4   5
ENDBRANCH   3   4
ENDBRANCH   2   3
ENDBRANCH   1   2
BRANCH   1  10
ATOM     10  C   UNL     1     137.325 137.226 138.957  1.00  0.00     0.000 C 
BRANCH  10  11
ATOM     11  C   UNL     1     136.105 136.506 139.557  1.00  0.00     0.000 C 
BRANCH  11  12
ATOM     12  C   UNL     1     135.647 137.027 140.935  1.00  0.00     0.000 C 
BRANCH  12  13
ATOM     13  C   UNL     1     134.150 137.371 141.038  1.00  0.00     0.000 C 
BRANCH  13  14
ATOM     14  C   UNL     1     133.841 138.855 141.309  1.00  0.00     0.002 C 
BRANCH  14  15
ATOM     15  C   UNL     1     135.005 139.622 141.972  1.00  0.00     0.028 C 
BRANCH  15  16
ATOM     16  C   UNL     1     134.525 140.735 142.905  1.00  0.00     0.156 C 
BRANCH  16  17
ATOM     17  O   UNL     1     133.140 140.633 143.076  1.00  0.00    -0.396 OA
ATOM     18  H   UNL     1     132.884 141.366 143.695  1.00  0.00     0.210 HD
ENDBRANCH  16  17
ENDBRANCH  15  16
ENDBRANCH  14  15
ENDBRANCH  13  14
ENDBRANCH  12  13
ENDBRANCH  11  12
ENDBRANCH  10  11
ENDBRANCH   1  10
TORSDOF 15
ENDMDL
MODEL 7
REMARK VINA RESULT:    -2.806     10.589     12.876
REMARK INTER + INTRA:          -7.330
REMARK INTER:                  -6.095
REMARK INTRA:                  -1.235
REMARK UNBOUND:                -2.145
REMARK SMILES CCCCCCCCCCCCCCCCO
REMARK SMILES IDX 9 1 8 2 7 3 6 4 5 5 4 6 3 7 2 8 1 9 10 10 11 11 12 12 13 13
REMARK SMILES IDX 14 14 15 15 16 16 17 17
REMARK H PARENT 17 18
REMARK Flexibility Score: inf
ROOT
ATOM      1  C   UNL     1     144.674 137.154 140.011  1.00  0.00     0.000 C 
ENDROOT
BRANCH   1   2
ATOM      2  C   UNL     1     145.423 136.080 139.194  1.00  0.00    -0.000 C 
BRANCH   2   3
ATOM      3  C   UNL     1     145.042 134.636 139.575  1.00  0.00    -0.000 C 
BRANCH   3   4
ATOM      4  C   UNL     1     144.802 133.695 138.381  1.00  0.00    -0.000 C 
BRANCH   4   5
ATOM      5  C   UNL     1     143.580 132.767 138.524  1.00  0.00    -0.000 C 
BRANCH   5   6
ATOM      6  C   UNL     1     142.233 133.464 138.242  1.00  0.00    -0.000 C 
BRANCH   6   7
ATOM      7  C   UNL     1     142.293 134.365 136.995  1.00  0.00    -0.000 C 
BRANCH   7   8
ATOM      8  C   UNL     1     142.075 135.848 137.328  1.00  0.00    -0.003 C 
ATOM      9  C   UNL     1     141.228 136.052 138.584  1.00  0.00     0.004 C 
ENDBRANCH   7   8
ENDBRANCH   6   7
ENDBRANCH   5   6
ENDBRANCH   4   5
ENDBRANCH   3   4
ENDBRANCH   2   3
ENDBRANCH   1   2
BRANCH   1  10
ATOM     10  C   UNL     1     144.232 138.344 139.140  1.00  0.00     0.000 C 
BRANCH  10  11
ATOM     11  C   UNL     1     144.763 139.693 139.656  1.00  0.00     0.000 C 
BRANCH  11  12
ATOM     12  C   UNL     1     145.100 140.727 138.561  1.00  0.00     0.000 C 
BRANCH  12  13
ATOM     13  C   UNL     1     146.491 141.376 138.683  1.00  0.00     0.000 C 
BRANCH  13  14
ATOM     14  C   UNL     1     147.100 141.860 137.354  1.00  0.00     0.002 C 
BRANCH  14  15
ATOM     15  C   UNL     1     148.644 141.840 137.333  1.00  0.00     0.028 C 
BRANCH  15  16
ATOM     16  C   UNL     1     149.258 143.172 137.771  1.00  0.00     0.156 C 
BRANCH  16  17
ATOM     17  O   UNL     1     148.361 144.210 137.497  1.00  0.00    -0.396 OA
ATOM     18  H   UNL     1     147.510 143.776 137.228  1.00  0.00     0.210 HD
ENDBRANCH  16  17
ENDBRANCH  15  16
ENDBRANCH  14  15
ENDBRANCH  13  14
ENDBRANCH  12  13
ENDBRANCH  11  12
ENDBRANCH  10  11
ENDBRANCH   1  10
TORSDOF 15
ENDMDL
MODEL 8
REMARK VINA RESULT:    -2.730      7.142      9.949
REMARK INTER + INTRA:          -7.189
REMARK INTER:                  -4.725
REMARK INTRA:                  -2.464
REMARK UNBOUND:                -2.145
REMARK SMILES CCCCCCCCCCCCCCCCO
REMARK SMILES IDX 9 1 8 2 7 3 6 4 5 5 4 6 3 7 2 8 1 9 10 10 11 11 12 12 13 13
REMARK SMILES IDX 14 14 15 15 16 16 17 17
REMARK H PARENT 17 18
REMARK Flexibility Score: inf
ROOT
ATOM      1  C   UNL     1     133.950 136.897 139.439  1.00  0.00     0.000 C 
ENDROOT
BRANCH   1   2
ATOM      2  C   UNL     1     133.528 137.544 138.102  1.00  0.00    -0.000 C 
BRANCH   2   3
ATOM      3  C   UNL     1     133.047 139.001 138.246  1.00  0.00    -0.000 C 
BRANCH   3   4
ATOM      4  C   UNL     1     133.924 140.044 137.528  1.00  0.00    -0.000 C 
BRANCH   4   5
ATOM      5  C   UNL     1     135.202 139.478 136.878  1.00  0.00    -0.000 C 
BRANCH   5   6
ATOM      6  C   UNL     1     136.494 139.819 137.649  1.00  0.00    -0.000 C 
BRANCH   6   7
ATOM      7  C   UNL     1     136.237 140.783 138.821  1.00  0.00    -0.000 C 
BRANCH   7   8
ATOM      8  C   UNL     1     136.598 140.166 140.181  1.00  0.00    -0.003 C 
ATOM      9  C   UNL     1     135.368 139.872 141.040  1.00  0.00     0.004 C 
ENDBRANCH   7   8
ENDBRANCH   6   7
ENDBRANCH   5   6
ENDBRANCH   4   5
ENDBRANCH   3   4
ENDBRANCH   2   3
ENDBRANCH   1   2
BRANCH   1  10
ATOM     10  C   UNL     1     135.081 135.870 139.256  1.00  0.00     0.000 C 
BRANCH  10  11
ATOM     11  C   UNL     1     136.475 136.518 139.193  1.00  0.00     0.000 C 
BRANCH  11  12
ATOM     12  C   UNL     1     137.267 136.500 140.517  1.00  0.00     0.000 C 
BRANCH  12  13
ATOM     13  C   UNL     1     138.670 137.130 140.446  1.00  0.00     0.000 C 
BRANCH  13  14
ATOM     14  C   UNL     1     139.432 136.872 139.132  1.00  0.00     0.002 C 
BRANCH  14  15
ATOM     15  C   UNL     1     139.768 138.157 138.345  1.00  0.00     0.028 C 
BRANCH  15  16
ATOM     16  C   UNL     1     140.071 139.347 139.259  1.00  0.00     0.156 C 
BRANCH  16  17
ATOM     17  O   UNL     1     141.343 139.849 138.962  1.00  0.00    -0.396 OA
ATOM     18  H   UNL     1     141.244 140.835 138.903  1.00  0.00     0.210 HD
ENDBRANCH  16  17
ENDBRANCH  15  16
ENDBRANCH  14  15
ENDBRANCH  13  14
ENDBRANCH  12  13
ENDBRANCH  11  12
ENDBRANCH  10  11
ENDBRANCH   1  10
TORSDOF 15
ENDMDL
MODEL 9
REMARK VINA RESULT:    -2.719      7.407      9.619
REMARK INTER + INTRA:          -7.169
REMARK INTER:                  -4.313
REMARK INTRA:                  -2.856
REMARK UNBOUND:                -2.145
REMARK SMILES CCCCCCCCCCCCCCCCO
REMARK SMILES IDX 9 1 8 2 7 3 6 4 5 5 4 6 3 7 2 8 1 9 10 10 11 11 12 12 13 13
REMARK SMILES IDX 14 14 15 15 16 16 17 17
REMARK H PARENT 17 18
REMARK Flexibility Score: inf
ROOT
ATOM      1  C   UNL     1     135.086 139.486 137.368  1.00  0.00     0.000 C 
ENDROOT
BRANCH   1   2
ATOM      2  C   UNL     1     133.699 139.745 137.992  1.00  0.00    -0.000 C 
BRANCH   2   3
ATOM      3  C   UNL     1     132.791 138.499 138.019  1.00  0.00    -0.000 C 
BRANCH   3   4
ATOM      4  C   UNL     1     133.536 137.162 138.183  1.00  0.00    -0.000 C 
BRANCH   4   5
ATOM      5  C   UNL     1     133.424 136.527 139.583  1.00  0.00    -0.000 C 
BRANCH   5   6
ATOM      6  C   UNL     1     134.771 136.027 140.149  1.00  0.00    -0.000 C 
BRANCH   6   7
ATOM      7  C   UNL     1     135.953 136.363 139.222  1.00  0.00    -0.000 C 
BRANCH   7   8
ATOM      8  C   UNL     1     137.264 136.577 139.993  1.00  0.00    -0.003 C 
ATOM      9  C   UNL     1     138.372 137.163 139.119  1.00  0.00     0.004 C 
ENDBRANCH   7   8
ENDBRANCH   6   7
ENDBRANCH   5   6
ENDBRANCH   4   5
ENDBRANCH   3   4
ENDBRANCH   2   3
ENDBRANCH   1   2
BRANCH   1  10
ATOM     10  C   UNL     1     136.231 139.992 138.264  1.00  0.00     0.000 C 
BRANCH  10  11
ATOM     11  C   UNL     1     135.731 140.611 139.581  1.00  0.00     0.000 C 
BRANCH  11  12
ATOM     12  C   UNL     1     136.373 140.037 140.861  1.00  0.00     0.000 C 
BRANCH  12  13
ATOM     13  C   UNL     1     135.417 139.244 141.770  1.00  0.00     0.000 C 
BRANCH  13  14
ATOM     14  C   UNL     1     133.920 139.539 141.553  1.00  0.00     0.002 C 
BRANCH  14  15
ATOM     15  C   UNL     1     133.004 138.943 142.644  1.00  0.00     0.028 C 
BRANCH  15  16
ATOM     16  C   UNL     1     133.645 137.758 143.371  1.00  0.00     0.156 C 
BRANCH  16  17
ATOM     17  O   UNL     1     132.840 136.625 143.213  1.00  0.00    -0.396 OA
ATOM     18  H   UNL     1     133.237 135.922 143.790  1.00  0.00     0.210 HD
ENDBRANCH  16  17
ENDBRANCH  15  16
ENDBRANCH  14  15
ENDBRANCH  13  14
ENDBRANCH  12  13
ENDBRANCH  11  12
ENDBRANCH  10  11
ENDBRANCH   1  10
TORSDOF 15
ENDMDL
