MODEL 1
REMARK VINA RESULT:    -8.437      0.000      0.000
REMARK INTER + INTRA:          -9.590
REMARK INTER:                  -9.423
REMARK INTRA:                  -0.167
REMARK UNBOUND:                -0.167
REMARK SMILES CC1(C)CC[C@]2(CO)CC=C3[C@](C)(CC[C@@H]4[C@@]5(C)CC[C@H](O)C(C)(C)[C@@H]5CC[C@]34C)[C@@H]2C1
REMARK SMILES IDX 1 1 2 2 4 3 5 4 6 5 9 6 10 7 11 8 29 9 28 10 27 11 26 12
REMARK SMILES IDX 23 13 21 14 20 15 19 16 17 17 16 18 15 19 14 20 12 21 31 22
REMARK SMILES IDX 32 23 13 24 18 25 24 26 25 27 30 28 3 29 7 30 8 31 22 33
REMARK H PARENT 8 32 22 34
REMARK Flexibility Score: inf
ROOT
ATOM      1  C   UNL     1      -3.100  15.975  49.456  1.00  0.00     0.011 C 
ATOM      2  C   UNL     1      -2.577  17.377  49.056  1.00  0.00    -0.035 C 
ATOM      3  C   UNL     1      -1.354  17.184  48.137  1.00  0.00     0.007 C 
ATOM      4  C   UNL     1      -0.920  18.483  47.459  1.00  0.00     0.010 C 
ATOM      5  C   UNL     1      -2.014  19.122  46.560  1.00  0.00     0.001 C 
ATOM      6  C   UNL     1      -1.449  20.478  46.059  1.00  0.00     0.037 C 
ATOM      7  C   UNL     1      -2.492  21.525  45.849  1.00  0.00    -0.026 C 
ATOM      8  C   UNL     1      -3.238  21.891  46.911  1.00  0.00    -0.062 C 
ATOM      9  C   UNL     1      -3.379  23.405  47.263  1.00  0.00    -0.008 C 
ATOM     10  C   UNL     1      -4.479  23.989  46.350  1.00  0.00     0.012 C 
ATOM     11  C   UNL     1      -4.830  25.468  46.611  1.00  0.00     0.006 C 
ATOM     12  C   UNL     1      -4.638  25.960  48.079  1.00  0.00     0.003 C 
ATOM     13  C   UNL     1      -5.366  27.344  48.399  1.00  0.00    -0.006 C 
ATOM     14  C   UNL     1      -5.452  27.612  49.948  1.00  0.00     0.120 C 
ATOM     15  C   UNL     1      -4.347  26.875  50.708  1.00  0.00     0.033 C 
ATOM     16  C   UNL     1      -4.525  25.354  50.604  1.00  0.00     0.010 C 
ATOM     17  C   UNL     1      -4.789  24.807  49.141  1.00  0.00    -0.025 C 
ATOM     18  C   UNL     1      -3.683  23.685  48.818  1.00  0.00     0.005 C 
ATOM     19  C   UNL     1      -3.729  22.451  49.786  1.00  0.00     0.006 C 
ATOM     20  C   UNL     1      -3.191  21.129  49.228  1.00  0.00     0.012 C 
ATOM     21  C   UNL     1      -3.757  20.795  47.842  1.00  0.00    -0.008 C 
ATOM     22  C   UNL     1      -3.375  19.320  47.342  1.00  0.00     0.008 C 
ATOM     23  C   UNL     1      -3.733  18.147  48.332  1.00  0.00     0.011 C 
ATOM     24  C   UNL     1      -5.316  20.875  47.846  1.00  0.00     0.016 C 
ATOM     25  C   UNL     1      -6.254  24.269  49.102  1.00  0.00     0.012 C 
ATOM     26  C   UNL     1      -6.784  27.466  47.769  1.00  0.00     0.014 C 
ATOM     27  C   UNL     1      -4.522  28.489  47.772  1.00  0.00     0.014 C 
ATOM     28  C   UNL     1      -2.023  24.118  46.900  1.00  0.00     0.016 C 
ATOM     29  C   UNL     1      -2.146  18.079  50.366  1.00  0.00     0.011 C 
ENDROOT
BRANCH   5  30
ATOM     30  C   UNL     1      -2.229  18.239  45.282  1.00  0.00     0.163 C 
BRANCH  30  31
ATOM     31  O   UNL     1      -3.549  18.302  44.807  1.00  0.00    -0.396 OA
ATOM     32  H   UNL     1      -4.031  18.972  45.356  1.00  0.00     0.210 HD
ENDBRANCH  30  31
ENDBRANCH   5  30
BRANCH  14  33
ATOM     33  O   UNL     1      -6.707  27.245  50.474  1.00  0.00    -0.393 OA
ATOM     34  H   UNL     1      -6.545  26.530  51.146  1.00  0.00     0.210 HD
ENDBRANCH  14  33
TORSDOF 3
ENDMDL
MODEL 2
REMARK VINA RESULT:    -8.186      1.287      8.291
REMARK INTER + INTRA:          -9.310
REMARK INTER:                  -9.257
REMARK INTRA:                  -0.053
REMARK UNBOUND:                -0.167
REMARK SMILES CC1(C)CC[C@]2(CO)CC=C3[C@](C)(CC[C@@H]4[C@@]5(C)CC[C@H](O)C(C)(C)[C@@H]5CC[C@]34C)[C@@H]2C1
REMARK SMILES IDX 1 1 2 2 4 3 5 4 6 5 9 6 10 7 11 8 29 9 28 10 27 11 26 12
REMARK SMILES IDX 23 13 21 14 20 15 19 16 17 17 16 18 15 19 14 20 12 21 31 22
REMARK SMILES IDX 32 23 13 24 18 25 24 26 25 27 30 28 3 29 7 30 8 31 22 33
REMARK H PARENT 8 32 22 34
REMARK Flexibility Score: inf
ROOT
ATOM      1  C   UNL     1      -3.982  29.656  45.692  1.00  0.00     0.011 C 
ATOM      2  C   UNL     1      -3.671  28.560  46.740  1.00  0.00    -0.035 C 
ATOM      3  C   UNL     1      -3.999  29.128  48.135  1.00  0.00     0.007 C 
ATOM      4  C   UNL     1      -3.994  28.053  49.221  1.00  0.00     0.010 C 
ATOM      5  C   UNL     1      -5.026  26.915  48.989  1.00  0.00     0.001 C 
ATOM      6  C   UNL     1      -4.797  25.865  50.108  1.00  0.00     0.037 C 
ATOM      7  C   UNL     1      -5.094  24.463  49.689  1.00  0.00    -0.026 C 
ATOM      8  C   UNL     1      -4.391  23.953  48.658  1.00  0.00    -0.062 C 
ATOM      9  C   UNL     1      -3.684  22.571  48.822  1.00  0.00    -0.008 C 
ATOM     10  C   UNL     1      -4.747  21.478  48.574  1.00  0.00     0.012 C 
ATOM     11  C   UNL     1      -4.217  20.031  48.605  1.00  0.00     0.006 C 
ATOM     12  C   UNL     1      -2.733  19.844  48.163  1.00  0.00     0.003 C 
ATOM     13  C   UNL     1      -2.341  18.332  47.830  1.00  0.00    -0.006 C 
ATOM     14  C   UNL     1      -0.974  18.242  47.055  1.00  0.00     0.120 C 
ATOM     15  C   UNL     1      -0.087  19.457  47.339  1.00  0.00     0.033 C 
ATOM     16  C   UNL     1      -0.718  20.742  46.790  1.00  0.00     0.010 C 
ATOM     17  C   UNL     1      -2.245  20.950  47.154  1.00  0.00    -0.025 C 
ATOM     18  C   UNL     1      -2.400  22.380  47.872  1.00  0.00     0.005 C 
ATOM     19  C   UNL     1      -1.973  23.592  46.971  1.00  0.00     0.006 C 
ATOM     20  C   UNL     1      -2.629  24.941  47.289  1.00  0.00     0.012 C 
ATOM     21  C   UNL     1      -4.153  24.840  47.435  1.00  0.00    -0.008 C 
ATOM     22  C   UNL     1      -4.871  26.269  47.553  1.00  0.00     0.008 C 
ATOM     23  C   UNL     1      -4.539  27.299  46.407  1.00  0.00     0.011 C 
ATOM     24  C   UNL     1      -4.782  24.123  46.200  1.00  0.00     0.016 C 
ATOM     25  C   UNL     1      -3.062  20.824  45.829  1.00  0.00     0.012 C 
ATOM     26  C   UNL     1      -3.439  17.560  47.043  1.00  0.00     0.014 C 
ATOM     27  C   UNL     1      -2.168  17.572  49.176  1.00  0.00     0.014 C 
ATOM     28  C   UNL     1      -3.202  22.445  50.316  1.00  0.00     0.016 C 
ATOM     29  C   UNL     1      -2.156  28.263  46.634  1.00  0.00     0.011 C 
ENDROOT
BRANCH   5  30
ATOM     30  C   UNL     1      -6.478  27.469  49.197  1.00  0.00     0.163 C 
BRANCH  30  31
ATOM     31  O   UNL     1      -6.993  27.150  50.464  1.00  0.00    -0.396 OA
ATOM     32  H   UNL     1      -6.441  26.414  50.834  1.00  0.00     0.210 HD
ENDBRANCH  30  31
ENDBRANCH   5  30
BRANCH  14  33
ATOM     33  O   UNL     1      -1.167  18.118  45.665  1.00  0.00    -0.393 OA
ATOM     34  H   UNL     1      -1.956  18.675  45.428  1.00  0.00     0.210 HD
ENDBRANCH  14  33
TORSDOF 3
ENDMDL
MODEL 3
REMARK VINA RESULT:    -8.093      1.644      7.888
REMARK INTER + INTRA:          -9.206
REMARK INTER:                  -9.098
REMARK INTRA:                  -0.108
REMARK UNBOUND:                -0.167
REMARK SMILES CC1(C)CC[C@]2(CO)CC=C3[C@](C)(CC[C@@H]4[C@@]5(C)CC[C@H](O)C(C)(C)[C@@H]5CC[C@]34C)[C@@H]2C1
REMARK SMILES IDX 1 1 2 2 4 3 5 4 6 5 9 6 10 7 11 8 29 9 28 10 27 11 26 12
REMARK SMILES IDX 23 13 21 14 20 15 19 16 17 17 16 18 15 19 14 20 12 21 31 22
REMARK SMILES IDX 32 23 13 24 18 25 24 26 25 27 30 28 3 29 7 30 8 31 22 33
REMARK H PARENT 8 32 22 34
REMARK Flexibility Score: inf
ROOT
ATOM      1  C   UNL     1      -1.774  27.556  52.128  1.00  0.00     0.011 C 
ATOM      2  C   UNL     1      -2.717  26.546  51.429  1.00  0.00    -0.035 C 
ATOM      3  C   UNL     1      -4.032  27.276  51.092  1.00  0.00     0.007 C 
ATOM      4  C   UNL     1      -4.930  26.465  50.161  1.00  0.00     0.010 C 
ATOM      5  C   UNL     1      -4.282  26.132  48.789  1.00  0.00     0.001 C 
ATOM      6  C   UNL     1      -5.276  25.212  48.033  1.00  0.00     0.037 C 
ATOM      7  C   UNL     1      -4.615  24.226  47.127  1.00  0.00    -0.026 C 
ATOM      8  C   UNL     1      -3.757  23.344  47.677  1.00  0.00    -0.062 C 
ATOM      9  C   UNL     1      -3.928  21.821  47.379  1.00  0.00    -0.008 C 
ATOM     10  C   UNL     1      -3.262  21.542  46.013  1.00  0.00     0.012 C 
ATOM     11  C   UNL     1      -3.249  20.063  45.581  1.00  0.00     0.006 C 
ATOM     12  C   UNL     1      -3.206  19.020  46.741  1.00  0.00     0.003 C 
ATOM     13  C   UNL     1      -2.800  17.547  46.273  1.00  0.00    -0.006 C 
ATOM     14  C   UNL     1      -2.420  16.632  47.497  1.00  0.00     0.120 C 
ATOM     15  C   UNL     1      -3.088  17.114  48.787  1.00  0.00     0.033 C 
ATOM     16  C   UNL     1      -2.558  18.493  49.201  1.00  0.00     0.010 C 
ATOM     17  C   UNL     1      -2.518  19.574  48.044  1.00  0.00    -0.025 C 
ATOM     18  C   UNL     1      -3.345  20.863  48.533  1.00  0.00     0.005 C 
ATOM     19  C   UNL     1      -2.758  21.544  49.818  1.00  0.00     0.006 C 
ATOM     20  C   UNL     1      -3.057  23.038  49.994  1.00  0.00     0.012 C 
ATOM     21  C   UNL     1      -2.770  23.854  48.727  1.00  0.00    -0.008 C 
ATOM     22  C   UNL     1      -2.871  25.437  48.961  1.00  0.00     0.008 C 
ATOM     23  C   UNL     1      -2.001  26.013  50.142  1.00  0.00     0.011 C 
ATOM     24  C   UNL     1      -1.329  23.571  48.200  1.00  0.00     0.016 C 
ATOM     25  C   UNL     1      -1.017  19.874  47.738  1.00  0.00     0.012 C 
ATOM     26  C   UNL     1      -1.652  17.518  45.224  1.00  0.00     0.014 C 
ATOM     27  C   UNL     1      -4.033  16.907  45.574  1.00  0.00     0.014 C 
ATOM     28  C   UNL     1      -5.467  21.522  47.235  1.00  0.00     0.016 C 
ATOM     29  C   UNL     1      -2.988  25.415  52.450  1.00  0.00     0.011 C 
ENDROOT
BRANCH   5  30
ATOM     30  C   UNL     1      -4.158  27.441  47.932  1.00  0.00     0.163 C 
BRANCH  30  31
ATOM     31  O   UNL     1      -5.392  28.092  47.775  1.00  0.00    -0.396 OA
ATOM     32  H   UNL     1      -5.941  27.890  48.575  1.00  0.00     0.210 HD
ENDBRANCH  30  31
ENDBRANCH   5  30
BRANCH  14  33
ATOM     33  O   UNL     1      -1.026  16.566  47.688  1.00  0.00    -0.393 OA
ATOM     34  H   UNL     1      -0.868  16.038  48.515  1.00  0.00     0.210 HD
ENDBRANCH  14  33
TORSDOF 3
ENDMDL
MODEL 4
REMARK VINA RESULT:    -7.696      1.556      8.317
REMARK INTER + INTRA:          -8.763
REMARK INTER:                  -8.596
REMARK INTRA:                  -0.166
REMARK UNBOUND:                -0.167
REMARK SMILES CC1(C)CC[C@]2(CO)CC=C3[C@](C)(CC[C@@H]4[C@@]5(C)CC[C@H](O)C(C)(C)[C@@H]5CC[C@]34C)[C@@H]2C1
REMARK SMILES IDX 1 1 2 2 4 3 5 4 6 5 9 6 10 7 11 8 29 9 28 10 27 11 26 12
REMARK SMILES IDX 23 13 21 14 20 15 19 16 17 17 16 18 15 19 14 20 12 21 31 22
REMARK SMILES IDX 32 23 13 24 18 25 24 26 25 27 30 28 3 29 7 30 8 31 22 33
REMARK H PARENT 8 32 22 34
REMARK Flexibility Score: inf
ROOT
ATOM      1  C   UNL     1      -7.214  29.596  47.498  1.00  0.00     0.011 C 
ATOM      2  C   UNL     1      -5.909  28.770  47.378  1.00  0.00    -0.035 C 
ATOM      3  C   UNL     1      -4.719  29.728  47.583  1.00  0.00     0.007 C 
ATOM      4  C   UNL     1      -3.394  28.988  47.760  1.00  0.00     0.010 C 
ATOM      5  C   UNL     1      -3.365  28.029  48.981  1.00  0.00     0.001 C 
ATOM      6  C   UNL     1      -2.006  27.280  48.933  1.00  0.00     0.037 C 
ATOM      7  C   UNL     1      -2.063  25.893  49.482  1.00  0.00    -0.026 C 
ATOM      8  C   UNL     1      -2.903  25.018  48.892  1.00  0.00    -0.062 C 
ATOM      9  C   UNL     1      -2.364  23.623  48.444  1.00  0.00    -0.008 C 
ATOM     10  C   UNL     1      -2.362  22.708  49.689  1.00  0.00     0.012 C 
ATOM     11  C   UNL     1      -1.943  21.248  49.427  1.00  0.00     0.006 C 
ATOM     12  C   UNL     1      -2.268  20.695  48.005  1.00  0.00     0.003 C 
ATOM     13  C   UNL     1      -2.188  19.104  47.895  1.00  0.00    -0.006 C 
ATOM     14  C   UNL     1      -2.864  18.577  46.575  1.00  0.00     0.120 C 
ATOM     15  C   UNL     1      -2.869  19.647  45.481  1.00  0.00     0.033 C 
ATOM     16  C   UNL     1      -3.752  20.838  45.877  1.00  0.00     0.010 C 
ATOM     17  C   UNL     1      -3.508  21.399  47.338  1.00  0.00    -0.025 C 
ATOM     18  C   UNL     1      -3.187  22.970  47.225  1.00  0.00     0.005 C 
ATOM     19  C   UNL     1      -4.352  23.813  46.597  1.00  0.00     0.006 C 
ATOM     20  C   UNL     1      -4.414  25.292  46.997  1.00  0.00     0.012 C 
ATOM     21  C   UNL     1      -4.302  25.502  48.512  1.00  0.00    -0.008 C 
ATOM     22  C   UNL     1      -4.581  27.017  48.961  1.00  0.00     0.008 C 
ATOM     23  C   UNL     1      -5.939  27.640  48.462  1.00  0.00     0.011 C 
ATOM     24  C   UNL     1      -5.335  24.613  49.273  1.00  0.00     0.016 C 
ATOM     25  C   UNL     1      -4.785  21.081  48.178  1.00  0.00     0.012 C 
ATOM     26  C   UNL     1      -2.791  18.360  49.122  1.00  0.00     0.014 C 
ATOM     27  C   UNL     1      -0.687  18.699  47.847  1.00  0.00     0.014 C 
ATOM     28  C   UNL     1      -0.872  23.804  47.977  1.00  0.00     0.016 C 
ATOM     29  C   UNL     1      -5.881  28.194  45.942  1.00  0.00     0.011 C 
ENDROOT
BRANCH   5  30
ATOM     30  C   UNL     1      -3.358  28.865  50.308  1.00  0.00     0.163 C 
BRANCH  30  31
ATOM     31  O   UNL     1      -4.021  28.205  51.356  1.00  0.00    -0.396 OA
ATOM     32  H   UNL     1      -4.740  27.654  50.954  1.00  0.00     0.210 HD
ENDBRANCH  30  31
ENDBRANCH   5  30
BRANCH  14  33
ATOM     33  O   UNL     1      -4.182  18.134  46.802  1.00  0.00    -0.393 OA
ATOM     34  H   UNL     1      -4.711  18.924  47.094  1.00  0.00     0.210 HD
ENDBRANCH  14  33
TORSDOF 3
ENDMDL
MODEL 5
REMARK VINA RESULT:    -7.512      1.744      2.557
REMARK INTER + INTRA:          -8.558
REMARK INTER:                  -8.448
REMARK INTRA:                  -0.110
REMARK UNBOUND:                -0.167
REMARK SMILES CC1(C)CC[C@]2(CO)CC=C3[C@](C)(CC[C@@H]4[C@@]5(C)CC[C@H](O)C(C)(C)[C@@H]5CC[C@]34C)[C@@H]2C1
REMARK SMILES IDX 1 1 2 2 4 3 5 4 6 5 9 6 10 7 11 8 29 9 28 10 27 11 26 12
REMARK SMILES IDX 23 13 21 14 20 15 19 16 17 17 16 18 15 19 14 20 12 21 31 22
REMARK SMILES IDX 32 23 13 24 18 25 24 26 25 27 30 28 3 29 7 30 8 31 22 33
REMARK H PARENT 8 32 22 34
REMARK Flexibility Score: inf
ROOT
ATOM      1  C   UNL     1      -3.247  16.674  45.299  1.00  0.00     0.011 C 
ATOM      2  C   UNL     1      -2.965  17.730  46.397  1.00  0.00    -0.035 C 
ATOM      3  C   UNL     1      -1.729  17.267  47.195  1.00  0.00     0.007 C 
ATOM      4  C   UNL     1      -1.191  18.355  48.122  1.00  0.00     0.010 C 
ATOM      5  C   UNL     1      -0.744  19.648  47.387  1.00  0.00     0.001 C 
ATOM      6  C   UNL     1      -0.347  20.674  48.482  1.00  0.00     0.037 C 
ATOM      7  C   UNL     1      -0.609  22.093  48.101  1.00  0.00    -0.026 C 
ATOM      8  C   UNL     1      -1.880  22.443  47.816  1.00  0.00    -0.062 C 
ATOM      9  C   UNL     1      -2.508  23.685  48.523  1.00  0.00    -0.008 C 
ATOM     10  C   UNL     1      -2.041  24.939  47.752  1.00  0.00     0.012 C 
ATOM     11  C   UNL     1      -2.635  26.272  48.249  1.00  0.00     0.006 C 
ATOM     12  C   UNL     1      -4.057  26.184  48.884  1.00  0.00     0.003 C 
ATOM     13  C   UNL     1      -4.794  27.595  49.023  1.00  0.00    -0.006 C 
ATOM     14  C   UNL     1      -6.330  27.422  49.321  1.00  0.00     0.120 C 
ATOM     15  C   UNL     1      -6.624  26.080  49.994  1.00  0.00     0.033 C 
ATOM     16  C   UNL     1      -6.315  24.909  49.053  1.00  0.00     0.010 C 
ATOM     17  C   UNL     1      -4.909  24.982  48.329  1.00  0.00    -0.025 C 
ATOM     18  C   UNL     1      -4.112  23.621  48.644  1.00  0.00     0.005 C 
ATOM     19  C   UNL     1      -4.831  22.329  48.121  1.00  0.00     0.006 C 
ATOM     20  C   UNL     1      -3.932  21.125  47.817  1.00  0.00     0.012 C 
ATOM     21  C   UNL     1      -2.716  21.494  46.958  1.00  0.00    -0.008 C 
ATOM     22  C   UNL     1      -1.888  20.217  46.454  1.00  0.00     0.008 C 
ATOM     23  C   UNL     1      -2.723  19.112  45.702  1.00  0.00     0.011 C 
ATOM     24  C   UNL     1      -3.157  22.274  45.680  1.00  0.00     0.016 C 
ATOM     25  C   UNL     1      -5.178  25.210  46.808  1.00  0.00     0.012 C 
ATOM     26  C   UNL     1      -4.603  28.524  47.789  1.00  0.00     0.014 C 
ATOM     27  C   UNL     1      -4.165  28.351  50.227  1.00  0.00     0.014 C 
ATOM     28  C   UNL     1      -1.918  23.767  49.980  1.00  0.00     0.016 C 
ATOM     29  C   UNL     1      -4.208  17.754  47.317  1.00  0.00     0.011 C 
ENDROOT
BRANCH   5  30
ATOM     30  C   UNL     1       0.558  19.363  46.561  1.00  0.00     0.163 C 
BRANCH  30  31
ATOM     31  O   UNL     1       1.622  18.936  47.373  1.00  0.00    -0.396 OA
ATOM     32  H   UNL     1       2.368  18.676  46.775  1.00  0.00     0.210 HD
ENDBRANCH  30  31
ENDBRANCH   5  30
BRANCH  14  33
ATOM     33  O   UNL     1      -7.106  27.538  48.150  1.00  0.00    -0.393 OA
ATOM     34  H   UNL     1      -7.715  26.753  48.123  1.00  0.00     0.210 HD
ENDBRANCH  14  33
TORSDOF 3
ENDMDL
MODEL 6
REMARK VINA RESULT:    -7.319      5.034      7.975
REMARK INTER + INTRA:          -8.341
REMARK INTER:                  -8.266
REMARK INTRA:                  -0.075
REMARK UNBOUND:                -0.167
REMARK SMILES CC1(C)CC[C@]2(CO)CC=C3[C@](C)(CC[C@@H]4[C@@]5(C)CC[C@H](O)C(C)(C)[C@@H]5CC[C@]34C)[C@@H]2C1
REMARK SMILES IDX 1 1 2 2 4 3 5 4 6 5 9 6 10 7 11 8 29 9 28 10 27 11 26 12
REMARK SMILES IDX 23 13 21 14 20 15 19 16 17 17 16 18 15 19 14 20 12 21 31 22
REMARK SMILES IDX 32 23 13 24 18 25 24 26 25 27 30 28 3 29 7 30 8 31 22 33
REMARK H PARENT 8 32 22 34
REMARK Flexibility Score: inf
ROOT
ATOM      1  C   UNL     1      -5.059  22.514  48.269  1.00  0.00     0.011 C 
ATOM      2  C   UNL     1      -3.703  21.793  48.473  1.00  0.00    -0.035 C 
ATOM      3  C   UNL     1      -3.995  20.334  48.875  1.00  0.00     0.007 C 
ATOM      4  C   UNL     1      -2.746  19.455  48.835  1.00  0.00     0.010 C 
ATOM      5  C   UNL     1      -2.078  19.370  47.436  1.00  0.00     0.001 C 
ATOM      6  C   UNL     1      -0.773  18.547  47.609  1.00  0.00     0.037 C 
ATOM      7  C   UNL     1       0.323  18.952  46.681  1.00  0.00    -0.026 C 
ATOM      8  C   UNL     1       0.766  20.224  46.747  1.00  0.00    -0.062 C 
ATOM      9  C   UNL     1       2.296  20.495  46.887  1.00  0.00    -0.008 C 
ATOM     10  C   UNL     1       2.911  20.407  45.472  1.00  0.00     0.012 C 
ATOM     11  C   UNL     1       4.414  20.737  45.389  1.00  0.00     0.006 C 
ATOM     12  C   UNL     1       4.944  21.751  46.450  1.00  0.00     0.003 C 
ATOM     13  C   UNL     1       6.377  22.363  46.102  1.00  0.00    -0.006 C 
ATOM     14  C   UNL     1       6.702  23.624  46.986  1.00  0.00     0.120 C 
ATOM     15  C   UNL     1       5.930  23.598  48.307  1.00  0.00     0.033 C 
ATOM     16  C   UNL     1       4.419  23.716  48.067  1.00  0.00     0.010 C 
ATOM     17  C   UNL     1       3.838  22.753  46.952  1.00  0.00    -0.025 C 
ATOM     18  C   UNL     1       2.646  21.893  47.602  1.00  0.00     0.005 C 
ATOM     19  C   UNL     1       1.450  22.762  48.128  1.00  0.00     0.006 C 
ATOM     20  C   UNL     1       0.081  22.074  48.181  1.00  0.00     0.012 C 
ATOM     21  C   UNL     1      -0.267  21.343  46.878  1.00  0.00    -0.008 C 
ATOM     22  C   UNL     1      -1.778  20.805  46.841  1.00  0.00     0.008 C 
ATOM     23  C   UNL     1      -2.894  21.877  47.134  1.00  0.00     0.011 C 
ATOM     24  C   UNL     1      -0.099  22.290  45.649  1.00  0.00     0.016 C 
ATOM     25  C   UNL     1       3.383  23.647  45.755  1.00  0.00     0.012 C 
ATOM     26  C   UNL     1       6.557  22.720  44.598  1.00  0.00     0.014 C 
ATOM     27  C   UNL     1       7.451  21.283  46.414  1.00  0.00     0.014 C 
ATOM     28  C   UNL     1       2.919  19.339  47.755  1.00  0.00     0.016 C 
ATOM     29  C   UNL     1      -2.983  22.525  49.630  1.00  0.00     0.011 C 
ENDROOT
BRANCH   5  30
ATOM     30  C   UNL     1      -2.990  18.544  46.464  1.00  0.00     0.163 C 
BRANCH  30  31
ATOM     31  O   UNL     1      -3.221  19.214  45.251  1.00  0.00    -0.396 OA
ATOM     32  H   UNL     1      -2.996  18.587  44.517  1.00  0.00     0.210 HD
ENDBRANCH  30  31
ENDBRANCH   5  30
BRANCH  14  33
ATOM     33  O   UNL     1       6.424  24.826  46.306  1.00  0.00    -0.393 OA
ATOM     34  H   UNL     1       5.592  25.201  46.700  1.00  0.00     0.210 HD
ENDBRANCH  14  33
TORSDOF 3
ENDMDL
MODEL 7
REMARK VINA RESULT:    -7.010      3.339      6.821
REMARK INTER + INTRA:          -7.996
REMARK INTER:                  -7.872
REMARK INTRA:                  -0.124
REMARK UNBOUND:                -0.167
REMARK SMILES CC1(C)CC[C@]2(CO)CC=C3[C@](C)(CC[C@@H]4[C@@]5(C)CC[C@H](O)C(C)(C)[C@@H]5CC[C@]34C)[C@@H]2C1
REMARK SMILES IDX 1 1 2 2 4 3 5 4 6 5 9 6 10 7 11 8 29 9 28 10 27 11 26 12
REMARK SMILES IDX 23 13 21 14 20 15 19 16 17 17 16 18 15 19 14 20 12 21 31 22
REMARK SMILES IDX 32 23 13 24 18 25 24 26 25 27 30 28 3 29 7 30 8 31 22 33
REMARK H PARENT 8 32 22 34
REMARK Flexibility Score: inf
ROOT
ATOM      1  C   UNL     1      -1.353  22.326  48.230  1.00  0.00     0.011 C 
ATOM      2  C   UNL     1      -2.656  23.128  47.990  1.00  0.00    -0.035 C 
ATOM      3  C   UNL     1      -3.833  22.299  48.539  1.00  0.00     0.007 C 
ATOM      4  C   UNL     1      -5.132  23.100  48.608  1.00  0.00     0.010 C 
ATOM      5  C   UNL     1      -5.053  24.354  49.521  1.00  0.00     0.001 C 
ATOM      6  C   UNL     1      -6.404  25.104  49.375  1.00  0.00     0.037 C 
ATOM      7  C   UNL     1      -6.290  26.585  49.519  1.00  0.00    -0.026 C 
ATOM      8  C   UNL     1      -5.494  27.242  48.651  1.00  0.00    -0.062 C 
ATOM      9  C   UNL     1      -6.055  28.479  47.883  1.00  0.00    -0.008 C 
ATOM     10  C   UNL     1      -5.947  29.696  48.828  1.00  0.00     0.012 C 
ATOM     11  C   UNL     1      -6.373  31.043  48.212  1.00  0.00     0.006 C 
ATOM     12  C   UNL     1      -6.161  31.181  46.672  1.00  0.00     0.003 C 
ATOM     13  C   UNL     1      -6.235  32.684  46.139  1.00  0.00    -0.006 C 
ATOM     14  C   UNL     1      -5.665  32.813  44.678  1.00  0.00     0.120 C 
ATOM     15  C   UNL     1      -5.759  31.487  43.920  1.00  0.00     0.033 C 
ATOM     16  C   UNL     1      -4.858  30.421  44.556  1.00  0.00     0.010 C 
ATOM     17  C   UNL     1      -4.986  30.285  46.129  1.00  0.00    -0.025 C 
ATOM     18  C   UNL     1      -5.329  28.752  46.473  1.00  0.00     0.005 C 
ATOM     19  C   UNL     1      -4.227  27.735  46.011  1.00  0.00     0.006 C 
ATOM     20  C   UNL     1      -4.146  26.419  46.793  1.00  0.00     0.012 C 
ATOM     21  C   UNL     1      -4.134  26.630  48.312  1.00  0.00    -0.008 C 
ATOM     22  C   UNL     1      -3.834  25.285  49.133  1.00  0.00     0.008 C 
ATOM     23  C   UNL     1      -2.527  24.508  48.720  1.00  0.00     0.011 C 
ATOM     24  C   UNL     1      -3.035  27.659  48.721  1.00  0.00     0.016 C 
ATOM     25  C   UNL     1      -3.641  30.778  46.751  1.00  0.00     0.012 C 
ATOM     26  C   UNL     1      -5.528  33.713  47.068  1.00  0.00     0.014 C 
ATOM     27  C   UNL     1      -7.731  33.107  46.098  1.00  0.00     0.014 C 
ATOM     28  C   UNL     1      -7.582  28.224  47.598  1.00  0.00     0.016 C 
ATOM     29  C   UNL     1      -2.796  23.295  46.458  1.00  0.00     0.011 C 
ENDROOT
BRANCH   5  30
ATOM     30  C   UNL     1      -4.958  23.910  51.022  1.00  0.00     0.163 C 
BRANCH  30  31
ATOM     31  O   UNL     1      -4.481  24.936  51.853  1.00  0.00    -0.396 OA
ATOM     32  H   UNL     1      -4.926  25.777  51.573  1.00  0.00     0.210 HD
ENDBRANCH  30  31
ENDBRANCH   5  30
BRANCH  14  33
ATOM     33  O   UNL     1      -4.329  33.260  44.675  1.00  0.00    -0.393 OA
ATOM     34  H   UNL     1      -3.935  33.015  45.554  1.00  0.00     0.210 HD
ENDBRANCH  14  33
TORSDOF 3
ENDMDL
MODEL 8
REMARK VINA RESULT:    -6.910      3.387      9.977
REMARK INTER + INTRA:          -7.885
REMARK INTER:                  -7.719
REMARK INTRA:                  -0.166
REMARK UNBOUND:                -0.167
REMARK SMILES CC1(C)CC[C@]2(CO)CC=C3[C@](C)(CC[C@@H]4[C@@]5(C)CC[C@H](O)C(C)(C)[C@@H]5CC[C@]34C)[C@@H]2C1
REMARK SMILES IDX 1 1 2 2 4 3 5 4 6 5 9 6 10 7 11 8 29 9 28 10 27 11 26 12
REMARK SMILES IDX 23 13 21 14 20 15 19 16 17 17 16 18 15 19 14 20 12 21 31 22
REMARK SMILES IDX 32 23 13 24 18 25 24 26 25 27 30 28 3 29 7 30 8 31 22 33
REMARK H PARENT 8 32 22 34
REMARK Flexibility Score: inf
ROOT
ATOM      1  C   UNL     1      -3.792  34.733  49.385  1.00  0.00     0.011 C 
ATOM      2  C   UNL     1      -4.679  33.467  49.273  1.00  0.00    -0.035 C 
ATOM      3  C   UNL     1      -6.099  33.915  48.874  1.00  0.00     0.007 C 
ATOM      4  C   UNL     1      -6.989  32.742  48.467  1.00  0.00     0.010 C 
ATOM      5  C   UNL     1      -6.456  31.936  47.251  1.00  0.00     0.001 C 
ATOM      6  C   UNL     1      -7.409  30.726  47.060  1.00  0.00     0.037 C 
ATOM      7  C   UNL     1      -6.737  29.508  46.519  1.00  0.00    -0.026 C 
ATOM      8  C   UNL     1      -5.727  28.976  47.238  1.00  0.00    -0.062 C 
ATOM      9  C   UNL     1      -5.749  27.453  47.577  1.00  0.00    -0.008 C 
ATOM     10  C   UNL     1      -5.203  26.699  46.344  1.00  0.00     0.012 C 
ATOM     11  C   UNL     1      -5.062  25.174  46.518  1.00  0.00     0.006 C 
ATOM     12  C   UNL     1      -4.774  24.683  47.971  1.00  0.00     0.003 C 
ATOM     13  C   UNL     1      -4.250  23.177  48.054  1.00  0.00    -0.006 C 
ATOM     14  C   UNL     1      -3.637  22.851  49.468  1.00  0.00     0.120 C 
ATOM     15  C   UNL     1      -4.216  23.761  50.554  1.00  0.00     0.033 C 
ATOM     16  C   UNL     1      -3.812  25.223  50.324  1.00  0.00     0.010 C 
ATOM     17  C   UNL     1      -4.022  25.754  48.847  1.00  0.00    -0.025 C 
ATOM     18  C   UNL     1      -4.938  27.073  48.914  1.00  0.00     0.005 C 
ATOM     19  C   UNL     1      -4.302  28.247  49.739  1.00  0.00     0.006 C 
ATOM     20  C   UNL     1      -4.755  29.664  49.366  1.00  0.00     0.012 C 
ATOM     21  C   UNL     1      -4.701  29.926  47.856  1.00  0.00    -0.008 C 
ATOM     22  C   UNL     1      -4.963  31.461  47.473  1.00  0.00     0.008 C 
ATOM     23  C   UNL     1      -4.046  32.515  48.202  1.00  0.00     0.011 C 
ATOM     24  C   UNL     1      -3.301  29.553  47.277  1.00  0.00     0.016 C 
ATOM     25  C   UNL     1      -2.607  26.007  48.236  1.00  0.00     0.012 C 
ATOM     26  C   UNL     1      -3.224  22.809  46.944  1.00  0.00     0.014 C 
ATOM     27  C   UNL     1      -5.466  22.231  47.841  1.00  0.00     0.014 C 
ATOM     28  C   UNL     1      -7.248  27.020  47.782  1.00  0.00     0.016 C 
ATOM     29  C   UNL     1      -4.705  32.820  50.679  1.00  0.00     0.011 C 
ENDROOT
BRANCH   5  30
ATOM     30  C   UNL     1      -6.578  32.801  45.949  1.00  0.00     0.163 C 
BRANCH  30  31
ATOM     31  O   UNL     1      -5.572  32.504  45.016  1.00  0.00    -0.396 OA
ATOM     32  H   UNL     1      -4.766  32.229  45.523  1.00  0.00     0.210 HD
ENDBRANCH  30  31
ENDBRANCH   5  30
BRANCH  14  33
ATOM     33  O   UNL     1      -2.232  22.959  49.467  1.00  0.00    -0.393 OA
ATOM     34  H   UNL     1      -1.950  23.102  48.524  1.00  0.00     0.210 HD
ENDBRANCH  14  33
TORSDOF 3
ENDMDL
MODEL 9
REMARK VINA RESULT:    -6.766      4.239      8.075
REMARK INTER + INTRA:          -7.724
REMARK INTER:                  -7.617
REMARK INTRA:                  -0.107
REMARK UNBOUND:                -0.167
REMARK SMILES CC1(C)CC[C@]2(CO)CC=C3[C@](C)(CC[C@@H]4[C@@]5(C)CC[C@H](O)C(C)(C)[C@@H]5CC[C@]34C)[C@@H]2C1
REMARK SMILES IDX 1 1 2 2 4 3 5 4 6 5 9 6 10 7 11 8 29 9 28 10 27 11 26 12
REMARK SMILES IDX 23 13 21 14 20 15 19 16 17 17 16 18 15 19 14 20 12 21 31 22
REMARK SMILES IDX 32 23 13 24 18 25 24 26 25 27 30 28 3 29 7 30 8 31 22 33
REMARK H PARENT 8 32 22 34
REMARK Flexibility Score: inf
ROOT
ATOM      1  C   UNL     1      -3.999  26.567  51.844  1.00  0.00     0.011 C 
ATOM      2  C   UNL     1      -3.447  25.241  51.265  1.00  0.00    -0.035 C 
ATOM      3  C   UNL     1      -4.616  24.241  51.166  1.00  0.00     0.007 C 
ATOM      4  C   UNL     1      -4.255  22.996  50.358  1.00  0.00     0.010 C 
ATOM      5  C   UNL     1      -3.844  23.293  48.890  1.00  0.00     0.001 C 
ATOM      6  C   UNL     1      -3.398  21.944  48.265  1.00  0.00     0.037 C 
ATOM      7  C   UNL     1      -2.330  22.082  47.231  1.00  0.00    -0.026 C 
ATOM      8  C   UNL     1      -1.159  22.634  47.607  1.00  0.00    -0.062 C 
ATOM      9  C   UNL     1       0.176  21.892  47.282  1.00  0.00    -0.008 C 
ATOM     10  C   UNL     1       0.544  22.226  45.820  1.00  0.00     0.012 C 
ATOM     11  C   UNL     1       1.891  21.652  45.337  1.00  0.00     0.006 C 
ATOM     12  C   UNL     1       2.984  21.474  46.435  1.00  0.00     0.003 C 
ATOM     13  C   UNL     1       4.457  21.261  45.856  1.00  0.00    -0.006 C 
ATOM     14  C   UNL     1       5.553  21.450  46.970  1.00  0.00     0.120 C 
ATOM     15  C   UNL     1       4.988  21.177  48.366  1.00  0.00     0.033 C 
ATOM     16  C   UNL     1       3.922  22.214  48.743  1.00  0.00     0.010 C 
ATOM     17  C   UNL     1       2.823  22.482  47.635  1.00  0.00    -0.025 C 
ATOM     18  C   UNL     1       1.377  22.243  48.294  1.00  0.00     0.005 C 
ATOM     19  C   UNL     1       1.061  23.202  49.496  1.00  0.00     0.006 C 
ATOM     20  C   UNL     1      -0.421  23.482  49.772  1.00  0.00     0.012 C 
ATOM     21  C   UNL     1      -1.197  23.869  48.507  1.00  0.00    -0.008 C 
ATOM     22  C   UNL     1      -2.689  24.372  48.812  1.00  0.00     0.008 C 
ATOM     23  C   UNL     1      -2.818  25.539  49.862  1.00  0.00     0.011 C 
ATOM     24  C   UNL     1      -0.480  25.030  47.749  1.00  0.00     0.016 C 
ATOM     25  C   UNL     1       3.037  23.936  47.107  1.00  0.00     0.012 C 
ATOM     26  C   UNL     1       4.788  22.172  44.639  1.00  0.00     0.014 C 
ATOM     27  C   UNL     1       4.563  19.800  45.336  1.00  0.00     0.014 C 
ATOM     28  C   UNL     1      -0.093  20.344  47.371  1.00  0.00     0.016 C 
ATOM     29  C   UNL     1      -2.394  24.723  52.273  1.00  0.00     0.011 C 
ENDROOT
BRANCH   5  30
ATOM     30  C   UNL     1      -5.099  23.760  48.074  1.00  0.00     0.163 C 
BRANCH  30  31
ATOM     31  O   UNL     1      -5.906  22.682  47.674  1.00  0.00    -0.396 OA
ATOM     32  H   UNL     1      -6.466  22.993  46.918  1.00  0.00     0.210 HD
ENDBRANCH  30  31
ENDBRANCH   5  30
BRANCH  14  33
ATOM     33  O   UNL     1       6.116  22.741  46.937  1.00  0.00    -0.393 OA
ATOM     34  H   UNL     1       6.660  22.845  47.762  1.00  0.00     0.210 HD
ENDBRANCH  14  33
TORSDOF 3
ENDMDL
