MODEL 1
REMARK VINA RESULT:    -5.545      0.000      0.000
REMARK INTER + INTRA:          -6.266
REMARK INTER:                  -6.679
REMARK INTRA:                   0.413
REMARK UNBOUND:                 0.413
REMARK SMILES Oc1cc(O)c2c(c1)O[C@H](c1ccc(O)c(O)c1)[C@@H](O)C2
REMARK SMILES IDX 21 1 19 2 10 3 9 4 7 5 8 6 2 7 3 8 4 9 6 10 20 11 11 13
REMARK SMILES IDX 18 14 12 15 16 16 13 17 14 18 17 19 15 21 5 23 1 25
REMARK H PARENT 20 12 17 20 15 22 5 24 1 26
REMARK Flexibility Score: inf
ROOT
ATOM      1  C   UNL     1       2.535  -8.312   5.874  1.00  0.00     0.079 C 
ATOM      2  C   UNL     1       2.766  -6.790   5.817  1.00  0.00     0.164 C 
ATOM      3  C   UNL     1       3.989  -6.480   4.939  1.00  0.00     0.232 C 
ATOM      4  O   UNL     1       5.132  -7.172   5.441  1.00  0.00    -0.482 OA
ATOM      5  C   UNL     1       5.055  -8.471   5.950  1.00  0.00     0.131 A 
ATOM      6  C   UNL     1       6.238  -9.156   6.247  1.00  0.00     0.093 A 
ATOM      7  C   UNL     1       6.193 -10.460   6.741  1.00  0.00     0.122 A 
ATOM      8  C   UNL     1       4.957 -11.090   6.931  1.00  0.00     0.092 A 
ATOM      9  C   UNL     1       3.763 -10.419   6.639  1.00  0.00     0.126 A 
ATOM     10  C   UNL     1       3.803  -9.081   6.179  1.00  0.00     0.039 A 
ENDROOT
BRANCH   2  11
ATOM     11  O   UNL     1       1.629  -6.157   5.288  1.00  0.00    -0.389 OA
ATOM     12  H   UNL     1       1.903  -5.754   4.422  1.00  0.00     0.211 HD
ENDBRANCH   2  11
BRANCH   3  13
ATOM     13  C   UNL     1       4.270  -4.996   4.899  1.00  0.00    -0.001 A 
ATOM     14  C   UNL     1       3.211  -4.074   4.902  1.00  0.00     0.057 A 
ATOM     15  C   UNL     1       5.592  -4.520   4.908  1.00  0.00     0.012 A 
ATOM     16  C   UNL     1       3.464  -2.697   4.894  1.00  0.00     0.157 A 
ATOM     17  C   UNL     1       5.849  -3.146   4.899  1.00  0.00     0.050 A 
ATOM     18  C   UNL     1       4.789  -2.230   4.891  1.00  0.00     0.157 A 
BRANCH  16  19
ATOM     19  O   UNL     1       2.387  -1.811   4.891  1.00  0.00    -0.504 OA
ATOM     20  H   UNL     1       1.453  -2.101   4.629  1.00  0.00     0.293 HD
ENDBRANCH  16  19
BRANCH  18  21
ATOM     21  O   UNL     1       5.047  -0.861   4.882  1.00  0.00    -0.504 OA
ATOM     22  H   UNL     1       5.871  -0.478   4.431  1.00  0.00     0.293 HD
ENDBRANCH  18  21
ENDBRANCH   3  13
BRANCH   9  23
ATOM     23  O   UNL     1       2.563 -11.115   6.805  1.00  0.00    -0.507 OA
ATOM     24  H   UNL     1       1.937 -11.334   6.042  1.00  0.00     0.293 HD
ENDBRANCH   9  23
BRANCH   7  25
ATOM     25  O   UNL     1       7.381 -11.125   7.033  1.00  0.00    -0.508 OA
ATOM     26  H   UNL     1       7.717 -11.888   6.457  1.00  0.00     0.293 HD
ENDBRANCH   7  25
TORSDOF 6
ENDMDL
MODEL 2
REMARK VINA RESULT:    -4.415      4.910      8.000
REMARK INTER + INTRA:          -4.905
REMARK INTER:                  -5.074
REMARK INTRA:                   0.169
REMARK UNBOUND:                 0.413
REMARK SMILES Oc1cc(O)c2c(c1)O[C@H](c1ccc(O)c(O)c1)[C@@H](O)C2
REMARK SMILES IDX 21 1 19 2 10 3 9 4 7 5 8 6 2 7 3 8 4 9 6 10 20 11 11 13
REMARK SMILES IDX 18 14 12 15 16 16 13 17 14 18 17 19 15 21 5 23 1 25
REMARK H PARENT 20 12 17 20 15 22 5 24 1 26
REMARK Flexibility Score: inf
ROOT
ATOM      1  C   UNL     1       0.318  -2.303   5.212  1.00  0.00     0.079 C 
ATOM      2  C   UNL     1      -0.294  -1.004   5.769  1.00  0.00     0.164 C 
ATOM      3  C   UNL     1       0.297   0.209   5.033  1.00  0.00     0.232 C 
ATOM      4  O   UNL     1       1.719   0.200   5.150  1.00  0.00    -0.482 OA
ATOM      5  C   UNL     1       2.467  -0.980   5.088  1.00  0.00     0.131 A 
ATOM      6  C   UNL     1       3.860  -0.898   5.019  1.00  0.00     0.093 A 
ATOM      7  C   UNL     1       4.632  -2.058   4.940  1.00  0.00     0.122 A 
ATOM      8  C   UNL     1       4.006  -3.310   4.919  1.00  0.00     0.092 A 
ATOM      9  C   UNL     1       2.611  -3.411   4.987  1.00  0.00     0.126 A 
ATOM     10  C   UNL     1       1.827  -2.238   5.111  1.00  0.00     0.039 A 
ENDROOT
BRANCH   2  11
ATOM     11  O   UNL     1      -1.689  -1.027   5.603  1.00  0.00    -0.389 OA
ATOM     12  H   UNL     1      -1.879  -1.673   4.873  1.00  0.00     0.211 HD
ENDBRANCH   2  11
BRANCH   3  13
ATOM     13  C   UNL     1      -0.250   1.504   5.587  1.00  0.00    -0.001 A 
ATOM     14  C   UNL     1       0.619   2.465   6.129  1.00  0.00     0.057 A 
ATOM     15  C   UNL     1      -1.625   1.783   5.524  1.00  0.00     0.012 A 
ATOM     16  C   UNL     1       0.124   3.680   6.619  1.00  0.00     0.157 A 
ATOM     17  C   UNL     1      -2.124   2.994   6.012  1.00  0.00     0.050 A 
ATOM     18  C   UNL     1      -1.255   3.945   6.562  1.00  0.00     0.157 A 
BRANCH  16  19
ATOM     19  O   UNL     1       1.015   4.608   7.155  1.00  0.00    -0.504 OA
ATOM     20  H   UNL     1       1.355   5.398   6.621  1.00  0.00     0.293 HD
ENDBRANCH  16  19
BRANCH  18  21
ATOM     21  O   UNL     1      -1.755   5.151   7.049  1.00  0.00    -0.504 OA
ATOM     22  H   UNL     1      -1.716   6.003   6.500  1.00  0.00     0.293 HD
ENDBRANCH  18  21
ENDBRANCH   3  13
BRANCH   9  23
ATOM     23  O   UNL     1       2.041  -4.684   4.917  1.00  0.00    -0.507 OA
ATOM     24  H   UNL     1       2.582  -5.530   4.803  1.00  0.00     0.293 HD
ENDBRANCH   9  23
BRANCH   7  25
ATOM     25  O   UNL     1       6.019  -1.957   4.875  1.00  0.00    -0.508 OA
ATOM     26  H   UNL     1       6.473  -1.170   4.426  1.00  0.00     0.293 HD
ENDBRANCH   7  25
TORSDOF 6
ENDMDL
MODEL 3
REMARK VINA RESULT:    -3.812      2.358      7.644
REMARK INTER + INTRA:          -4.179
REMARK INTER:                  -4.487
REMARK INTRA:                   0.308
REMARK UNBOUND:                 0.413
REMARK SMILES Oc1cc(O)c2c(c1)O[C@H](c1ccc(O)c(O)c1)[C@@H](O)C2
REMARK SMILES IDX 21 1 19 2 10 3 9 4 7 5 8 6 2 7 3 8 4 9 6 10 20 11 11 13
REMARK SMILES IDX 18 14 12 15 16 16 13 17 14 18 17 19 15 21 5 23 1 25
REMARK H PARENT 20 12 17 20 15 22 5 24 1 26
REMARK Flexibility Score: inf
ROOT
ATOM      1  C   UNL     1       0.211  -2.683   5.216  1.00  0.00     0.079 C 
ATOM      2  C   UNL     1       0.955  -4.007   4.955  1.00  0.00     0.164 C 
ATOM      3  C   UNL     1       2.239  -4.060   5.798  1.00  0.00     0.232 C 
ATOM      4  O   UNL     1       3.056  -2.926   5.508  1.00  0.00    -0.482 OA
ATOM      5  C   UNL     1       2.518  -1.655   5.287  1.00  0.00     0.131 A 
ATOM      6  C   UNL     1       3.381  -0.559   5.196  1.00  0.00     0.093 A 
ATOM      7  C   UNL     1       2.872   0.725   4.993  1.00  0.00     0.122 A 
ATOM      8  C   UNL     1       1.490   0.916   4.889  1.00  0.00     0.092 A 
ATOM      9  C   UNL     1       0.610  -0.170   4.977  1.00  0.00     0.126 A 
ATOM     10  C   UNL     1       1.125  -1.479   5.140  1.00  0.00     0.039 A 
ENDROOT
BRANCH   2  11
ATOM     11  O   UNL     1       0.125  -5.091   5.285  1.00  0.00    -0.389 OA
ATOM     12  H   UNL     1       0.712  -5.792   5.674  1.00  0.00     0.211 HD
ENDBRANCH   2  11
BRANCH   3  13
ATOM     13  C   UNL     1       3.016  -5.328   5.530  1.00  0.00    -0.001 A 
ATOM     14  C   UNL     1       4.403  -5.276   5.313  1.00  0.00     0.057 A 
ATOM     15  C   UNL     1       2.372  -6.576   5.543  1.00  0.00     0.012 A 
ATOM     16  C   UNL     1       5.135  -6.448   5.093  1.00  0.00     0.157 A 
ATOM     17  C   UNL     1       3.099  -7.749   5.322  1.00  0.00     0.050 A 
ATOM     18  C   UNL     1       4.481  -7.692   5.095  1.00  0.00     0.157 A 
BRANCH  16  19
ATOM     19  O   UNL     1       6.509  -6.358   4.875  1.00  0.00    -0.504 OA
ATOM     20  H   UNL     1       6.908  -6.364   3.944  1.00  0.00     0.293 HD
ENDBRANCH  16  19
BRANCH  18  21
ATOM     21  O   UNL     1       5.203  -8.862   4.875  1.00  0.00    -0.504 OA
ATOM     22  H   UNL     1       4.928  -9.531   4.164  1.00  0.00     0.293 HD
ENDBRANCH  18  21
ENDBRANCH   3  13
BRANCH   9  23
ATOM     23  O   UNL     1      -0.761   0.089   4.912  1.00  0.00    -0.507 OA
ATOM     24  H   UNL     1      -1.145   0.989   4.661  1.00  0.00     0.293 HD
ENDBRANCH   9  23
BRANCH   7  25
ATOM     25  O   UNL     1       3.747   1.804   4.903  1.00  0.00    -0.508 OA
ATOM     26  H   UNL     1       4.431   1.995   5.627  1.00  0.00     0.293 HD
ENDBRANCH   7  25
TORSDOF 6
ENDMDL
MODEL 4
REMARK VINA RESULT:    -3.644      6.331     10.917
REMARK INTER + INTRA:          -3.976
REMARK INTER:                  -4.057
REMARK INTRA:                   0.081
REMARK UNBOUND:                 0.413
REMARK SMILES Oc1cc(O)c2c(c1)O[C@H](c1ccc(O)c(O)c1)[C@@H](O)C2
REMARK SMILES IDX 21 1 19 2 10 3 9 4 7 5 8 6 2 7 3 8 4 9 6 10 20 11 11 13
REMARK SMILES IDX 18 14 12 15 16 16 13 17 14 18 17 19 15 21 5 23 1 25
REMARK H PARENT 20 12 17 20 15 22 5 24 1 26
REMARK Flexibility Score: inf
ROOT
ATOM      1  C   UNL     1      -0.175   3.633   6.783  1.00  0.00     0.079 C 
ATOM      2  C   UNL     1       0.865   2.616   6.276  1.00  0.00     0.164 C 
ATOM      3  C   UNL     1       0.337   1.186   6.472  1.00  0.00     0.232 C 
ATOM      4  O   UNL     1       0.013   0.974   7.846  1.00  0.00    -0.482 OA
ATOM      5  C   UNL     1      -0.583   1.963   8.635  1.00  0.00     0.131 A 
ATOM      6  C   UNL     1      -1.044   1.627   9.911  1.00  0.00     0.093 A 
ATOM      7  C   UNL     1      -1.658   2.589  10.715  1.00  0.00     0.122 A 
ATOM      8  C   UNL     1      -1.822   3.894  10.235  1.00  0.00     0.092 A 
ATOM      9  C   UNL     1      -1.367   4.248   8.959  1.00  0.00     0.126 A 
ATOM     10  C   UNL     1      -0.705   3.286   8.158  1.00  0.00     0.039 A 
ENDROOT
BRANCH   2  11
ATOM     11  O   UNL     1       1.127   2.842   4.915  1.00  0.00    -0.389 OA
ATOM     12  H   UNL     1       0.473   3.524   4.608  1.00  0.00     0.211 HD
ENDBRANCH   2  11
BRANCH   3  13
ATOM     13  C   UNL     1       1.355   0.162   6.027  1.00  0.00    -0.001 A 
ATOM     14  C   UNL     1       2.682   0.546   5.774  1.00  0.00     0.057 A 
ATOM     15  C   UNL     1       0.999  -1.192   5.908  1.00  0.00     0.012 A 
ATOM     16  C   UNL     1       3.637  -0.402   5.388  1.00  0.00     0.157 A 
ATOM     17  C   UNL     1       1.950  -2.141   5.522  1.00  0.00     0.050 A 
ATOM     18  C   UNL     1       3.270  -1.752   5.259  1.00  0.00     0.157 A 
BRANCH  16  19
ATOM     19  O   UNL     1       4.944   0.016   5.140  1.00  0.00    -0.504 OA
ATOM     20  H   UNL     1       5.733  -0.615   5.209  1.00  0.00     0.293 HD
ENDBRANCH  16  19
BRANCH  18  21
ATOM     21  O   UNL     1       4.216  -2.700   4.875  1.00  0.00    -0.504 OA
ATOM     22  H   UNL     1       3.976  -3.472   4.262  1.00  0.00     0.293 HD
ENDBRANCH  18  21
ENDBRANCH   3  13
BRANCH   9  23
ATOM     23  O   UNL     1      -1.599   5.552   8.518  1.00  0.00    -0.507 OA
ATOM     24  H   UNL     1      -0.942   6.074   7.954  1.00  0.00     0.293 HD
ENDBRANCH   9  23
BRANCH   7  25
ATOM     25  O   UNL     1      -2.108   2.237  11.984  1.00  0.00    -0.508 OA
ATOM     26  H   UNL     1      -1.718   2.657  12.820  1.00  0.00     0.293 HD
ENDBRANCH   7  25
TORSDOF 6
ENDMDL
MODEL 5
REMARK VINA RESULT:    -3.566      2.290      4.411
REMARK INTER + INTRA:          -3.882
REMARK INTER:                  -4.190
REMARK INTRA:                   0.308
REMARK UNBOUND:                 0.413
REMARK SMILES Oc1cc(O)c2c(c1)O[C@H](c1ccc(O)c(O)c1)[C@@H](O)C2
REMARK SMILES IDX 21 1 19 2 10 3 9 4 7 5 8 6 2 7 3 8 4 9 6 10 20 11 11 13
REMARK SMILES IDX 18 14 12 15 16 16 13 17 14 18 17 19 15 21 5 23 1 25
REMARK H PARENT 20 12 17 20 15 22 5 24 1 26
REMARK Flexibility Score: inf
ROOT
ATOM      1  C   UNL     1       5.057  -4.691   5.171  1.00  0.00     0.079 C 
ATOM      2  C   UNL     1       4.252  -3.403   4.912  1.00  0.00     0.164 C 
ATOM      3  C   UNL     1       2.986  -3.394   5.784  1.00  0.00     0.232 C 
ATOM      4  O   UNL     1       2.212  -4.564   5.525  1.00  0.00    -0.482 OA
ATOM      5  C   UNL     1       2.798  -5.815   5.306  1.00  0.00     0.131 A 
ATOM      6  C   UNL     1       1.980  -6.947   5.248  1.00  0.00     0.093 A 
ATOM      7  C   UNL     1       2.537  -8.210   5.047  1.00  0.00     0.122 A 
ATOM      8  C   UNL     1       3.924  -8.345   4.913  1.00  0.00     0.092 A 
ATOM      9  C   UNL     1       4.759  -7.222   4.969  1.00  0.00     0.126 A 
ATOM     10  C   UNL     1       4.193  -5.934   5.129  1.00  0.00     0.039 A 
ENDROOT
BRANCH   2  11
ATOM     11  O   UNL     1       5.043  -2.281   5.211  1.00  0.00    -0.389 OA
ATOM     12  H   UNL     1       4.641  -1.854   6.012  1.00  0.00     0.211 HD
ENDBRANCH   2  11
BRANCH   3  13
ATOM     13  C   UNL     1       2.150  -2.163   5.520  1.00  0.00    -0.001 A 
ATOM     14  C   UNL     1       0.764  -2.277   5.329  1.00  0.00     0.057 A 
ATOM     15  C   UNL     1       2.740  -0.888   5.511  1.00  0.00     0.012 A 
ATOM     16  C   UNL     1      -0.022  -1.139   5.113  1.00  0.00     0.157 A 
ATOM     17  C   UNL     1       1.959   0.250   5.294  1.00  0.00     0.050 A 
ATOM     18  C   UNL     1       0.578   0.131   5.092  1.00  0.00     0.157 A 
BRANCH  16  19
ATOM     19  O   UNL     1      -1.395  -1.290   4.921  1.00  0.00    -0.504 OA
ATOM     20  H   UNL     1      -1.781  -2.050   4.373  1.00  0.00     0.293 HD
ENDBRANCH  16  19
BRANCH  18  21
ATOM     21  O   UNL     1      -0.199   1.268   4.876  1.00  0.00    -0.504 OA
ATOM     22  H   UNL     1      -0.887   1.578   5.553  1.00  0.00     0.293 HD
ENDBRANCH  18  21
ENDBRANCH   3  13
BRANCH   9  23
ATOM     23  O   UNL     1       6.138  -7.424   4.875  1.00  0.00    -0.507 OA
ATOM     24  H   UNL     1       6.747  -7.482   5.679  1.00  0.00     0.293 HD
ENDBRANCH   9  23
BRANCH   7  25
ATOM     25  O   UNL     1       1.707  -9.326   4.989  1.00  0.00    -0.508 OA
ATOM     26  H   UNL     1       2.005 -10.186   4.543  1.00  0.00     0.293 HD
ENDBRANCH   7  25
TORSDOF 6
ENDMDL
MODEL 6
REMARK VINA RESULT:    -3.348      1.542      2.875
REMARK INTER + INTRA:          -3.620
REMARK INTER:                  -3.902
REMARK INTRA:                   0.282
REMARK UNBOUND:                 0.413
REMARK SMILES Oc1cc(O)c2c(c1)O[C@H](c1ccc(O)c(O)c1)[C@@H](O)C2
REMARK SMILES IDX 21 1 19 2 10 3 9 4 7 5 8 6 2 7 3 8 4 9 6 10 20 11 11 13
REMARK SMILES IDX 18 14 12 15 16 16 13 17 14 18 17 19 15 21 5 23 1 25
REMARK H PARENT 20 12 17 20 15 22 5 24 1 26
REMARK Flexibility Score: inf
ROOT
ATOM      1  C   UNL     1       5.380  -8.166   5.226  1.00  0.00     0.079 C 
ATOM      2  C   UNL     1       5.086  -6.687   4.912  1.00  0.00     0.164 C 
ATOM      3  C   UNL     1       4.100  -6.119   5.945  1.00  0.00     0.232 C 
ATOM      4  O   UNL     1       2.909  -6.905   5.960  1.00  0.00    -0.482 OA
ATOM      5  C   UNL     1       2.930  -8.297   5.832  1.00  0.00     0.131 A 
ATOM      6  C   UNL     1       1.751  -9.017   6.044  1.00  0.00     0.093 A 
ATOM      7  C   UNL     1       1.745 -10.409   5.939  1.00  0.00     0.122 A 
ATOM      8  C   UNL     1       2.930 -11.088   5.630  1.00  0.00     0.092 A 
ATOM      9  C   UNL     1       4.121 -10.383   5.413  1.00  0.00     0.126 A 
ATOM     10  C   UNL     1       4.121  -8.968   5.476  1.00  0.00     0.039 A 
ENDROOT
BRANCH   2  11
ATOM     11  O   UNL     1       6.281  -5.949   4.940  1.00  0.00    -0.389 OA
ATOM     12  H   UNL     1       6.160  -5.185   4.317  1.00  0.00     0.211 HD
ENDBRANCH   2  11
BRANCH   3  13
ATOM     13  C   UNL     1       3.755  -4.680   5.638  1.00  0.00    -0.001 A 
ATOM     14  C   UNL     1       2.414  -4.263   5.617  1.00  0.00     0.057 A 
ATOM     15  C   UNL     1       4.770  -3.735   5.419  1.00  0.00     0.012 A 
ATOM     16  C   UNL     1       2.087  -2.926   5.362  1.00  0.00     0.157 A 
ATOM     17  C   UNL     1       4.448  -2.399   5.163  1.00  0.00     0.050 A 
ATOM     18  C   UNL     1       3.108  -1.989   5.131  1.00  0.00     0.157 A 
BRANCH  16  19
ATOM     19  O   UNL     1       0.746  -2.548   5.343  1.00  0.00    -0.504 OA
ATOM     20  H   UNL     1       0.414  -1.768   4.788  1.00  0.00     0.293 HD
ENDBRANCH  16  19
BRANCH  18  21
ATOM     21  O   UNL     1       2.790  -0.657   4.875  1.00  0.00    -0.504 OA
ATOM     22  H   UNL     1       1.935  -0.397   4.396  1.00  0.00     0.293 HD
ENDBRANCH  18  21
ENDBRANCH   3  13
BRANCH   9  23
ATOM     23  O   UNL     1       5.280 -11.117   5.153  1.00  0.00    -0.507 OA
ATOM     24  H   UNL     1       5.544 -11.942   5.673  1.00  0.00     0.293 HD
ENDBRANCH   9  23
BRANCH   7  25
ATOM     25  O   UNL     1       0.561 -11.109   6.152  1.00  0.00    -0.508 OA
ATOM     26  H   UNL     1       0.544 -11.974   6.680  1.00  0.00     0.293 HD
ENDBRANCH   7  25
TORSDOF 6
ENDMDL
