MODEL 1
REMARK VINA RESULT:    -5.065      0.000      0.000
REMARK INTER + INTRA:          -7.722
REMARK INTER:                  -7.433
REMARK INTRA:                  -0.289
REMARK UNBOUND:                -0.289
REMARK SMILES O=C([O-])CCCCCCCC(=O)[O-]
REMARK SMILES IDX 7 1 6 2 5 3 4 4 2 5 1 6 3 7 8 8 9 9 10 10 11 11 12 12 13 13
REMARK H PARENT
REMARK Flexibility Score: inf
ROOT
ATOM      1  C   UNL     1      37.318  55.673  59.807  1.00  0.00     0.000 C 
ENDROOT
BRANCH   1   2
ATOM      2  C   UNL     1      38.075  54.419  60.272  1.00  0.00     0.000 C 
BRANCH   2   3
ATOM      3  C   UNL     1      39.384  54.755  61.004  1.00  0.00     0.006 C 
BRANCH   3   4
ATOM      4  C   UNL     1      40.604  54.065  60.379  1.00  0.00     0.053 C 
BRANCH   4   5
ATOM      5  C   UNL     1      41.724  55.042  60.209  1.00  0.00     0.041 C 
ATOM      6  O   UNL     1      42.859  54.795  60.695  1.00  0.00    -0.550 OA
ATOM      7  O   UNL     1      41.502  56.248  59.556  1.00  0.00    -0.550 OA
ENDBRANCH   4   5
ENDBRANCH   3   4
ENDBRANCH   2   3
ENDBRANCH   1   2
BRANCH   1   8
ATOM      8  C   UNL     1      36.050  55.295  59.034  1.00  0.00     0.000 C 
BRANCH   8   9
ATOM      9  C   UNL     1      35.862  53.771  58.994  1.00  0.00     0.006 C 
BRANCH   9  10
ATOM     10  C   UNL     1      34.786  53.344  57.987  1.00  0.00     0.053 C 
BRANCH  10  11
ATOM     11  C   UNL     1      34.440  51.893  58.124  1.00  0.00     0.041 C 
ATOM     12  O   UNL     1      35.338  51.016  58.029  1.00  0.00    -0.550 OA
ATOM     13  O   UNL     1      33.130  51.512  58.389  1.00  0.00    -0.550 OA
ENDBRANCH  10  11
ENDBRANCH   9  10
ENDBRANCH   8   9
ENDBRANCH   1   8
TORSDOF 8
ENDMDL
MODEL 2
REMARK VINA RESULT:    -5.039      2.354      3.898
REMARK INTER + INTRA:          -7.684
REMARK INTER:                  -7.267
REMARK INTRA:                  -0.417
REMARK UNBOUND:                -0.289
REMARK SMILES O=C([O-])CCCCCCCC(=O)[O-]
REMARK SMILES IDX 7 1 6 2 5 3 4 4 2 5 1 6 3 7 8 8 9 9 10 10 11 11 12 12 13 13
REMARK H PARENT
REMARK Flexibility Score: inf
ROOT
ATOM      1  C   UNL     1      41.151  54.144  59.989  1.00  0.00     0.000 C 
ENDROOT
BRANCH   1   2
ATOM      2  C   UNL     1      42.406  54.764  60.622  1.00  0.00     0.000 C 
BRANCH   2   3
ATOM      3  C   UNL     1      42.826  56.076  59.940  1.00  0.00     0.006 C 
BRANCH   3   4
ATOM      4  C   UNL     1      41.732  57.150  59.998  1.00  0.00     0.053 C 
BRANCH   4   5
ATOM      5  C   UNL     1      41.374  57.605  58.619  1.00  0.00     0.041 C 
ATOM      6  O   UNL     1      42.221  57.534  57.689  1.00  0.00    -0.550 OA
ATOM      7  O   UNL     1      40.122  58.153  58.369  1.00  0.00    -0.550 OA
ENDBRANCH   4   5
ENDBRANCH   3   4
ENDBRANCH   2   3
ENDBRANCH   1   2
BRANCH   1   8
ATOM      8  C   UNL     1      40.038  53.972  61.028  1.00  0.00     0.000 C 
BRANCH   8   9
ATOM      9  C   UNL     1      38.783  54.762  60.628  1.00  0.00     0.006 C 
BRANCH   9  10
ATOM     10  C   UNL     1      37.610  53.843  60.263  1.00  0.00     0.053 C 
BRANCH  10  11
ATOM     11  C   UNL     1      36.513  54.589  59.566  1.00  0.00     0.041 C 
ATOM     12  O   UNL     1      35.671  53.968  58.866  1.00  0.00    -0.550 OA
ATOM     13  O   UNL     1      36.402  55.965  59.718  1.00  0.00    -0.550 OA
ENDBRANCH  10  11
ENDBRANCH   9  10
ENDBRANCH   8   9
ENDBRANCH   1   8
TORSDOF 8
ENDMDL
MODEL 3
REMARK VINA RESULT:    -4.960      2.689      6.664
REMARK INTER + INTRA:          -7.569
REMARK INTER:                  -7.085
REMARK INTRA:                  -0.484
REMARK UNBOUND:                -0.289
REMARK SMILES O=C([O-])CCCCCCCC(=O)[O-]
REMARK SMILES IDX 7 1 6 2 5 3 4 4 2 5 1 6 3 7 8 8 9 9 10 10 11 11 12 12 13 13
REMARK H PARENT
REMARK Flexibility Score: inf
ROOT
ATOM      1  C   UNL     1      41.463  54.133  59.946  1.00  0.00     0.000 C 
ENDROOT
BRANCH   1   2
ATOM      2  C   UNL     1      40.280  53.925  60.905  1.00  0.00     0.000 C 
BRANCH   2   3
ATOM      3  C   UNL     1      39.139  54.926  60.664  1.00  0.00     0.006 C 
BRANCH   3   4
ATOM      4  C   UNL     1      37.820  54.238  60.286  1.00  0.00     0.053 C 
BRANCH   4   5
ATOM      5  C   UNL     1      36.881  55.220  59.659  1.00  0.00     0.041 C 
ATOM      6  O   UNL     1      37.005  56.452  59.892  1.00  0.00    -0.550 OA
ATOM      7  O   UNL     1      35.839  54.772  58.857  1.00  0.00    -0.550 OA
ENDBRANCH   4   5
ENDBRANCH   3   4
ENDBRANCH   2   3
ENDBRANCH   1   2
BRANCH   1   8
ATOM      8  C   UNL     1      42.616  54.861  60.646  1.00  0.00     0.000 C 
BRANCH   8   9
ATOM      9  C   UNL     1      43.109  56.049  59.806  1.00  0.00     0.006 C 
BRANCH   9  10
ATOM     10  C   UNL     1      42.318  57.331  60.093  1.00  0.00     0.053 C 
BRANCH  10  11
ATOM     11  C   UNL     1      41.482  57.745  58.920  1.00  0.00     0.041 C 
ATOM     12  O   UNL     1      42.030  58.036  57.824  1.00  0.00    -0.550 OA
ATOM     13  O   UNL     1      40.098  57.776  59.027  1.00  0.00    -0.550 OA
ENDBRANCH  10  11
ENDBRANCH   9  10
ENDBRANCH   8   9
ENDBRANCH   1   8
TORSDOF 8
ENDMDL
MODEL 4
REMARK VINA RESULT:    -4.938      2.626      6.544
REMARK INTER + INTRA:          -7.537
REMARK INTER:                  -7.032
REMARK INTRA:                  -0.505
REMARK UNBOUND:                -0.289
REMARK SMILES O=C([O-])CCCCCCCC(=O)[O-]
REMARK SMILES IDX 7 1 6 2 5 3 4 4 2 5 1 6 3 7 8 8 9 9 10 10 11 11 12 12 13 13
REMARK H PARENT
REMARK Flexibility Score: inf
ROOT
ATOM      1  C   UNL     1      42.144  54.790  60.607  1.00  0.00     0.000 C 
ENDROOT
BRANCH   1   2
ATOM      2  C   UNL     1      40.905  54.015  60.133  1.00  0.00     0.000 C 
BRANCH   2   3
ATOM      3  C   UNL     1      39.708  54.171  61.085  1.00  0.00     0.006 C 
BRANCH   3   4
ATOM      4  C   UNL     1      38.470  54.750  60.388  1.00  0.00     0.053 C 
BRANCH   4   5
ATOM      5  C   UNL     1      37.387  53.722  60.311  1.00  0.00     0.041 C 
ATOM      6  O   UNL     1      36.399  53.899  59.550  1.00  0.00    -0.550 OA
ATOM      7  O   UNL     1      37.443  52.590  61.115  1.00  0.00    -0.550 OA
ENDBRANCH   4   5
ENDBRANCH   3   4
ENDBRANCH   2   3
ENDBRANCH   1   2
BRANCH   1   8
ATOM      8  C   UNL     1      42.994  55.247  59.416  1.00  0.00     0.000 C 
BRANCH   8   9
ATOM      9  C   UNL     1      43.046  56.780  59.331  1.00  0.00     0.006 C 
BRANCH   9  10
ATOM     10  C   UNL     1      42.080  57.335  58.277  1.00  0.00     0.053 C 
BRANCH  10  11
ATOM     11  C   UNL     1      40.775  57.754  58.882  1.00  0.00     0.041 C 
ATOM     12  O   UNL     1      39.818  58.107  58.143  1.00  0.00    -0.550 OA
ATOM     13  O   UNL     1      40.604  57.720  60.260  1.00  0.00    -0.550 OA
ENDBRANCH  10  11
ENDBRANCH   9  10
ENDBRANCH   8   9
ENDBRANCH   1   8
TORSDOF 8
ENDMDL
MODEL 5
REMARK VINA RESULT:    -4.912      3.427      4.572
REMARK INTER + INTRA:          -7.498
REMARK INTER:                  -6.900
REMARK INTRA:                  -0.598
REMARK UNBOUND:                -0.289
REMARK SMILES O=C([O-])CCCCCCCC(=O)[O-]
REMARK SMILES IDX 7 1 6 2 5 3 4 4 2 5 1 6 3 7 8 8 9 9 10 10 11 11 12 12 13 13
REMARK H PARENT
REMARK Flexibility Score: inf
ROOT
ATOM      1  C   UNL     1      41.204  54.292  60.000  1.00  0.00     0.000 C 
ENDROOT
BRANCH   1   2
ATOM      2  C   UNL     1      42.554  54.686  60.618  1.00  0.00     0.000 C 
BRANCH   2   3
ATOM      3  C   UNL     1      43.010  56.093  60.197  1.00  0.00     0.006 C 
BRANCH   3   4
ATOM      4  C   UNL     1      41.833  57.032  59.905  1.00  0.00     0.053 C 
BRANCH   4   5
ATOM      5  C   UNL     1      42.045  57.745  58.607  1.00  0.00     0.041 C 
ATOM      6  O   UNL     1      43.152  57.662  58.012  1.00  0.00    -0.550 OA
ATOM      7  O   UNL     1      41.036  58.539  58.076  1.00  0.00    -0.550 OA
ENDBRANCH   4   5
ENDBRANCH   3   4
ENDBRANCH   2   3
ENDBRANCH   1   2
BRANCH   1   8
ATOM      8  C   UNL     1      40.219  53.831  61.081  1.00  0.00     0.000 C 
BRANCH   8   9
ATOM      9  C   UNL     1      38.782  54.244  60.730  1.00  0.00     0.006 C 
BRANCH   9  10
ATOM     10  C   UNL     1      38.551  55.750  60.909  1.00  0.00     0.053 C 
BRANCH  10  11
ATOM     11  C   UNL     1      37.701  56.317  59.813  1.00  0.00     0.041 C 
ATOM     12  O   UNL     1      38.198  57.116  58.975  1.00  0.00    -0.550 OA
ATOM     13  O   UNL     1      36.370  55.938  59.697  1.00  0.00    -0.550 OA
ENDBRANCH  10  11
ENDBRANCH   9  10
ENDBRANCH   8   9
ENDBRANCH   1   8
TORSDOF 8
ENDMDL
MODEL 6
REMARK VINA RESULT:    -4.887      2.506      4.030
REMARK INTER + INTRA:          -7.462
REMARK INTER:                  -7.119
REMARK INTRA:                  -0.343
REMARK UNBOUND:                -0.289
REMARK SMILES O=C([O-])CCCCCCCC(=O)[O-]
REMARK SMILES IDX 7 1 6 2 5 3 4 4 2 5 1 6 3 7 8 8 9 9 10 10 11 11 12 12 13 13
REMARK H PARENT
REMARK Flexibility Score: inf
ROOT
ATOM      1  C   UNL     1      41.237  54.348  59.892  1.00  0.00     0.000 C 
ENDROOT
BRANCH   1   2
ATOM      2  C   UNL     1      42.546  54.769  60.578  1.00  0.00     0.000 C 
BRANCH   2   3
ATOM      3  C   UNL     1      42.995  56.184  60.178  1.00  0.00     0.006 C 
BRANCH   3   4
ATOM      4  C   UNL     1      42.286  56.696  58.918  1.00  0.00     0.053 C 
BRANCH   4   5
ATOM      5  C   UNL     1      43.028  57.858  58.338  1.00  0.00     0.041 C 
ATOM      6  O   UNL     1      44.285  57.897  58.393  1.00  0.00    -0.550 OA
ATOM      7  O   UNL     1      42.329  58.920  57.779  1.00  0.00    -0.550 OA
ENDBRANCH   4   5
ENDBRANCH   3   4
ENDBRANCH   2   3
ENDBRANCH   1   2
BRANCH   1   8
ATOM      8  C   UNL     1      40.154  54.025  60.927  1.00  0.00     0.000 C 
BRANCH   8   9
ATOM      9  C   UNL     1      38.873  54.827  60.653  1.00  0.00     0.006 C 
BRANCH   9  10
ATOM     10  C   UNL     1      37.697  53.925  60.254  1.00  0.00     0.053 C 
BRANCH  10  11
ATOM     11  C   UNL     1      36.598  54.702  59.596  1.00  0.00     0.041 C 
ATOM     12  O   UNL     1      36.583  55.960  59.664  1.00  0.00    -0.550 OA
ATOM     13  O   UNL     1      35.610  54.039  58.878  1.00  0.00    -0.550 OA
ENDBRANCH  10  11
ENDBRANCH   9  10
ENDBRANCH   8   9
ENDBRANCH   1   8
TORSDOF 8
ENDMDL
MODEL 7
REMARK VINA RESULT:    -4.863      2.333      7.065
REMARK INTER + INTRA:          -7.427
REMARK INTER:                  -6.965
REMARK INTRA:                  -0.462
REMARK UNBOUND:                -0.289
REMARK SMILES O=C([O-])CCCCCCCC(=O)[O-]
REMARK SMILES IDX 7 1 6 2 5 3 4 4 2 5 1 6 3 7 8 8 9 9 10 10 11 11 12 12 13 13
REMARK H PARENT
REMARK Flexibility Score: inf
ROOT
ATOM      1  C   UNL     1      40.525  54.499  60.518  1.00  0.00     0.000 C 
ENDROOT
BRANCH   1   2
ATOM      2  C   UNL     1      39.739  55.793  60.259  1.00  0.00     0.000 C 
BRANCH   2   3
ATOM      3  C   UNL     1      38.324  55.756  60.858  1.00  0.00     0.006 C 
BRANCH   3   4
ATOM      4  C   UNL     1      37.227  55.830  59.788  1.00  0.00     0.053 C 
BRANCH   4   5
ATOM      5  C   UNL     1      36.601  54.486  59.589  1.00  0.00     0.041 C 
ATOM      6  O   UNL     1      37.098  53.468  60.140  1.00  0.00    -0.550 OA
ATOM      7  O   UNL     1      35.497  54.348  58.757  1.00  0.00    -0.550 OA
ENDBRANCH   4   5
ENDBRANCH   3   4
ENDBRANCH   2   3
ENDBRANCH   1   2
BRANCH   1   8
ATOM      8  C   UNL     1      41.875  54.522  59.792  1.00  0.00     0.000 C 
BRANCH   8   9
ATOM      9  C   UNL     1      42.939  55.247  60.630  1.00  0.00     0.006 C 
BRANCH   9  10
ATOM     10  C   UNL     1      43.703  56.299  59.815  1.00  0.00     0.053 C 
BRANCH  10  11
ATOM     11  C   UNL     1      42.802  57.400  59.343  1.00  0.00     0.041 C 
ATOM     12  O   UNL     1      42.437  58.304  60.140  1.00  0.00    -0.550 OA
ATOM     13  O   UNL     1      42.394  57.446  58.016  1.00  0.00    -0.550 OA
ENDBRANCH  10  11
ENDBRANCH   9  10
ENDBRANCH   8   9
ENDBRANCH   1   8
TORSDOF 8
ENDMDL
MODEL 8
REMARK VINA RESULT:    -4.856      3.089      5.009
REMARK INTER + INTRA:          -7.416
REMARK INTER:                  -6.970
REMARK INTRA:                  -0.446
REMARK UNBOUND:                -0.289
REMARK SMILES O=C([O-])CCCCCCCC(=O)[O-]
REMARK SMILES IDX 7 1 6 2 5 3 4 4 2 5 1 6 3 7 8 8 9 9 10 10 11 11 12 12 13 13
REMARK H PARENT
REMARK Flexibility Score: inf
ROOT
ATOM      1  C   UNL     1      42.783  54.858  60.654  1.00  0.00     0.000 C 
ENDROOT
BRANCH   1   2
ATOM      2  C   UNL     1      43.407  56.200  60.243  1.00  0.00     0.000 C 
BRANCH   2   3
ATOM      3  C   UNL     1      43.236  56.499  58.745  1.00  0.00     0.006 C 
BRANCH   3   4
ATOM      4  C   UNL     1      43.381  57.991  58.419  1.00  0.00     0.053 C 
BRANCH   4   5
ATOM      5  C   UNL     1      42.048  58.584  58.088  1.00  0.00     0.041 C 
ATOM      6  O   UNL     1      41.976  59.722  57.555  1.00  0.00    -0.550 OA
ATOM      7  O   UNL     1      40.882  57.901  58.413  1.00  0.00    -0.550 OA
ENDBRANCH   4   5
ENDBRANCH   3   4
ENDBRANCH   2   3
ENDBRANCH   1   2
BRANCH   1   8
ATOM      8  C   UNL     1      41.576  54.519  59.773  1.00  0.00     0.000 C 
BRANCH   8   9
ATOM      9  C   UNL     1      40.371  54.095  60.627  1.00  0.00     0.006 C 
BRANCH   9  10
ATOM     10  C   UNL     1      39.256  55.148  60.620  1.00  0.00     0.053 C 
BRANCH  10  11
ATOM     11  C   UNL     1      37.934  54.557  60.234  1.00  0.00     0.041 C 
ATOM     12  O   UNL     1      37.651  53.373  60.557  1.00  0.00    -0.550 OA
ATOM     13  O   UNL     1      37.002  55.325  59.546  1.00  0.00    -0.550 OA
ENDBRANCH  10  11
ENDBRANCH   9  10
ENDBRANCH   8   9
ENDBRANCH   1   8
TORSDOF 8
ENDMDL
MODEL 9
REMARK VINA RESULT:    -4.800      2.296      3.498
REMARK INTER + INTRA:          -7.333
REMARK INTER:                  -6.841
REMARK INTRA:                  -0.492
REMARK UNBOUND:                -0.289
REMARK SMILES O=C([O-])CCCCCCCC(=O)[O-]
REMARK SMILES IDX 7 1 6 2 5 3 4 4 2 5 1 6 3 7 8 8 9 9 10 10 11 11 12 12 13 13
REMARK H PARENT
REMARK Flexibility Score: inf
ROOT
ATOM      1  C   UNL     1      39.605  57.350  59.254  1.00  0.00     0.000 C 
ENDROOT
BRANCH   1   2
ATOM      2  C   UNL     1      41.049  57.872  59.309  1.00  0.00     0.000 C 
BRANCH   2   3
ATOM      3  C   UNL     1      41.974  57.160  58.308  1.00  0.00     0.006 C 
BRANCH   3   4
ATOM      4  C   UNL     1      43.130  56.422  58.995  1.00  0.00     0.053 C 
BRANCH   4   5
ATOM      5  C   UNL     1      42.636  55.166  59.641  1.00  0.00     0.041 C 
ATOM      6  O   UNL     1      42.977  54.883  60.820  1.00  0.00    -0.550 OA
ATOM      7  O   UNL     1      41.839  54.282  58.924  1.00  0.00    -0.550 OA
ENDBRANCH   4   5
ENDBRANCH   3   4
ENDBRANCH   2   3
ENDBRANCH   1   2
BRANCH   1   8
ATOM      8  C   UNL     1      39.308  56.429  60.443  1.00  0.00     0.000 C 
BRANCH   8   9
ATOM      9  C   UNL     1      37.797  56.341  60.709  1.00  0.00     0.006 C 
BRANCH   9  10
ATOM     10  C   UNL     1      37.003  56.012  59.438  1.00  0.00     0.053 C 
BRANCH  10  11
ATOM     11  C   UNL     1      36.510  54.597  59.442  1.00  0.00     0.041 C 
ATOM     12  O   UNL     1      35.507  54.274  58.750  1.00  0.00    -0.550 OA
ATOM     13  O   UNL     1      37.177  53.628  60.181  1.00  0.00    -0.550 OA
ENDBRANCH  10  11
ENDBRANCH   9  10
ENDBRANCH   8   9
ENDBRANCH   1   8
TORSDOF 8
ENDMDL
