MODEL 1
REMARK VINA RESULT:    -4.028      0.000      0.000
REMARK INTER + INTRA:          -4.416
REMARK INTER:                  -4.381
REMARK INTRA:                  -0.035
REMARK UNBOUND:                -0.035
REMARK SMILES O=C([O-])c1ccc(O)cc1
REMARK SMILES IDX 4 1 5 2 10 3 6 4 9 5 7 6 2 7 1 8 3 9 8 10
REMARK H PARENT 8 11
REMARK Flexibility Score: inf
ROOT
ATOM      1  C   UNL     1     -95.038 147.653 240.741  1.00  0.00    -0.003 A 
ATOM      2  C   UNL     1     -94.787 146.322 241.122  1.00  0.00     0.014 A 
ATOM      3  C   UNL     1     -94.262 148.229 239.719  1.00  0.00     0.014 A 
ATOM      4  C   UNL     1     -93.780 145.584 240.492  1.00  0.00     0.047 A 
ATOM      5  C   UNL     1     -93.256 147.487 239.092  1.00  0.00     0.047 A 
ATOM      6  C   UNL     1     -93.013 146.165 239.474  1.00  0.00     0.115 A 
ENDROOT
BRANCH   1   7
ATOM      7  C   UNL     1     -96.102 148.440 241.405  1.00  0.00     0.071 C 
ATOM      8  O   UNL     1     -97.025 147.863 242.038  1.00  0.00    -0.545 OA
ATOM      9  O   UNL     1     -96.097 149.829 241.338  1.00  0.00    -0.545 OA
ENDBRANCH   1   7
BRANCH   6  10
ATOM     10  O   UNL     1     -92.008 145.440 238.840  1.00  0.00    -0.508 OA
ATOM     11  H   UNL     1     -92.184 144.925 237.984  1.00  0.00     0.293 HD
ENDBRANCH   6  10
TORSDOF 2
ENDMDL
MODEL 2
REMARK VINA RESULT:    -4.025      0.058      1.533
REMARK INTER + INTRA:          -4.412
REMARK INTER:                  -4.378
REMARK INTRA:                  -0.034
REMARK UNBOUND:                -0.035
REMARK SMILES O=C([O-])c1ccc(O)cc1
REMARK SMILES IDX 4 1 5 2 10 3 6 4 9 5 7 6 2 7 1 8 3 9 8 10
REMARK H PARENT 8 11
REMARK Flexibility Score: inf
ROOT
ATOM      1  C   UNL     1     -95.020 147.678 240.702  1.00  0.00    -0.003 A 
ATOM      2  C   UNL     1     -94.275 148.234 239.645  1.00  0.00     0.014 A 
ATOM      3  C   UNL     1     -94.743 146.362 241.114  1.00  0.00     0.014 A 
ATOM      4  C   UNL     1     -93.275 147.486 239.015  1.00  0.00     0.047 A 
ATOM      5  C   UNL     1     -93.743 145.618 240.481  1.00  0.00     0.047 A 
ATOM      6  C   UNL     1     -93.006 146.176 239.433  1.00  0.00     0.115 A 
ENDROOT
BRANCH   1   7
ATOM      7  C   UNL     1     -96.079 148.464 241.373  1.00  0.00     0.071 C 
ATOM      8  O   UNL     1     -97.024 147.885 241.973  1.00  0.00    -0.545 OA
ATOM      9  O   UNL     1     -96.047 149.854 241.351  1.00  0.00    -0.545 OA
ENDBRANCH   1   7
BRANCH   6  10
ATOM     10  O   UNL     1     -92.013 145.423 238.812  1.00  0.00    -0.508 OA
ATOM     11  H   UNL     1     -91.548 144.660 239.291  1.00  0.00     0.293 HD
ENDBRANCH   6  10
TORSDOF 2
ENDMDL
MODEL 3
REMARK VINA RESULT:    -3.721      2.006      3.022
REMARK INTER + INTRA:          -4.082
REMARK INTER:                  -4.052
REMARK INTRA:                  -0.030
REMARK UNBOUND:                -0.035
REMARK SMILES O=C([O-])c1ccc(O)cc1
REMARK SMILES IDX 4 1 5 2 10 3 6 4 9 5 7 6 2 7 1 8 3 9 8 10
REMARK H PARENT 8 11
REMARK Flexibility Score: inf
ROOT
ATOM      1  C   UNL     1     -96.776 148.885 241.654  1.00  0.00    -0.003 A 
ATOM      2  C   UNL     1     -95.588 149.183 240.961  1.00  0.00     0.014 A 
ATOM      3  C   UNL     1     -96.974 147.580 242.138  1.00  0.00     0.014 A 
ATOM      4  C   UNL     1     -94.620 148.194 240.758  1.00  0.00     0.047 A 
ATOM      5  C   UNL     1     -96.004 146.593 241.933  1.00  0.00     0.047 A 
ATOM      6  C   UNL     1     -94.826 146.896 241.245  1.00  0.00     0.115 A 
ENDROOT
BRANCH   1   7
ATOM      7  C   UNL     1     -97.803 149.927 241.872  1.00  0.00     0.071 C 
ATOM      8  O   UNL     1     -98.227 150.621 240.910  1.00  0.00    -0.545 OA
ATOM      9  O   UNL     1     -98.318 150.154 243.145  1.00  0.00    -0.545 OA
ENDBRANCH   1   7
BRANCH   6  10
ATOM     10  O   UNL     1     -93.869 145.904 241.048  1.00  0.00    -0.508 OA
ATOM     11  H   UNL     1     -93.840 145.073 241.628  1.00  0.00     0.293 HD
ENDBRANCH   6  10
TORSDOF 2
ENDMDL
MODEL 4
REMARK VINA RESULT:    -3.695      1.156      4.435
REMARK INTER + INTRA:          -4.054
REMARK INTER:                  -4.024
REMARK INTRA:                  -0.030
REMARK UNBOUND:                -0.035
REMARK SMILES O=C([O-])c1ccc(O)cc1
REMARK SMILES IDX 4 1 5 2 10 3 6 4 9 5 7 6 2 7 1 8 3 9 8 10
REMARK H PARENT 8 11
REMARK Flexibility Score: inf
ROOT
ATOM      1  C   UNL     1     -93.084 146.515 238.877  1.00  0.00    -0.003 A 
ATOM      2  C   UNL     1     -93.440 145.827 240.052  1.00  0.00     0.014 A 
ATOM      3  C   UNL     1     -93.679 147.761 238.610  1.00  0.00     0.014 A 
ATOM      4  C   UNL     1     -94.372 146.376 240.939  1.00  0.00     0.047 A 
ATOM      5  C   UNL     1     -94.610 148.307 239.499  1.00  0.00     0.047 A 
ATOM      6  C   UNL     1     -94.959 147.619 240.664  1.00  0.00     0.115 A 
ENDROOT
BRANCH   1   7
ATOM      7  C   UNL     1     -92.099 145.940 237.935  1.00  0.00     0.071 C 
ATOM      8  O   UNL     1     -90.984 145.524 238.347  1.00  0.00    -0.545 OA
ATOM      9  O   UNL     1     -92.392 145.849 236.578  1.00  0.00    -0.545 OA
ENDBRANCH   1   7
BRANCH   6  10
ATOM     10  O   UNL     1     -95.887 148.174 241.540  1.00  0.00    -0.508 OA
ATOM     11  H   UNL     1     -96.675 147.638 241.887  1.00  0.00     0.293 HD
ENDBRANCH   6  10
TORSDOF 2
ENDMDL
MODEL 5
REMARK VINA RESULT:    -3.695      1.765      4.423
REMARK INTER + INTRA:          -4.054
REMARK INTER:                  -4.018
REMARK INTRA:                  -0.036
REMARK UNBOUND:                -0.035
REMARK SMILES O=C([O-])c1ccc(O)cc1
REMARK SMILES IDX 4 1 5 2 10 3 6 4 9 5 7 6 2 7 1 8 3 9 8 10
REMARK H PARENT 8 11
REMARK Flexibility Score: inf
ROOT
ATOM      1  C   UNL     1     -95.246 147.612 240.990  1.00  0.00    -0.003 A 
ATOM      2  C   UNL     1     -96.210 147.087 241.871  1.00  0.00     0.014 A 
ATOM      3  C   UNL     1     -95.254 148.990 240.712  1.00  0.00     0.014 A 
ATOM      4  C   UNL     1     -97.161 147.926 242.460  1.00  0.00     0.047 A 
ATOM      5  C   UNL     1     -96.206 149.826 241.304  1.00  0.00     0.047 A 
ATOM      6  C   UNL     1     -97.160 149.299 242.178  1.00  0.00     0.115 A 
ENDROOT
BRANCH   1   7
ATOM      7  C   UNL     1     -94.238 146.729 240.363  1.00  0.00     0.071 C 
ATOM      8  O   UNL     1     -94.157 145.515 240.688  1.00  0.00    -0.545 OA
ATOM      9  O   UNL     1     -93.364 147.228 239.402  1.00  0.00    -0.545 OA
ENDBRANCH   1   7
BRANCH   6  10
ATOM     10  O   UNL     1     -98.102 150.143 242.759  1.00  0.00    -0.508 OA
ATOM     11  H   UNL     1     -98.307 151.057 242.370  1.00  0.00     0.293 HD
ENDBRANCH   6  10
TORSDOF 2
ENDMDL
MODEL 6
REMARK VINA RESULT:    -3.685      1.594      4.430
REMARK INTER + INTRA:          -4.043
REMARK INTER:                  -4.008
REMARK INTRA:                  -0.035
REMARK UNBOUND:                -0.035
REMARK SMILES O=C([O-])c1ccc(O)cc1
REMARK SMILES IDX 4 1 5 2 10 3 6 4 9 5 7 6 2 7 1 8 3 9 8 10
REMARK H PARENT 8 11
REMARK Flexibility Score: inf
ROOT
ATOM      1  C   UNL     1     -95.009 147.444 240.849  1.00  0.00    -0.003 A 
ATOM      2  C   UNL     1     -96.019 146.930 241.684  1.00  0.00     0.014 A 
ATOM      3  C   UNL     1     -94.959 148.830 240.613  1.00  0.00     0.014 A 
ATOM      4  C   UNL     1     -96.957 147.787 242.270  1.00  0.00     0.047 A 
ATOM      5  C   UNL     1     -95.898 149.683 241.201  1.00  0.00     0.047 A 
ATOM      6  C   UNL     1     -96.897 149.166 242.030  1.00  0.00     0.115 A 
ENDROOT
BRANCH   1   7
ATOM      7  C   UNL     1     -94.015 146.543 240.226  1.00  0.00     0.071 C 
ATOM      8  O   UNL     1     -93.276 146.952 239.291  1.00  0.00    -0.545 OA
ATOM      9  O   UNL     1     -93.879 145.231 240.666  1.00  0.00    -0.545 OA
ENDBRANCH   1   7
BRANCH   6  10
ATOM     10  O   UNL     1     -97.826 150.027 242.608  1.00  0.00    -0.508 OA
ATOM     11  H   UNL     1     -98.807 149.779 242.680  1.00  0.00     0.293 HD
ENDBRANCH   6  10
TORSDOF 2
ENDMDL
MODEL 7
REMARK VINA RESULT:    -3.672      2.776      3.474
REMARK INTER + INTRA:          -4.029
REMARK INTER:                  -4.000
REMARK INTRA:                  -0.028
REMARK UNBOUND:                -0.035
REMARK SMILES O=C([O-])c1ccc(O)cc1
REMARK SMILES IDX 4 1 5 2 10 3 6 4 9 5 7 6 2 7 1 8 3 9 8 10
REMARK H PARENT 8 11
REMARK Flexibility Score: inf
ROOT
ATOM      1  C   UNL     1     -94.682 148.159 237.459  1.00  0.00    -0.003 A 
ATOM      2  C   UNL     1     -94.139 147.141 236.654  1.00  0.00     0.014 A 
ATOM      3  C   UNL     1     -94.267 148.265 238.799  1.00  0.00     0.014 A 
ATOM      4  C   UNL     1     -93.200 146.248 237.181  1.00  0.00     0.047 A 
ATOM      5  C   UNL     1     -93.328 147.371 239.322  1.00  0.00     0.047 A 
ATOM      6  C   UNL     1     -92.791 146.362 238.517  1.00  0.00     0.115 A 
ENDROOT
BRANCH   1   7
ATOM      7  C   UNL     1     -95.676 149.107 236.908  1.00  0.00     0.071 C 
ATOM      8  O   UNL     1     -96.854 149.131 237.354  1.00  0.00    -0.545 OA
ATOM      9  O   UNL     1     -95.323 149.985 235.890  1.00  0.00    -0.545 OA
ENDBRANCH   1   7
BRANCH   6  10
ATOM     10  O   UNL     1     -91.857 145.478 239.051  1.00  0.00    -0.508 OA
ATOM     11  H   UNL     1     -92.127 144.559 239.383  1.00  0.00     0.293 HD
ENDBRANCH   6  10
TORSDOF 2
ENDMDL
MODEL 8
REMARK VINA RESULT:    -3.624      1.722      4.748
REMARK INTER + INTRA:          -3.977
REMARK INTER:                  -3.941
REMARK INTRA:                  -0.035
REMARK UNBOUND:                -0.035
REMARK SMILES O=C([O-])c1ccc(O)cc1
REMARK SMILES IDX 4 1 5 2 10 3 6 4 9 5 7 6 2 7 1 8 3 9 8 10
REMARK H PARENT 8 11
REMARK Flexibility Score: inf
ROOT
ATOM      1  C   UNL     1     -95.125 147.820 240.806  1.00  0.00    -0.003 A 
ATOM      2  C   UNL     1     -95.358 149.207 240.743  1.00  0.00     0.014 A 
ATOM      3  C   UNL     1     -95.960 147.024 241.610  1.00  0.00     0.014 A 
ATOM      4  C   UNL     1     -96.404 149.782 241.472  1.00  0.00     0.047 A 
ATOM      5  C   UNL     1     -97.006 147.603 242.336  1.00  0.00     0.047 A 
ATOM      6  C   UNL     1     -97.232 148.980 242.269  1.00  0.00     0.115 A 
ENDROOT
BRANCH   1   7
ATOM      7  C   UNL     1     -94.020 147.206 240.038  1.00  0.00     0.071 C 
ATOM      8  O   UNL     1     -93.463 147.835 239.100  1.00  0.00    -0.545 OA
ATOM      9  O   UNL     1     -93.579 145.922 240.343  1.00  0.00    -0.545 OA
ENDBRANCH   1   7
BRANCH   6  10
ATOM     10  O   UNL     1     -98.276 149.543 242.998  1.00  0.00    -0.508 OA
ATOM     11  H   UNL     1     -98.573 150.500 242.847  1.00  0.00     0.293 HD
ENDBRANCH   6  10
TORSDOF 2
ENDMDL
MODEL 9
REMARK VINA RESULT:    -3.462      2.507      3.155
REMARK INTER + INTRA:          -3.801
REMARK INTER:                  -3.774
REMARK INTRA:                  -0.027
REMARK UNBOUND:                -0.035
REMARK SMILES O=C([O-])c1ccc(O)cc1
REMARK SMILES IDX 4 1 5 2 10 3 6 4 9 5 7 6 2 7 1 8 3 9 8 10
REMARK H PARENT 8 11
REMARK Flexibility Score: inf
ROOT
ATOM      1  C   UNL     1     -97.310 149.056 242.249  1.00  0.00    -0.003 A 
ATOM      2  C   UNL     1     -97.123 147.676 242.452  1.00  0.00     0.014 A 
ATOM      3  C   UNL     1     -96.417 149.750 241.414  1.00  0.00     0.014 A 
ATOM      4  C   UNL     1     -96.063 147.007 241.831  1.00  0.00     0.047 A 
ATOM      5  C   UNL     1     -95.358 149.077 240.795  1.00  0.00     0.047 A 
ATOM      6  C   UNL     1     -95.179 147.707 241.000  1.00  0.00     0.115 A 
ENDROOT
BRANCH   1   7
ATOM      7  C   UNL     1     -98.429 149.769 242.904  1.00  0.00     0.071 C 
ATOM      8  O   UNL     1     -98.346 150.124 244.109  1.00  0.00    -0.545 OA
ATOM      9  O   UNL     1     -99.591 150.059 242.195  1.00  0.00    -0.545 OA
ENDBRANCH   1   7
BRANCH   6  10
ATOM     10  O   UNL     1     -94.120 147.051 240.378  1.00  0.00    -0.508 OA
ATOM     11  H   UNL     1     -94.083 146.941 239.370  1.00  0.00     0.293 HD
ENDBRANCH   6  10
TORSDOF 2
ENDMDL
