MODEL 1
REMARK VINA RESULT:    -2.438      0.000      0.000
REMARK INTER + INTRA:          -5.937
REMARK INTER:                  -4.575
REMARK INTRA:                  -1.361
REMARK UNBOUND:                -1.361
REMARK SMILES O=C([O-])CCCCCCCCCCCCCCC(=O)[O-]
REMARK SMILES IDX 10 1 9 2 8 3 7 4 6 5 5 6 4 7 2 8 1 9 3 10 11 11 12 12 13 13
REMARK SMILES IDX 14 14 15 15 16 16 17 17 18 18 19 19 20 20
REMARK H PARENT
REMARK Flexibility Score: inf
ROOT
ATOM      1  C   UNL     1       4.280 -34.544  22.807  1.00  0.00     0.000 C 
ENDROOT
BRANCH   1   2
ATOM      2  C   UNL     1       5.764 -34.316  23.133  1.00  0.00     0.000 C 
BRANCH   2   3
ATOM      3  C   UNL     1       6.124 -34.920  24.496  1.00  0.00     0.000 C 
BRANCH   3   4
ATOM      4  C   UNL     1       5.115 -35.999  24.906  1.00  0.00     0.000 C 
BRANCH   4   5
ATOM      5  C   UNL     1       5.762 -37.392  24.891  1.00  0.00     0.000 C 
BRANCH   5   6
ATOM      6  C   UNL     1       5.698 -38.059  23.508  1.00  0.00     0.006 C 
BRANCH   6   7
ATOM      7  C   UNL     1       5.325 -39.546  23.586  1.00  0.00     0.053 C 
BRANCH   7   8
ATOM      8  C   UNL     1       5.836 -40.276  22.385  1.00  0.00     0.041 C 
ATOM      9  O   UNL     1       5.987 -39.669  21.292  1.00  0.00    -0.550 OA
ATOM     10  O   UNL     1       6.101 -41.637  22.458  1.00  0.00    -0.550 OA
ENDBRANCH   7   8
ENDBRANCH   6   7
ENDBRANCH   5   6
ENDBRANCH   4   5
ENDBRANCH   3   4
ENDBRANCH   2   3
ENDBRANCH   1   2
BRANCH   1  11
ATOM     11  C   UNL     1       4.071 -35.238  21.451  1.00  0.00     0.000 C 
BRANCH  11  12
ATOM     12  C   UNL     1       5.356 -35.896  20.919  1.00  0.00     0.000 C 
BRANCH  12  13
ATOM     13  C   UNL     1       5.131 -36.643  19.593  1.00  0.00     0.000 C 
BRANCH  13  14
ATOM     14  C   UNL     1       3.712 -37.227  19.478  1.00  0.00     0.000 C 
BRANCH  14  15
ATOM     15  C   UNL     1       3.369 -37.670  18.046  1.00  0.00     0.000 C 
BRANCH  15  16
ATOM     16  C   UNL     1       2.534 -36.624  17.286  1.00  0.00     0.006 C 
BRANCH  16  17
ATOM     17  C   UNL     1       3.294 -36.039  16.086  1.00  0.00     0.053 C 
BRANCH  17  18
ATOM     18  C   UNL     1       3.094 -36.858  14.847  1.00  0.00     0.041 C 
ATOM     19  O   UNL     1       2.136 -36.605  14.069  1.00  0.00    -0.550 OA
ATOM     20  O   UNL     1       3.982 -37.879  14.536  1.00  0.00    -0.550 OA
ENDBRANCH  17  18
ENDBRANCH  16  17
ENDBRANCH  15  16
ENDBRANCH  14  15
ENDBRANCH  13  14
ENDBRANCH  12  13
ENDBRANCH  11  12
ENDBRANCH   1  11
TORSDOF 15
ENDMDL
MODEL 2
REMARK VINA RESULT:    -2.409      0.981      7.348
REMARK INTER + INTRA:          -5.882
REMARK INTER:                  -5.020
REMARK INTRA:                  -0.862
REMARK UNBOUND:                -1.361
REMARK SMILES O=C([O-])CCCCCCCCCCCCCCC(=O)[O-]
REMARK SMILES IDX 10 1 9 2 8 3 7 4 6 5 5 6 4 7 2 8 1 9 3 10 11 11 12 12 13 13
REMARK SMILES IDX 14 14 15 15 16 16 17 17 18 18 19 19 20 20
REMARK H PARENT
REMARK Flexibility Score: inf
ROOT
ATOM      1  C   UNL     1       4.747 -36.025  20.752  1.00  0.00     0.000 C 
ENDROOT
BRANCH   1   2
ATOM      2  C   UNL     1       4.856 -37.287  19.883  1.00  0.00     0.000 C 
BRANCH   2   3
ATOM      3  C   UNL     1       3.539 -37.560  19.146  1.00  0.00     0.000 C 
BRANCH   3   4
ATOM      4  C   UNL     1       3.376 -36.626  17.941  1.00  0.00     0.000 C 
BRANCH   4   5
ATOM      5  C   UNL     1       2.180 -37.049  17.075  1.00  0.00     0.000 C 
BRANCH   5   6
ATOM      6  C   UNL     1       1.970 -36.126  15.864  1.00  0.00     0.006 C 
BRANCH   6   7
ATOM      7  C   UNL     1       2.247 -36.829  14.529  1.00  0.00     0.053 C 
BRANCH   7   8
ATOM      8  C   UNL     1       3.670 -37.286  14.466  1.00  0.00     0.041 C 
ATOM      9  O   UNL     1       4.551 -36.544  13.957  1.00  0.00    -0.550 OA
ATOM     10  O   UNL     1       4.016 -38.551  14.924  1.00  0.00    -0.550 OA
ENDBRANCH   7   8
ENDBRANCH   6   7
ENDBRANCH   5   6
ENDBRANCH   4   5
ENDBRANCH   3   4
ENDBRANCH   2   3
ENDBRANCH   1   2
BRANCH   1  11
ATOM     11  C   UNL     1       6.113 -35.377  21.031  1.00  0.00     0.000 C 
BRANCH  11  12
ATOM     12  C   UNL     1       6.124 -34.556  22.332  1.00  0.00     0.000 C 
BRANCH  12  13
ATOM     13  C   UNL     1       5.167 -35.123  23.396  1.00  0.00     0.000 C 
BRANCH  13  14
ATOM     14  C   UNL     1       5.904 -35.583  24.666  1.00  0.00     0.000 C 
BRANCH  14  15
ATOM     15  C   UNL     1       5.909 -37.113  24.825  1.00  0.00     0.000 C 
BRANCH  15  16
ATOM     16  C   UNL     1       5.942 -37.849  23.473  1.00  0.00     0.006 C 
BRANCH  16  17
ATOM     17  C   UNL     1       5.043 -39.093  23.471  1.00  0.00     0.053 C 
BRANCH  17  18
ATOM     18  C   UNL     1       5.717 -40.268  22.830  1.00  0.00     0.041 C 
ATOM     19  O   UNL     1       6.125 -40.193  21.641  1.00  0.00    -0.550 OA
ATOM     20  O   UNL     1       5.921 -41.435  23.555  1.00  0.00    -0.550 OA
ENDBRANCH  17  18
ENDBRANCH  16  17
ENDBRANCH  15  16
ENDBRANCH  14  15
ENDBRANCH  13  14
ENDBRANCH  12  13
ENDBRANCH  11  12
ENDBRANCH   1  11
TORSDOF 15
ENDMDL
MODEL 3
REMARK VINA RESULT:    -1.496      1.303      1.913
REMARK INTER + INTRA:          -4.169
REMARK INTER:                  -3.260
REMARK INTRA:                  -0.909
REMARK UNBOUND:                -1.361
REMARK SMILES O=C([O-])CCCCCCCCCCCCCCC(=O)[O-]
REMARK SMILES IDX 10 1 9 2 8 3 7 4 6 5 5 6 4 7 2 8 1 9 3 10 11 11 12 12 13 13
REMARK SMILES IDX 14 14 15 15 16 16 17 17 18 18 19 19 20 20
REMARK H PARENT
REMARK Flexibility Score: inf
ROOT
ATOM      1  C   UNL     1       5.089 -34.917  23.072  1.00  0.00     0.000 C 
ENDROOT
BRANCH   1   2
ATOM      2  C   UNL     1       5.894 -35.455  24.265  1.00  0.00     0.000 C 
BRANCH   2   3
ATOM      3  C   UNL     1       5.211 -36.683  24.879  1.00  0.00     0.000 C 
BRANCH   3   4
ATOM      4  C   UNL     1       5.869 -37.980  24.395  1.00  0.00     0.000 C 
BRANCH   4   5
ATOM      5  C   UNL     1       5.332 -38.387  23.015  1.00  0.00     0.000 C 
BRANCH   5   6
ATOM      6  C   UNL     1       5.454 -39.897  22.753  1.00  0.00     0.006 C 
BRANCH   6   7
ATOM      7  C   UNL     1       5.769 -40.694  24.026  1.00  0.00     0.053 C 
BRANCH   7   8
ATOM      8  C   UNL     1       5.996 -42.135  23.696  1.00  0.00     0.041 C 
ATOM      9  O   UNL     1       6.087 -42.503  22.495  1.00  0.00    -0.550 OA
ATOM     10  O   UNL     1       6.058 -43.080  24.712  1.00  0.00    -0.550 OA
ENDBRANCH   7   8
ENDBRANCH   6   7
ENDBRANCH   5   6
ENDBRANCH   4   5
ENDBRANCH   3   4
ENDBRANCH   2   3
ENDBRANCH   1   2
BRANCH   1  11
ATOM     11  C   UNL     1       5.961 -34.668  21.831  1.00  0.00     0.000 C 
BRANCH  11  12
ATOM     12  C   UNL     1       5.655 -35.648  20.686  1.00  0.00     0.000 C 
BRANCH  12  13
ATOM     13  C   UNL     1       5.706 -34.976  19.303  1.00  0.00     0.000 C 
BRANCH  13  14
ATOM     14  C   UNL     1       4.439 -35.242  18.471  1.00  0.00     0.000 C 
BRANCH  14  15
ATOM     15  C   UNL     1       3.845 -36.637  18.730  1.00  0.00     0.000 C 
BRANCH  15  16
ATOM     16  C   UNL     1       2.815 -37.050  17.664  1.00  0.00     0.006 C 
BRANCH  16  17
ATOM     17  C   UNL     1       3.466 -37.288  16.294  1.00  0.00     0.053 C 
BRANCH  17  18
ATOM     18  C   UNL     1       2.689 -36.641  15.187  1.00  0.00     0.041 C 
ATOM     19  O   UNL     1       3.074 -36.754  13.994  1.00  0.00    -0.550 OA
ATOM     20  O   UNL     1       1.526 -35.938  15.471  1.00  0.00    -0.550 OA
ENDBRANCH  17  18
ENDBRANCH  16  17
ENDBRANCH  15  16
ENDBRANCH  14  15
ENDBRANCH  13  14
ENDBRANCH  12  13
ENDBRANCH  11  12
ENDBRANCH   1  11
TORSDOF 15
ENDMDL
MODEL 4
REMARK VINA RESULT:    -1.312      3.458      5.789
REMARK INTER + INTRA:          -3.825
REMARK INTER:                  -2.840
REMARK INTRA:                  -0.985
REMARK UNBOUND:                -1.361
REMARK SMILES O=C([O-])CCCCCCCCCCCCCCC(=O)[O-]
REMARK SMILES IDX 10 1 9 2 8 3 7 4 6 5 5 6 4 7 2 8 1 9 3 10 11 11 12 12 13 13
REMARK SMILES IDX 14 14 15 15 16 16 17 17 18 18 19 19 20 20
REMARK H PARENT
REMARK Flexibility Score: inf
ROOT
ATOM      1  C   UNL     1       1.517 -36.765  17.390  1.00  0.00     0.000 C 
ENDROOT
BRANCH   1   2
ATOM      2  C   UNL     1       2.319 -37.882  18.075  1.00  0.00     0.000 C 
BRANCH   2   3
ATOM      3  C   UNL     1       2.033 -37.918  19.582  1.00  0.00     0.000 C 
BRANCH   3   4
ATOM      4  C   UNL     1       3.248 -37.441  20.386  1.00  0.00     0.000 C 
BRANCH   4   5
ATOM      5  C   UNL     1       4.504 -38.243  20.012  1.00  0.00     0.000 C 
BRANCH   5   6
ATOM      6  C   UNL     1       5.395 -38.548  21.225  1.00  0.00     0.006 C 
BRANCH   6   7
ATOM      7  C   UNL     1       6.037 -39.940  21.152  1.00  0.00     0.053 C 
BRANCH   7   8
ATOM      8  C   UNL     1       5.871 -40.660  22.453  1.00  0.00     0.041 C 
ATOM      9  O   UNL     1       6.105 -41.895  22.526  1.00  0.00    -0.550 OA
ATOM     10  O   UNL     1       5.411 -39.979  23.572  1.00  0.00    -0.550 OA
ENDBRANCH   7   8
ENDBRANCH   6   7
ENDBRANCH   5   6
ENDBRANCH   4   5
ENDBRANCH   3   4
ENDBRANCH   2   3
ENDBRANCH   1   2
BRANCH   1  11
ATOM     11  C   UNL     1       2.369 -35.936  16.415  1.00  0.00     0.000 C 
BRANCH  11  12
ATOM     12  C   UNL     1       3.864 -35.950  16.777  1.00  0.00     0.000 C 
BRANCH  12  13
ATOM     13  C   UNL     1       4.283 -34.723  17.605  1.00  0.00     0.000 C 
BRANCH  13  14
ATOM     14  C   UNL     1       5.368 -35.055  18.644  1.00  0.00     0.000 C 
BRANCH  14  15
ATOM     15  C   UNL     1       4.904 -34.792  20.087  1.00  0.00     0.000 C 
BRANCH  15  16
ATOM     16  C   UNL     1       6.080 -34.653  21.071  1.00  0.00     0.006 C 
BRANCH  16  17
ATOM     17  C   UNL     1       6.125 -35.806  22.083  1.00  0.00     0.053 C 
BRANCH  17  18
ATOM     18  C   UNL     1       5.776 -35.348  23.467  1.00  0.00     0.041 C 
ATOM     19  O   UNL     1       5.486 -34.142  23.680  1.00  0.00    -0.550 OA
ATOM     20  O   UNL     1       5.741 -36.260  24.514  1.00  0.00    -0.550 OA
ENDBRANCH  17  18
ENDBRANCH  16  17
ENDBRANCH  15  16
ENDBRANCH  14  15
ENDBRANCH  13  14
ENDBRANCH  12  13
ENDBRANCH  11  12
ENDBRANCH   1  11
TORSDOF 15
ENDMDL
MODEL 5
REMARK VINA RESULT:    -1.274      1.076      6.663
REMARK INTER + INTRA:          -3.752
REMARK INTER:                  -2.755
REMARK INTRA:                  -0.997
REMARK UNBOUND:                -1.361
REMARK SMILES O=C([O-])CCCCCCCCCCCCCCC(=O)[O-]
REMARK SMILES IDX 10 1 9 2 8 3 7 4 6 5 5 6 4 7 2 8 1 9 3 10 11 11 12 12 13 13
REMARK SMILES IDX 14 14 15 15 16 16 17 17 18 18 19 19 20 20
REMARK H PARENT
REMARK Flexibility Score: inf
ROOT
ATOM      1  C   UNL     1       4.801 -34.817  22.774  1.00  0.00     0.000 C 
ENDROOT
BRANCH   1   2
ATOM      2  C   UNL     1       4.949 -36.038  21.853  1.00  0.00     0.000 C 
BRANCH   2   3
ATOM      3  C   UNL     1       5.882 -35.726  20.675  1.00  0.00     0.000 C 
BRANCH   3   4
ATOM      4  C   UNL     1       5.098 -35.626  19.362  1.00  0.00     0.000 C 
BRANCH   4   5
ATOM      5  C   UNL     1       4.476 -36.980  18.988  1.00  0.00     0.000 C 
BRANCH   5   6
ATOM      6  C   UNL     1       2.943 -36.922  18.894  1.00  0.00     0.006 C 
BRANCH   6   7
ATOM      7  C   UNL     1       2.405 -37.565  17.608  1.00  0.00     0.053 C 
BRANCH   7   8
ATOM      8  C   UNL     1       3.127 -37.027  16.414  1.00  0.00     0.041 C 
ATOM      9  O   UNL     1       3.398 -35.800  16.339  1.00  0.00    -0.550 OA
ATOM     10  O   UNL     1       3.457 -37.871  15.362  1.00  0.00    -0.550 OA
ENDBRANCH   7   8
ENDBRANCH   6   7
ENDBRANCH   5   6
ENDBRANCH   4   5
ENDBRANCH   3   4
ENDBRANCH   2   3
ENDBRANCH   1   2
BRANCH   1  11
ATOM     11  C   UNL     1       6.118 -34.432  23.466  1.00  0.00     0.000 C 
BRANCH  11  12
ATOM     12  C   UNL     1       6.120 -34.772  24.966  1.00  0.00     0.000 C 
BRANCH  12  13
ATOM     13  C   UNL     1       6.124 -36.288  25.228  1.00  0.00     0.000 C 
BRANCH  13  14
ATOM     14  C   UNL     1       4.791 -36.789  25.810  1.00  0.00     0.000 C 
BRANCH  14  15
ATOM     15  C   UNL     1       4.487 -38.246  25.420  1.00  0.00     0.000 C 
BRANCH  15  16
ATOM     16  C   UNL     1       5.094 -38.634  24.059  1.00  0.00     0.006 C 
BRANCH  16  17
ATOM     17  C   UNL     1       5.636 -40.070  24.058  1.00  0.00     0.053 C 
BRANCH  17  18
ATOM     18  C   UNL     1       5.778 -40.612  22.667  1.00  0.00     0.041 C 
ATOM     19  O   UNL     1       5.804 -41.855  22.472  1.00  0.00    -0.550 OA
ATOM     20  O   UNL     1       5.852 -39.743  21.586  1.00  0.00    -0.550 OA
ENDBRANCH  17  18
ENDBRANCH  16  17
ENDBRANCH  15  16
ENDBRANCH  14  15
ENDBRANCH  13  14
ENDBRANCH  12  13
ENDBRANCH  11  12
ENDBRANCH   1  11
TORSDOF 15
ENDMDL
MODEL 6
REMARK VINA RESULT:    -1.077      2.143      3.735
REMARK INTER + INTRA:          -3.383
REMARK INTER:                  -4.158
REMARK INTRA:                   0.775
REMARK UNBOUND:                -1.361
REMARK SMILES O=C([O-])CCCCCCCCCCCCCCC(=O)[O-]
REMARK SMILES IDX 10 1 9 2 8 3 7 4 6 5 5 6 4 7 2 8 1 9 3 10 11 11 12 12 13 13
REMARK SMILES IDX 14 14 15 15 16 16 17 17 18 18 19 19 20 20
REMARK H PARENT
REMARK Flexibility Score: inf
ROOT
ATOM      1  C   UNL     1       3.652 -36.814  20.256  1.00  0.00     0.000 C 
ENDROOT
BRANCH   1   2
ATOM      2  C   UNL     1       4.293 -35.589  19.586  1.00  0.00     0.000 C 
BRANCH   2   3
ATOM      3  C   UNL     1       5.788 -35.500  19.922  1.00  0.00     0.000 C 
BRANCH   3   4
ATOM      4  C   UNL     1       6.009 -35.422  21.437  1.00  0.00     0.000 C 
BRANCH   4   5
ATOM      5  C   UNL     1       4.835 -34.711  22.128  1.00  0.00     0.000 C 
BRANCH   5   6
ATOM      6  C   UNL     1       5.244 -34.041  23.449  1.00  0.00     0.006 C 
BRANCH   6   7
ATOM      7  C   UNL     1       6.124 -34.944  24.323  1.00  0.00     0.053 C 
BRANCH   7   8
ATOM      8  C   UNL     1       5.440 -36.249  24.579  1.00  0.00     0.041 C 
ATOM      9  O   UNL     1       4.561 -36.338  25.475  1.00  0.00    -0.550 OA
ATOM     10  O   UNL     1       5.808 -37.380  23.861  1.00  0.00    -0.550 OA
ENDBRANCH   7   8
ENDBRANCH   6   7
ENDBRANCH   5   6
ENDBRANCH   4   5
ENDBRANCH   3   4
ENDBRANCH   2   3
ENDBRANCH   1   2
BRANCH   1  11
ATOM     11  C   UNL     1       3.037 -37.791  19.241  1.00  0.00     0.000 C 
BRANCH  11  12
ATOM     12  C   UNL     1       1.602 -38.205  19.612  1.00  0.00     0.000 C 
BRANCH  12  13
ATOM     13  C   UNL     1       0.543 -37.510  18.739  1.00  0.00     0.000 C 
BRANCH  13  14
ATOM     14  C   UNL     1       1.166 -36.561  17.700  1.00  0.00     0.000 C 
BRANCH  14  15
ATOM     15  C   UNL     1       2.168 -37.273  16.776  1.00  0.00     0.000 C 
BRANCH  15  16
ATOM     16  C   UNL     1       2.797 -36.323  15.740  1.00  0.00     0.006 C 
BRANCH  16  17
ATOM     17  C   UNL     1       2.882 -36.962  14.347  1.00  0.00     0.053 C 
BRANCH  17  18
ATOM     18  C   UNL     1       4.191 -37.659  14.131  1.00  0.00     0.041 C 
ATOM     19  O   UNL     1       5.228 -36.992  13.875  1.00  0.00    -0.550 OA
ATOM     20  O   UNL     1       4.271 -39.041  14.242  1.00  0.00    -0.550 OA
ENDBRANCH  17  18
ENDBRANCH  16  17
ENDBRANCH  15  16
ENDBRANCH  14  15
ENDBRANCH  13  14
ENDBRANCH  12  13
ENDBRANCH  11  12
ENDBRANCH   1  11
TORSDOF 15
ENDMDL
MODEL 7
REMARK VINA RESULT:    -1.052      1.816      7.904
REMARK INTER + INTRA:          -3.335
REMARK INTER:                  -3.573
REMARK INTRA:                   0.237
REMARK UNBOUND:                -1.361
REMARK SMILES O=C([O-])CCCCCCCCCCCCCCC(=O)[O-]
REMARK SMILES IDX 10 1 9 2 8 3 7 4 6 5 5 6 4 7 2 8 1 9 3 10 11 11 12 12 13 13
REMARK SMILES IDX 14 14 15 15 16 16 17 17 18 18 19 19 20 20
REMARK H PARENT
REMARK Flexibility Score: inf
ROOT
ATOM      1  C   UNL     1       3.361 -37.782  19.889  1.00  0.00     0.000 C 
ENDROOT
BRANCH   1   2
ATOM      2  C   UNL     1       2.233 -38.246  18.954  1.00  0.00     0.000 C 
BRANCH   2   3
ATOM      3  C   UNL     1       1.166 -37.155  18.800  1.00  0.00     0.000 C 
BRANCH   3   4
ATOM      4  C   UNL     1       0.813 -36.933  17.324  1.00  0.00     0.000 C 
BRANCH   4   5
ATOM      5  C   UNL     1       2.001 -36.330  16.559  1.00  0.00     0.000 C 
BRANCH   5   6
ATOM      6  C   UNL     1       1.766 -36.283  15.042  1.00  0.00     0.006 C 
BRANCH   6   7
ATOM      7  C   UNL     1       3.070 -36.365  14.238  1.00  0.00     0.053 C 
BRANCH   7   8
ATOM      8  C   UNL     1       3.874 -37.550  14.669  1.00  0.00     0.041 C 
ATOM      9  O   UNL     1       4.764 -38.020  13.912  1.00  0.00    -0.550 OA
ATOM     10  O   UNL     1       3.609 -38.167  15.885  1.00  0.00    -0.550 OA
ENDBRANCH   7   8
ENDBRANCH   6   7
ENDBRANCH   5   6
ENDBRANCH   4   5
ENDBRANCH   3   4
ENDBRANCH   2   3
ENDBRANCH   1   2
BRANCH   1  11
ATOM     11  C   UNL     1       4.121 -36.563  19.342  1.00  0.00     0.000 C 
BRANCH  11  12
ATOM     12  C   UNL     1       5.323 -36.173  20.220  1.00  0.00     0.000 C 
BRANCH  12  13
ATOM     13  C   UNL     1       4.909 -35.377  21.469  1.00  0.00     0.000 C 
BRANCH  13  14
ATOM     14  C   UNL     1       6.118 -34.908  22.298  1.00  0.00     0.000 C 
BRANCH  14  15
ATOM     15  C   UNL     1       5.708 -34.310  23.654  1.00  0.00     0.000 C 
BRANCH  15  16
ATOM     16  C   UNL     1       5.860 -35.311  24.814  1.00  0.00     0.006 C 
BRANCH  16  17
ATOM     17  C   UNL     1       6.124 -36.738  24.313  1.00  0.00     0.053 C 
BRANCH  17  18
ATOM     18  C   UNL     1       5.102 -37.707  24.825  1.00  0.00     0.041 C 
ATOM     19  O   UNL     1       5.063 -38.882  24.374  1.00  0.00    -0.550 OA
ATOM     20  O   UNL     1       4.214 -37.321  25.820  1.00  0.00    -0.550 OA
ENDBRANCH  17  18
ENDBRANCH  16  17
ENDBRANCH  15  16
ENDBRANCH  14  15
ENDBRANCH  13  14
ENDBRANCH  12  13
ENDBRANCH  11  12
ENDBRANCH   1  11
TORSDOF 15
ENDMDL
MODEL 8
REMARK VINA RESULT:    -0.980      2.689      3.793
REMARK INTER + INTRA:          -3.201
REMARK INTER:                  -2.411
REMARK INTRA:                  -0.791
REMARK UNBOUND:                -1.361
REMARK SMILES O=C([O-])CCCCCCCCCCCCCCC(=O)[O-]
REMARK SMILES IDX 10 1 9 2 8 3 7 4 6 5 5 6 4 7 2 8 1 9 3 10 11 11 12 12 13 13
REMARK SMILES IDX 14 14 15 15 16 16 17 17 18 18 19 19 20 20
REMARK H PARENT
REMARK Flexibility Score: inf
ROOT
ATOM      1  C   UNL     1       4.751 -35.197  21.922  1.00  0.00     0.000 C 
ENDROOT
BRANCH   1   2
ATOM      2  C   UNL     1       5.906 -36.203  22.034  1.00  0.00     0.000 C 
BRANCH   2   3
ATOM      3  C   UNL     1       5.377 -37.619  22.293  1.00  0.00     0.000 C 
BRANCH   3   4
ATOM      4  C   UNL     1       5.546 -38.507  21.054  1.00  0.00     0.000 C 
BRANCH   4   5
ATOM      5  C   UNL     1       4.899 -37.859  19.821  1.00  0.00     0.000 C 
BRANCH   5   6
ATOM      6  C   UNL     1       3.441 -37.443  20.066  1.00  0.00     0.006 C 
BRANCH   6   7
ATOM      7  C   UNL     1       2.453 -38.185  19.157  1.00  0.00     0.053 C 
BRANCH   7   8
ATOM      8  C   UNL     1       1.080 -37.609  19.298  1.00  0.00     0.041 C 
ATOM      9  O   UNL     1       0.324 -37.522  18.295  1.00  0.00    -0.550 OA
ATOM     10  O   UNL     1       0.652 -37.122  20.526  1.00  0.00    -0.550 OA
ENDBRANCH   7   8
ENDBRANCH   6   7
ENDBRANCH   5   6
ENDBRANCH   4   5
ENDBRANCH   3   4
ENDBRANCH   2   3
ENDBRANCH   1   2
BRANCH   1  11
ATOM     11  C   UNL     1       4.776 -34.408  20.603  1.00  0.00     0.000 C 
BRANCH  11  12
ATOM     12  C   UNL     1       6.125 -34.523  19.871  1.00  0.00     0.000 C 
BRANCH  12  13
ATOM     13  C   UNL     1       5.959 -34.684  18.350  1.00  0.00     0.000 C 
BRANCH  13  14
ATOM     14  C   UNL     1       4.486 -34.633  17.909  1.00  0.00     0.000 C 
BRANCH  14  15
ATOM     15  C   UNL     1       4.020 -35.944  17.254  1.00  0.00     0.000 C 
BRANCH  15  16
ATOM     16  C   UNL     1       2.850 -35.734  16.274  1.00  0.00     0.006 C 
BRANCH  16  17
ATOM     17  C   UNL     1       2.520 -37.011  15.488  1.00  0.00     0.053 C 
BRANCH  17  18
ATOM     18  C   UNL     1       3.644 -37.416  14.583  1.00  0.00     0.041 C 
ATOM     19  O   UNL     1       4.228 -36.554  13.875  1.00  0.00    -0.550 OA
ATOM     20  O   UNL     1       4.065 -38.738  14.545  1.00  0.00    -0.550 OA
ENDBRANCH  17  18
ENDBRANCH  16  17
ENDBRANCH  15  16
ENDBRANCH  14  15
ENDBRANCH  13  14
ENDBRANCH  12  13
ENDBRANCH  11  12
ENDBRANCH   1  11
TORSDOF 15
ENDMDL
MODEL 9
REMARK VINA RESULT:    -0.874      2.284      3.670
REMARK INTER + INTRA:          -3.001
REMARK INTER:                  -1.879
REMARK INTRA:                  -1.122
REMARK UNBOUND:                -1.361
REMARK SMILES O=C([O-])CCCCCCCCCCCCCCC(=O)[O-]
REMARK SMILES IDX 10 1 9 2 8 3 7 4 6 5 5 6 4 7 2 8 1 9 3 10 11 11 12 12 13 13
REMARK SMILES IDX 14 14 15 15 16 16 17 17 18 18 19 19 20 20
REMARK H PARENT
REMARK Flexibility Score: inf
ROOT
ATOM      1  C   UNL     1       5.032 -38.916  21.101  1.00  0.00     0.000 C 
ENDROOT
BRANCH   1   2
ATOM      2  C   UNL     1       6.062 -39.328  22.164  1.00  0.00     0.000 C 
BRANCH   2   3
ATOM      3  C   UNL     1       5.369 -39.739  23.469  1.00  0.00     0.000 C 
BRANCH   3   4
ATOM      4  C   UNL     1       4.730 -38.528  24.159  1.00  0.00     0.000 C 
BRANCH   4   5
ATOM      5  C   UNL     1       5.710 -37.877  25.148  1.00  0.00     0.000 C 
BRANCH   5   6
ATOM      6  C   UNL     1       5.907 -36.376  24.885  1.00  0.00     0.006 C 
BRANCH   6   7
ATOM      7  C   UNL     1       6.099 -36.057  23.396  1.00  0.00     0.053 C 
BRANCH   7   8
ATOM      8  C   UNL     1       5.340 -34.822  23.026  1.00  0.00     0.041 C 
ATOM      9  O   UNL     1       4.463 -34.865  22.123  1.00  0.00    -0.550 OA
ATOM     10  O   UNL     1       5.635 -33.613  23.642  1.00  0.00    -0.550 OA
ENDBRANCH   7   8
ENDBRANCH   6   7
ENDBRANCH   5   6
ENDBRANCH   4   5
ENDBRANCH   3   4
ENDBRANCH   2   3
ENDBRANCH   1   2
BRANCH   1  11
ATOM     11  C   UNL     1       5.423 -37.624  20.365  1.00  0.00     0.000 C 
BRANCH  11  12
ATOM     12  C   UNL     1       4.629 -37.422  19.063  1.00  0.00     0.000 C 
BRANCH  12  13
ATOM     13  C   UNL     1       3.116 -37.288  19.308  1.00  0.00     0.000 C 
BRANCH  13  14
ATOM     14  C   UNL     1       2.316 -37.158  18.000  1.00  0.00     0.000 C 
BRANCH  14  15
ATOM     15  C   UNL     1       2.881 -36.072  17.068  1.00  0.00     0.000 C 
BRANCH  15  16
ATOM     16  C   UNL     1       2.799 -36.465  15.582  1.00  0.00     0.006 C 
BRANCH  16  17
ATOM     17  C   UNL     1       3.185 -37.933  15.351  1.00  0.00     0.053 C 
BRANCH  17  18
ATOM     18  C   UNL     1       4.284 -38.069  14.341  1.00  0.00     0.041 C 
ATOM     19  O   UNL     1       4.846 -37.043  13.875  1.00  0.00    -0.550 OA
ATOM     20  O   UNL     1       4.707 -39.329  13.938  1.00  0.00    -0.550 OA
ENDBRANCH  17  18
ENDBRANCH  16  17
ENDBRANCH  15  16
ENDBRANCH  14  15
ENDBRANCH  13  14
ENDBRANCH  12  13
ENDBRANCH  11  12
ENDBRANCH   1  11
TORSDOF 15
ENDMDL
