MODEL 1
REMARK VINA RESULT:    -4.596      0.000      0.000
REMARK INTER + INTRA:          -5.419
REMARK INTER:                  -5.267
REMARK INTRA:                  -0.151
REMARK UNBOUND:                -0.151
REMARK SMILES O=C([O-])C=Cc1ccc(O)cc1
REMARK SMILES IDX 6 1 7 2 12 3 8 4 11 5 9 6 5 7 4 8 2 9 1 10 3 11 10 12
REMARK H PARENT 10 13
REMARK Flexibility Score: inf
ROOT
ATOM      1  C   UNL     1      17.417  -7.685   8.985  1.00  0.00    -0.025 A 
ATOM      2  C   UNL     1      16.915  -8.168   7.765  1.00  0.00     0.012 A 
ATOM      3  C   UNL     1      17.805  -8.611   9.975  1.00  0.00     0.012 A 
ATOM      4  C   UNL     1      16.826  -9.543   7.526  1.00  0.00     0.047 A 
ATOM      5  C   UNL     1      17.715  -9.986   9.732  1.00  0.00     0.047 A 
ATOM      6  C   UNL     1      17.228 -10.455   8.509  1.00  0.00     0.115 A 
ENDROOT
BRANCH   1   7
ATOM      7  C   UNL     1      17.481  -6.217   9.195  1.00  0.00     0.010 C 
ATOM      8  C   UNL     1      16.707  -5.336   8.547  1.00  0.00     0.025 C 
BRANCH   8   9
ATOM      9  C   UNL     1      16.798  -3.890   8.797  1.00  0.00     0.064 C 
ATOM     10  O   UNL     1      17.124  -3.476   9.940  1.00  0.00    -0.545 OA
ATOM     11  O   UNL     1      16.527  -2.969   7.791  1.00  0.00    -0.545 OA
ENDBRANCH   8   9
ENDBRANCH   1   7
BRANCH   6  12
ATOM     12  O   UNL     1      17.146 -11.828   8.282  1.00  0.00    -0.508 OA
ATOM     13  H   UNL     1      17.095 -12.488   9.049  1.00  0.00     0.293 HD
ENDBRANCH   6  12
TORSDOF 3
ENDMDL
MODEL 2
REMARK VINA RESULT:    -4.552      0.427      1.453
REMARK INTER + INTRA:          -5.369
REMARK INTER:                  -5.232
REMARK INTRA:                  -0.137
REMARK UNBOUND:                -0.151
REMARK SMILES O=C([O-])C=Cc1ccc(O)cc1
REMARK SMILES IDX 6 1 7 2 12 3 8 4 11 5 9 6 5 7 4 8 2 9 1 10 3 11 10 12
REMARK H PARENT 10 13
REMARK Flexibility Score: inf
ROOT
ATOM      1  C   UNL     1      17.426  -7.349   8.858  1.00  0.00    -0.025 A 
ATOM      2  C   UNL     1      17.873  -8.091   9.964  1.00  0.00     0.012 A 
ATOM      3  C   UNL     1      16.960  -8.040   7.720  1.00  0.00     0.012 A 
ATOM      4  C   UNL     1      17.832  -9.489   9.948  1.00  0.00     0.047 A 
ATOM      5  C   UNL     1      16.920  -9.438   7.708  1.00  0.00     0.047 A 
ATOM      6  C   UNL     1      17.353 -10.165   8.820  1.00  0.00     0.115 A 
ENDROOT
BRANCH   1   7
ATOM      7  C   UNL     1      17.500  -5.868   8.919  1.00  0.00     0.010 C 
ATOM      8  C   UNL     1      16.486  -5.057   8.586  1.00  0.00     0.025 C 
BRANCH   8   9
ATOM      9  C   UNL     1      16.600  -3.594   8.673  1.00  0.00     0.064 C 
ATOM     10  O   UNL     1      16.835  -3.054   9.786  1.00  0.00    -0.545 OA
ATOM     11  O   UNL     1      16.452  -2.793   7.546  1.00  0.00    -0.545 OA
ENDBRANCH   8   9
ENDBRANCH   1   7
BRANCH   6  12
ATOM     12  O   UNL     1      17.306 -11.558   8.793  1.00  0.00    -0.508 OA
ATOM     13  H   UNL     1      18.144 -12.112   8.662  1.00  0.00     0.293 HD
ENDBRANCH   6  12
TORSDOF 3
ENDMDL
MODEL 3
REMARK VINA RESULT:    -4.529     13.641     15.739
REMARK INTER + INTRA:          -5.342
REMARK INTER:                  -5.191
REMARK INTRA:                  -0.152
REMARK UNBOUND:                -0.151
REMARK SMILES O=C([O-])C=Cc1ccc(O)cc1
REMARK SMILES IDX 6 1 7 2 12 3 8 4 11 5 9 6 5 7 4 8 2 9 1 10 3 11 10 12
REMARK H PARENT 10 13
REMARK Flexibility Score: inf
ROOT
ATOM      1  C   UNL     1      13.404 -15.984  21.291  1.00  0.00    -0.025 A 
ATOM      2  C   UNL     1      13.860 -14.740  21.756  1.00  0.00     0.012 A 
ATOM      3  C   UNL     1      13.424 -17.088  22.169  1.00  0.00     0.012 A 
ATOM      4  C   UNL     1      14.303 -14.591  23.074  1.00  0.00     0.047 A 
ATOM      5  C   UNL     1      13.868 -16.935  23.486  1.00  0.00     0.047 A 
ATOM      6  C   UNL     1      14.306 -15.689  23.943  1.00  0.00     0.115 A 
ENDROOT
BRANCH   1   7
ATOM      7  C   UNL     1      12.954 -16.094  19.881  1.00  0.00     0.010 C 
ATOM      8  C   UNL     1      13.412 -15.317  18.889  1.00  0.00     0.025 C 
BRANCH   8   9
ATOM      9  C   UNL     1      12.945 -15.470  17.503  1.00  0.00     0.064 C 
ATOM     10  O   UNL     1      12.193 -16.434  17.203  1.00  0.00    -0.545 OA
ATOM     11  O   UNL     1      13.322 -14.567  16.515  1.00  0.00    -0.545 OA
ENDBRANCH   8   9
ENDBRANCH   1   7
BRANCH   6  12
ATOM     12  O   UNL     1      14.743 -15.553  25.259  1.00  0.00    -0.508 OA
ATOM     13  H   UNL     1      15.518 -14.946  25.499  1.00  0.00     0.293 HD
ENDBRANCH   6  12
TORSDOF 3
ENDMDL
MODEL 4
REMARK VINA RESULT:    -4.331      2.793      5.503
REMARK INTER + INTRA:          -5.115
REMARK INTER:                  -4.974
REMARK INTRA:                  -0.141
REMARK UNBOUND:                -0.151
REMARK SMILES O=C([O-])C=Cc1ccc(O)cc1
REMARK SMILES IDX 6 1 7 2 12 3 8 4 11 5 9 6 5 7 4 8 2 9 1 10 3 11 10 12
REMARK H PARENT 10 13
REMARK Flexibility Score: inf
ROOT
ATOM      1  C   UNL     1      15.844  -8.046   8.883  1.00  0.00    -0.025 A 
ATOM      2  C   UNL     1      16.815  -8.717   9.646  1.00  0.00     0.012 A 
ATOM      3  C   UNL     1      16.108  -6.729   8.453  1.00  0.00     0.012 A 
ATOM      4  C   UNL     1      18.032  -8.099   9.952  1.00  0.00     0.047 A 
ATOM      5  C   UNL     1      17.326  -6.115   8.762  1.00  0.00     0.047 A 
ATOM      6  C   UNL     1      18.290  -6.797   9.508  1.00  0.00     0.115 A 
ENDROOT
BRANCH   1   7
ATOM      7  C   UNL     1      14.565  -8.740   8.593  1.00  0.00     0.010 C 
ATOM      8  C   UNL     1      14.486  -9.966   8.057  1.00  0.00     0.025 C 
BRANCH   8   9
ATOM      9  C   UNL     1      13.194 -10.620   7.798  1.00  0.00     0.064 C 
ATOM     10  O   UNL     1      12.897 -10.964   6.624  1.00  0.00    -0.545 OA
ATOM     11  O   UNL     1      12.293 -10.863   8.829  1.00  0.00    -0.545 OA
ENDBRANCH   8   9
ENDBRANCH   1   7
BRANCH   6  12
ATOM     12  O   UNL     1      19.500  -6.171   9.805  1.00  0.00    -0.508 OA
ATOM     13  H   UNL     1      20.083  -6.485  10.572  1.00  0.00     0.293 HD
ENDBRANCH   6  12
TORSDOF 3
ENDMDL
MODEL 5
REMARK VINA RESULT:    -4.212      2.080      6.120
REMARK INTER + INTRA:          -4.979
REMARK INTER:                  -4.830
REMARK INTRA:                  -0.149
REMARK UNBOUND:                -0.151
REMARK SMILES O=C([O-])C=Cc1ccc(O)cc1
REMARK SMILES IDX 6 1 7 2 12 3 8 4 11 5 9 6 5 7 4 8 2 9 1 10 3 11 10 12
REMARK H PARENT 10 13
REMARK Flexibility Score: inf
ROOT
ATOM      1  C   UNL     1      16.785  -9.121   8.225  1.00  0.00    -0.025 A 
ATOM      2  C   UNL     1      17.412  -9.299   9.469  1.00  0.00     0.012 A 
ATOM      3  C   UNL     1      16.795  -7.840   7.636  1.00  0.00     0.012 A 
ATOM      4  C   UNL     1      18.057  -8.231  10.101  1.00  0.00     0.047 A 
ATOM      5  C   UNL     1      17.441  -6.774   8.271  1.00  0.00     0.047 A 
ATOM      6  C   UNL     1      18.075  -6.967   9.502  1.00  0.00     0.115 A 
ENDROOT
BRANCH   1   7
ATOM      7  C   UNL     1      16.105 -10.282   7.599  1.00  0.00     0.010 C 
ATOM      8  C   UNL     1      16.469 -11.556   7.799  1.00  0.00     0.025 C 
BRANCH   8   9
ATOM      9  C   UNL     1      15.757 -12.677   7.166  1.00  0.00     0.064 C 
ATOM     10  O   UNL     1      14.500 -12.724   7.221  1.00  0.00    -0.545 OA
ATOM     11  O   UNL     1      16.449 -13.687   6.508  1.00  0.00    -0.545 OA
ENDBRANCH   8   9
ENDBRANCH   1   7
BRANCH   6  12
ATOM     12  O   UNL     1      18.716  -5.895  10.121  1.00  0.00    -0.508 OA
ATOM     13  H   UNL     1      18.472  -4.936   9.903  1.00  0.00     0.293 HD
ENDBRANCH   6  12
TORSDOF 3
ENDMDL
MODEL 6
REMARK VINA RESULT:    -4.117      1.080      5.840
REMARK INTER + INTRA:          -4.870
REMARK INTER:                  -4.735
REMARK INTRA:                  -0.136
REMARK UNBOUND:                -0.151
REMARK SMILES O=C([O-])C=Cc1ccc(O)cc1
REMARK SMILES IDX 6 1 7 2 12 3 8 4 11 5 9 6 5 7 4 8 2 9 1 10 3 11 10 12
REMARK H PARENT 10 13
REMARK Flexibility Score: inf
ROOT
ATOM      1  C   UNL     1      17.095  -7.439   8.791  1.00  0.00    -0.025 A 
ATOM      2  C   UNL     1      18.092  -6.621   9.348  1.00  0.00     0.012 A 
ATOM      3  C   UNL     1      15.912  -6.838   8.314  1.00  0.00     0.012 A 
ATOM      4  C   UNL     1      17.926  -5.234   9.406  1.00  0.00     0.047 A 
ATOM      5  C   UNL     1      15.749  -5.450   8.373  1.00  0.00     0.047 A 
ATOM      6  C   UNL     1      16.755  -4.646   8.916  1.00  0.00     0.115 A 
ENDROOT
BRANCH   1   7
ATOM      7  C   UNL     1      17.313  -8.907   8.762  1.00  0.00     0.010 C 
ATOM      8  C   UNL     1      17.114  -9.669   7.679  1.00  0.00     0.025 C 
BRANCH   8   9
ATOM      9  C   UNL     1      17.355 -11.120   7.694  1.00  0.00     0.064 C 
ATOM     10  O   UNL     1      18.536 -11.554   7.648  1.00  0.00    -0.545 OA
ATOM     11  O   UNL     1      16.299 -12.023   7.755  1.00  0.00    -0.545 OA
ENDBRANCH   8   9
ENDBRANCH   1   7
BRANCH   6  12
ATOM     12  O   UNL     1      16.578  -3.264   8.966  1.00  0.00    -0.508 OA
ATOM     13  H   UNL     1      17.332  -2.644   9.237  1.00  0.00     0.293 HD
ENDBRANCH   6  12
TORSDOF 3
ENDMDL
MODEL 7
REMARK VINA RESULT:    -4.054      1.580      5.822
REMARK INTER + INTRA:          -4.798
REMARK INTER:                  -4.659
REMARK INTRA:                  -0.138
REMARK UNBOUND:                -0.151
REMARK SMILES O=C([O-])C=Cc1ccc(O)cc1
REMARK SMILES IDX 6 1 7 2 12 3 8 4 11 5 9 6 5 7 4 8 2 9 1 10 3 11 10 12
REMARK H PARENT 10 13
REMARK Flexibility Score: inf
ROOT
ATOM      1  C   UNL     1      16.740  -5.942   8.845  1.00  0.00    -0.025 A 
ATOM      2  C   UNL     1      17.284  -4.736   9.316  1.00  0.00     0.012 A 
ATOM      3  C   UNL     1      15.519  -5.908   8.140  1.00  0.00     0.012 A 
ATOM      4  C   UNL     1      16.641  -3.519   9.067  1.00  0.00     0.047 A 
ATOM      5  C   UNL     1      14.879  -4.689   7.893  1.00  0.00     0.047 A 
ATOM      6  C   UNL     1      15.438  -3.494   8.353  1.00  0.00     0.115 A 
ENDROOT
BRANCH   1   7
ATOM      7  C   UNL     1      17.454  -7.209   9.143  1.00  0.00     0.010 C 
ATOM      8  C   UNL     1      16.844  -8.333   9.543  1.00  0.00     0.025 C 
BRANCH   8   9
ATOM      9  C   UNL     1      17.593  -9.569   9.817  1.00  0.00     0.064 C 
ATOM     10  O   UNL     1      18.307  -9.647  10.851  1.00  0.00    -0.545 OA
ATOM     11  O   UNL     1      17.527 -10.655   8.951  1.00  0.00    -0.545 OA
ENDBRANCH   8   9
ENDBRANCH   1   7
BRANCH   6  12
ATOM     12  O   UNL     1      14.788  -2.288   8.097  1.00  0.00    -0.508 OA
ATOM     13  H   UNL     1      15.087  -1.674   7.349  1.00  0.00     0.293 HD
ENDBRANCH   6  12
TORSDOF 3
ENDMDL
MODEL 8
REMARK VINA RESULT:    -4.023      1.664      2.140
REMARK INTER + INTRA:          -4.763
REMARK INTER:                  -4.617
REMARK INTRA:                  -0.146
REMARK UNBOUND:                -0.151
REMARK SMILES O=C([O-])C=Cc1ccc(O)cc1
REMARK SMILES IDX 6 1 7 2 12 3 8 4 11 5 9 6 5 7 4 8 2 9 1 10 3 11 10 12
REMARK H PARENT 10 13
REMARK Flexibility Score: inf
ROOT
ATOM      1  C   UNL     1      16.834  -6.522   8.666  1.00  0.00    -0.025 A 
ATOM      2  C   UNL     1      15.926  -7.588   8.557  1.00  0.00     0.012 A 
ATOM      3  C   UNL     1      18.051  -6.732   9.346  1.00  0.00     0.012 A 
ATOM      4  C   UNL     1      16.234  -8.844   9.091  1.00  0.00     0.047 A 
ATOM      5  C   UNL     1      18.355  -7.989   9.880  1.00  0.00     0.047 A 
ATOM      6  C   UNL     1      17.451  -9.047   9.752  1.00  0.00     0.115 A 
ENDROOT
BRANCH   1   7
ATOM      7  C   UNL     1      16.457  -5.206   8.091  1.00  0.00     0.010 C 
ATOM      8  C   UNL     1      15.243  -4.654   8.227  1.00  0.00     0.025 C 
BRANCH   8   9
ATOM      9  C   UNL     1      14.918  -3.341   7.650  1.00  0.00     0.064 C 
ATOM     10  O   UNL     1      13.729  -2.929   7.674  1.00  0.00    -0.545 OA
ATOM     11  O   UNL     1      15.903  -2.544   7.076  1.00  0.00    -0.545 OA
ENDBRANCH   8   9
ENDBRANCH   1   7
BRANCH   6  12
ATOM     12  O   UNL     1      17.770 -10.293  10.287  1.00  0.00    -0.508 OA
ATOM     13  H   UNL     1      17.478 -10.558  11.221  1.00  0.00     0.293 HD
ENDBRANCH   6  12
TORSDOF 3
ENDMDL
