MODEL 1
REMARK VINA RESULT:    -4.471      0.000      0.000
REMARK INTER + INTRA:         -13.127
REMARK INTER:                  -9.698
REMARK INTRA:                  -3.429
REMARK UNBOUND:                -3.429
REMARK SMILES CCCCCCCCCCCCCCCCCCCCCC(=O)[O-]
REMARK SMILES IDX 12 1 11 2 10 3 9 4 8 5 7 6 6 7 5 8 4 9 3 10 2 11 1 12 13 13
REMARK SMILES IDX 14 14 15 15 16 16 17 17 18 18 19 19 20 20 21 21 22 22 23 23
REMARK SMILES IDX 24 24
REMARK H PARENT
REMARK Flexibility Score: inf
ROOT
ATOM      1  C   UNL     1     -12.274  41.211  31.869  1.00  0.00     0.000 C 
ENDROOT
BRANCH   1   2
ATOM      2  C   UNL     1     -10.940  41.942  32.109  1.00  0.00     0.000 C 
BRANCH   2   3
ATOM      3  C   UNL     1     -11.037  43.457  31.858  1.00  0.00     0.000 C 
BRANCH   3   4
ATOM      4  C   UNL     1     -10.904  43.818  30.369  1.00  0.00    -0.000 C 
BRANCH   4   5
ATOM      5  C   UNL     1     -12.198  44.414  29.787  1.00  0.00    -0.000 C 
BRANCH   5   6
ATOM      6  C   UNL     1     -13.312  44.549  30.840  1.00  0.00    -0.000 C 
BRANCH   6   7
ATOM      7  C   UNL     1     -14.718  44.579  30.213  1.00  0.00    -0.000 C 
BRANCH   7   8
ATOM      8  C   UNL     1     -15.818  44.210  31.221  1.00  0.00    -0.000 C 
BRANCH   8   9
ATOM      9  C   UNL     1     -15.254  43.711  32.561  1.00  0.00    -0.000 C 
BRANCH   9  10
ATOM     10  C   UNL     1     -15.760  44.577  33.724  1.00  0.00    -0.000 C 
BRANCH  10  11
ATOM     11  C   UNL     1     -14.654  45.449  34.338  1.00  0.00    -0.003 C 
ATOM     12  C   UNL     1     -13.324  44.707  34.476  1.00  0.00     0.004 C 
ENDBRANCH  10  11
ENDBRANCH   9  10
ENDBRANCH   8   9
ENDBRANCH   7   8
ENDBRANCH   6   7
ENDBRANCH   5   6
ENDBRANCH   4   5
ENDBRANCH   3   4
ENDBRANCH   2   3
ENDBRANCH   1   2
BRANCH   1  13
ATOM     13  C   UNL     1     -12.210  40.033  30.875  1.00  0.00     0.000 C 
BRANCH  13  14
ATOM     14  C   UNL     1     -13.471  39.827  30.016  1.00  0.00     0.000 C 
BRANCH  14  15
ATOM     15  C   UNL     1     -14.652  40.700  30.473  1.00  0.00     0.000 C 
BRANCH  15  16
ATOM     16  C   UNL     1     -16.015  40.108  30.077  1.00  0.00     0.000 C 
BRANCH  16  17
ATOM     17  C   UNL     1     -16.803  39.566  31.279  1.00  0.00     0.000 C 
BRANCH  17  18
ATOM     18  C   UNL     1     -17.548  40.698  32.003  1.00  0.00     0.000 C 
BRANCH  18  19
ATOM     19  C   UNL     1     -17.233  40.736  33.513  1.00  0.00     0.000 C 
BRANCH  19  20
ATOM     20  C   UNL     1     -18.022  41.809  34.284  1.00  0.00     0.006 C 
BRANCH  20  21
ATOM     21  C   UNL     1     -19.332  42.199  33.590  1.00  0.00     0.053 C 
BRANCH  21  22
ATOM     22  C   UNL     1     -19.285  43.629  33.152  1.00  0.00     0.041 C 
ATOM     23  O   UNL     1     -19.042  43.916  31.950  1.00  0.00    -0.550 OA
ATOM     24  O   UNL     1     -19.465  44.647  34.079  1.00  0.00    -0.550 OA
ENDBRANCH  21  22
ENDBRANCH  20  21
ENDBRANCH  19  20
ENDBRANCH  18  19
ENDBRANCH  17  18
ENDBRANCH  16  17
ENDBRANCH  15  16
ENDBRANCH  14  15
ENDBRANCH  13  14
ENDBRANCH   1  13
TORSDOF 20
ENDMDL
MODEL 2
REMARK VINA RESULT:    -4.412      3.010      6.879
REMARK INTER + INTRA:         -12.999
REMARK INTER:                  -9.672
REMARK INTRA:                  -3.328
REMARK UNBOUND:                -3.429
REMARK SMILES CCCCCCCCCCCCCCCCCCCCCC(=O)[O-]
REMARK SMILES IDX 12 1 11 2 10 3 9 4 8 5 7 6 6 7 5 8 4 9 3 10 2 11 1 12 13 13
REMARK SMILES IDX 14 14 15 15 16 16 17 17 18 18 19 19 20 20 21 21 22 22 23 23
REMARK SMILES IDX 24 24
REMARK H PARENT
REMARK Flexibility Score: inf
ROOT
ATOM      1  C   UNL     1     -15.488  44.098  29.820  1.00  0.00     0.000 C 
ENDROOT
BRANCH   1   2
ATOM      2  C   UNL     1     -16.625  44.884  30.500  1.00  0.00     0.000 C 
BRANCH   2   3
ATOM      3  C   UNL     1     -17.662  43.968  31.174  1.00  0.00     0.000 C 
BRANCH   3   4
ATOM      4  C   UNL     1     -17.793  44.235  32.682  1.00  0.00    -0.000 C 
BRANCH   4   5
ATOM      5  C   UNL     1     -19.149  43.775  33.248  1.00  0.00    -0.000 C 
BRANCH   5   6
ATOM      6  C   UNL     1     -19.107  42.334  33.785  1.00  0.00    -0.000 C 
BRANCH   6   7
ATOM      7  C   UNL     1     -17.720  41.944  34.326  1.00  0.00    -0.000 C 
BRANCH   7   8
ATOM      8  C   UNL     1     -17.185  40.648  33.695  1.00  0.00    -0.000 C 
BRANCH   8   9
ATOM      9  C   UNL     1     -17.874  40.307  32.364  1.00  0.00    -0.000 C 
BRANCH   9  10
ATOM     10  C   UNL     1     -16.897  39.610  31.406  1.00  0.00    -0.000 C 
BRANCH  10  11
ATOM     11  C   UNL     1     -16.253  40.583  30.406  1.00  0.00    -0.003 C 
ATOM     12  C   UNL     1     -14.877  40.117  29.930  1.00  0.00     0.004 C 
ENDBRANCH  10  11
ENDBRANCH   9  10
ENDBRANCH   8   9
ENDBRANCH   7   8
ENDBRANCH   6   7
ENDBRANCH   5   6
ENDBRANCH   4   5
ENDBRANCH   3   4
ENDBRANCH   2   3
ENDBRANCH   1   2
BRANCH   1  13
ATOM     13  C   UNL     1     -14.078  44.352  30.392  1.00  0.00     0.000 C 
BRANCH  13  14
ATOM     14  C   UNL     1     -13.972  44.304  31.927  1.00  0.00     0.000 C 
BRANCH  14  15
ATOM     15  C   UNL     1     -14.343  42.929  32.508  1.00  0.00     0.000 C 
BRANCH  15  16
ATOM     16  C   UNL     1     -13.126  42.175  33.068  1.00  0.00     0.000 C 
BRANCH  16  17
ATOM     17  C   UNL     1     -12.310  41.465  31.978  1.00  0.00     0.000 C 
BRANCH  17  18
ATOM     18  C   UNL     1     -10.804  41.561  32.270  1.00  0.00     0.000 C 
BRANCH  18  19
ATOM     19  C   UNL     1     -10.051  42.384  31.204  1.00  0.00     0.000 C 
BRANCH  19  20
ATOM     20  C   UNL     1     -10.284  43.901  31.315  1.00  0.00     0.006 C 
BRANCH  20  21
ATOM     21  C   UNL     1      -9.546  44.699  30.233  1.00  0.00     0.053 C 
BRANCH  21  22
ATOM     22  C   UNL     1     -10.499  45.140  29.167  1.00  0.00     0.041 C 
ATOM     23  O   UNL     1     -10.796  46.357  29.046  1.00  0.00    -0.550 OA
ATOM     24  O   UNL     1     -11.095  44.200  28.336  1.00  0.00    -0.550 OA
ENDBRANCH  21  22
ENDBRANCH  20  21
ENDBRANCH  19  20
ENDBRANCH  18  19
ENDBRANCH  17  18
ENDBRANCH  16  17
ENDBRANCH  15  16
ENDBRANCH  14  15
ENDBRANCH  13  14
ENDBRANCH   1  13
TORSDOF 20
ENDMDL
MODEL 3
REMARK VINA RESULT:    -4.405      2.698      5.603
REMARK INTER + INTRA:         -12.985
REMARK INTER:                  -9.031
REMARK INTRA:                  -3.954
REMARK UNBOUND:                -3.429
REMARK SMILES CCCCCCCCCCCCCCCCCCCCCC(=O)[O-]
REMARK SMILES IDX 12 1 11 2 10 3 9 4 8 5 7 6 6 7 5 8 4 9 3 10 2 11 1 12 13 13
REMARK SMILES IDX 14 14 15 15 16 16 17 17 18 18 19 19 20 20 21 21 22 22 23 23
REMARK SMILES IDX 24 24
REMARK H PARENT
REMARK Flexibility Score: inf
ROOT
ATOM      1  C   UNL     1     -16.526  42.719  33.573  1.00  0.00     0.000 C 
ENDROOT
BRANCH   1   2
ATOM      2  C   UNL     1     -15.085  43.157  33.891  1.00  0.00     0.000 C 
BRANCH   2   3
ATOM      3  C   UNL     1     -14.928  44.686  33.960  1.00  0.00     0.000 C 
BRANCH   3   4
ATOM      4  C   UNL     1     -13.609  45.173  33.339  1.00  0.00    -0.000 C 
BRANCH   4   5
ATOM      5  C   UNL     1     -13.215  44.371  32.084  1.00  0.00    -0.000 C 
BRANCH   5   6
ATOM      6  C   UNL     1     -11.728  44.528  31.725  1.00  0.00    -0.000 C 
BRANCH   6   7
ATOM      7  C   UNL     1     -11.514  44.941  30.258  1.00  0.00    -0.000 C 
BRANCH   7   8
ATOM      8  C   UNL     1     -11.896  43.826  29.271  1.00  0.00    -0.000 C 
BRANCH   8   9
ATOM      9  C   UNL     1     -11.058  42.552  29.461  1.00  0.00    -0.000 C 
BRANCH   9  10
ATOM     10  C   UNL     1     -11.834  41.312  28.991  1.00  0.00    -0.000 C 
BRANCH  10  11
ATOM     11  C   UNL     1     -12.072  40.300  30.123  1.00  0.00    -0.003 C 
ATOM     12  C   UNL     1     -12.839  40.899  31.301  1.00  0.00     0.004 C 
ENDBRANCH  10  11
ENDBRANCH   9  10
ENDBRANCH   8   9
ENDBRANCH   7   8
ENDBRANCH   6   7
ENDBRANCH   5   6
ENDBRANCH   4   5
ENDBRANCH   3   4
ENDBRANCH   2   3
ENDBRANCH   1   2
BRANCH   1  13
ATOM     13  C   UNL     1     -17.591  43.831  33.674  1.00  0.00     0.000 C 
BRANCH  13  14
ATOM     14  C   UNL     1     -18.606  43.879  32.518  1.00  0.00     0.000 C 
BRANCH  14  15
ATOM     15  C   UNL     1     -17.946  43.712  31.138  1.00  0.00     0.000 C 
BRANCH  15  16
ATOM     16  C   UNL     1     -17.118  44.940  30.726  1.00  0.00     0.000 C 
BRANCH  16  17
ATOM     17  C   UNL     1     -15.934  44.585  29.816  1.00  0.00     0.000 C 
BRANCH  17  18
ATOM     18  C   UNL     1     -15.668  43.071  29.826  1.00  0.00     0.000 C 
BRANCH  18  19
ATOM     19  C   UNL     1     -15.271  42.536  28.434  1.00  0.00     0.000 C 
BRANCH  19  20
ATOM     20  C   UNL     1     -15.494  41.023  28.265  1.00  0.00     0.006 C 
BRANCH  20  21
ATOM     21  C   UNL     1     -15.980  40.344  29.552  1.00  0.00     0.053 C 
BRANCH  21  22
ATOM     22  C   UNL     1     -15.834  38.859  29.445  1.00  0.00     0.041 C 
ATOM     23  O   UNL     1     -15.235  38.215  30.346  1.00  0.00    -0.550 OA
ATOM     24  O   UNL     1     -16.321  38.191  28.330  1.00  0.00    -0.550 OA
ENDBRANCH  21  22
ENDBRANCH  20  21
ENDBRANCH  19  20
ENDBRANCH  18  19
ENDBRANCH  17  18
ENDBRANCH  16  17
ENDBRANCH  15  16
ENDBRANCH  14  15
ENDBRANCH  13  14
ENDBRANCH   1  13
TORSDOF 20
ENDMDL
MODEL 4
REMARK VINA RESULT:    -4.374      3.126      6.970
REMARK INTER + INTRA:         -12.918
REMARK INTER:                  -9.395
REMARK INTRA:                  -3.523
REMARK UNBOUND:                -3.429
REMARK SMILES CCCCCCCCCCCCCCCCCCCCCC(=O)[O-]
REMARK SMILES IDX 12 1 11 2 10 3 9 4 8 5 7 6 6 7 5 8 4 9 3 10 2 11 1 12 13 13
REMARK SMILES IDX 14 14 15 15 16 16 17 17 18 18 19 19 20 20 21 21 22 22 23 23
REMARK SMILES IDX 24 24
REMARK H PARENT
REMARK Flexibility Score: inf
ROOT
ATOM      1  C   UNL     1     -16.915  42.577  33.511  1.00  0.00     0.000 C 
ENDROOT
BRANCH   1   2
ATOM      2  C   UNL     1     -18.195  43.432  33.564  1.00  0.00     0.000 C 
BRANCH   2   3
ATOM      3  C   UNL     1     -18.758  43.749  32.168  1.00  0.00     0.000 C 
BRANCH   3   4
ATOM      4  C   UNL     1     -17.706  43.591  31.058  1.00  0.00    -0.000 C 
BRANCH   4   5
ATOM      5  C   UNL     1     -17.115  44.940  30.607  1.00  0.00    -0.000 C 
BRANCH   5   6
ATOM      6  C   UNL     1     -15.723  44.792  29.970  1.00  0.00    -0.000 C 
BRANCH   6   7
ATOM      7  C   UNL     1     -15.005  43.503  30.409  1.00  0.00    -0.000 C 
BRANCH   7   8
ATOM      8  C   UNL     1     -14.439  42.711  29.219  1.00  0.00    -0.000 C 
BRANCH   8   9
ATOM      9  C   UNL     1     -14.172  41.237  29.559  1.00  0.00    -0.000 C 
BRANCH   9  10
ATOM     10  C   UNL     1     -14.932  40.822  30.828  1.00  0.00    -0.000 C 
BRANCH  10  11
ATOM     11  C   UNL     1     -16.315  40.227  30.520  1.00  0.00    -0.003 C 
ATOM     12  C   UNL     1     -16.360  38.709  30.699  1.00  0.00     0.004 C 
ENDBRANCH  10  11
ENDBRANCH   9  10
ENDBRANCH   8   9
ENDBRANCH   7   8
ENDBRANCH   6   7
ENDBRANCH   5   6
ENDBRANCH   4   5
ENDBRANCH   3   4
ENDBRANCH   2   3
ENDBRANCH   1   2
BRANCH   1  13
ATOM     13  C   UNL     1     -15.644  43.257  34.062  1.00  0.00     0.000 C 
BRANCH  13  14
ATOM     14  C   UNL     1     -15.604  44.790  33.922  1.00  0.00     0.000 C 
BRANCH  14  15
ATOM     15  C   UNL     1     -14.206  45.375  34.188  1.00  0.00     0.000 C 
BRANCH  15  16
ATOM     16  C   UNL     1     -13.077  44.392  33.839  1.00  0.00     0.000 C 
BRANCH  16  17
ATOM     17  C   UNL     1     -12.489  44.630  32.440  1.00  0.00     0.000 C 
BRANCH  17  18
ATOM     18  C   UNL     1     -11.151  43.893  32.273  1.00  0.00     0.000 C 
BRANCH  18  19
ATOM     19  C   UNL     1     -11.228  42.768  31.219  1.00  0.00     0.000 C 
BRANCH  19  20
ATOM     20  C   UNL     1     -10.348  43.018  29.982  1.00  0.00     0.006 C 
BRANCH  20  21
ATOM     21  C   UNL     1     -10.953  44.044  29.016  1.00  0.00     0.053 C 
BRANCH  21  22
ATOM     22  C   UNL     1     -10.132  45.295  29.004  1.00  0.00     0.041 C 
ATOM     23  O   UNL     1      -8.876  45.228  28.941  1.00  0.00    -0.550 OA
ATOM     24  O   UNL     1     -10.751  46.534  29.106  1.00  0.00    -0.550 OA
ENDBRANCH  21  22
ENDBRANCH  20  21
ENDBRANCH  19  20
ENDBRANCH  18  19
ENDBRANCH  17  18
ENDBRANCH  16  17
ENDBRANCH  15  16
ENDBRANCH  14  15
ENDBRANCH  13  14
ENDBRANCH   1  13
TORSDOF 20
ENDMDL
MODEL 5
REMARK VINA RESULT:    -4.367      2.834      5.535
REMARK INTER + INTRA:         -12.903
REMARK INTER:                  -8.837
REMARK INTRA:                  -4.066
REMARK UNBOUND:                -3.429
REMARK SMILES CCCCCCCCCCCCCCCCCCCCCC(=O)[O-]
REMARK SMILES IDX 12 1 11 2 10 3 9 4 8 5 7 6 6 7 5 8 4 9 3 10 2 11 1 12 13 13
REMARK SMILES IDX 14 14 15 15 16 16 17 17 18 18 19 19 20 20 21 21 22 22 23 23
REMARK SMILES IDX 24 24
REMARK H PARENT
REMARK Flexibility Score: inf
ROOT
ATOM      1  C   UNL     1     -11.934  41.498  32.420  1.00  0.00     0.000 C 
ENDROOT
BRANCH   1   2
ATOM      2  C   UNL     1     -13.017  42.492  32.881  1.00  0.00     0.000 C 
BRANCH   2   3
ATOM      3  C   UNL     1     -13.966  42.909  31.744  1.00  0.00     0.000 C 
BRANCH   3   4
ATOM      4  C   UNL     1     -14.078  44.435  31.600  1.00  0.00    -0.000 C 
BRANCH   4   5
ATOM      5  C   UNL     1     -14.730  44.857  30.270  1.00  0.00    -0.000 C 
BRANCH   5   6
ATOM      6  C   UNL     1     -16.136  44.261  30.085  1.00  0.00    -0.000 C 
BRANCH   6   7
ATOM      7  C   UNL     1     -17.195  44.963  30.954  1.00  0.00    -0.000 C 
BRANCH   7   8
ATOM      8  C   UNL     1     -17.994  43.974  31.819  1.00  0.00    -0.000 C 
BRANCH   8   9
ATOM      9  C   UNL     1     -17.391  43.788  33.220  1.00  0.00    -0.000 C 
BRANCH   9  10
ATOM     10  C   UNL     1     -17.212  42.298  33.545  1.00  0.00    -0.000 C 
BRANCH  10  11
ATOM     11  C   UNL     1     -17.876  41.382  32.505  1.00  0.00    -0.003 C 
ATOM     12  C   UNL     1     -16.864  40.552  31.716  1.00  0.00     0.004 C 
ENDBRANCH  10  11
ENDBRANCH   9  10
ENDBRANCH   8   9
ENDBRANCH   7   8
ENDBRANCH   6   7
ENDBRANCH   5   6
ENDBRANCH   4   5
ENDBRANCH   3   4
ENDBRANCH   2   3
ENDBRANCH   1   2
BRANCH   1  13
ATOM     13  C   UNL     1     -10.579  42.129  32.040  1.00  0.00     0.000 C 
BRANCH  13  14
ATOM     14  C   UNL     1     -10.434  43.627  32.369  1.00  0.00     0.000 C 
BRANCH  14  15
ATOM     15  C   UNL     1     -10.160  44.486  31.123  1.00  0.00     0.000 C 
BRANCH  15  16
ATOM     16  C   UNL     1     -10.228  43.676  29.818  1.00  0.00     0.000 C 
BRANCH  16  17
ATOM     17  C   UNL     1     -11.473  43.996  28.980  1.00  0.00     0.000 C 
BRANCH  17  18
ATOM     18  C   UNL     1     -11.620  43.007  27.813  1.00  0.00     0.000 C 
BRANCH  18  19
ATOM     19  C   UNL     1     -12.901  42.154  27.924  1.00  0.00     0.000 C 
BRANCH  19  20
ATOM     20  C   UNL     1     -12.764  40.954  28.877  1.00  0.00     0.006 C 
BRANCH  20  21
ATOM     21  C   UNL     1     -14.117  40.357  29.283  1.00  0.00     0.053 C 
BRANCH  21  22
ATOM     22  C   UNL     1     -13.932  38.989  29.861  1.00  0.00     0.041 C 
ATOM     23  O   UNL     1     -12.864  38.693  30.459  1.00  0.00    -0.550 OA
ATOM     24  O   UNL     1     -14.920  38.027  29.701  1.00  0.00    -0.550 OA
ENDBRANCH  21  22
ENDBRANCH  20  21
ENDBRANCH  19  20
ENDBRANCH  18  19
ENDBRANCH  17  18
ENDBRANCH  16  17
ENDBRANCH  15  16
ENDBRANCH  14  15
ENDBRANCH  13  14
ENDBRANCH   1  13
TORSDOF 20
ENDMDL
MODEL 6
REMARK VINA RESULT:    -4.358      3.072      5.952
REMARK INTER + INTRA:         -12.882
REMARK INTER:                  -9.664
REMARK INTRA:                  -3.218
REMARK UNBOUND:                -3.429
REMARK SMILES CCCCCCCCCCCCCCCCCCCCCC(=O)[O-]
REMARK SMILES IDX 12 1 11 2 10 3 9 4 8 5 7 6 6 7 5 8 4 9 3 10 2 11 1 12 13 13
REMARK SMILES IDX 14 14 15 15 16 16 17 17 18 18 19 19 20 20 21 21 22 22 23 23
REMARK SMILES IDX 24 24
REMARK H PARENT
REMARK Flexibility Score: inf
ROOT
ATOM      1  C   UNL     1     -18.015  43.749  31.246  1.00  0.00     0.000 C 
ENDROOT
BRANCH   1   2
ATOM      2  C   UNL     1     -18.103  43.543  32.770  1.00  0.00     0.000 C 
BRANCH   2   3
ATOM      3  C   UNL     1     -16.986  44.273  33.536  1.00  0.00     0.000 C 
BRANCH   3   4
ATOM      4  C   UNL     1     -15.845  43.332  33.955  1.00  0.00    -0.000 C 
BRANCH   4   5
ATOM      5  C   UNL     1     -14.499  44.065  34.107  1.00  0.00    -0.000 C 
BRANCH   5   6
ATOM      6  C   UNL     1     -14.121  44.873  32.855  1.00  0.00    -0.000 C 
BRANCH   6   7
ATOM      7  C   UNL     1     -12.620  44.788  32.526  1.00  0.00    -0.000 C 
BRANCH   7   8
ATOM      8  C   UNL     1     -12.131  43.338  32.382  1.00  0.00    -0.000 C 
BRANCH   8   9
ATOM      9  C   UNL     1     -11.391  43.089  31.058  1.00  0.00    -0.000 C 
BRANCH   9  10
ATOM     10  C   UNL     1     -11.038  41.603  30.900  1.00  0.00    -0.000 C 
BRANCH  10  11
ATOM     11  C   UNL     1     -10.862  40.890  32.250  1.00  0.00    -0.003 C 
ATOM     12  C   UNL     1      -9.395  40.726  32.646  1.00  0.00     0.004 C 
ENDBRANCH  10  11
ENDBRANCH   9  10
ENDBRANCH   8   9
ENDBRANCH   7   8
ENDBRANCH   6   7
ENDBRANCH   5   6
ENDBRANCH   4   5
ENDBRANCH   3   4
ENDBRANCH   2   3
ENDBRANCH   1   2
BRANCH   1  13
ATOM     13  C   UNL     1     -17.117  44.918  30.790  1.00  0.00     0.000 C 
BRANCH  13  14
ATOM     14  C   UNL     1     -16.017  44.548  29.779  1.00  0.00     0.000 C 
BRANCH  14  15
ATOM     15  C   UNL     1     -16.008  43.049  29.431  1.00  0.00     0.000 C 
BRANCH  15  16
ATOM     16  C   UNL     1     -14.753  42.328  29.949  1.00  0.00     0.000 C 
BRANCH  16  17
ATOM     17  C   UNL     1     -15.036  41.436  31.167  1.00  0.00     0.000 C 
BRANCH  17  18
ATOM     18  C   UNL     1     -16.192  40.465  30.879  1.00  0.00     0.000 C 
BRANCH  18  19
ATOM     19  C   UNL     1     -15.712  39.167  30.197  1.00  0.00     0.000 C 
BRANCH  19  20
ATOM     20  C   UNL     1     -15.959  39.137  28.679  1.00  0.00     0.006 C 
BRANCH  20  21
ATOM     21  C   UNL     1     -16.351  37.747  28.165  1.00  0.00     0.053 C 
BRANCH  21  22
ATOM     22  C   UNL     1     -16.686  37.805  26.708  1.00  0.00     0.041 C 
ATOM     23  O   UNL     1     -16.854  36.742  26.053  1.00  0.00    -0.550 OA
ATOM     24  O   UNL     1     -16.769  39.031  26.062  1.00  0.00    -0.550 OA
ENDBRANCH  21  22
ENDBRANCH  20  21
ENDBRANCH  19  20
ENDBRANCH  18  19
ENDBRANCH  17  18
ENDBRANCH  16  17
ENDBRANCH  15  16
ENDBRANCH  14  15
ENDBRANCH  13  14
ENDBRANCH   1  13
TORSDOF 20
ENDMDL
MODEL 7
REMARK VINA RESULT:    -4.333      2.256      4.510
REMARK INTER + INTRA:         -12.829
REMARK INTER:                  -9.056
REMARK INTRA:                  -3.773
REMARK UNBOUND:                -3.429
REMARK SMILES CCCCCCCCCCCCCCCCCCCCCC(=O)[O-]
REMARK SMILES IDX 12 1 11 2 10 3 9 4 8 5 7 6 6 7 5 8 4 9 3 10 2 11 1 12 13 13
REMARK SMILES IDX 14 14 15 15 16 16 17 17 18 18 19 19 20 20 21 21 22 22 23 23
REMARK SMILES IDX 24 24
REMARK H PARENT
REMARK Flexibility Score: inf
ROOT
ATOM      1  C   UNL     1     -10.418  42.450  32.261  1.00  0.00     0.000 C 
ENDROOT
BRANCH   1   2
ATOM      2  C   UNL     1     -11.909  42.820  32.379  1.00  0.00     0.000 C 
BRANCH   2   3
ATOM      3  C   UNL     1     -12.193  44.281  31.989  1.00  0.00     0.000 C 
BRANCH   3   4
ATOM      4  C   UNL     1     -13.318  44.908  32.828  1.00  0.00    -0.000 C 
BRANCH   4   5
ATOM      5  C   UNL     1     -13.623  44.101  34.104  1.00  0.00    -0.000 C 
BRANCH   5   6
ATOM      6  C   UNL     1     -15.130  43.876  34.316  1.00  0.00    -0.000 C 
BRANCH   6   7
ATOM      7  C   UNL     1     -15.709  42.815  33.364  1.00  0.00    -0.000 C 
BRANCH   7   8
ATOM      8  C   UNL     1     -17.245  42.757  33.413  1.00  0.00    -0.000 C 
BRANCH   8   9
ATOM      9  C   UNL     1     -17.899  43.205  32.097  1.00  0.00    -0.000 C 
BRANCH   9  10
ATOM     10  C   UNL     1     -17.458  44.628  31.723  1.00  0.00    -0.000 C 
BRANCH  10  11
ATOM     11  C   UNL     1     -17.022  44.746  30.254  1.00  0.00    -0.003 C 
ATOM     12  C   UNL     1     -15.503  44.803  30.091  1.00  0.00     0.004 C 
ENDBRANCH  10  11
ENDBRANCH   9  10
ENDBRANCH   8   9
ENDBRANCH   7   8
ENDBRANCH   6   7
ENDBRANCH   5   6
ENDBRANCH   4   5
ENDBRANCH   3   4
ENDBRANCH   2   3
ENDBRANCH   1   2
BRANCH   1  13
ATOM     13  C   UNL     1     -10.107  40.940  32.321  1.00  0.00     0.000 C 
BRANCH  13  14
ATOM     14  C   UNL     1     -10.233  40.189  30.982  1.00  0.00     0.000 C 
BRANCH  14  15
ATOM     15  C   UNL     1      -9.847  41.058  29.773  1.00  0.00     0.000 C 
BRANCH  15  16
ATOM     16  C   UNL     1     -10.974  41.155  28.731  1.00  0.00     0.000 C 
BRANCH  16  17
ATOM     17  C   UNL     1     -11.543  42.575  28.597  1.00  0.00     0.000 C 
BRANCH  17  18
ATOM     18  C   UNL     1     -13.069  42.575  28.776  1.00  0.00     0.000 C 
BRANCH  18  19
ATOM     19  C   UNL     1     -13.614  41.186  29.171  1.00  0.00     0.000 C 
BRANCH  19  20
ATOM     20  C   UNL     1     -14.624  41.224  30.330  1.00  0.00     0.006 C 
BRANCH  20  21
ATOM     21  C   UNL     1     -16.022  40.745  29.919  1.00  0.00     0.053 C 
BRANCH  21  22
ATOM     22  C   UNL     1     -16.385  39.497  30.660  1.00  0.00     0.041 C 
ATOM     23  O   UNL     1     -16.260  38.372  30.107  1.00  0.00    -0.550 OA
ATOM     24  O   UNL     1     -16.904  39.578  31.946  1.00  0.00    -0.550 OA
ENDBRANCH  21  22
ENDBRANCH  20  21
ENDBRANCH  19  20
ENDBRANCH  18  19
ENDBRANCH  17  18
ENDBRANCH  16  17
ENDBRANCH  15  16
ENDBRANCH  14  15
ENDBRANCH  13  14
ENDBRANCH   1  13
TORSDOF 20
ENDMDL
MODEL 8
REMARK VINA RESULT:    -4.301      3.054      5.772
REMARK INTER + INTRA:         -12.760
REMARK INTER:                  -9.080
REMARK INTRA:                  -3.680
REMARK UNBOUND:                -3.429
REMARK SMILES CCCCCCCCCCCCCCCCCCCCCC(=O)[O-]
REMARK SMILES IDX 12 1 11 2 10 3 9 4 8 5 7 6 6 7 5 8 4 9 3 10 2 11 1 12 13 13
REMARK SMILES IDX 14 14 15 15 16 16 17 17 18 18 19 19 20 20 21 21 22 22 23 23
REMARK SMILES IDX 24 24
REMARK H PARENT
REMARK Flexibility Score: inf
ROOT
ATOM      1  C   UNL     1     -17.124  40.751  33.719  1.00  0.00     0.000 C 
ENDROOT
BRANCH   1   2
ATOM      2  C   UNL     1     -17.591  42.162  34.124  1.00  0.00     0.000 C 
BRANCH   2   3
ATOM      3  C   UNL     1     -19.003  42.492  33.611  1.00  0.00     0.000 C 
BRANCH   3   4
ATOM      4  C   UNL     1     -19.007  43.649  32.599  1.00  0.00    -0.000 C 
BRANCH   4   5
ATOM      5  C   UNL     1     -17.718  44.489  32.656  1.00  0.00    -0.000 C 
BRANCH   5   6
ATOM      6  C   UNL     1     -17.179  44.842  31.259  1.00  0.00    -0.000 C 
BRANCH   6   7
ATOM      7  C   UNL     1     -16.825  43.596  30.429  1.00  0.00    -0.000 C 
BRANCH   7   8
ATOM      8  C   UNL     1     -15.325  43.512  30.106  1.00  0.00    -0.000 C 
BRANCH   8   9
ATOM      9  C   UNL     1     -14.584  44.830  30.377  1.00  0.00    -0.000 C 
BRANCH   9  10
ATOM     10  C   UNL     1     -13.459  44.624  31.403  1.00  0.00    -0.000 C 
BRANCH  10  11
ATOM     11  C   UNL     1     -13.946  44.772  32.853  1.00  0.00    -0.003 C 
ATOM     12  C   UNL     1     -14.071  43.430  33.574  1.00  0.00     0.004 C 
ENDBRANCH  10  11
ENDBRANCH   9  10
ENDBRANCH   8   9
ENDBRANCH   7   8
ENDBRANCH   6   7
ENDBRANCH   5   6
ENDBRANCH   4   5
ENDBRANCH   3   4
ENDBRANCH   2   3
ENDBRANCH   1   2
BRANCH   1  13
ATOM     13  C   UNL     1     -16.921  40.534  32.205  1.00  0.00     0.000 C 
BRANCH  13  14
ATOM     14  C   UNL     1     -17.544  39.246  31.634  1.00  0.00     0.000 C 
BRANCH  14  15
ATOM     15  C   UNL     1     -16.609  38.516  30.655  1.00  0.00     0.000 C 
BRANCH  15  16
ATOM     16  C   UNL     1     -15.773  39.484  29.801  1.00  0.00     0.000 C 
BRANCH  16  17
ATOM     17  C   UNL     1     -14.527  38.822  29.196  1.00  0.00     0.000 C 
BRANCH  17  18
ATOM     18  C   UNL     1     -13.285  39.098  30.056  1.00  0.00     0.000 C 
BRANCH  18  19
ATOM     19  C   UNL     1     -13.407  40.410  30.859  1.00  0.00     0.000 C 
BRANCH  19  20
ATOM     20  C   UNL     1     -12.238  41.385  30.634  1.00  0.00     0.006 C 
BRANCH  20  21
ATOM     21  C   UNL     1     -12.141  41.876  29.185  1.00  0.00     0.053 C 
BRANCH  21  22
ATOM     22  C   UNL     1     -11.019  42.855  29.040  1.00  0.00     0.041 C 
ATOM     23  O   UNL     1     -10.709  43.301  27.903  1.00  0.00    -0.550 OA
ATOM     24  O   UNL     1     -10.285  43.241  30.153  1.00  0.00    -0.550 OA
ENDBRANCH  21  22
ENDBRANCH  20  21
ENDBRANCH  19  20
ENDBRANCH  18  19
ENDBRANCH  17  18
ENDBRANCH  16  17
ENDBRANCH  15  16
ENDBRANCH  14  15
ENDBRANCH  13  14
ENDBRANCH   1  13
TORSDOF 20
ENDMDL
MODEL 9
REMARK VINA RESULT:    -4.205      2.517      5.036
REMARK INTER + INTRA:         -12.552
REMARK INTER:                  -8.717
REMARK INTRA:                  -3.835
REMARK UNBOUND:                -3.429
REMARK SMILES CCCCCCCCCCCCCCCCCCCCCC(=O)[O-]
REMARK SMILES IDX 12 1 11 2 10 3 9 4 8 5 7 6 6 7 5 8 4 9 3 10 2 11 1 12 13 13
REMARK SMILES IDX 14 14 15 15 16 16 17 17 18 18 19 19 20 20 21 21 22 22 23 23
REMARK SMILES IDX 24 24
REMARK H PARENT
REMARK Flexibility Score: inf
ROOT
ATOM      1  C   UNL     1     -12.991  44.862  32.829  1.00  0.00     0.000 C 
ENDROOT
BRANCH   1   2
ATOM      2  C   UNL     1     -13.614  44.269  31.551  1.00  0.00     0.000 C 
BRANCH   2   3
ATOM      3  C   UNL     1     -12.745  44.502  30.303  1.00  0.00     0.000 C 
BRANCH   3   4
ATOM      4  C   UNL     1     -11.268  44.749  30.649  1.00  0.00    -0.000 C 
BRANCH   4   5
ATOM      5  C   UNL     1     -10.347  44.644  29.420  1.00  0.00    -0.000 C 
BRANCH   5   6
ATOM      6  C   UNL     1      -9.690  43.260  29.289  1.00  0.00    -0.000 C 
BRANCH   6   7
ATOM      7  C   UNL     1     -10.287  42.428  28.140  1.00  0.00    -0.000 C 
BRANCH   7   8
ATOM      8  C   UNL     1     -11.400  41.480  28.617  1.00  0.00    -0.000 C 
BRANCH   8   9
ATOM      9  C   UNL     1     -11.033  40.737  29.911  1.00  0.00    -0.000 C 
BRANCH   9  10
ATOM     10  C   UNL     1     -12.145  40.886  30.960  1.00  0.00    -0.000 C 
BRANCH  10  11
ATOM     11  C   UNL     1     -11.599  41.213  32.359  1.00  0.00    -0.003 C 
ATOM     12  C   UNL     1     -10.079  41.380  32.375  1.00  0.00     0.004 C 
ENDBRANCH  10  11
ENDBRANCH   9  10
ENDBRANCH   8   9
ENDBRANCH   7   8
ENDBRANCH   6   7
ENDBRANCH   5   6
ENDBRANCH   4   5
ENDBRANCH   3   4
ENDBRANCH   2   3
ENDBRANCH   1   2
BRANCH   1  13
ATOM     13  C   UNL     1     -13.913  44.876  34.066  1.00  0.00     0.000 C 
BRANCH  13  14
ATOM     14  C   UNL     1     -15.190  44.024  33.946  1.00  0.00     0.000 C 
BRANCH  14  15
ATOM     15  C   UNL     1     -16.470  44.876  33.879  1.00  0.00     0.000 C 
BRANCH  15  16
ATOM     16  C   UNL     1     -17.483  44.342  32.853  1.00  0.00     0.000 C 
BRANCH  16  17
ATOM     17  C   UNL     1     -17.160  44.775  31.415  1.00  0.00     0.000 C 
BRANCH  17  18
ATOM     18  C   UNL     1     -17.082  43.559  30.479  1.00  0.00     0.000 C 
BRANCH  18  19
ATOM     19  C   UNL     1     -17.119  42.222  31.250  1.00  0.00     0.000 C 
BRANCH  19  20
ATOM     20  C   UNL     1     -15.801  41.431  31.180  1.00  0.00     0.006 C 
BRANCH  20  21
ATOM     21  C   UNL     1     -15.928  40.130  30.378  1.00  0.00     0.053 C 
BRANCH  21  22
ATOM     22  C   UNL     1     -15.634  40.378  28.932  1.00  0.00     0.041 C 
ATOM     23  O   UNL     1     -15.998  39.546  28.059  1.00  0.00    -0.550 OA
ATOM     24  O   UNL     1     -14.918  41.505  28.552  1.00  0.00    -0.550 OA
ENDBRANCH  21  22
ENDBRANCH  20  21
ENDBRANCH  19  20
ENDBRANCH  18  19
ENDBRANCH  17  18
ENDBRANCH  16  17
ENDBRANCH  15  16
ENDBRANCH  14  15
ENDBRANCH  13  14
ENDBRANCH   1  13
TORSDOF 20
ENDMDL
