MODEL 1
REMARK VINA RESULT:    -2.285      0.000      0.000
REMARK INTER + INTRA:          -2.285
REMARK INTER:                  -2.285
REMARK INTRA:                   0.000
REMARK UNBOUND:                 0.000
REMARK SMILES CC(=O)[O-]
REMARK SMILES IDX 1 1 2 2 3 3 4 4
REMARK H PARENT
REMARK Flexibility Score: inf
ROOT
ATOM      1  C   UNL     1       4.937   3.967   5.384  1.00  0.00     0.063 C 
ATOM      2  C   UNL     1       5.870   3.682   6.511  1.00  0.00     0.038 C 
ATOM      3  O   UNL     1       6.569   2.635   6.503  1.00  0.00    -0.550 OA
ATOM      4  O   UNL     1       6.010   4.596   7.548  1.00  0.00    -0.550 OA
ENDROOT
TORSDOF 0
ENDMDL
MODEL 2
REMARK VINA RESULT:    -2.237     13.598     13.846
REMARK INTER + INTRA:          -2.237
REMARK INTER:                  -2.237
REMARK INTRA:                   0.000
REMARK UNBOUND:                 0.000
REMARK SMILES CC(=O)[O-]
REMARK SMILES IDX 1 1 2 2 3 3 4 4
REMARK H PARENT
REMARK Flexibility Score: inf
ROOT
ATOM      1  C   UNL     1      -5.487  -3.730   5.021  1.00  0.00     0.063 C 
ATOM      2  C   UNL     1      -5.964  -3.257   6.352  1.00  0.00     0.038 C 
ATOM      3  O   UNL     1      -6.318  -2.060   6.507  1.00  0.00    -0.550 OA
ATOM      4  O   UNL     1      -6.069  -4.150   7.411  1.00  0.00    -0.550 OA
ENDROOT
TORSDOF 0
ENDMDL
MODEL 3
REMARK VINA RESULT:    -2.205     13.468     13.697
REMARK INTER + INTRA:          -2.205
REMARK INTER:                  -2.205
REMARK INTRA:                   0.000
REMARK UNBOUND:                 0.000
REMARK SMILES CC(=O)[O-]
REMARK SMILES IDX 1 1 2 2 3 3 4 4
REMARK H PARENT
REMARK Flexibility Score: inf
ROOT
ATOM      1  C   UNL     1      -5.406  -3.737   5.059  1.00  0.00     0.063 C 
ATOM      2  C   UNL     1      -5.946  -3.197   6.339  1.00  0.00     0.038 C 
ATOM      3  O   UNL     1      -6.148  -3.967   7.314  1.00  0.00    -0.550 OA
ATOM      4  O   UNL     1      -6.177  -1.834   6.477  1.00  0.00    -0.550 OA
ENDROOT
TORSDOF 0
ENDMDL
MODEL 4
REMARK VINA RESULT:    -2.140     17.450     17.962
REMARK INTER + INTRA:          -2.140
REMARK INTER:                  -2.140
REMARK INTRA:                   0.000
REMARK UNBOUND:                 0.000
REMARK SMILES CC(=O)[O-]
REMARK SMILES IDX 1 1 2 2 3 3 4 4
REMARK H PARENT
REMARK Flexibility Score: inf
ROOT
ATOM      1  C   UNL     1      -4.526  -6.247  -1.767  1.00  0.00     0.063 C 
ATOM      2  C   UNL     1      -5.520  -6.470  -2.856  1.00  0.00     0.038 C 
ATOM      3  O   UNL     1      -6.478  -7.267  -2.683  1.00  0.00    -0.550 OA
ATOM      4  O   UNL     1      -5.421  -5.759  -4.045  1.00  0.00    -0.550 OA
ENDROOT
TORSDOF 0
ENDMDL
MODEL 5
REMARK VINA RESULT:    -2.060      9.471      9.923
REMARK INTER + INTRA:          -2.060
REMARK INTER:                  -2.060
REMARK INTRA:                   0.000
REMARK UNBOUND:                 0.000
REMARK SMILES CC(=O)[O-]
REMARK SMILES IDX 1 1 2 2 3 3 4 4
REMARK H PARENT
REMARK Flexibility Score: inf
ROOT
ATOM      1  C   UNL     1       4.490   6.382  -1.744  1.00  0.00     0.063 C 
ATOM      2  C   UNL     1       5.472   6.441  -2.864  1.00  0.00     0.038 C 
ATOM      3  O   UNL     1       6.514   7.138  -2.754  1.00  0.00    -0.550 OA
ATOM      4  O   UNL     1       5.265   5.686  -4.011  1.00  0.00    -0.550 OA
ENDROOT
TORSDOF 0
ENDMDL
MODEL 6
REMARK VINA RESULT:    -1.949      6.875      7.424
REMARK INTER + INTRA:          -1.949
REMARK INTER:                  -1.949
REMARK INTRA:                   0.000
REMARK UNBOUND:                 0.000
REMARK SMILES CC(=O)[O-]
REMARK SMILES IDX 1 1 2 2 3 3 4 4
REMARK H PARENT
REMARK Flexibility Score: inf
ROOT
ATOM      1  C   UNL     1       0.915   7.567   6.259  1.00  0.00     0.063 C 
ATOM      2  C   UNL     1       0.509   8.348   5.056  1.00  0.00     0.038 C 
ATOM      3  O   UNL     1       1.183   8.272   3.996  1.00  0.00    -0.550 OA
ATOM      4  O   UNL     1      -0.644   9.122   5.085  1.00  0.00    -0.550 OA
ENDROOT
TORSDOF 0
ENDMDL
MODEL 7
REMARK VINA RESULT:    -1.874      9.843     10.208
REMARK INTER + INTRA:          -1.874
REMARK INTER:                  -1.874
REMARK INTRA:                   0.000
REMARK UNBOUND:                 0.000
REMARK SMILES CC(=O)[O-]
REMARK SMILES IDX 1 1 2 2 3 3 4 4
REMARK H PARENT
REMARK Flexibility Score: inf
ROOT
ATOM      1  C   UNL     1       7.418   4.994  -2.117  1.00  0.00     0.063 C 
ATOM      2  C   UNL     1       7.018   5.789  -3.313  1.00  0.00     0.038 C 
ATOM      3  O   UNL     1       7.793   5.879  -4.300  1.00  0.00    -0.550 OA
ATOM      4  O   UNL     1       5.766   6.388  -3.363  1.00  0.00    -0.550 OA
ENDROOT
TORSDOF 0
ENDMDL
MODEL 8
REMARK VINA RESULT:    -1.872      1.811      2.056
REMARK INTER + INTRA:          -1.872
REMARK INTER:                  -1.872
REMARK INTRA:                   0.000
REMARK UNBOUND:                 0.000
REMARK SMILES CC(=O)[O-]
REMARK SMILES IDX 1 1 2 2 3 3 4 4
REMARK H PARENT
REMARK Flexibility Score: inf
ROOT
ATOM      1  C   UNL     1       5.499   1.181   6.103  1.00  0.00     0.063 C 
ATOM      2  C   UNL     1       6.173   2.467   5.763  1.00  0.00     0.038 C 
ATOM      3  O   UNL     1       6.397   2.763   4.560  1.00  0.00    -0.550 OA
ATOM      4  O   UNL     1       6.507   3.365   6.768  1.00  0.00    -0.550 OA
ENDROOT
TORSDOF 0
ENDMDL
MODEL 9
REMARK VINA RESULT:    -1.828     13.379     13.603
REMARK INTER + INTRA:          -1.828
REMARK INTER:                  -1.828
REMARK INTRA:                   0.000
REMARK UNBOUND:                 0.000
REMARK SMILES CC(=O)[O-]
REMARK SMILES IDX 1 1 2 2 3 3 4 4
REMARK H PARENT
REMARK Flexibility Score: inf
ROOT
ATOM      1  C   UNL     1      -1.080  -7.230   6.204  1.00  0.00     0.063 C 
ATOM      2  C   UNL     1      -0.612  -8.035   5.039  1.00  0.00     0.038 C 
ATOM      3  O   UNL     1       0.397  -8.779   5.149  1.00  0.00    -0.550 OA
ATOM      4  O   UNL     1      -1.320  -8.007   3.844  1.00  0.00    -0.550 OA
ENDROOT
TORSDOF 0
ENDMDL
