MODEL 1
REMARK VINA RESULT:   124.285      0.000      0.000
REMARK INTER + INTRA:         136.023
REMARK INTER:                 135.183
REMARK INTRA:                   0.840
REMARK UNBOUND:                 0.840
REMARK SMILES C[C@@H]1[C@@H](C)CC[C@@]2(C(=O)[O-])CC[C@]3(C)C(=CC[C@@H]4[C@]5(C)CC[C@H](O)C(C)(C)[C@@H]5CC[C@@]43C)[C@@H]12
REMARK SMILES IDX 7 1 6 2 11 3 33 4 5 5 12 6 15 7 2 8 3 9 13 10 16 11 1 12
REMARK SMILES IDX 4 13 14 14 31 15 17 16 18 17 30 18 32 19 19 20 29 21 28 22
REMARK SMILES IDX 21 23 20 24 25 25 22 26 23 27 26 28 27 29 8 30 9 31 10 32
REMARK SMILES IDX 24 33
REMARK H PARENT 24 34
REMARK Flexibility Score: inf
ROOT
ATOM      1  C   UNL     1     -16.860  -9.596  13.237  1.00  0.00     0.017 C 
ATOM      2  C   UNL     1     -15.543 -10.318  12.862  1.00  0.00     0.014 C 
ATOM      3  C   UNL     1     -16.533  -8.407  14.215  1.00  0.00     0.014 C 
ATOM      4  C   UNL     1     -17.578  -9.137  11.903  1.00  0.00     0.030 C 
ATOM      5  C   UNL     1     -15.793 -11.580  12.030  1.00  0.00     0.004 C 
ATOM      6  C   UNL     1     -16.112  -7.064  13.574  1.00  0.00     0.013 C 
ATOM      7  C   UNL     1     -16.988  -7.795  11.419  1.00  0.00    -0.063 C 
ATOM      8  C   UNL     1     -17.706 -10.279  10.811  1.00  0.00    -0.003 C 
ATOM      9  C   UNL     1     -16.495 -11.284  10.695  1.00  0.00    -0.011 C 
ATOM     10  C   UNL     1     -17.022  -6.611  12.392  1.00  0.00    -0.006 C 
ATOM     11  C   UNL     1     -16.112  -7.763  10.406  1.00  0.00    -0.027 C 
ATOM     12  C   UNL     1     -19.006 -11.093  11.012  1.00  0.00     0.008 C 
ATOM     13  C   UNL     1     -15.470 -10.931   9.605  1.00  0.00     0.008 C 
ATOM     14  C   UNL     1     -18.489  -6.433  12.932  1.00  0.00     0.017 C 
ATOM     15  C   UNL     1     -16.531  -5.221  11.678  1.00  0.00    -0.020 C 
ATOM     16  C   UNL     1     -14.909  -6.883  10.457  1.00  0.00     0.032 C 
ATOM     17  C   UNL     1     -15.282  -5.401  10.673  1.00  0.00     0.006 C 
ATOM     18  C   UNL     1     -16.262  -4.121  12.746  1.00  0.00     0.008 C 
ATOM     19  C   UNL     1     -17.706  -4.661  10.803  1.00  0.00     0.012 C 
ATOM     20  C   UNL     1     -14.015  -4.368  10.739  1.00  0.00    -0.025 C 
ATOM     21  C   UNL     1     -14.812  -4.033  13.166  1.00  0.00     0.005 C 
ATOM     22  C   UNL     1     -13.970  -3.444  12.032  1.00  0.00     0.003 C 
ATOM     23  C   UNL     1     -12.651  -5.127  10.640  1.00  0.00     0.010 C 
ATOM     24  C   UNL     1     -14.124  -3.448   9.471  1.00  0.00     0.012 C 
ATOM     25  C   UNL     1     -12.531  -2.989  12.563  1.00  0.00    -0.006 C 
ATOM     26  C   UNL     1     -11.387  -4.248  10.624  1.00  0.00     0.033 C 
ATOM     27  C   UNL     1     -11.500  -2.922  11.402  1.00  0.00     0.120 C 
ATOM     28  C   UNL     1     -11.972  -3.905  13.697  1.00  0.00     0.014 C 
ATOM     29  C   UNL     1     -12.652  -1.563  13.162  1.00  0.00     0.014 C 
ENDROOT
BRANCH   1  30
ATOM     30  C   UNL     1     -17.755 -10.534  14.050  1.00  0.00     0.048 C 
ATOM     31  O   UNL     1     -18.342 -10.125  15.085  1.00  0.00    -0.550 OA
ATOM     32  O   UNL     1     -17.801 -11.891  13.751  1.00  0.00    -0.550 OA
ENDBRANCH   1  30
BRANCH  27  33
ATOM     33  O   UNL     1     -10.235  -2.539  11.890  1.00  0.00    -0.393 OA
ATOM     34  H   UNL     1     -10.044  -3.101  12.693  1.00  0.00     0.210 HD
ENDBRANCH  27  33
TORSDOF 2
ENDMDL
