MODEL 1
REMARK VINA RESULT:    -5.878      0.000      0.000
REMARK INTER + INTRA:          -6.499
REMARK INTER:                  -6.394
REMARK INTRA:                  -0.106
REMARK UNBOUND:                -0.106
REMARK SMILES Cc1ccc(C(C)C)cc1O
REMARK SMILES IDX 1 1 2 2 10 3 9 4 5 5 4 6 3 7 11 8 6 10 7 11 8 12
REMARK H PARENT 11 9
REMARK Flexibility Score: inf
ROOT
ATOM      1  C   UNL     1       8.939 -10.683   0.227  1.00  0.00     0.048 C 
ATOM      2  C   UNL     1       8.090 -11.382  -0.798  1.00  0.00    -0.009 A 
ATOM      3  C   UNL     1       7.326 -10.635  -1.713  1.00  0.00     0.118 A 
ATOM      4  C   UNL     1       6.538 -11.293  -2.667  1.00  0.00     0.050 A 
ATOM      5  C   UNL     1       6.499 -12.697  -2.723  1.00  0.00    -0.042 A 
ATOM      6  C   UNL     1       7.267 -13.435  -1.804  1.00  0.00     0.004 A 
ATOM      7  C   UNL     1       8.054 -12.783  -0.852  1.00  0.00     0.007 A 
ENDROOT
BRANCH   3   8
ATOM      8  O   UNL     1       7.354  -9.242  -1.671  1.00  0.00    -0.508 OA
ATOM      9  H   UNL     1       6.515  -8.698  -1.504  1.00  0.00     0.293 HD
ENDBRANCH   3   8
BRANCH   5  10
ATOM     10  C   UNL     1       5.641 -13.393  -3.762  1.00  0.00     0.013 C 
ATOM     11  C   UNL     1       5.529 -12.552  -5.040  1.00  0.00     0.012 C 
ATOM     12  C   UNL     1       4.254 -13.728  -3.199  1.00  0.00     0.012 C 
ENDBRANCH   5  10
TORSDOF 2
ENDMDL
MODEL 2
REMARK VINA RESULT:    -5.585      1.430      2.042
REMARK INTER + INTRA:          -6.180
REMARK INTER:                  -6.055
REMARK INTRA:                  -0.125
REMARK UNBOUND:                -0.106
REMARK SMILES Cc1ccc(C(C)C)cc1O
REMARK SMILES IDX 1 1 2 2 10 3 9 4 5 5 4 6 3 7 11 8 6 10 7 11 8 12
REMARK H PARENT 11 9
REMARK Flexibility Score: inf
ROOT
ATOM      1  C   UNL     1       8.967 -10.135   0.283  1.00  0.00     0.048 C 
ATOM      2  C   UNL     1       8.157 -10.966  -0.674  1.00  0.00    -0.009 A 
ATOM      3  C   UNL     1       8.243 -12.369  -0.642  1.00  0.00     0.118 A 
ATOM      4  C   UNL     1       7.484 -13.136  -1.537  1.00  0.00     0.050 A 
ATOM      5  C   UNL     1       6.634 -12.519  -2.471  1.00  0.00    -0.042 A 
ATOM      6  C   UNL     1       6.555 -11.115  -2.494  1.00  0.00     0.004 A 
ATOM      7  C   UNL     1       7.309 -10.347  -1.605  1.00  0.00     0.007 A 
ENDROOT
BRANCH   3   8
ATOM      8  O   UNL     1       9.082 -12.995   0.278  1.00  0.00    -0.508 OA
ATOM      9  H   UNL     1       9.281 -13.988   0.226  1.00  0.00     0.293 HD
ENDBRANCH   3   8
BRANCH   5  10
ATOM     10  C   UNL     1       5.820 -13.365  -3.431  1.00  0.00     0.013 C 
ATOM     11  C   UNL     1       5.720 -12.698  -4.808  1.00  0.00     0.012 C 
ATOM     12  C   UNL     1       4.428 -13.665  -2.861  1.00  0.00     0.012 C 
ENDBRANCH   5  10
TORSDOF 2
ENDMDL
MODEL 3
REMARK VINA RESULT:    -5.498      2.263      3.140
REMARK INTER + INTRA:          -6.086
REMARK INTER:                  -5.982
REMARK INTRA:                  -0.105
REMARK UNBOUND:                -0.106
REMARK SMILES Cc1ccc(C(C)C)cc1O
REMARK SMILES IDX 1 1 2 2 10 3 9 4 5 5 4 6 3 7 11 8 6 10 7 11 8 12
REMARK H PARENT 11 9
REMARK Flexibility Score: inf
ROOT
ATOM      1  C   UNL     1       7.828 -13.371  -1.313  1.00  0.00     0.048 C 
ATOM      2  C   UNL     1       6.828 -13.308  -2.434  1.00  0.00    -0.009 A 
ATOM      3  C   UNL     1       5.453 -13.419  -2.162  1.00  0.00     0.118 A 
ATOM      4  C   UNL     1       4.526 -13.358  -3.212  1.00  0.00     0.050 A 
ATOM      5  C   UNL     1       4.954 -13.189  -4.541  1.00  0.00    -0.042 A 
ATOM      6  C   UNL     1       6.332 -13.078  -4.801  1.00  0.00     0.004 A 
ATOM      7  C   UNL     1       7.259 -13.138  -3.758  1.00  0.00     0.007 A 
ENDROOT
BRANCH   3   8
ATOM      8  O   UNL     1       5.012 -13.588  -0.851  1.00  0.00    -0.508 OA
ATOM      9  H   UNL     1       4.408 -14.359  -0.588  1.00  0.00     0.293 HD
ENDBRANCH   3   8
BRANCH   5  10
ATOM     10  C   UNL     1       3.937 -13.125  -5.664  1.00  0.00     0.013 C 
ATOM     11  C   UNL     1       3.504 -11.679  -5.937  1.00  0.00     0.012 C 
ATOM     12  C   UNL     1       2.726 -14.017  -5.365  1.00  0.00     0.012 C 
ENDBRANCH   5  10
TORSDOF 2
ENDMDL
MODEL 4
REMARK VINA RESULT:    -5.344      1.508      2.431
REMARK INTER + INTRA:          -5.918
REMARK INTER:                  -5.792
REMARK INTRA:                  -0.126
REMARK UNBOUND:                -0.106
REMARK SMILES Cc1ccc(C(C)C)cc1O
REMARK SMILES IDX 1 1 2 2 10 3 9 4 5 5 4 6 3 7 11 8 6 10 7 11 8 12
REMARK H PARENT 11 9
REMARK Flexibility Score: inf
ROOT
ATOM      1  C   UNL     1       7.253  -8.167   0.226  1.00  0.00     0.048 C 
ATOM      2  C   UNL     1       7.249  -9.506  -0.457  1.00  0.00    -0.009 A 
ATOM      3  C   UNL     1       6.688  -9.646  -1.739  1.00  0.00     0.118 A 
ATOM      4  C   UNL     1       6.687 -10.898  -2.369  1.00  0.00     0.050 A 
ATOM      5  C   UNL     1       7.243 -12.023  -1.734  1.00  0.00    -0.042 A 
ATOM      6  C   UNL     1       7.802 -11.872  -0.452  1.00  0.00     0.004 A 
ATOM      7  C   UNL     1       7.804 -10.627   0.179  1.00  0.00     0.007 A 
ENDROOT
BRANCH   3   8
ATOM      8  O   UNL     1       6.133  -8.540  -2.381  1.00  0.00    -0.508 OA
ATOM      9  H   UNL     1       5.256  -8.603  -2.885  1.00  0.00     0.293 HD
ENDBRANCH   3   8
BRANCH   5  10
ATOM     10  C   UNL     1       7.234 -13.370  -2.432  1.00  0.00     0.013 C 
ATOM     11  C   UNL     1       8.381 -14.258  -1.933  1.00  0.00     0.012 C 
ATOM     12  C   UNL     1       7.286 -13.204  -3.955  1.00  0.00     0.012 C 
ENDBRANCH   5  10
TORSDOF 2
ENDMDL
MODEL 5
REMARK VINA RESULT:    -5.033      1.475      2.006
REMARK INTER + INTRA:          -5.579
REMARK INTER:                  -5.477
REMARK INTRA:                  -0.102
REMARK UNBOUND:                -0.106
REMARK SMILES Cc1ccc(C(C)C)cc1O
REMARK SMILES IDX 1 1 2 2 10 3 9 4 5 5 4 6 3 7 11 8 6 10 7 11 8 12
REMARK H PARENT 11 9
REMARK Flexibility Score: inf
ROOT
ATOM      1  C   UNL     1       8.180 -12.642  -0.633  1.00  0.00     0.048 C 
ATOM      2  C   UNL     1       7.329 -12.623  -1.872  1.00  0.00    -0.009 A 
ATOM      3  C   UNL     1       6.214 -11.770  -1.952  1.00  0.00     0.118 A 
ATOM      4  C   UNL     1       5.425 -11.758  -3.111  1.00  0.00     0.050 A 
ATOM      5  C   UNL     1       5.735 -12.591  -4.201  1.00  0.00    -0.042 A 
ATOM      6  C   UNL     1       6.854 -13.439  -4.110  1.00  0.00     0.004 A 
ATOM      7  C   UNL     1       7.642 -13.455  -2.958  1.00  0.00     0.007 A 
ENDROOT
BRANCH   3   8
ATOM      8  O   UNL     1       5.893 -10.939  -0.880  1.00  0.00    -0.508 OA
ATOM      9  H   UNL     1       5.236 -10.173  -0.979  1.00  0.00     0.293 HD
ENDBRANCH   3   8
BRANCH   5  10
ATOM     10  C   UNL     1       4.872 -12.564  -5.447  1.00  0.00     0.013 C 
ATOM     11  C   UNL     1       4.494 -11.127  -5.827  1.00  0.00     0.012 C 
ATOM     12  C   UNL     1       3.622 -13.435  -5.273  1.00  0.00     0.012 C 
ENDBRANCH   5  10
TORSDOF 2
ENDMDL
MODEL 6
REMARK VINA RESULT:    -5.011      2.385      4.928
REMARK INTER + INTRA:          -5.556
REMARK INTER:                  -5.431
REMARK INTRA:                  -0.125
REMARK UNBOUND:                -0.106
REMARK SMILES Cc1ccc(C(C)C)cc1O
REMARK SMILES IDX 1 1 2 2 10 3 9 4 5 5 4 6 3 7 11 8 6 10 7 11 8 12
REMARK H PARENT 11 9
REMARK Flexibility Score: inf
ROOT
ATOM      1  C   UNL     1       2.847 -13.422  -5.461  1.00  0.00     0.048 C 
ATOM      2  C   UNL     1       3.968 -13.403  -4.460  1.00  0.00    -0.009 A 
ATOM      3  C   UNL     1       3.711 -13.670  -3.103  1.00  0.00     0.118 A 
ATOM      4  C   UNL     1       4.762 -13.650  -2.175  1.00  0.00     0.050 A 
ATOM      5  C   UNL     1       6.077 -13.365  -2.584  1.00  0.00    -0.042 A 
ATOM      6  C   UNL     1       6.323 -13.099  -3.943  1.00  0.00     0.004 A 
ATOM      7  C   UNL     1       5.279 -13.118  -4.871  1.00  0.00     0.007 A 
ENDROOT
BRANCH   3   8
ATOM      8  O   UNL     1       2.413 -13.954  -2.682  1.00  0.00    -0.508 OA
ATOM      9  H   UNL     1       2.211 -14.217  -1.724  1.00  0.00     0.293 HD
ENDBRANCH   3   8
BRANCH   5  10
ATOM     10  C   UNL     1       7.201 -13.348  -1.567  1.00  0.00     0.013 C 
ATOM     11  C   UNL     1       7.718 -11.923  -1.336  1.00  0.00     0.012 C 
ATOM     12  C   UNL     1       8.340 -14.286  -1.985  1.00  0.00     0.012 C 
ENDBRANCH   5  10
TORSDOF 2
ENDMDL
MODEL 7
REMARK VINA RESULT:    -4.917      2.319      4.516
REMARK INTER + INTRA:          -5.454
REMARK INTER:                  -5.328
REMARK INTRA:                  -0.126
REMARK UNBOUND:                -0.106
REMARK SMILES Cc1ccc(C(C)C)cc1O
REMARK SMILES IDX 1 1 2 2 10 3 9 4 5 5 4 6 3 7 11 8 6 10 7 11 8 12
REMARK H PARENT 11 9
REMARK Flexibility Score: inf
ROOT
ATOM      1  C   UNL     1       7.765 -13.841  -1.895  1.00  0.00     0.048 C 
ATOM      2  C   UNL     1       7.530 -12.429  -1.439  1.00  0.00    -0.009 A 
ATOM      3  C   UNL     1       8.218 -11.920  -0.324  1.00  0.00     0.118 A 
ATOM      4  C   UNL     1       7.994 -10.601   0.095  1.00  0.00     0.050 A 
ATOM      5  C   UNL     1       7.084  -9.775  -0.588  1.00  0.00    -0.042 A 
ATOM      6  C   UNL     1       6.401 -10.293  -1.703  1.00  0.00     0.004 A 
ATOM      7  C   UNL     1       6.622 -11.606  -2.124  1.00  0.00     0.007 A 
ENDROOT
BRANCH   3   8
ATOM      8  O   UNL     1       9.124 -12.726   0.364  1.00  0.00    -0.508 OA
ATOM      9  H   UNL     1       9.826 -13.271  -0.122  1.00  0.00     0.293 HD
ENDBRANCH   3   8
BRANCH   5  10
ATOM     10  C   UNL     1       6.854  -8.350  -0.122  1.00  0.00     0.013 C 
ATOM     11  C   UNL     1       6.173  -8.322   1.252  1.00  0.00     0.012 C 
ATOM     12  C   UNL     1       6.047  -7.553  -1.154  1.00  0.00     0.012 C 
ENDBRANCH   5  10
TORSDOF 2
ENDMDL
MODEL 8
REMARK VINA RESULT:    -4.873      7.906      9.345
REMARK INTER + INTRA:          -5.406
REMARK INTER:                  -5.281
REMARK INTRA:                  -0.125
REMARK UNBOUND:                -0.106
REMARK SMILES Cc1ccc(C(C)C)cc1O
REMARK SMILES IDX 1 1 2 2 10 3 9 4 5 5 4 6 3 7 11 8 6 10 7 11 8 12
REMARK H PARENT 11 9
REMARK Flexibility Score: inf
ROOT
ATOM      1  C   UNL     1      -2.019  -9.626  -6.469  1.00  0.00     0.048 C 
ATOM      2  C   UNL     1      -0.631  -9.212  -6.873  1.00  0.00    -0.009 A 
ATOM      3  C   UNL     1      -0.396  -8.671  -8.149  1.00  0.00     0.118 A 
ATOM      4  C   UNL     1       0.901  -8.286  -8.518  1.00  0.00     0.050 A 
ATOM      5  C   UNL     1       1.976  -8.436  -7.625  1.00  0.00    -0.042 A 
ATOM      6  C   UNL     1       1.730  -8.979  -6.351  1.00  0.00     0.004 A 
ATOM      7  C   UNL     1       0.441  -9.363  -5.979  1.00  0.00     0.007 A 
ENDROOT
BRANCH   3   8
ATOM      8  O   UNL     1      -1.452  -8.516  -9.046  1.00  0.00    -0.508 OA
ATOM      9  H   UNL     1      -2.214  -7.872  -8.865  1.00  0.00     0.293 HD
ENDBRANCH   3   8
BRANCH   5  10
ATOM     10  C   UNL     1       3.373  -8.015  -8.041  1.00  0.00     0.013 C 
ATOM     11  C   UNL     1       4.284  -9.234  -8.233  1.00  0.00     0.012 C 
ATOM     12  C   UNL     1       3.976  -7.028  -7.034  1.00  0.00     0.012 C 
ENDBRANCH   5  10
TORSDOF 2
ENDMDL
MODEL 9
REMARK VINA RESULT:    -4.605      2.118      4.757
REMARK INTER + INTRA:          -5.114
REMARK INTER:                  -5.014
REMARK INTRA:                  -0.100
REMARK UNBOUND:                -0.106
REMARK SMILES Cc1ccc(C(C)C)cc1O
REMARK SMILES IDX 1 1 2 2 10 3 9 4 5 5 4 6 3 7 11 8 6 10 7 11 8 12
REMARK H PARENT 11 9
REMARK Flexibility Score: inf
ROOT
ATOM      1  C   UNL     1       2.503 -13.460  -5.327  1.00  0.00     0.048 C 
ATOM      2  C   UNL     1       3.659 -13.384  -4.369  1.00  0.00    -0.009 A 
ATOM      3  C   UNL     1       4.868 -12.785  -4.764  1.00  0.00     0.118 A 
ATOM      4  C   UNL     1       5.942 -12.717  -3.865  1.00  0.00     0.050 A 
ATOM      5  C   UNL     1       5.826 -13.243  -2.567  1.00  0.00    -0.042 A 
ATOM      6  C   UNL     1       4.611 -13.840  -2.181  1.00  0.00     0.004 A 
ATOM      7  C   UNL     1       3.540 -13.909  -3.073  1.00  0.00     0.007 A 
ENDROOT
BRANCH   3   8
ATOM      8  O   UNL     1       4.999 -12.260  -6.049  1.00  0.00    -0.508 OA
ATOM      9  H   UNL     1       5.403 -12.800  -6.806  1.00  0.00     0.293 HD
ENDBRANCH   3   8
BRANCH   5  10
ATOM     10  C   UNL     1       6.997 -13.161  -1.607  1.00  0.00     0.013 C 
ATOM     11  C   UNL     1       7.523 -11.724  -1.498  1.00  0.00     0.012 C 
ATOM     12  C   UNL     1       8.116 -14.128  -2.015  1.00  0.00     0.012 C 
ENDBRANCH   5  10
TORSDOF 2
ENDMDL
