MODEL 1
REMARK VINA RESULT:    -6.166      0.000      0.000
REMARK INTER + INTRA:          -6.766
REMARK INTER:                  -6.526
REMARK INTRA:                  -0.240
REMARK UNBOUND:                -0.240
REMARK SMILES O=c1cc(-c2ccccc2)oc2ccccc12
REMARK SMILES IDX 4 1 3 2 2 3 1 4 17 5 16 6 15 7 14 8 13 9 12 10 11 11 5 12
REMARK SMILES IDX 8 13 7 14 9 15 6 16 10 17
REMARK H PARENT
REMARK Flexibility Score: inf
ROOT
ATOM      1  C   UNL     1       0.330 -19.160  -0.007  1.00  0.00     0.138 A 
ATOM      2  C   UNL     1       0.255 -20.547   0.240  1.00  0.00     0.100 A 
ATOM      3  C   UNL     1       1.421 -21.258   0.528  1.00  0.00     0.193 A 
ATOM      4  O   UNL     1       1.354 -22.499   0.749  1.00  0.00    -0.289 OA
ATOM      5  C   UNL     1       2.650 -20.584   0.566  1.00  0.00     0.065 A 
ATOM      6  C   UNL     1       3.862 -21.241   0.850  1.00  0.00     0.016 A 
ATOM      7  C   UNL     1       5.059 -20.519   0.877  1.00  0.00     0.001 A 
ATOM      8  C   UNL     1       5.057 -19.144   0.621  1.00  0.00     0.004 A 
ATOM      9  C   UNL     1       3.858 -18.484   0.338  1.00  0.00     0.048 A 
ATOM     10  C   UNL     1       2.654 -19.196   0.310  1.00  0.00     0.138 A 
ATOM     11  O   UNL     1       1.520 -18.560   0.040  1.00  0.00    -0.456 OA
ENDROOT
BRANCH   1  12
ATOM     12  C   UNL     1      -0.870 -18.324  -0.322  1.00  0.00     0.017 A 
ATOM     13  C   UNL     1      -3.108 -16.685  -0.844  1.00  0.00     0.000 A 
ATOM     14  C   UNL     1      -2.220 -16.348   0.175  1.00  0.00     0.001 A 
ATOM     15  C   UNL     1      -2.890 -17.832  -1.607  1.00  0.00     0.001 A 
ATOM     16  C   UNL     1      -1.110 -17.158   0.436  1.00  0.00     0.012 A 
ATOM     17  C   UNL     1      -1.782 -18.648  -1.352  1.00  0.00     0.012 A 
ENDBRANCH   1  12
TORSDOF 1
ENDMDL
MODEL 2
REMARK VINA RESULT:    -5.873     10.013     12.052
REMARK INTER + INTRA:          -6.456
REMARK INTER:                  -6.194
REMARK INTRA:                  -0.263
REMARK UNBOUND:                -0.240
REMARK SMILES O=c1cc(-c2ccccc2)oc2ccccc12
REMARK SMILES IDX 4 1 3 2 2 3 1 4 17 5 16 6 15 7 14 8 13 9 12 10 11 11 5 12
REMARK SMILES IDX 8 13 7 14 9 15 6 16 10 17
REMARK H PARENT
REMARK Flexibility Score: inf
ROOT
ATOM      1  C   UNL     1      -7.936 -14.839   5.387  1.00  0.00     0.138 A 
ATOM      2  C   UNL     1      -8.893 -15.212   6.354  1.00  0.00     0.100 A 
ATOM      3  C   UNL     1      -8.800 -14.700   7.649  1.00  0.00     0.193 A 
ATOM      4  O   UNL     1      -9.657 -15.035   8.513  1.00  0.00    -0.289 OA
ATOM      5  C   UNL     1      -7.756 -13.822   7.971  1.00  0.00     0.065 A 
ATOM      6  C   UNL     1      -7.604 -13.270   9.257  1.00  0.00     0.016 A 
ATOM      7  C   UNL     1      -6.544 -12.398   9.523  1.00  0.00     0.001 A 
ATOM      8  C   UNL     1      -5.632 -12.072   8.515  1.00  0.00     0.004 A 
ATOM      9  C   UNL     1      -5.775 -12.615   7.235  1.00  0.00     0.048 A 
ATOM     10  C   UNL     1      -6.833 -13.489   6.957  1.00  0.00     0.138 A 
ATOM     11  O   UNL     1      -6.960 -14.001   5.738  1.00  0.00    -0.456 OA
ENDROOT
BRANCH   1  12
ATOM     12  C   UNL     1      -7.963 -15.340   3.979  1.00  0.00     0.017 A 
ATOM     13  C   UNL     1      -8.074 -16.360   1.349  1.00  0.00     0.000 A 
ATOM     14  C   UNL     1      -8.788 -16.985   2.370  1.00  0.00     0.001 A 
ATOM     15  C   UNL     1      -7.305 -15.230   1.628  1.00  0.00     0.001 A 
ATOM     16  C   UNL     1      -8.734 -16.482   3.674  1.00  0.00     0.012 A 
ATOM     17  C   UNL     1      -7.246 -14.721   2.929  1.00  0.00     0.012 A 
ENDBRANCH   1  12
TORSDOF 1
ENDMDL
MODEL 3
REMARK VINA RESULT:    -5.747      9.984     11.964
REMARK INTER + INTRA:          -6.323
REMARK INTER:                  -6.057
REMARK INTRA:                  -0.265
REMARK UNBOUND:                -0.240
REMARK SMILES O=c1cc(-c2ccccc2)oc2ccccc12
REMARK SMILES IDX 4 1 3 2 2 3 1 4 17 5 16 6 15 7 14 8 13 9 12 10 11 11 5 12
REMARK SMILES IDX 8 13 7 14 9 15 6 16 10 17
REMARK H PARENT
REMARK Flexibility Score: inf
ROOT
ATOM      1  C   UNL     1      -7.639 -14.626   4.547  1.00  0.00     0.138 A 
ATOM      2  C   UNL     1      -6.970 -13.384   4.572  1.00  0.00     0.100 A 
ATOM      3  C   UNL     1      -6.784 -12.726   5.789  1.00  0.00     0.193 A 
ATOM      4  O   UNL     1      -6.186 -11.615   5.811  1.00  0.00    -0.289 OA
ATOM      5  C   UNL     1      -7.266 -13.309   6.970  1.00  0.00     0.065 A 
ATOM      6  C   UNL     1      -7.112 -12.699   8.229  1.00  0.00     0.016 A 
ATOM      7  C   UNL     1      -7.611 -13.325   9.375  1.00  0.00     0.001 A 
ATOM      8  C   UNL     1      -8.265 -14.557   9.275  1.00  0.00     0.004 A 
ATOM      9  C   UNL     1      -8.422 -15.169   8.029  1.00  0.00     0.048 A 
ATOM     10  C   UNL     1      -7.926 -14.552   6.874  1.00  0.00     0.138 A 
ATOM     11  O   UNL     1      -8.081 -15.142   5.695  1.00  0.00    -0.456 OA
ENDROOT
BRANCH   1  12
ATOM     12  C   UNL     1      -7.879 -15.396   3.288  1.00  0.00     0.017 A 
ATOM     13  C   UNL     1      -8.391 -16.911   0.962  1.00  0.00     0.000 A 
ATOM     14  C   UNL     1      -8.968 -17.279   2.175  1.00  0.00     0.001 A 
ATOM     15  C   UNL     1      -7.560 -15.792   0.898  1.00  0.00     0.001 A 
ATOM     16  C   UNL     1      -8.717 -16.531   3.329  1.00  0.00     0.012 A 
ATOM     17  C   UNL     1      -7.303 -15.038   2.048  1.00  0.00     0.012 A 
ENDBRANCH   1  12
TORSDOF 1
ENDMDL
MODEL 4
REMARK VINA RESULT:    -5.707      1.196      2.494
REMARK INTER + INTRA:          -6.281
REMARK INTER:                  -6.040
REMARK INTRA:                  -0.241
REMARK UNBOUND:                -0.240
REMARK SMILES O=c1cc(-c2ccccc2)oc2ccccc12
REMARK SMILES IDX 4 1 3 2 2 3 1 4 17 5 16 6 15 7 14 8 13 9 12 10 11 11 5 12
REMARK SMILES IDX 8 13 7 14 9 15 6 16 10 17
REMARK H PARENT
REMARK Flexibility Score: inf
ROOT
ATOM      1  C   UNL     1       0.802 -18.006  -0.155  1.00  0.00     0.138 A 
ATOM      2  C   UNL     1       1.756 -16.983   0.030  1.00  0.00     0.100 A 
ATOM      3  C   UNL     1       3.055 -17.315   0.419  1.00  0.00     0.193 A 
ATOM      4  O   UNL     1       3.908 -16.400   0.584  1.00  0.00    -0.289 OA
ATOM      5  C   UNL     1       3.392 -18.661   0.621  1.00  0.00     0.065 A 
ATOM      6  C   UNL     1       4.682 -19.064   1.013  1.00  0.00     0.016 A 
ATOM      7  C   UNL     1       4.965 -20.421   1.199  1.00  0.00     0.001 A 
ATOM      8  C   UNL     1       3.968 -21.381   0.999  1.00  0.00     0.004 A 
ATOM      9  C   UNL     1       2.684 -20.989   0.609  1.00  0.00     0.048 A 
ATOM     10  C   UNL     1       2.390 -19.634   0.419  1.00  0.00     0.138 A 
ATOM     11  O   UNL     1       1.167 -19.272   0.049  1.00  0.00    -0.456 OA
ENDROOT
BRANCH   1  12
ATOM     12  C   UNL     1      -0.609 -17.736  -0.570  1.00  0.00     0.017 A 
ATOM     13  C   UNL     1      -3.279 -17.160  -1.284  1.00  0.00     0.000 A 
ATOM     14  C   UNL     1      -2.675 -16.476  -0.231  1.00  0.00     0.001 A 
ATOM     15  C   UNL     1      -2.563 -18.130  -1.986  1.00  0.00     0.001 A 
ATOM     16  C   UNL     1      -1.353 -16.759   0.125  1.00  0.00     0.012 A 
ATOM     17  C   UNL     1      -1.240 -18.420  -1.636  1.00  0.00     0.012 A 
ENDBRANCH   1  12
TORSDOF 1
ENDMDL
MODEL 5
REMARK VINA RESULT:    -5.590     10.075     11.944
REMARK INTER + INTRA:          -6.156
REMARK INTER:                  -5.891
REMARK INTRA:                  -0.265
REMARK UNBOUND:                -0.240
REMARK SMILES O=c1cc(-c2ccccc2)oc2ccccc12
REMARK SMILES IDX 4 1 3 2 2 3 1 4 17 5 16 6 15 7 14 8 13 9 12 10 11 11 5 12
REMARK SMILES IDX 8 13 7 14 9 15 6 16 10 17
REMARK H PARENT
REMARK Flexibility Score: inf
ROOT
ATOM      1  C   UNL     1      -7.563 -14.252   5.395  1.00  0.00     0.138 A 
ATOM      2  C   UNL     1      -6.958 -13.322   4.524  1.00  0.00     0.100 A 
ATOM      3  C   UNL     1      -6.938 -13.575   3.152  1.00  0.00     0.193 A 
ATOM      4  O   UNL     1      -6.396 -12.742   2.374  1.00  0.00    -0.289 OA
ATOM      5  C   UNL     1      -7.521 -14.750   2.658  1.00  0.00     0.065 A 
ATOM      6  C   UNL     1      -7.535 -15.066   1.287  1.00  0.00     0.016 A 
ATOM      7  C   UNL     1      -8.132 -16.252   0.848  1.00  0.00     0.001 A 
ATOM      8  C   UNL     1      -8.713 -17.129   1.769  1.00  0.00     0.004 A 
ATOM      9  C   UNL     1      -8.703 -16.823   3.133  1.00  0.00     0.048 A 
ATOM     10  C   UNL     1      -8.110 -15.638   3.583  1.00  0.00     0.138 A 
ATOM     11  O   UNL     1      -8.105 -15.357   4.881  1.00  0.00    -0.456 OA
ENDROOT
BRANCH   1  12
ATOM     12  C   UNL     1      -7.628 -14.058   6.876  1.00  0.00     0.017 A 
ATOM     13  C   UNL     1      -7.688 -13.615   9.664  1.00  0.00     0.000 A 
ATOM     14  C   UNL     1      -6.930 -12.784   8.842  1.00  0.00     0.001 A 
ATOM     15  C   UNL     1      -8.419 -14.666   9.108  1.00  0.00     0.001 A 
ATOM     16  C   UNL     1      -6.898 -13.001   7.461  1.00  0.00     0.012 A 
ATOM     17  C   UNL     1      -8.392 -14.890   7.727  1.00  0.00     0.012 A 
ENDBRANCH   1  12
TORSDOF 1
ENDMDL
MODEL 6
REMARK VINA RESULT:    -5.497      8.501      9.537
REMARK INTER + INTRA:          -6.058
REMARK INTER:                  -5.827
REMARK INTRA:                  -0.231
REMARK UNBOUND:                -0.240
REMARK SMILES O=c1cc(-c2ccccc2)oc2ccccc12
REMARK SMILES IDX 4 1 3 2 2 3 1 4 17 5 16 6 15 7 14 8 13 9 12 10 11 11 5 12
REMARK SMILES IDX 8 13 7 14 9 15 6 16 10 17
REMARK H PARENT
REMARK Flexibility Score: inf
ROOT
ATOM      1  C   UNL     1       1.859 -26.139  -5.663  1.00  0.00     0.138 A 
ATOM      2  C   UNL     1       3.012 -25.628  -6.295  1.00  0.00     0.100 A 
ATOM      3  C   UNL     1       4.271 -26.093  -5.911  1.00  0.00     0.193 A 
ATOM      4  O   UNL     1       5.302 -25.636  -6.476  1.00  0.00    -0.289 OA
ATOM      5  C   UNL     1       4.371 -27.062  -4.902  1.00  0.00     0.065 A 
ATOM      6  C   UNL     1       5.608 -27.573  -4.468  1.00  0.00     0.016 A 
ATOM      7  C   UNL     1       5.650 -28.540  -3.458  1.00  0.00     0.001 A 
ATOM      8  C   UNL     1       4.465 -29.000  -2.876  1.00  0.00     0.004 A 
ATOM      9  C   UNL     1       3.232 -28.498  -3.301  1.00  0.00     0.048 A 
ATOM     10  C   UNL     1       3.178 -27.531  -4.312  1.00  0.00     0.138 A 
ATOM     11  O   UNL     1       2.001 -27.059  -4.709  1.00  0.00    -0.456 OA
ENDROOT
BRANCH   1  12
ATOM     12  C   UNL     1       0.474 -25.696  -6.014  1.00  0.00     0.017 A 
ATOM     13  C   UNL     1      -2.125 -24.893  -6.768  1.00  0.00     0.000 A 
ATOM     14  C   UNL     1      -1.293 -25.520  -7.694  1.00  0.00     0.001 A 
ATOM     15  C   UNL     1      -1.673 -24.663  -5.469  1.00  0.00     0.001 A 
ATOM     16  C   UNL     1      -0.005 -25.919  -7.323  1.00  0.00     0.012 A 
ATOM     17  C   UNL     1      -0.385 -25.058  -5.090  1.00  0.00     0.012 A 
ENDBRANCH   1  12
TORSDOF 1
ENDMDL
MODEL 7
REMARK VINA RESULT:    -5.413      2.505      6.292
REMARK INTER + INTRA:          -5.969
REMARK INTER:                  -5.739
REMARK INTRA:                  -0.230
REMARK UNBOUND:                -0.240
REMARK SMILES O=c1cc(-c2ccccc2)oc2ccccc12
REMARK SMILES IDX 4 1 3 2 2 3 1 4 17 5 16 6 15 7 14 8 13 9 12 10 11 11 5 12
REMARK SMILES IDX 8 13 7 14 9 15 6 16 10 17
REMARK H PARENT
REMARK Flexibility Score: inf
ROOT
ATOM      1  C   UNL     1       3.989 -19.062  -1.060  1.00  0.00     0.138 A 
ATOM      2  C   UNL     1       3.058 -18.007  -1.162  1.00  0.00     0.100 A 
ATOM      3  C   UNL     1       1.741 -18.208  -0.743  1.00  0.00     0.193 A 
ATOM      4  O   UNL     1       0.909 -17.264  -0.834  1.00  0.00    -0.289 OA
ATOM      5  C   UNL     1       1.363 -19.456  -0.228  1.00  0.00     0.065 A 
ATOM      6  C   UNL     1       0.054 -19.725   0.211  1.00  0.00     0.016 A 
ATOM      7  C   UNL     1      -0.269 -20.988   0.717  1.00  0.00     0.001 A 
ATOM      8  C   UNL     1       0.706 -21.988   0.787  1.00  0.00     0.004 A 
ATOM      9  C   UNL     1       2.009 -21.729   0.354  1.00  0.00     0.048 A 
ATOM     10  C   UNL     1       2.344 -20.468  -0.154  1.00  0.00     0.138 A 
ATOM     11  O   UNL     1       3.585 -20.232  -0.564  1.00  0.00    -0.456 OA
ENDROOT
BRANCH   1  12
ATOM     12  C   UNL     1       5.417 -18.931  -1.485  1.00  0.00     0.017 A 
ATOM     13  C   UNL     1       8.125 -18.616  -2.216  1.00  0.00     0.000 A 
ATOM     14  C   UNL     1       7.596 -17.871  -1.163  1.00  0.00     0.001 A 
ATOM     15  C   UNL     1       7.315 -19.518  -2.907  1.00  0.00     0.001 A 
ATOM     16  C   UNL     1       6.254 -18.025  -0.799  1.00  0.00     0.012 A 
ATOM     17  C   UNL     1       5.973 -19.677  -2.550  1.00  0.00     0.012 A 
ENDBRANCH   1  12
TORSDOF 1
ENDMDL
MODEL 8
REMARK VINA RESULT:    -5.324      9.770     11.531
REMARK INTER + INTRA:          -5.874
REMARK INTER:                  -5.612
REMARK INTRA:                  -0.262
REMARK UNBOUND:                -0.240
REMARK SMILES O=c1cc(-c2ccccc2)oc2ccccc12
REMARK SMILES IDX 4 1 3 2 2 3 1 4 17 5 16 6 15 7 14 8 13 9 12 10 11 11 5 12
REMARK SMILES IDX 8 13 7 14 9 15 6 16 10 17
REMARK H PARENT
REMARK Flexibility Score: inf
ROOT
ATOM      1  C   UNL     1      -7.852 -14.886   5.120  1.00  0.00     0.138 A 
ATOM      2  C   UNL     1      -8.413 -16.102   4.677  1.00  0.00     0.100 A 
ATOM      3  C   UNL     1      -8.380 -16.421   3.318  1.00  0.00     0.193 A 
ATOM      4  O   UNL     1      -8.882 -17.509   2.922  1.00  0.00    -0.289 OA
ATOM      5  C   UNL     1      -7.790 -15.527   2.413  1.00  0.00     0.065 A 
ATOM      6  C   UNL     1      -7.724 -15.787   1.031  1.00  0.00     0.016 A 
ATOM      7  C   UNL     1      -7.123 -14.861   0.173  1.00  0.00     0.001 A 
ATOM      8  C   UNL     1      -6.589 -13.674   0.683  1.00  0.00     0.004 A 
ATOM      9  C   UNL     1      -6.650 -13.408   2.054  1.00  0.00     0.048 A 
ATOM     10  C   UNL     1      -7.248 -14.328   2.923  1.00  0.00     0.138 A 
ATOM     11  O   UNL     1      -7.302 -14.066   4.223  1.00  0.00    -0.456 OA
ENDROOT
BRANCH   1  12
ATOM     12  C   UNL     1      -7.846 -14.468   6.556  1.00  0.00     0.017 A 
ATOM     13  C   UNL     1      -7.904 -13.746   9.284  1.00  0.00     0.000 A 
ATOM     14  C   UNL     1      -8.758 -14.738   8.807  1.00  0.00     0.001 A 
ATOM     15  C   UNL     1      -7.019 -13.110   8.412  1.00  0.00     0.001 A 
ATOM     16  C   UNL     1      -8.731 -15.098   7.456  1.00  0.00     0.012 A 
ATOM     17  C   UNL     1      -6.987 -13.464   7.059  1.00  0.00     0.012 A 
ENDBRANCH   1  12
TORSDOF 1
ENDMDL
MODEL 9
REMARK VINA RESULT:    -5.316      9.667     11.986
REMARK INTER + INTRA:          -5.867
REMARK INTER:                  -5.627
REMARK INTRA:                  -0.240
REMARK UNBOUND:                -0.240
REMARK SMILES O=c1cc(-c2ccccc2)oc2ccccc12
REMARK SMILES IDX 4 1 3 2 2 3 1 4 17 5 16 6 15 7 14 8 13 9 12 10 11 11 5 12
REMARK SMILES IDX 8 13 7 14 9 15 6 16 10 17
REMARK H PARENT
REMARK Flexibility Score: inf
ROOT
ATOM      1  C   UNL     1      -8.650 -15.371   3.721  1.00  0.00     0.138 A 
ATOM      2  C   UNL     1      -7.460 -15.212   2.980  1.00  0.00     0.100 A 
ATOM      3  C   UNL     1      -7.431 -15.584   1.635  1.00  0.00     0.193 A 
ATOM      4  O   UNL     1      -6.367 -15.441   0.972  1.00  0.00    -0.289 OA
ATOM      5  C   UNL     1      -8.586 -16.110   1.040  1.00  0.00     0.065 A 
ATOM      6  C   UNL     1      -8.625 -16.504  -0.311  1.00  0.00     0.016 A 
ATOM      7  C   UNL     1      -9.805 -17.023  -0.855  1.00  0.00     0.001 A 
ATOM      8  C   UNL     1     -10.947 -17.154  -0.059  1.00  0.00     0.004 A 
ATOM      9  C   UNL     1     -10.917 -16.765   1.283  1.00  0.00     0.048 A 
ATOM     10  C   UNL     1      -9.742 -16.243   1.837  1.00  0.00     0.138 A 
ATOM     11  O   UNL     1      -9.724 -15.877   3.114  1.00  0.00    -0.456 OA
ENDROOT
BRANCH   1  12
ATOM     12  C   UNL     1      -8.765 -14.999   5.165  1.00  0.00     0.017 A 
ATOM     13  C   UNL     1      -9.063 -14.242   7.868  1.00  0.00     0.000 A 
ATOM     14  C   UNL     1      -9.957 -13.770   6.909  1.00  0.00     0.001 A 
ATOM     15  C   UNL     1      -8.021 -15.089   7.491  1.00  0.00     0.001 A 
ATOM     16  C   UNL     1      -9.812 -14.144   5.569  1.00  0.00     0.012 A 
ATOM     17  C   UNL     1      -7.868 -15.467   6.153  1.00  0.00     0.012 A 
ENDBRANCH   1  12
TORSDOF 1
ENDMDL
