MODEL 1
REMARK VINA RESULT:    -5.110      0.000      0.000
REMARK INTER + INTRA:          -6.249
REMARK INTER:                  -6.006
REMARK INTRA:                  -0.242
REMARK UNBOUND:                -0.242
REMARK SMILES O=c1c(O)c(-c2ccc(O)cc2)oc2cc(O)cc(O)c12
REMARK SMILES IDX 5 1 3 2 2 3 1 4 21 5 19 6 18 7 16 8 15 9 14 10 13 11 6 12
REMARK SMILES IDX 7 13 8 14 9 15 12 16 11 17 10 18 4 20 20 22 17 24
REMARK H PARENT 10 19 4 21 20 23 17 25
REMARK Flexibility Score: inf
ROOT
ATOM      1  C   UNL     1     118.571 105.736 122.293  1.00  0.00     0.180 A 
ATOM      2  C   UNL     1     119.021 104.673 121.491  1.00  0.00     0.208 A 
ATOM      3  C   UNL     1     120.377 104.617 121.132  1.00  0.00     0.238 A 
ATOM      4  O   UNL     1     120.784 103.635 120.459  1.00  0.00    -0.285 OA
ATOM      5  C   UNL     1     121.263 105.633 121.566  1.00  0.00     0.111 A 
ATOM      6  C   UNL     1     122.649 105.698 121.229  1.00  0.00     0.134 A 
ATOM      7  C   UNL     1     123.458 106.675 121.822  1.00  0.00     0.093 A 
ATOM      8  C   UNL     1     122.918 107.629 122.689  1.00  0.00     0.123 A 
ATOM      9  C   UNL     1     121.556 107.609 122.977  1.00  0.00     0.094 A 
ATOM     10  C   UNL     1     120.730 106.625 122.430  1.00  0.00     0.146 A 
ATOM     11  O   UNL     1     119.438 106.636 122.739  1.00  0.00    -0.452 OA
ENDROOT
BRANCH   1  12
ATOM     12  C   UNL     1     117.151 105.876 122.692  1.00  0.00     0.021 A 
ATOM     13  C   UNL     1     116.596 105.082 123.712  1.00  0.00     0.016 A 
ATOM     14  C   UNL     1     115.246 105.215 124.055  1.00  0.00     0.047 A 
ATOM     15  C   UNL     1     114.434 106.131 123.374  1.00  0.00     0.115 A 
ATOM     16  C   UNL     1     116.324 106.777 122.002  1.00  0.00     0.016 A 
ATOM     17  C   UNL     1     114.976 106.909 122.347  1.00  0.00     0.047 A 
BRANCH  15  18
ATOM     18  O   UNL     1     113.089 106.273 123.708  1.00  0.00    -0.508 OA
ATOM     19  H   UNL     1     112.789 106.357 124.673  1.00  0.00     0.293 HD
ENDBRANCH  15  18
ENDBRANCH   1  12
BRANCH   2  20
ATOM     20  O   UNL     1     118.134 103.670 121.091  1.00  0.00    -0.502 OA
ATOM     21  H   UNL     1     117.394 103.833 120.420  1.00  0.00     0.293 HD
ENDBRANCH   2  20
BRANCH   6  22
ATOM     22  O   UNL     1     123.267 104.852 120.305  1.00  0.00    -0.507 OA
ATOM     23  H   UNL     1     124.258 104.833 120.115  1.00  0.00     0.293 HD
ENDBRANCH   6  22
BRANCH   8  24
ATOM     24  O   UNL     1     123.728 108.607 123.261  1.00  0.00    -0.508 OA
ATOM     25  H   UNL     1     123.402 109.182 124.030  1.00  0.00     0.293 HD
ENDBRANCH   8  24
TORSDOF 5
ENDMDL
MODEL 2
REMARK VINA RESULT:    -4.487      1.621      6.444
REMARK INTER + INTRA:          -5.517
REMARK INTER:                  -5.461
REMARK INTRA:                  -0.056
REMARK UNBOUND:                -0.242
REMARK SMILES O=c1c(O)c(-c2ccc(O)cc2)oc2cc(O)cc(O)c12
REMARK SMILES IDX 5 1 3 2 2 3 1 4 21 5 19 6 18 7 16 8 15 9 14 10 13 11 6 12
REMARK SMILES IDX 7 13 8 14 9 15 12 16 11 17 10 18 4 20 20 22 17 24
REMARK H PARENT 10 19 4 21 20 23 17 25
REMARK Flexibility Score: inf
ROOT
ATOM      1  C   UNL     1     118.730 106.164 122.482  1.00  0.00     0.180 A 
ATOM      2  C   UNL     1     118.906 104.784 122.281  1.00  0.00     0.208 A 
ATOM      3  C   UNL     1     117.816 103.922 122.482  1.00  0.00     0.238 A 
ATOM      4  O   UNL     1     117.965 102.694 122.249  1.00  0.00    -0.285 OA
ATOM      5  C   UNL     1     116.568 104.448 122.896  1.00  0.00     0.111 A 
ATOM      6  C   UNL     1     115.407 103.663 123.167  1.00  0.00     0.134 A 
ATOM      7  C   UNL     1     114.192 104.301 123.444  1.00  0.00     0.093 A 
ATOM      8  C   UNL     1     114.111 105.694 123.523  1.00  0.00     0.123 A 
ATOM      9  C   UNL     1     115.252 106.465 123.317  1.00  0.00     0.094 A 
ATOM     10  C   UNL     1     116.470 105.860 123.004  1.00  0.00     0.146 A 
ATOM     11  O   UNL     1     117.531 106.633 122.806  1.00  0.00    -0.452 OA
ENDROOT
BRANCH   1  12
ATOM     12  C   UNL     1     119.838 107.132 122.314  1.00  0.00     0.021 A 
ATOM     13  C   UNL     1     121.047 106.991 123.019  1.00  0.00     0.016 A 
ATOM     14  C   UNL     1     122.070 107.932 122.863  1.00  0.00     0.047 A 
ATOM     15  C   UNL     1     121.892 109.031 122.012  1.00  0.00     0.115 A 
ATOM     16  C   UNL     1     119.661 108.249 121.480  1.00  0.00     0.016 A 
ATOM     17  C   UNL     1     120.685 109.187 121.324  1.00  0.00     0.047 A 
BRANCH  15  18
ATOM     18  O   UNL     1     122.904 109.973 121.848  1.00  0.00    -0.508 OA
ATOM     19  H   UNL     1     122.761 110.815 121.302  1.00  0.00     0.293 HD
ENDBRANCH  15  18
ENDBRANCH   1  12
BRANCH   2  20
ATOM     20  O   UNL     1     120.140 104.287 121.852  1.00  0.00    -0.502 OA
ATOM     21  H   UNL     1     120.441 104.339 120.886  1.00  0.00     0.293 HD
ENDBRANCH   2  20
BRANCH   6  22
ATOM     22  O   UNL     1     115.402 102.266 123.206  1.00  0.00    -0.507 OA
ATOM     23  H   UNL     1     115.856 101.708 123.914  1.00  0.00     0.293 HD
ENDBRANCH   6  22
BRANCH   8  24
ATOM     24  O   UNL     1     112.901 106.319 123.814  1.00  0.00    -0.508 OA
ATOM     25  H   UNL     1     112.832 107.034 124.530  1.00  0.00     0.293 HD
ENDBRANCH   8  24
TORSDOF 5
ENDMDL
MODEL 3
REMARK VINA RESULT:    -4.487      2.704      3.980
REMARK INTER + INTRA:          -5.516
REMARK INTER:                  -5.227
REMARK INTRA:                  -0.289
REMARK UNBOUND:                -0.242
REMARK SMILES O=c1c(O)c(-c2ccc(O)cc2)oc2cc(O)cc(O)c12
REMARK SMILES IDX 5 1 3 2 2 3 1 4 21 5 19 6 18 7 16 8 15 9 14 10 13 11 6 12
REMARK SMILES IDX 7 13 8 14 9 15 12 16 11 17 10 18 4 20 20 22 17 24
REMARK H PARENT 10 19 4 21 20 23 17 25
REMARK Flexibility Score: inf
ROOT
ATOM      1  C   UNL     1     119.817 106.307 122.264  1.00  0.00     0.180 A 
ATOM      2  C   UNL     1     119.050 107.250 121.558  1.00  0.00     0.208 A 
ATOM      3  C   UNL     1     119.590 108.524 121.318  1.00  0.00     0.238 A 
ATOM      4  O   UNL     1     118.920 109.346 120.639  1.00  0.00    -0.285 OA
ATOM      5  C   UNL     1     120.882 108.845 121.801  1.00  0.00     0.111 A 
ATOM      6  C   UNL     1     121.510 110.117 121.650  1.00  0.00     0.134 A 
ATOM      7  C   UNL     1     122.842 110.281 122.053  1.00  0.00     0.093 A 
ATOM      8  C   UNL     1     123.545 109.237 122.659  1.00  0.00     0.123 A 
ATOM      9  C   UNL     1     122.919 108.009 122.864  1.00  0.00     0.094 A 
ATOM     10  C   UNL     1     121.605 107.804 122.440  1.00  0.00     0.146 A 
ATOM     11  O   UNL     1     121.050 106.615 122.646  1.00  0.00    -0.452 OA
ENDROOT
BRANCH   1  12
ATOM     12  C   UNL     1     119.307 104.952 122.576  1.00  0.00     0.021 A 
ATOM     13  C   UNL     1     119.510 103.873 121.698  1.00  0.00     0.016 A 
ATOM     14  C   UNL     1     118.998 102.607 122.002  1.00  0.00     0.047 A 
ATOM     15  C   UNL     1     118.265 102.409 123.179  1.00  0.00     0.115 A 
ATOM     16  C   UNL     1     118.552 104.748 123.744  1.00  0.00     0.016 A 
ATOM     17  C   UNL     1     118.042 103.483 124.046  1.00  0.00     0.047 A 
BRANCH  15  18
ATOM     18  O   UNL     1     117.752 101.153 123.493  1.00  0.00    -0.508 OA
ATOM     19  H   UNL     1     118.118 100.309 123.067  1.00  0.00     0.293 HD
ENDBRANCH  15  18
ENDBRANCH   1  12
BRANCH   2  20
ATOM     20  O   UNL     1     117.786 106.907 121.071  1.00  0.00    -0.502 OA
ATOM     21  H   UNL     1     117.088 106.450 121.645  1.00  0.00     0.293 HD
ENDBRANCH   2  20
BRANCH   6  22
ATOM     22  O   UNL     1     120.868 111.249 121.142  1.00  0.00    -0.507 OA
ATOM     23  H   UNL     1     121.190 112.198 121.267  1.00  0.00     0.293 HD
ENDBRANCH   6  22
BRANCH   8  24
ATOM     24  O   UNL     1     124.864 109.414 123.071  1.00  0.00    -0.508 OA
ATOM     25  H   UNL     1     125.556 109.840 122.465  1.00  0.00     0.293 HD
ENDBRANCH   8  24
TORSDOF 5
ENDMDL
MODEL 4
REMARK VINA RESULT:    -4.254     15.753     18.279
REMARK INTER + INTRA:          -5.242
REMARK INTER:                  -5.095
REMARK INTRA:                  -0.147
REMARK UNBOUND:                -0.242
REMARK SMILES O=c1c(O)c(-c2ccc(O)cc2)oc2cc(O)cc(O)c12
REMARK SMILES IDX 5 1 3 2 2 3 1 4 21 5 19 6 18 7 16 8 15 9 14 10 13 11 6 12
REMARK SMILES IDX 7 13 8 14 9 15 12 16 11 17 10 18 4 20 20 22 17 24
REMARK H PARENT 10 19 4 21 20 23 17 25
REMARK Flexibility Score: inf
ROOT
ATOM      1  C   UNL     1     125.881 115.569 109.363  1.00  0.00     0.180 A 
ATOM      2  C   UNL     1     124.555 115.944 109.643  1.00  0.00     0.208 A 
ATOM      3  C   UNL     1     123.531 114.998 109.475  1.00  0.00     0.238 A 
ATOM      4  O   UNL     1     122.353 115.323 109.778  1.00  0.00    -0.285 OA
ATOM      5  C   UNL     1     123.842 113.695 109.015  1.00  0.00     0.111 A 
ATOM      6  C   UNL     1     122.879 112.670 108.772  1.00  0.00     0.134 A 
ATOM      7  C   UNL     1     123.313 111.380 108.444  1.00  0.00     0.093 A 
ATOM      8  C   UNL     1     124.672 111.095 108.287  1.00  0.00     0.123 A 
ATOM      9  C   UNL     1     125.615 112.104 108.464  1.00  0.00     0.094 A 
ATOM     10  C   UNL     1     125.216 113.392 108.828  1.00  0.00     0.146 A 
ATOM     11  O   UNL     1     126.148 114.322 108.997  1.00  0.00    -0.452 OA
ENDROOT
BRANCH   1  12
ATOM     12  C   UNL     1     127.011 116.518 109.492  1.00  0.00     0.021 A 
ATOM     13  C   UNL     1     127.097 117.668 108.688  1.00  0.00     0.016 A 
ATOM     14  C   UNL     1     128.187 118.537 108.810  1.00  0.00     0.047 A 
ATOM     15  C   UNL     1     129.210 118.258 109.727  1.00  0.00     0.115 A 
ATOM     16  C   UNL     1     128.052 116.236 110.393  1.00  0.00     0.016 A 
ATOM     17  C   UNL     1     129.140 117.105 110.515  1.00  0.00     0.047 A 
BRANCH  15  18
ATOM     18  O   UNL     1     130.298 119.116 109.858  1.00  0.00    -0.508 OA
ATOM     19  H   UNL     1     131.142 118.990 109.311  1.00  0.00     0.293 HD
ENDBRANCH  15  18
ENDBRANCH   1  12
BRANCH   2  20
ATOM     20  O   UNL     1     124.272 117.228 110.116  1.00  0.00    -0.502 OA
ATOM     21  H   UNL     1     123.683 117.392 110.923  1.00  0.00     0.293 HD
ENDBRANCH   2  20
BRANCH   6  22
ATOM     22  O   UNL     1     121.497 112.873 108.811  1.00  0.00    -0.507 OA
ATOM     23  H   UNL     1     121.035 113.582 109.362  1.00  0.00     0.293 HD
ENDBRANCH   6  22
BRANCH   8  24
ATOM     24  O   UNL     1     125.094 109.812 107.945  1.00  0.00    -0.508 OA
ATOM     25  H   UNL     1     125.711 109.279 108.546  1.00  0.00     0.293 HD
ENDBRANCH   8  24
TORSDOF 5
ENDMDL
MODEL 5
REMARK VINA RESULT:    -4.241      1.908      6.692
REMARK INTER + INTRA:          -5.227
REMARK INTER:                  -4.941
REMARK INTRA:                  -0.286
REMARK UNBOUND:                -0.242
REMARK SMILES O=c1c(O)c(-c2ccc(O)cc2)oc2cc(O)cc(O)c12
REMARK SMILES IDX 5 1 3 2 2 3 1 4 21 5 19 6 18 7 16 8 15 9 14 10 13 11 6 12
REMARK SMILES IDX 7 13 8 14 9 15 12 16 11 17 10 18 4 20 20 22 17 24
REMARK H PARENT 10 19 4 21 20 23 17 25
REMARK Flexibility Score: inf
ROOT
ATOM      1  C   UNL     1     118.511 106.813 121.576  1.00  0.00     0.180 A 
ATOM      2  C   UNL     1     118.308 106.262 120.299  1.00  0.00     0.208 A 
ATOM      3  C   UNL     1     117.041 105.750 119.972  1.00  0.00     0.238 A 
ATOM      4  O   UNL     1     116.851 105.307 118.810  1.00  0.00    -0.285 OA
ATOM      5  C   UNL     1     116.000 105.782 120.931  1.00  0.00     0.111 A 
ATOM      6  C   UNL     1     114.690 105.255 120.721  1.00  0.00     0.134 A 
ATOM      7  C   UNL     1     113.701 105.458 121.691  1.00  0.00     0.093 A 
ATOM      8  C   UNL     1     113.993 106.111 122.892  1.00  0.00     0.123 A 
ATOM      9  C   UNL     1     115.284 106.576 123.130  1.00  0.00     0.094 A 
ATOM     10  C   UNL     1     116.282 106.421 122.166  1.00  0.00     0.146 A 
ATOM     11  O   UNL     1     117.497 106.888 122.429  1.00  0.00    -0.452 OA
ENDROOT
BRANCH   1  12
ATOM     12  C   UNL     1     119.824 107.350 122.002  1.00  0.00     0.021 A 
ATOM     13  C   UNL     1     120.193 108.681 121.735  1.00  0.00     0.016 A 
ATOM     14  C   UNL     1     121.448 109.159 122.125  1.00  0.00     0.047 A 
ATOM     15  C   UNL     1     122.354 108.309 122.775  1.00  0.00     0.115 A 
ATOM     16  C   UNL     1     120.747 106.501 122.635  1.00  0.00     0.016 A 
ATOM     17  C   UNL     1     122.000 106.980 123.026  1.00  0.00     0.047 A 
BRANCH  15  18
ATOM     18  O   UNL     1     123.606 108.775 123.169  1.00  0.00    -0.508 OA
ATOM     19  H   UNL     1     123.932 109.700 122.915  1.00  0.00     0.293 HD
ENDBRANCH  15  18
ENDBRANCH   1  12
BRANCH   2  20
ATOM     20  O   UNL     1     119.343 106.261 119.360  1.00  0.00    -0.502 OA
ATOM     21  H   UNL     1     120.069 105.555 119.352  1.00  0.00     0.293 HD
ENDBRANCH   2  20
BRANCH   6  22
ATOM     22  O   UNL     1     114.320 104.508 119.599  1.00  0.00    -0.507 OA
ATOM     23  H   UNL     1     113.386 104.467 119.217  1.00  0.00     0.293 HD
ENDBRANCH   6  22
BRANCH   8  24
ATOM     24  O   UNL     1     113.007 106.295 123.858  1.00  0.00    -0.508 OA
ATOM     25  H   UNL     1     112.915 105.666 124.648  1.00  0.00     0.293 HD
ENDBRANCH   8  24
TORSDOF 5
ENDMDL
MODEL 6
REMARK VINA RESULT:    -4.210     15.523     18.085
REMARK INTER + INTRA:          -5.191
REMARK INTER:                  -4.988
REMARK INTRA:                  -0.203
REMARK UNBOUND:                -0.242
REMARK SMILES O=c1c(O)c(-c2ccc(O)cc2)oc2cc(O)cc(O)c12
REMARK SMILES IDX 5 1 3 2 2 3 1 4 21 5 19 6 18 7 16 8 15 9 14 10 13 11 6 12
REMARK SMILES IDX 7 13 8 14 9 15 12 16 11 17 10 18 4 20 20 22 17 24
REMARK H PARENT 10 19 4 21 20 23 17 25
REMARK Flexibility Score: inf
ROOT
ATOM      1  C   UNL     1     125.695 115.472 109.304  1.00  0.00     0.180 A 
ATOM      2  C   UNL     1     125.888 114.230 108.674  1.00  0.00     0.208 A 
ATOM      3  C   UNL     1     124.803 113.345 108.567  1.00  0.00     0.238 A 
ATOM      4  O   UNL     1     124.968 112.257 107.955  1.00  0.00    -0.285 OA
ATOM      5  C   UNL     1     123.543 113.706 109.104  1.00  0.00     0.111 A 
ATOM      6  C   UNL     1     122.386 112.871 109.086  1.00  0.00     0.134 A 
ATOM      7  C   UNL     1     121.159 113.382 109.529  1.00  0.00     0.093 A 
ATOM      8  C   UNL     1     121.063 114.676 110.048  1.00  0.00     0.123 A 
ATOM      9  C   UNL     1     122.200 115.477 110.124  1.00  0.00     0.094 A 
ATOM     10  C   UNL     1     123.430 115.008 109.656  1.00  0.00     0.146 A 
ATOM     11  O   UNL     1     124.486 115.808 109.738  1.00  0.00    -0.452 OA
ENDROOT
BRANCH   1  12
ATOM     12  C   UNL     1     126.796 116.447 109.477  1.00  0.00     0.021 A 
ATOM     13  C   UNL     1     126.868 117.616 108.697  1.00  0.00     0.016 A 
ATOM     14  C   UNL     1     127.930 118.510 108.861  1.00  0.00     0.047 A 
ATOM     15  C   UNL     1     128.940 118.241 109.795  1.00  0.00     0.115 A 
ATOM     16  C   UNL     1     127.824 116.175 110.395  1.00  0.00     0.016 A 
ATOM     17  C   UNL     1     128.884 117.071 110.558  1.00  0.00     0.047 A 
BRANCH  15  18
ATOM     18  O   UNL     1     130.002 119.125 109.968  1.00  0.00    -0.508 OA
ATOM     19  H   UNL     1     130.546 119.461 109.180  1.00  0.00     0.293 HD
ENDBRANCH  15  18
ENDBRANCH   1  12
BRANCH   2  20
ATOM     20  O   UNL     1     127.134 113.902 108.133  1.00  0.00    -0.502 OA
ATOM     21  H   UNL     1     127.969 114.440 108.325  1.00  0.00     0.293 HD
ENDBRANCH   2  20
BRANCH   6  22
ATOM     22  O   UNL     1     122.393 111.536 108.674  1.00  0.00    -0.507 OA
ATOM     23  H   UNL     1     122.315 111.228 107.716  1.00  0.00     0.293 HD
ENDBRANCH   6  22
BRANCH   8  24
ATOM     24  O   UNL     1     119.842 115.170 110.501  1.00  0.00    -0.508 OA
ATOM     25  H   UNL     1     119.132 114.558 110.886  1.00  0.00     0.293 HD
ENDBRANCH   8  24
TORSDOF 5
ENDMDL
MODEL 7
REMARK VINA RESULT:    -4.049     15.232     17.068
REMARK INTER + INTRA:          -5.001
REMARK INTER:                  -4.794
REMARK INTRA:                  -0.207
REMARK UNBOUND:                -0.242
REMARK SMILES O=c1c(O)c(-c2ccc(O)cc2)oc2cc(O)cc(O)c12
REMARK SMILES IDX 5 1 3 2 2 3 1 4 21 5 19 6 18 7 16 8 15 9 14 10 13 11 6 12
REMARK SMILES IDX 7 13 8 14 9 15 12 16 11 17 10 18 4 20 20 22 17 24
REMARK H PARENT 10 19 4 21 20 23 17 25
REMARK Flexibility Score: inf
ROOT
ATOM      1  C   UNL     1     125.090 113.783 109.361  1.00  0.00     0.180 A 
ATOM      2  C   UNL     1     126.104 114.672 108.967  1.00  0.00     0.208 A 
ATOM      3  C   UNL     1     125.952 116.042 109.237  1.00  0.00     0.238 A 
ATOM      4  O   UNL     1     126.887 116.826 108.930  1.00  0.00    -0.285 OA
ATOM      5  C   UNL     1     124.781 116.506 109.883  1.00  0.00     0.111 A 
ATOM      6  C   UNL     1     124.504 117.877 110.171  1.00  0.00     0.134 A 
ATOM      7  C   UNL     1     123.375 118.208 110.930  1.00  0.00     0.093 A 
ATOM      8  C   UNL     1     122.479 117.224 111.357  1.00  0.00     0.123 A 
ATOM      9  C   UNL     1     122.711 115.890 111.030  1.00  0.00     0.094 A 
ATOM     10  C   UNL     1     123.847 115.525 110.305  1.00  0.00     0.146 A 
ATOM     11  O   UNL     1     124.035 114.240 110.024  1.00  0.00    -0.452 OA
ENDROOT
BRANCH   1  12
ATOM     12  C   UNL     1     125.167 112.328 109.090  1.00  0.00     0.021 A 
ATOM     13  C   UNL     1     124.344 111.719 108.126  1.00  0.00     0.016 A 
ATOM     14  C   UNL     1     124.417 110.340 107.904  1.00  0.00     0.047 A 
ATOM     15  C   UNL     1     125.303 109.552 108.652  1.00  0.00     0.115 A 
ATOM     16  C   UNL     1     126.037 111.528 109.849  1.00  0.00     0.016 A 
ATOM     17  C   UNL     1     126.109 110.150 109.625  1.00  0.00     0.047 A 
BRANCH  15  18
ATOM     18  O   UNL     1     125.385 108.179 108.438  1.00  0.00    -0.508 OA
ATOM     19  H   UNL     1     124.800 107.527 108.948  1.00  0.00     0.293 HD
ENDBRANCH  15  18
ENDBRANCH   1  12
BRANCH   2  20
ATOM     20  O   UNL     1     127.261 114.190 108.349  1.00  0.00    -0.502 OA
ATOM     21  H   UNL     1     127.250 113.760 107.433  1.00  0.00     0.293 HD
ENDBRANCH   2  20
BRANCH   6  22
ATOM     22  O   UNL     1     125.283 118.943 109.713  1.00  0.00    -0.507 OA
ATOM     23  H   UNL     1     125.053 119.918 109.836  1.00  0.00     0.293 HD
ENDBRANCH   6  22
BRANCH   8  24
ATOM     24  O   UNL     1     121.350 117.564 112.098  1.00  0.00    -0.508 OA
ATOM     25  H   UNL     1     120.914 116.905 112.733  1.00  0.00     0.293 HD
ENDBRANCH   8  24
TORSDOF 5
ENDMDL
MODEL 8
REMARK VINA RESULT:    -4.041      3.466      7.180
REMARK INTER + INTRA:          -4.993
REMARK INTER:                  -4.700
REMARK INTRA:                  -0.293
REMARK UNBOUND:                -0.242
REMARK SMILES O=c1c(O)c(-c2ccc(O)cc2)oc2cc(O)cc(O)c12
REMARK SMILES IDX 5 1 3 2 2 3 1 4 21 5 19 6 18 7 16 8 15 9 14 10 13 11 6 12
REMARK SMILES IDX 7 13 8 14 9 15 12 16 11 17 10 18 4 20 20 22 17 24
REMARK H PARENT 10 19 4 21 20 23 17 25
REMARK Flexibility Score: inf
ROOT
ATOM      1  C   UNL     1     123.225 104.277 120.363  1.00  0.00     0.180 A 
ATOM      2  C   UNL     1     121.829 104.124 120.406  1.00  0.00     0.208 A 
ATOM      3  C   UNL     1     121.064 105.047 121.138  1.00  0.00     0.238 A 
ATOM      4  O   UNL     1     119.811 104.936 121.128  1.00  0.00    -0.285 OA
ATOM      5  C   UNL     1     121.707 106.102 121.830  1.00  0.00     0.111 A 
ATOM      6  C   UNL     1     121.034 107.071 122.634  1.00  0.00     0.134 A 
ATOM      7  C   UNL     1     121.756 108.146 123.166  1.00  0.00     0.093 A 
ATOM      8  C   UNL     1     123.136 108.252 122.977  1.00  0.00     0.123 A 
ATOM      9  C   UNL     1     123.810 107.279 122.243  1.00  0.00     0.094 A 
ATOM     10  C   UNL     1     123.112 106.214 121.669  1.00  0.00     0.146 A 
ATOM     11  O   UNL     1     123.792 105.314 120.968  1.00  0.00    -0.452 OA
ENDROOT
BRANCH   1  12
ATOM     12  C   UNL     1     124.100 103.330 119.633  1.00  0.00     0.021 A 
ATOM     13  C   UNL     1     124.543 102.136 120.229  1.00  0.00     0.016 A 
ATOM     14  C   UNL     1     125.389 101.269 119.529  1.00  0.00     0.047 A 
ATOM     15  C   UNL     1     125.813 101.592 118.233  1.00  0.00     0.115 A 
ATOM     16  C   UNL     1     124.547 103.656 118.342  1.00  0.00     0.016 A 
ATOM     17  C   UNL     1     125.392 102.788 117.644  1.00  0.00     0.047 A 
BRANCH  15  18
ATOM     18  O   UNL     1     126.653 100.735 117.527  1.00  0.00    -0.508 OA
ATOM     19  H   UNL     1     127.606 100.561 117.827  1.00  0.00     0.293 HD
ENDBRANCH  15  18
ENDBRANCH   1  12
BRANCH   2  20
ATOM     20  O   UNL     1     121.213 103.088 119.698  1.00  0.00    -0.502 OA
ATOM     21  H   UNL     1     120.480 103.254 119.019  1.00  0.00     0.293 HD
ENDBRANCH   2  20
BRANCH   6  22
ATOM     22  O   UNL     1     119.677 107.007 122.961  1.00  0.00    -0.507 OA
ATOM     23  H   UNL     1     119.144 107.768 123.356  1.00  0.00     0.293 HD
ENDBRANCH   6  22
BRANCH   8  24
ATOM     24  O   UNL     1     123.849 109.317 123.523  1.00  0.00    -0.508 OA
ATOM     25  H   UNL     1     123.380 110.083 123.994  1.00  0.00     0.293 HD
ENDBRANCH   8  24
TORSDOF 5
ENDMDL
MODEL 9
REMARK VINA RESULT:    -4.003     15.947     18.007
REMARK INTER + INTRA:          -4.947
REMARK INTER:                  -4.647
REMARK INTRA:                  -0.300
REMARK UNBOUND:                -0.242
REMARK SMILES O=c1c(O)c(-c2ccc(O)cc2)oc2cc(O)cc(O)c12
REMARK SMILES IDX 5 1 3 2 2 3 1 4 21 5 19 6 18 7 16 8 15 9 14 10 13 11 6 12
REMARK SMILES IDX 7 13 8 14 9 15 12 16 11 17 10 18 4 20 20 22 17 24
REMARK H PARENT 10 19 4 21 20 23 17 25
REMARK Flexibility Score: inf
ROOT
ATOM      1  C   UNL     1     126.150 115.615 109.438  1.00  0.00     0.180 A 
ATOM      2  C   UNL     1     126.204 117.005 109.640  1.00  0.00     0.208 A 
ATOM      3  C   UNL     1     127.451 117.612 109.867  1.00  0.00     0.238 A 
ATOM      4  O   UNL     1     127.499 118.863 109.994  1.00  0.00    -0.285 OA
ATOM      5  C   UNL     1     128.624 116.820 109.904  1.00  0.00     0.111 A 
ATOM      6  C   UNL     1     129.933 117.324 110.165  1.00  0.00     0.134 A 
ATOM      7  C   UNL     1     131.037 116.471 110.047  1.00  0.00     0.093 A 
ATOM      8  C   UNL     1     130.872 115.117 109.742  1.00  0.00     0.123 A 
ATOM      9  C   UNL     1     129.593 114.604 109.544  1.00  0.00     0.094 A 
ATOM     10  C   UNL     1     128.475 115.438 109.619  1.00  0.00     0.146 A 
ATOM     11  O   UNL     1     127.274 114.910 109.413  1.00  0.00    -0.452 OA
ENDROOT
BRANCH   1  12
ATOM     12  C   UNL     1     124.871 114.900 109.218  1.00  0.00     0.021 A 
ATOM     13  C   UNL     1     124.108 114.417 110.295  1.00  0.00     0.016 A 
ATOM     14  C   UNL     1     122.916 113.723 110.063  1.00  0.00     0.047 A 
ATOM     15  C   UNL     1     122.481 113.492 108.751  1.00  0.00     0.115 A 
ATOM     16  C   UNL     1     124.438 114.646 107.906  1.00  0.00     0.016 A 
ATOM     17  C   UNL     1     123.246 113.953 107.675  1.00  0.00     0.047 A 
BRANCH  15  18
ATOM     18  O   UNL     1     121.295 112.804 108.507  1.00  0.00    -0.508 OA
ATOM     19  H   UNL     1     120.557 113.204 107.939  1.00  0.00     0.293 HD
ENDBRANCH  15  18
ENDBRANCH   1  12
BRANCH   2  20
ATOM     20  O   UNL     1     125.037 117.771 109.579  1.00  0.00    -0.502 OA
ATOM     21  H   UNL     1     124.441 117.790 108.760  1.00  0.00     0.293 HD
ENDBRANCH   2  20
BRANCH   6  22
ATOM     22  O   UNL     1     130.199 118.636 110.567  1.00  0.00    -0.507 OA
ATOM     23  H   UNL     1     130.929 119.219 110.185  1.00  0.00     0.293 HD
ENDBRANCH   6  22
BRANCH   8  24
ATOM     24  O   UNL     1     131.975 114.272 109.643  1.00  0.00    -0.508 OA
ATOM     25  H   UNL     1     132.911 114.592 109.864  1.00  0.00     0.293 HD
ENDBRANCH   8  24
TORSDOF 5
ENDMDL
