MODEL 1
REMARK VINA RESULT:    -7.135      0.000      0.000
REMARK INTER + INTRA:         -11.751
REMARK INTER:                 -10.472
REMARK INTRA:                  -1.279
REMARK UNBOUND:                -1.279
REMARK SMILES O=c1c(O[C@H]2O[C@H](CO)[C@H](O)[C@@H](O)[C@H]2O)c(-c2ccc(O)c(O)c2)oc2cc(O)cc(O)c12
REMARK SMILES IDX 4 1 3 2 16 3 25 4 2 5 26 6 1 7 33 8 27 9 31 10 28 11 30 12
REMARK SMILES IDX 17 13 18 14 19 15 20 16 24 17 22 18 21 19 23 21 32 23 29 25
REMARK SMILES IDX 5 27 14 28 6 29 12 30 7 31 10 32 15 33 13 35 8 37 9 38 11 40
REMARK H PARENT 21 20 23 22 32 24 29 26 15 34 13 36 9 39 11 41
REMARK Flexibility Score: inf
ROOT
ATOM      1  O   UNL     1     -37.962   6.254  81.203  1.00  0.00    -0.454 OA
ENDROOT
BRANCH   1   2
ATOM      2  C   UNL     1     -38.717   5.559  80.249  1.00  0.00     0.214 A 
ATOM      3  C   UNL     1     -38.333   5.502  78.891  1.00  0.00     0.180 A 
ATOM      4  O   UNL     1     -39.040   4.768  78.038  1.00  0.00    -0.452 OA
ATOM      5  C   UNL     1     -39.880   4.894  80.652  1.00  0.00     0.239 A 
ATOM      6  C   UNL     1     -40.133   4.098  78.385  1.00  0.00     0.146 A 
ATOM      7  O   UNL     1     -40.243   4.969  81.857  1.00  0.00    -0.285 OA
ATOM      8  C   UNL     1     -40.613   4.139  79.715  1.00  0.00     0.111 A 
ATOM      9  C   UNL     1     -40.812   3.355  77.414  1.00  0.00     0.094 A 
ATOM     10  C   UNL     1     -41.786   3.420  80.048  1.00  0.00     0.134 A 
ATOM     11  C   UNL     1     -41.969   2.649  77.747  1.00  0.00     0.123 A 
ATOM     12  C   UNL     1     -42.453   2.682  79.061  1.00  0.00     0.093 A 
BRANCH   3  13
ATOM     13  C   UNL     1     -37.158   6.237  78.371  1.00  0.00     0.025 A 
ATOM     14  C   UNL     1     -35.966   5.546  78.119  1.00  0.00     0.016 A 
ATOM     15  C   UNL     1     -34.841   6.227  77.649  1.00  0.00     0.051 A 
ATOM     16  C   UNL     1     -34.888   7.606  77.414  1.00  0.00     0.157 A 
ATOM     17  C   UNL     1     -37.220   7.615  78.104  1.00  0.00     0.062 A 
ATOM     18  C   UNL     1     -36.097   8.308  77.637  1.00  0.00     0.158 A 
BRANCH  16  19
ATOM     19  O   UNL     1     -33.724   8.231  76.965  1.00  0.00    -0.504 OA
ATOM     20  H   UNL     1     -32.799   8.013  77.304  1.00  0.00     0.293 HD
ENDBRANCH  16  19
BRANCH  18  21
ATOM     21  O   UNL     1     -36.224   9.680  77.411  1.00  0.00    -0.504 OA
ATOM     22  H   UNL     1     -35.697  10.385  77.905  1.00  0.00     0.293 HD
ENDBRANCH  18  21
ENDBRANCH   3  13
BRANCH  10  23
ATOM     23  O   UNL     1     -42.290   3.432  81.351  1.00  0.00    -0.507 OA
ATOM     24  H   UNL     1     -42.726   4.257  81.745  1.00  0.00     0.293 HD
ENDBRANCH  10  23
BRANCH  11  25
ATOM     25  O   UNL     1     -42.634   1.918  76.764  1.00  0.00    -0.508 OA
ATOM     26  H   UNL     1     -43.619   1.692  76.847  1.00  0.00     0.293 HD
ENDBRANCH  11  25
ENDBRANCH   1   2
BRANCH   1  27
ATOM     27  C   UNL     1     -37.007   5.611  82.049  1.00  0.00     0.339 C 
ATOM     28  C   UNL     1     -35.821   6.559  82.293  1.00  0.00     0.214 C 
ATOM     29  O   UNL     1     -36.583   4.416  81.411  1.00  0.00    -0.332 OA
ATOM     30  C   UNL     1     -34.780   5.852  83.177  1.00  0.00     0.180 C 
ATOM     31  C   UNL     1     -35.676   3.666  82.212  1.00  0.00     0.179 C 
ATOM     32  C   UNL     1     -34.409   4.492  82.570  1.00  0.00     0.177 C 
BRANCH  28  33
ATOM     33  O   UNL     1     -35.256   6.927  81.059  1.00  0.00    -0.384 OA
ATOM     34  H   UNL     1     -35.952   6.780  80.368  1.00  0.00     0.211 HD
ENDBRANCH  28  33
BRANCH  30  35
ATOM     35  O   UNL     1     -33.624   6.641  83.299  1.00  0.00    -0.387 OA
ATOM     36  H   UNL     1     -33.333   6.867  82.378  1.00  0.00     0.211 HD
ENDBRANCH  30  35
BRANCH  31  37
ATOM     37  C   UNL     1     -36.380   3.009  83.422  1.00  0.00     0.191 C 
BRANCH  37  38
ATOM     38  O   UNL     1     -37.481   2.256  82.990  1.00  0.00    -0.394 OA
ATOM     39  H   UNL     1     -37.434   2.242  81.998  1.00  0.00     0.210 HD
ENDBRANCH  37  38
ENDBRANCH  31  37
BRANCH  32  40
ATOM     40  O   UNL     1     -33.581   3.790  83.460  1.00  0.00    -0.387 OA
ATOM     41  H   UNL     1     -32.700   4.248  83.454  1.00  0.00     0.211 HD
ENDBRANCH  32  40
ENDBRANCH   1  27
TORSDOF 12
ENDMDL
MODEL 2
REMARK VINA RESULT:    -7.059      0.845      2.004
REMARK INTER + INTRA:         -11.640
REMARK INTER:                 -10.351
REMARK INTRA:                  -1.289
REMARK UNBOUND:                -1.279
REMARK SMILES O=c1c(O[C@H]2O[C@H](CO)[C@H](O)[C@@H](O)[C@H]2O)c(-c2ccc(O)c(O)c2)oc2cc(O)cc(O)c12
REMARK SMILES IDX 4 1 3 2 16 3 25 4 2 5 26 6 1 7 33 8 27 9 31 10 28 11 30 12
REMARK SMILES IDX 17 13 18 14 19 15 20 16 24 17 22 18 21 19 23 21 32 23 29 25
REMARK SMILES IDX 5 27 14 28 6 29 12 30 7 31 10 32 15 33 13 35 8 37 9 38 11 40
REMARK H PARENT 21 20 23 22 32 24 29 26 15 34 13 36 9 39 11 41
REMARK Flexibility Score: inf
ROOT
ATOM      1  O   UNL     1     -38.090   6.082  81.302  1.00  0.00    -0.454 OA
ENDROOT
BRANCH   1   2
ATOM      2  C   UNL     1     -38.824   5.422  80.309  1.00  0.00     0.214 A 
ATOM      3  C   UNL     1     -38.387   5.373  78.966  1.00  0.00     0.180 A 
ATOM      4  O   UNL     1     -39.078   4.670  78.074  1.00  0.00    -0.452 OA
ATOM      5  C   UNL     1     -40.019   4.782  80.654  1.00  0.00     0.239 A 
ATOM      6  C   UNL     1     -40.202   4.025  78.367  1.00  0.00     0.146 A 
ATOM      7  O   UNL     1     -40.429   4.850  81.844  1.00  0.00    -0.285 OA
ATOM      8  C   UNL     1     -40.734   4.061  79.677  1.00  0.00     0.111 A 
ATOM      9  C   UNL     1     -40.860   3.315  77.358  1.00  0.00     0.094 A 
ATOM     10  C   UNL     1     -41.937   3.369  79.952  1.00  0.00     0.134 A 
ATOM     11  C   UNL     1     -42.048   2.635  77.634  1.00  0.00     0.123 A 
ATOM     12  C   UNL     1     -42.583   2.662  78.927  1.00  0.00     0.093 A 
BRANCH   3  13
ATOM     13  C   UNL     1     -37.173   6.083  78.505  1.00  0.00     0.025 A 
ATOM     14  C   UNL     1     -35.962   5.388  78.400  1.00  0.00     0.016 A 
ATOM     15  C   UNL     1     -34.802   6.047  77.989  1.00  0.00     0.051 A 
ATOM     16  C   UNL     1     -34.831   7.408  77.664  1.00  0.00     0.157 A 
ATOM     17  C   UNL     1     -37.215   7.441  78.147  1.00  0.00     0.062 A 
ATOM     18  C   UNL     1     -36.057   8.113  77.737  1.00  0.00     0.158 A 
BRANCH  16  19
ATOM     19  O   UNL     1     -33.634   8.013  77.279  1.00  0.00    -0.504 OA
ATOM     20  H   UNL     1     -33.438   8.997  77.389  1.00  0.00     0.293 HD
ENDBRANCH  16  19
BRANCH  18  21
ATOM     21  O   UNL     1     -36.168   9.467  77.414  1.00  0.00    -0.504 OA
ATOM     22  H   UNL     1     -36.096   9.831  76.475  1.00  0.00     0.293 HD
ENDBRANCH  18  21
ENDBRANCH   3  13
BRANCH  10  23
ATOM     23  O   UNL     1     -42.493   3.376  81.233  1.00  0.00    -0.507 OA
ATOM     24  H   UNL     1     -42.627   4.236  81.751  1.00  0.00     0.293 HD
ENDBRANCH  10  23
BRANCH  11  25
ATOM     25  O   UNL     1     -42.691   1.937  76.614  1.00  0.00    -0.508 OA
ATOM     26  H   UNL     1     -43.701   1.941  76.524  1.00  0.00     0.293 HD
ENDBRANCH  11  25
ENDBRANCH   1   2
BRANCH   1  27
ATOM     27  C   UNL     1     -36.809   5.631  81.744  1.00  0.00     0.339 C 
ATOM     28  C   UNL     1     -36.963   4.277  82.457  1.00  0.00     0.214 C 
ATOM     29  O   UNL     1     -36.271   6.611  82.618  1.00  0.00    -0.332 OA
ATOM     30  C   UNL     1     -35.587   3.810  82.962  1.00  0.00     0.180 C 
ATOM     31  C   UNL     1     -34.959   6.282  83.061  1.00  0.00     0.179 C 
ATOM     32  C   UNL     1     -34.930   4.915  83.801  1.00  0.00     0.177 C 
BRANCH  28  33
ATOM     33  O   UNL     1     -37.864   4.414  83.529  1.00  0.00    -0.384 OA
ATOM     34  H   UNL     1     -38.116   3.498  83.812  1.00  0.00     0.211 HD
ENDBRANCH  28  33
BRANCH  30  35
ATOM     35  O   UNL     1     -35.719   2.648  83.740  1.00  0.00    -0.387 OA
ATOM     36  H   UNL     1     -35.678   2.933  84.690  1.00  0.00     0.211 HD
ENDBRANCH  30  35
BRANCH  31  37
ATOM     37  C   UNL     1     -33.913   6.426  81.931  1.00  0.00     0.191 C 
BRANCH  37  38
ATOM     38  O   UNL     1     -34.159   7.590  81.191  1.00  0.00    -0.394 OA
ATOM     39  H   UNL     1     -33.575   7.536  80.390  1.00  0.00     0.210 HD
ENDBRANCH  37  38
ENDBRANCH  31  37
BRANCH  32  40
ATOM     40  O   UNL     1     -33.615   4.541  84.123  1.00  0.00    -0.387 OA
ATOM     41  H   UNL     1     -33.675   3.685  84.622  1.00  0.00     0.211 HD
ENDBRANCH  32  40
ENDBRANCH   1  27
TORSDOF 12
ENDMDL
MODEL 3
REMARK VINA RESULT:    -6.964      1.873      2.940
REMARK INTER + INTRA:         -11.500
REMARK INTER:                 -10.371
REMARK INTRA:                  -1.129
REMARK UNBOUND:                -1.279
REMARK SMILES O=c1c(O[C@H]2O[C@H](CO)[C@H](O)[C@@H](O)[C@H]2O)c(-c2ccc(O)c(O)c2)oc2cc(O)cc(O)c12
REMARK SMILES IDX 4 1 3 2 16 3 25 4 2 5 26 6 1 7 33 8 27 9 31 10 28 11 30 12
REMARK SMILES IDX 17 13 18 14 19 15 20 16 24 17 22 18 21 19 23 21 32 23 29 25
REMARK SMILES IDX 5 27 14 28 6 29 12 30 7 31 10 32 15 33 13 35 8 37 9 38 11 40
REMARK H PARENT 21 20 23 22 32 24 29 26 15 34 13 36 9 39 11 41
REMARK Flexibility Score: inf
ROOT
ATOM      1  O   UNL     1     -37.625   5.175  81.906  1.00  0.00    -0.454 OA
ENDROOT
BRANCH   1   2
ATOM      2  C   UNL     1     -38.365   4.759  80.792  1.00  0.00     0.214 A 
ATOM      3  C   UNL     1     -37.813   4.748  79.492  1.00  0.00     0.180 A 
ATOM      4  O   UNL     1     -38.528   4.273  78.477  1.00  0.00    -0.452 OA
ATOM      5  C   UNL     1     -39.685   4.332  80.970  1.00  0.00     0.239 A 
ATOM      6  C   UNL     1     -39.774   3.831  78.607  1.00  0.00     0.146 A 
ATOM      7  O   UNL     1     -40.192   4.369  82.123  1.00  0.00    -0.285 OA
ATOM      8  C   UNL     1     -40.419   3.851  79.867  1.00  0.00     0.111 A 
ATOM      9  C   UNL     1     -40.447   3.353  77.479  1.00  0.00     0.094 A 
ATOM     10  C   UNL     1     -41.749   3.380  79.968  1.00  0.00     0.134 A 
ATOM     11  C   UNL     1     -41.761   2.891  77.584  1.00  0.00     0.123 A 
ATOM     12  C   UNL     1     -42.408   2.904  78.825  1.00  0.00     0.093 A 
BRANCH   3  13
ATOM     13  C   UNL     1     -36.451   5.252  79.208  1.00  0.00     0.025 A 
ATOM     14  C   UNL     1     -35.339   4.480  79.569  1.00  0.00     0.016 A 
ATOM     15  C   UNL     1     -34.046   4.950  79.330  1.00  0.00     0.051 A 
ATOM     16  C   UNL     1     -33.839   6.191  78.718  1.00  0.00     0.157 A 
ATOM     17  C   UNL     1     -36.248   6.483  78.562  1.00  0.00     0.062 A 
ATOM     18  C   UNL     1     -34.956   6.965  78.322  1.00  0.00     0.158 A 
BRANCH  16  19
ATOM     19  O   UNL     1     -32.522   6.612  78.525  1.00  0.00    -0.504 OA
ATOM     20  H   UNL     1     -31.806   6.568  79.235  1.00  0.00     0.293 HD
ENDBRANCH  16  19
BRANCH  18  21
ATOM     21  O   UNL     1     -34.829   8.205  77.692  1.00  0.00    -0.504 OA
ATOM     22  H   UNL     1     -34.818   8.331  76.691  1.00  0.00     0.293 HD
ENDBRANCH  18  21
ENDBRANCH   3  13
BRANCH  10  23
ATOM     23  O   UNL     1     -42.419   3.378  81.194  1.00  0.00    -0.507 OA
ATOM     24  H   UNL     1     -43.346   2.981  81.294  1.00  0.00     0.293 HD
ENDBRANCH  10  23
BRANCH  11  25
ATOM     25  O   UNL     1     -42.416   2.423  76.447  1.00  0.00    -0.508 OA
ATOM     26  H   UNL     1     -42.269   1.482  76.100  1.00  0.00     0.293 HD
ENDBRANCH  11  25
ENDBRANCH   1   2
BRANCH   1  27
ATOM     27  C   UNL     1     -37.274   6.541  82.133  1.00  0.00     0.339 C 
ATOM     28  C   UNL     1     -35.859   6.612  82.730  1.00  0.00     0.214 C 
ATOM     29  O   UNL     1     -38.231   7.104  83.018  1.00  0.00    -0.332 OA
ATOM     30  C   UNL     1     -35.497   8.082  83.004  1.00  0.00     0.180 C 
ATOM     31  C   UNL     1     -38.004   8.489  83.253  1.00  0.00     0.179 C 
ATOM     32  C   UNL     1     -36.592   8.745  83.851  1.00  0.00     0.177 C 
BRANCH  28  33
ATOM     33  O   UNL     1     -35.815   5.860  83.918  1.00  0.00    -0.384 OA
ATOM     34  H   UNL     1     -35.157   6.301  84.514  1.00  0.00     0.211 HD
ENDBRANCH  28  33
BRANCH  30  35
ATOM     35  O   UNL     1     -34.268   8.165  83.680  1.00  0.00    -0.387 OA
ATOM     36  H   UNL     1     -34.469   8.095  84.649  1.00  0.00     0.211 HD
ENDBRANCH  30  35
BRANCH  31  37
ATOM     37  C   UNL     1     -38.346   9.350  82.016  1.00  0.00     0.191 C 
BRANCH  37  38
ATOM     38  O   UNL     1     -39.505  10.101  82.255  1.00  0.00    -0.394 OA
ATOM     39  H   UNL     1     -40.251   9.598  81.833  1.00  0.00     0.210 HD
ENDBRANCH  37  38
ENDBRANCH  31  37
BRANCH  32  40
ATOM     40  O   UNL     1     -36.331  10.120  83.963  1.00  0.00    -0.387 OA
ATOM     41  H   UNL     1     -36.771  10.428  84.798  1.00  0.00     0.211 HD
ENDBRANCH  32  40
ENDBRANCH   1  27
TORSDOF 12
ENDMDL
MODEL 4
REMARK VINA RESULT:    -6.666      2.684      6.647
REMARK INTER + INTRA:         -11.063
REMARK INTER:                 -10.054
REMARK INTRA:                  -1.008
REMARK UNBOUND:                -1.279
REMARK SMILES O=c1c(O[C@H]2O[C@H](CO)[C@H](O)[C@@H](O)[C@H]2O)c(-c2ccc(O)c(O)c2)oc2cc(O)cc(O)c12
REMARK SMILES IDX 4 1 3 2 16 3 25 4 2 5 26 6 1 7 33 8 27 9 31 10 28 11 30 12
REMARK SMILES IDX 17 13 18 14 19 15 20 16 24 17 22 18 21 19 23 21 32 23 29 25
REMARK SMILES IDX 5 27 14 28 6 29 12 30 7 31 10 32 15 33 13 35 8 37 9 38 11 40
REMARK H PARENT 21 20 23 22 32 24 29 26 15 34 13 36 9 39 11 41
REMARK Flexibility Score: inf
ROOT
ATOM      1  O   UNL     1     -38.737   5.228  77.778  1.00  0.00    -0.454 OA
ENDROOT
BRANCH   1   2
ATOM      2  C   UNL     1     -37.658   6.069  78.075  1.00  0.00     0.214 A 
ATOM      3  C   UNL     1     -37.799   7.473  78.130  1.00  0.00     0.180 A 
ATOM      4  O   UNL     1     -36.764   8.225  78.490  1.00  0.00    -0.452 OA
ATOM      5  C   UNL     1     -36.404   5.504  78.336  1.00  0.00     0.239 A 
ATOM      6  C   UNL     1     -35.565   7.728  78.773  1.00  0.00     0.146 A 
ATOM      7  O   UNL     1     -36.267   4.254  78.257  1.00  0.00    -0.285 OA
ATOM      8  C   UNL     1     -35.325   6.335  78.698  1.00  0.00     0.111 A 
ATOM      9  C   UNL     1     -34.536   8.601  79.140  1.00  0.00     0.094 A 
ATOM     10  C   UNL     1     -34.034   5.840  78.998  1.00  0.00     0.134 A 
ATOM     11  C   UNL     1     -33.263   8.108  79.434  1.00  0.00     0.123 A 
ATOM     12  C   UNL     1     -33.015   6.732  79.364  1.00  0.00     0.093 A 
BRANCH   3  13
ATOM     13  C   UNL     1     -39.071   8.152  77.797  1.00  0.00     0.025 A 
ATOM     14  C   UNL     1     -40.060   8.288  78.779  1.00  0.00     0.016 A 
ATOM     15  C   UNL     1     -41.275   8.906  78.476  1.00  0.00     0.051 A 
ATOM     16  C   UNL     1     -41.522   9.407  77.193  1.00  0.00     0.157 A 
ATOM     17  C   UNL     1     -39.300   8.685  76.517  1.00  0.00     0.062 A 
ATOM     18  C   UNL     1     -40.517   9.302  76.202  1.00  0.00     0.158 A 
BRANCH  16  19
ATOM     19  O   UNL     1     -42.764   9.996  76.950  1.00  0.00    -0.504 OA
ATOM     20  H   UNL     1     -43.273   9.901  76.083  1.00  0.00     0.293 HD
ENDBRANCH  16  19
BRANCH  18  21
ATOM     21  O   UNL     1     -40.683   9.792  74.905  1.00  0.00    -0.504 OA
ATOM     22  H   UNL     1     -40.769   9.206  74.087  1.00  0.00     0.293 HD
ENDBRANCH  18  21
ENDBRANCH   3  13
BRANCH  10  23
ATOM     23  O   UNL     1     -33.758   4.473  78.940  1.00  0.00    -0.507 OA
ATOM     24  H   UNL     1     -32.860   4.124  78.624  1.00  0.00     0.293 HD
ENDBRANCH  10  23
BRANCH  11  25
ATOM     25  O   UNL     1     -32.250   8.994  79.792  1.00  0.00    -0.508 OA
ATOM     26  H   UNL     1     -31.491   9.216  79.158  1.00  0.00     0.293 HD
ENDBRANCH  11  25
ENDBRANCH   1   2
BRANCH   1  27
ATOM     27  C   UNL     1     -39.269   4.293  78.718  1.00  0.00     0.339 C 
ATOM     28  C   UNL     1     -40.776   4.117  78.466  1.00  0.00     0.214 C 
ATOM     29  O   UNL     1     -39.024   4.789  80.024  1.00  0.00    -0.332 OA
ATOM     30  C   UNL     1     -41.351   3.134  79.501  1.00  0.00     0.180 C 
ATOM     31  C   UNL     1     -39.459   3.890  81.038  1.00  0.00     0.179 C 
ATOM     32  C   UNL     1     -40.979   3.586  80.920  1.00  0.00     0.177 C 
BRANCH  28  33
ATOM     33  O   UNL     1     -41.414   5.366  78.560  1.00  0.00    -0.384 OA
ATOM     34  H   UNL     1     -40.715   6.030  78.793  1.00  0.00     0.211 HD
ENDBRANCH  28  33
BRANCH  30  35
ATOM     35  O   UNL     1     -42.750   3.064  79.384  1.00  0.00    -0.387 OA
ATOM     36  H   UNL     1     -43.010   3.706  78.674  1.00  0.00     0.211 HD
ENDBRANCH  30  35
BRANCH  31  37
ATOM     37  C   UNL     1     -38.556   2.638  81.127  1.00  0.00     0.191 C 
BRANCH  37  38
ATOM     38  O   UNL     1     -38.859   1.905  82.283  1.00  0.00    -0.394 OA
ATOM     39  H   UNL     1     -39.451   1.162  81.991  1.00  0.00     0.210 HD
ENDBRANCH  37  38
ENDBRANCH  31  37
BRANCH  32  40
ATOM     40  O   UNL     1     -41.372   2.604  81.844  1.00  0.00    -0.387 OA
ATOM     41  H   UNL     1     -41.616   1.798  81.318  1.00  0.00     0.211 HD
ENDBRANCH  32  40
ENDBRANCH   1  27
TORSDOF 12
ENDMDL
MODEL 5
REMARK VINA RESULT:    -6.417      2.036      6.592
REMARK INTER + INTRA:         -10.698
REMARK INTER:                  -9.310
REMARK INTRA:                  -1.387
REMARK UNBOUND:                -1.279
REMARK SMILES O=c1c(O[C@H]2O[C@H](CO)[C@H](O)[C@@H](O)[C@H]2O)c(-c2ccc(O)c(O)c2)oc2cc(O)cc(O)c12
REMARK SMILES IDX 4 1 3 2 16 3 25 4 2 5 26 6 1 7 33 8 27 9 31 10 28 11 30 12
REMARK SMILES IDX 17 13 18 14 19 15 20 16 24 17 22 18 21 19 23 21 32 23 29 25
REMARK SMILES IDX 5 27 14 28 6 29 12 30 7 31 10 32 15 33 13 35 8 37 9 38 11 40
REMARK H PARENT 21 20 23 22 32 24 29 26 15 34 13 36 9 39 11 41
REMARK Flexibility Score: inf
ROOT
ATOM      1  O   UNL     1     -37.501   4.528  78.672  1.00  0.00    -0.454 OA
ENDROOT
BRANCH   1   2
ATOM      2  C   UNL     1     -36.825   5.459  79.470  1.00  0.00     0.214 A 
ATOM      3  C   UNL     1     -37.079   6.845  79.376  1.00  0.00     0.180 A 
ATOM      4  O   UNL     1     -36.467   7.684  80.206  1.00  0.00    -0.452 OA
ATOM      5  C   UNL     1     -35.877   5.006  80.394  1.00  0.00     0.239 A 
ATOM      6  C   UNL     1     -35.582   7.293  81.116  1.00  0.00     0.146 A 
ATOM      7  O   UNL     1     -35.625   3.773  80.459  1.00  0.00    -0.285 OA
ATOM      8  C   UNL     1     -35.236   5.928  81.246  1.00  0.00     0.111 A 
ATOM      9  C   UNL     1     -34.989   8.252  81.943  1.00  0.00     0.094 A 
ATOM     10  C   UNL     1     -34.284   5.547  82.221  1.00  0.00     0.134 A 
ATOM     11  C   UNL     1     -34.048   7.872  82.903  1.00  0.00     0.123 A 
ATOM     12  C   UNL     1     -33.699   6.523  83.041  1.00  0.00     0.093 A 
BRANCH   3  13
ATOM     13  C   UNL     1     -38.011   7.411  78.376  1.00  0.00     0.025 A 
ATOM     14  C   UNL     1     -37.631   7.470  77.029  1.00  0.00     0.016 A 
ATOM     15  C   UNL     1     -38.489   8.022  76.076  1.00  0.00     0.051 A 
ATOM     16  C   UNL     1     -39.745   8.515  76.447  1.00  0.00     0.157 A 
ATOM     17  C   UNL     1     -39.285   7.874  78.747  1.00  0.00     0.062 A 
ATOM     18  C   UNL     1     -40.151   8.434  77.800  1.00  0.00     0.158 A 
BRANCH  16  19
ATOM     19  O   UNL     1     -40.547   9.073  75.449  1.00  0.00    -0.504 OA
ATOM     20  H   UNL     1     -40.291   9.885  74.908  1.00  0.00     0.293 HD
ENDBRANCH  16  19
BRANCH  18  21
ATOM     21  O   UNL     1     -41.394   8.891  78.242  1.00  0.00    -0.504 OA
ATOM     22  H   UNL     1     -42.049   8.328  78.766  1.00  0.00     0.293 HD
ENDBRANCH  18  21
ENDBRANCH   3  13
BRANCH  10  23
ATOM     23  O   UNL     1     -33.918   4.209  82.383  1.00  0.00    -0.507 OA
ATOM     24  H   UNL     1     -34.604   3.488  82.572  1.00  0.00     0.293 HD
ENDBRANCH  10  23
BRANCH  11  25
ATOM     25  O   UNL     1     -33.464   8.842  83.714  1.00  0.00    -0.508 OA
ATOM     26  H   UNL     1     -32.999   9.652  83.320  1.00  0.00     0.293 HD
ENDBRANCH  11  25
ENDBRANCH   1   2
BRANCH   1  27
ATOM     27  C   UNL     1     -38.698   3.873  79.097  1.00  0.00     0.339 C 
ATOM     28  C   UNL     1     -39.594   3.605  77.876  1.00  0.00     0.214 C 
ATOM     29  O   UNL     1     -39.352   4.711  80.037  1.00  0.00    -0.332 OA
ATOM     30  C   UNL     1     -40.896   2.930  78.341  1.00  0.00     0.180 C 
ATOM     31  C   UNL     1     -40.527   4.112  80.572  1.00  0.00     0.179 C 
ATOM     32  C   UNL     1     -41.549   3.757  79.456  1.00  0.00     0.177 C 
BRANCH  28  33
ATOM     33  O   UNL     1     -39.870   4.820  77.224  1.00  0.00    -0.384 OA
ATOM     34  H   UNL     1     -40.803   5.065  77.454  1.00  0.00     0.211 HD
ENDBRANCH  28  33
BRANCH  30  35
ATOM     35  O   UNL     1     -41.792   2.803  77.266  1.00  0.00    -0.387 OA
ATOM     36  H   UNL     1     -42.518   3.461  77.419  1.00  0.00     0.211 HD
ENDBRANCH  30  35
BRANCH  31  37
ATOM     37  C   UNL     1     -40.197   2.949  81.536  1.00  0.00     0.191 C 
BRANCH  37  38
ATOM     38  O   UNL     1     -41.336   2.593  82.271  1.00  0.00    -0.394 OA
ATOM     39  H   UNL     1     -42.090   3.106  81.878  1.00  0.00     0.210 HD
ENDBRANCH  37  38
ENDBRANCH  31  37
BRANCH  32  40
ATOM     40  O   UNL     1     -42.648   3.056  79.979  1.00  0.00    -0.387 OA
ATOM     41  H   UNL     1     -43.452   3.611  79.804  1.00  0.00     0.211 HD
ENDBRANCH  32  40
ENDBRANCH   1  27
TORSDOF 12
ENDMDL
MODEL 6
REMARK VINA RESULT:    -6.407      2.018      7.298
REMARK INTER + INTRA:         -10.683
REMARK INTER:                  -9.199
REMARK INTRA:                  -1.484
REMARK UNBOUND:                -1.279
REMARK SMILES O=c1c(O[C@H]2O[C@H](CO)[C@H](O)[C@@H](O)[C@H]2O)c(-c2ccc(O)c(O)c2)oc2cc(O)cc(O)c12
REMARK SMILES IDX 4 1 3 2 16 3 25 4 2 5 26 6 1 7 33 8 27 9 31 10 28 11 30 12
REMARK SMILES IDX 17 13 18 14 19 15 20 16 24 17 22 18 21 19 23 21 32 23 29 25
REMARK SMILES IDX 5 27 14 28 6 29 12 30 7 31 10 32 15 33 13 35 8 37 9 38 11 40
REMARK H PARENT 21 20 23 22 32 24 29 26 15 34 13 36 9 39 11 41
REMARK Flexibility Score: inf
ROOT
ATOM      1  O   UNL     1     -39.413   7.248  80.544  1.00  0.00    -0.454 OA
ENDROOT
BRANCH   1   2
ATOM      2  C   UNL     1     -38.390   6.401  80.988  1.00  0.00     0.214 A 
ATOM      3  C   UNL     1     -38.324   5.044  80.601  1.00  0.00     0.180 A 
ATOM      4  O   UNL     1     -37.293   4.299  80.987  1.00  0.00    -0.452 OA
ATOM      5  C   UNL     1     -37.398   6.912  81.832  1.00  0.00     0.239 A 
ATOM      6  C   UNL     1     -36.316   4.752  81.764  1.00  0.00     0.146 A 
ATOM      7  O   UNL     1     -37.471   8.113  82.206  1.00  0.00    -0.285 OA
ATOM      8  C   UNL     1     -36.330   6.086  82.235  1.00  0.00     0.111 A 
ATOM      9  C   UNL     1     -35.275   3.890  82.120  1.00  0.00     0.094 A 
ATOM     10  C   UNL     1     -35.277   6.534  83.068  1.00  0.00     0.134 A 
ATOM     11  C   UNL     1     -34.239   4.336  82.943  1.00  0.00     0.123 A 
ATOM     12  C   UNL     1     -34.241   5.655  83.414  1.00  0.00     0.093 A 
BRANCH   3  13
ATOM     13  C   UNL     1     -39.371   4.408  79.770  1.00  0.00     0.025 A 
ATOM     14  C   UNL     1     -39.115   4.140  78.420  1.00  0.00     0.016 A 
ATOM     15  C   UNL     1     -40.099   3.561  77.616  1.00  0.00     0.051 A 
ATOM     16  C   UNL     1     -41.351   3.232  78.146  1.00  0.00     0.157 A 
ATOM     17  C   UNL     1     -40.615   4.048  80.315  1.00  0.00     0.062 A 
ATOM     18  C   UNL     1     -41.610   3.471  79.517  1.00  0.00     0.158 A 
BRANCH  16  19
ATOM     19  O   UNL     1     -42.298   2.675  77.285  1.00  0.00    -0.504 OA
ATOM     20  H   UNL     1     -42.119   1.882  76.686  1.00  0.00     0.293 HD
ENDBRANCH  16  19
BRANCH  18  21
ATOM     21  O   UNL     1     -42.829   3.155  80.120  1.00  0.00    -0.504 OA
ATOM     22  H   UNL     1     -43.356   2.317  79.922  1.00  0.00     0.293 HD
ENDBRANCH  18  21
ENDBRANCH   3  13
BRANCH  10  23
ATOM     23  O   UNL     1     -35.251   7.845  83.551  1.00  0.00    -0.507 OA
ATOM     24  H   UNL     1     -34.418   8.241  83.970  1.00  0.00     0.293 HD
ENDBRANCH  10  23
BRANCH  11  25
ATOM     25  O   UNL     1     -33.212   3.460  83.290  1.00  0.00    -0.508 OA
ATOM     26  H   UNL     1     -33.375   2.465  83.386  1.00  0.00     0.293 HD
ENDBRANCH  11  25
ENDBRANCH   1   2
BRANCH   1  27
ATOM     27  C   UNL     1     -39.274   8.090  79.399  1.00  0.00     0.339 C 
ATOM     28  C   UNL     1     -40.658   8.335  78.775  1.00  0.00     0.214 C 
ATOM     29  O   UNL     1     -38.406   7.448  78.478  1.00  0.00    -0.332 OA
ATOM     30  C   UNL     1     -40.502   9.215  77.523  1.00  0.00     0.180 C 
ATOM     31  C   UNL     1     -38.150   8.244  77.327  1.00  0.00     0.179 C 
ATOM     32  C   UNL     1     -39.462   8.602  76.575  1.00  0.00     0.177 C 
BRANCH  28  33
ATOM     33  O   UNL     1     -41.246   7.101  78.444  1.00  0.00    -0.384 OA
ATOM     34  H   UNL     1     -40.574   6.400  78.640  1.00  0.00     0.211 HD
ENDBRANCH  28  33
BRANCH  30  35
ATOM     35  O   UNL     1     -41.731   9.338  76.854  1.00  0.00    -0.387 OA
ATOM     36  H   UNL     1     -42.357   8.699  77.285  1.00  0.00     0.211 HD
ENDBRANCH  30  35
BRANCH  31  37
ATOM     37  C   UNL     1     -37.241   9.453  77.649  1.00  0.00     0.191 C 
BRANCH  37  38
ATOM     38  O   UNL     1     -36.492   9.808  76.519  1.00  0.00    -0.394 OA
ATOM     39  H   UNL     1     -36.669   9.107  75.839  1.00  0.00     0.210 HD
ENDBRANCH  37  38
ENDBRANCH  31  37
BRANCH  32  40
ATOM     40  O   UNL     1     -39.213   9.489  75.514  1.00  0.00    -0.387 OA
ATOM     41  H   UNL     1     -38.369   9.190  75.084  1.00  0.00     0.211 HD
ENDBRANCH  32  40
ENDBRANCH   1  27
TORSDOF 12
ENDMDL
MODEL 7
REMARK VINA RESULT:    -6.262      2.482      4.350
REMARK INTER + INTRA:         -10.470
REMARK INTER:                  -9.354
REMARK INTRA:                  -1.116
REMARK UNBOUND:                -1.279
REMARK SMILES O=c1c(O[C@H]2O[C@H](CO)[C@H](O)[C@@H](O)[C@H]2O)c(-c2ccc(O)c(O)c2)oc2cc(O)cc(O)c12
REMARK SMILES IDX 4 1 3 2 16 3 25 4 2 5 26 6 1 7 33 8 27 9 31 10 28 11 30 12
REMARK SMILES IDX 17 13 18 14 19 15 20 16 24 17 22 18 21 19 23 21 32 23 29 25
REMARK SMILES IDX 5 27 14 28 6 29 12 30 7 31 10 32 15 33 13 35 8 37 9 38 11 40
REMARK H PARENT 21 20 23 22 32 24 29 26 15 34 13 36 9 39 11 41
REMARK Flexibility Score: inf
ROOT
ATOM      1  O   UNL     1     -37.433   7.760  80.378  1.00  0.00    -0.454 OA
ENDROOT
BRANCH   1   2
ATOM      2  C   UNL     1     -38.351   6.746  80.679  1.00  0.00     0.214 A 
ATOM      3  C   UNL     1     -39.483   6.500  79.870  1.00  0.00     0.180 A 
ATOM      4  O   UNL     1     -40.284   5.478  80.152  1.00  0.00    -0.452 OA
ATOM      5  C   UNL     1     -38.138   5.944  81.805  1.00  0.00     0.239 A 
ATOM      6  C   UNL     1     -40.102   4.675  81.195  1.00  0.00     0.146 A 
ATOM      7  O   UNL     1     -37.147   6.180  82.547  1.00  0.00    -0.285 OA
ATOM      8  C   UNL     1     -39.019   4.880  82.082  1.00  0.00     0.111 A 
ATOM      9  C   UNL     1     -41.002   3.628  81.412  1.00  0.00     0.094 A 
ATOM     10  C   UNL     1     -38.860   4.011  83.188  1.00  0.00     0.134 A 
ATOM     11  C   UNL     1     -40.842   2.774  82.505  1.00  0.00     0.123 A 
ATOM     12  C   UNL     1     -39.773   2.966  83.389  1.00  0.00     0.093 A 
BRANCH   3  13
ATOM     13  C   UNL     1     -39.818   7.347  78.704  1.00  0.00     0.025 A 
ATOM     14  C   UNL     1     -40.805   8.333  78.826  1.00  0.00     0.016 A 
ATOM     15  C   UNL     1     -41.151   9.126  77.730  1.00  0.00     0.051 A 
ATOM     16  C   UNL     1     -40.513   8.956  76.496  1.00  0.00     0.157 A 
ATOM     17  C   UNL     1     -39.151   7.196  77.477  1.00  0.00     0.062 A 
ATOM     18  C   UNL     1     -39.493   7.982  76.370  1.00  0.00     0.158 A 
BRANCH  16  19
ATOM     19  O   UNL     1     -40.919   9.766  75.434  1.00  0.00    -0.504 OA
ATOM     20  H   UNL     1     -41.166   9.417  74.520  1.00  0.00     0.293 HD
ENDBRANCH  16  19
BRANCH  18  21
ATOM     21  O   UNL     1     -38.801   7.766  75.177  1.00  0.00    -0.504 OA
ATOM     22  H   UNL     1     -37.946   7.233  75.109  1.00  0.00     0.293 HD
ENDBRANCH  18  21
ENDBRANCH   3  13
BRANCH  10  23
ATOM     23  O   UNL     1     -37.802   4.176  84.085  1.00  0.00    -0.507 OA
ATOM     24  H   UNL     1     -37.706   3.593  84.908  1.00  0.00     0.293 HD
ENDBRANCH  10  23
BRANCH  11  25
ATOM     25  O   UNL     1     -41.752   1.738  82.706  1.00  0.00    -0.508 OA
ATOM     26  H   UNL     1     -42.223   1.612  83.595  1.00  0.00     0.293 HD
ENDBRANCH  11  25
ENDBRANCH   1   2
BRANCH   1  27
ATOM     27  C   UNL     1     -36.051   7.501  80.127  1.00  0.00     0.339 C 
ATOM     28  C   UNL     1     -35.421   8.722  79.437  1.00  0.00     0.214 C 
ATOM     29  O   UNL     1     -35.959   6.347  79.307  1.00  0.00    -0.332 OA
ATOM     30  C   UNL     1     -33.941   8.428  79.138  1.00  0.00     0.180 C 
ATOM     31  C   UNL     1     -34.610   5.967  79.055  1.00  0.00     0.179 C 
ATOM     32  C   UNL     1     -33.812   7.108  78.365  1.00  0.00     0.177 C 
BRANCH  28  33
ATOM     33  O   UNL     1     -36.121   9.002  78.250  1.00  0.00    -0.384 OA
ATOM     34  H   UNL     1     -35.594   9.681  77.758  1.00  0.00     0.211 HD
ENDBRANCH  28  33
BRANCH  30  35
ATOM     35  O   UNL     1     -33.377   9.470  78.382  1.00  0.00    -0.387 OA
ATOM     36  H   UNL     1     -34.004   9.652  77.635  1.00  0.00     0.211 HD
ENDBRANCH  30  35
BRANCH  31  37
ATOM     37  C   UNL     1     -33.932   5.374  80.311  1.00  0.00     0.191 C 
BRANCH  37  38
ATOM     38  O   UNL     1     -34.824   4.533  80.991  1.00  0.00    -0.394 OA
ATOM     39  H   UNL     1     -34.384   4.301  81.851  1.00  0.00     0.210 HD
ENDBRANCH  37  38
ENDBRANCH  31  37
BRANCH  32  40
ATOM     40  O   UNL     1     -32.455   6.770  78.234  1.00  0.00    -0.387 OA
ATOM     41  H   UNL     1     -31.997   7.108  79.047  1.00  0.00     0.211 HD
ENDBRANCH  32  40
ENDBRANCH   1  27
TORSDOF 12
ENDMDL
MODEL 8
REMARK VINA RESULT:    -6.110      2.531      4.451
REMARK INTER + INTRA:         -10.246
REMARK INTER:                  -9.397
REMARK INTRA:                  -0.848
REMARK UNBOUND:                -1.279
REMARK SMILES O=c1c(O[C@H]2O[C@H](CO)[C@H](O)[C@@H](O)[C@H]2O)c(-c2ccc(O)c(O)c2)oc2cc(O)cc(O)c12
REMARK SMILES IDX 4 1 3 2 16 3 25 4 2 5 26 6 1 7 33 8 27 9 31 10 28 11 30 12
REMARK SMILES IDX 17 13 18 14 19 15 20 16 24 17 22 18 21 19 23 21 32 23 29 25
REMARK SMILES IDX 5 27 14 28 6 29 12 30 7 31 10 32 15 33 13 35 8 37 9 38 11 40
REMARK H PARENT 21 20 23 22 32 24 29 26 15 34 13 36 9 39 11 41
REMARK Flexibility Score: inf
ROOT
ATOM      1  O   UNL     1     -37.046   5.401  78.676  1.00  0.00    -0.454 OA
ENDROOT
BRANCH   1   2
ATOM      2  C   UNL     1     -38.105   5.018  79.509  1.00  0.00     0.214 A 
ATOM      3  C   UNL     1     -39.385   5.606  79.405  1.00  0.00     0.180 A 
ATOM      4  O   UNL     1     -40.378   5.157  80.165  1.00  0.00    -0.452 OA
ATOM      5  C   UNL     1     -37.894   4.018  80.464  1.00  0.00     0.239 A 
ATOM      6  C   UNL     1     -40.229   4.190  81.065  1.00  0.00     0.146 A 
ATOM      7  O   UNL     1     -36.746   3.514  80.581  1.00  0.00    -0.285 OA
ATOM      8  C   UNL     1     -38.968   3.580  81.265  1.00  0.00     0.111 A 
ATOM      9  C   UNL     1     -41.334   3.787  81.820  1.00  0.00     0.094 A 
ATOM     10  C   UNL     1     -38.842   2.559  82.236  1.00  0.00     0.134 A 
ATOM     11  C   UNL     1     -41.205   2.781  82.780  1.00  0.00     0.123 A 
ATOM     12  C   UNL     1     -39.962   2.169  82.985  1.00  0.00     0.093 A 
BRANCH   3  13
ATOM     13  C   UNL     1     -39.670   6.718  78.472  1.00  0.00     0.025 A 
ATOM     14  C   UNL     1     -40.547   7.739  78.859  1.00  0.00     0.016 A 
ATOM     15  C   UNL     1     -40.846   8.784  77.983  1.00  0.00     0.051 A 
ATOM     16  C   UNL     1     -40.269   8.834  76.709  1.00  0.00     0.157 A 
ATOM     17  C   UNL     1     -39.062   6.782  77.207  1.00  0.00     0.062 A 
ATOM     18  C   UNL     1     -39.358   7.823  76.318  1.00  0.00     0.158 A 
BRANCH  16  19
ATOM     19  O   UNL     1     -40.624   9.894  75.873  1.00  0.00    -0.504 OA
ATOM     20  H   UNL     1     -41.128   9.784  75.006  1.00  0.00     0.293 HD
ENDBRANCH  16  19
BRANCH  18  21
ATOM     21  O   UNL     1     -38.732   7.814  75.071  1.00  0.00    -0.504 OA
ATOM     22  H   UNL     1     -38.513   6.974  74.555  1.00  0.00     0.293 HD
ENDBRANCH  18  21
ENDBRANCH   3  13
BRANCH  10  23
ATOM     23  O   UNL     1     -37.617   1.929  82.462  1.00  0.00    -0.507 OA
ATOM     24  H   UNL     1     -37.254   1.226  81.827  1.00  0.00     0.293 HD
ENDBRANCH  10  23
BRANCH  11  25
ATOM     25  O   UNL     1     -42.317   2.397  83.526  1.00  0.00    -0.508 OA
ATOM     26  H   UNL     1     -42.260   1.663  84.222  1.00  0.00     0.293 HD
ENDBRANCH  11  25
ENDBRANCH   1   2
BRANCH   1  27
ATOM     27  C   UNL     1     -36.128   6.440  79.022  1.00  0.00     0.339 C 
ATOM     28  C   UNL     1     -34.728   6.080  78.498  1.00  0.00     0.214 C 
ATOM     29  O   UNL     1     -36.125   6.576  80.435  1.00  0.00    -0.332 OA
ATOM     30  C   UNL     1     -33.736   7.184  78.901  1.00  0.00     0.180 C 
ATOM     31  C   UNL     1     -35.287   7.639  80.876  1.00  0.00     0.179 C 
ATOM     32  C   UNL     1     -33.817   7.440  80.413  1.00  0.00     0.177 C 
BRANCH  28  33
ATOM     33  O   UNL     1     -34.334   4.840  79.032  1.00  0.00    -0.384 OA
ATOM     34  H   UNL     1     -34.999   4.602  79.728  1.00  0.00     0.211 HD
ENDBRANCH  28  33
BRANCH  30  35
ATOM     35  O   UNL     1     -32.425   6.814  78.559  1.00  0.00    -0.387 OA
ATOM     36  H   UNL     1     -32.246   5.947  79.007  1.00  0.00     0.211 HD
ENDBRANCH  30  35
BRANCH  31  37
ATOM     37  C   UNL     1     -35.886   9.025  80.543  1.00  0.00     0.191 C 
BRANCH  37  38
ATOM     38  O   UNL     1     -35.441   9.978  81.469  1.00  0.00    -0.394 OA
ATOM     39  H   UNL     1     -35.178  10.776  80.938  1.00  0.00     0.210 HD
ENDBRANCH  37  38
ENDBRANCH  31  37
BRANCH  32  40
ATOM     40  O   UNL     1     -33.026   8.551  80.745  1.00  0.00    -0.387 OA
ATOM     41  H   UNL     1     -32.592   8.855  79.905  1.00  0.00     0.211 HD
ENDBRANCH  32  40
ENDBRANCH   1  27
TORSDOF 12
ENDMDL
MODEL 9
REMARK VINA RESULT:    -6.050      1.914      6.604
REMARK INTER + INTRA:         -10.158
REMARK INTER:                  -8.766
REMARK INTRA:                  -1.392
REMARK UNBOUND:                -1.279
REMARK SMILES O=c1c(O[C@H]2O[C@H](CO)[C@H](O)[C@@H](O)[C@H]2O)c(-c2ccc(O)c(O)c2)oc2cc(O)cc(O)c12
REMARK SMILES IDX 4 1 3 2 16 3 25 4 2 5 26 6 1 7 33 8 27 9 31 10 28 11 30 12
REMARK SMILES IDX 17 13 18 14 19 15 20 16 24 17 22 18 21 19 23 21 32 23 29 25
REMARK SMILES IDX 5 27 14 28 6 29 12 30 7 31 10 32 15 33 13 35 8 37 9 38 11 40
REMARK H PARENT 21 20 23 22 32 24 29 26 15 34 13 36 9 39 11 41
REMARK Flexibility Score: inf
ROOT
ATOM      1  O   UNL     1     -36.992   3.989  80.371  1.00  0.00    -0.454 OA
ENDROOT
BRANCH   1   2
ATOM      2  C   UNL     1     -36.091   4.954  80.838  1.00  0.00     0.214 A 
ATOM      3  C   UNL     1     -36.025   6.247  80.275  1.00  0.00     0.180 A 
ATOM      4  O   UNL     1     -35.208   7.154  80.801  1.00  0.00    -0.452 OA
ATOM      5  C   UNL     1     -35.239   4.635  81.901  1.00  0.00     0.239 A 
ATOM      6  C   UNL     1     -34.403   6.901  81.827  1.00  0.00     0.146 A 
ATOM      7  O   UNL     1     -35.273   3.472  82.386  1.00  0.00    -0.285 OA
ATOM      8  C   UNL     1     -34.373   5.617  82.422  1.00  0.00     0.111 A 
ATOM      9  C   UNL     1     -33.576   7.919  82.310  1.00  0.00     0.094 A 
ATOM     10  C   UNL     1     -33.498   5.380  83.508  1.00  0.00     0.134 A 
ATOM     11  C   UNL     1     -32.713   7.680  83.381  1.00  0.00     0.123 A 
ATOM     12  C   UNL     1     -32.676   6.414  83.978  1.00  0.00     0.093 A 
BRANCH   3  13
ATOM     13  C   UNL     1     -36.840   6.641  79.104  1.00  0.00     0.025 A 
ATOM     14  C   UNL     1     -36.380   6.354  77.813  1.00  0.00     0.016 A 
ATOM     15  C   UNL     1     -37.125   6.739  76.696  1.00  0.00     0.051 A 
ATOM     16  C   UNL     1     -38.345   7.408  76.847  1.00  0.00     0.157 A 
ATOM     17  C   UNL     1     -38.081   7.282  79.262  1.00  0.00     0.062 A 
ATOM     18  C   UNL     1     -38.833   7.676  78.149  1.00  0.00     0.158 A 
BRANCH  16  19
ATOM     19  O   UNL     1     -39.031   7.783  75.691  1.00  0.00    -0.504 OA
ATOM     20  H   UNL     1     -40.025   7.959  75.657  1.00  0.00     0.293 HD
ENDBRANCH  16  19
BRANCH  18  21
ATOM     21  O   UNL     1     -40.048   8.324  78.379  1.00  0.00    -0.504 OA
ATOM     22  H   UNL     1     -40.127   9.270  78.723  1.00  0.00     0.293 HD
ENDBRANCH  18  21
ENDBRANCH   3  13
BRANCH  10  23
ATOM     23  O   UNL     1     -33.441   4.128  84.124  1.00  0.00    -0.507 OA
ATOM     24  H   UNL     1     -34.049   3.368  83.843  1.00  0.00     0.293 HD
ENDBRANCH  10  23
BRANCH  11  25
ATOM     25  O   UNL     1     -31.893   8.707  83.845  1.00  0.00    -0.508 OA
ATOM     26  H   UNL     1     -32.277   9.589  84.163  1.00  0.00     0.293 HD
ENDBRANCH  11  25
ENDBRANCH   1   2
BRANCH   1  27
ATOM     27  C   UNL     1     -38.408   4.133  80.488  1.00  0.00     0.339 C 
ATOM     28  C   UNL     1     -38.807   4.066  81.971  1.00  0.00     0.214 C 
ATOM     29  O   UNL     1     -39.022   3.090  79.746  1.00  0.00    -0.332 OA
ATOM     30  C   UNL     1     -40.336   4.188  82.091  1.00  0.00     0.180 C 
ATOM     31  C   UNL     1     -40.442   3.188  79.746  1.00  0.00     0.179 C 
ATOM     32  C   UNL     1     -41.020   3.153  81.188  1.00  0.00     0.177 C 
BRANCH  28  33
ATOM     33  O   UNL     1     -38.362   2.851  82.520  1.00  0.00    -0.384 OA
ATOM     34  H   UNL     1     -38.015   3.054  83.427  1.00  0.00     0.211 HD
ENDBRANCH  28  33
BRANCH  30  35
ATOM     35  O   UNL     1     -40.740   3.989  83.422  1.00  0.00    -0.387 OA
ATOM     36  H   UNL     1     -41.654   3.605  83.389  1.00  0.00     0.211 HD
ENDBRANCH  30  35
BRANCH  31  37
ATOM     37  C   UNL     1     -40.941   4.370  78.881  1.00  0.00     0.191 C 
BRANCH  37  38
ATOM     38  O   UNL     1     -42.232   4.107  78.403  1.00  0.00    -0.394 OA
ATOM     39  H   UNL     1     -42.476   4.880  77.829  1.00  0.00     0.210 HD
ENDBRANCH  37  38
ENDBRANCH  31  37
BRANCH  32  40
ATOM     40  O   UNL     1     -42.406   3.375  81.185  1.00  0.00    -0.387 OA
ATOM     41  H   UNL     1     -42.540   4.345  81.024  1.00  0.00     0.211 HD
ENDBRANCH  32  40
ENDBRANCH   1  27
TORSDOF 12
ENDMDL
