MODEL 1
REMARK VINA RESULT:     5.239      0.000      0.000
REMARK INTER + INTRA:           5.545
REMARK INTER:                   5.545
REMARK INTRA:                   0.000
REMARK UNBOUND:                 0.000
REMARK SMILES CC1(C)[C@H](O)CC[C@]2(C)[C@H]1CC[C@]1(C)[C@H]2C=CC2=C(O)C(=O)C(=O)[C@@]21C
REMARK SMILES IDX 1 1 2 2 10 3 11 4 12 5 13 6 15 7 8 8 7 9 6 10 4 11 9 12
REMARK SMILES IDX 16 13 17 14 18 15 19 16 21 17 22 18 23 19 24 20 25 21 26 22
REMARK SMILES IDX 14 23 3 24 5 25 20 27
REMARK H PARENT 5 26 20 28
REMARK Flexibility Score: inf
ROOT
ATOM      1  C   UNL     1       5.654  16.155  15.393  1.00  0.00     0.014 C 
ATOM      2  C   UNL     1       4.474  16.843  14.644  1.00  0.00    -0.006 C 
ATOM      3  C   UNL     1       4.436  18.409  14.961  1.00  0.00     0.004 C 
ATOM      4  C   UNL     1       4.645  18.672  16.487  1.00  0.00     0.005 C 
ATOM      5  C   UNL     1       4.666  20.147  16.885  1.00  0.00     0.009 C 
ATOM      6  C   UNL     1       3.390  20.938  16.483  1.00  0.00    -0.009 C 
ATOM      7  C   UNL     1       3.132  20.685  14.926  1.00  0.00     0.025 C 
ATOM      8  C   UNL     1       3.136  19.148  14.443  1.00  0.00    -0.022 C 
ATOM      9  C   UNL     1       1.875  18.370  14.941  1.00  0.00     0.010 C 
ATOM     10  C   UNL     1       1.881  16.866  14.604  1.00  0.00     0.033 C 
ATOM     11  C   UNL     1       3.150  16.155  15.108  1.00  0.00     0.120 C 
ATOM     12  C   UNL     1       3.046  19.157  12.876  1.00  0.00     0.012 C 
ATOM     13  C   UNL     1       4.072  21.551  14.044  1.00  0.00    -0.022 C 
ATOM     14  C   UNL     1       4.786  22.593  14.472  1.00  0.00     0.005 C 
ATOM     15  C   UNL     1       4.739  22.983  15.870  1.00  0.00     0.012 C 
ATOM     16  C   UNL     1       5.722  23.591  16.540  1.00  0.00     0.171 C 
ATOM     17  C   UNL     1       5.432  23.555  17.951  1.00  0.00     0.264 C 
ATOM     18  O   UNL     1       6.148  24.030  18.871  1.00  0.00    -0.282 OA
ATOM     19  C   UNL     1       4.184  22.847  18.116  1.00  0.00     0.217 C 
ATOM     20  O   UNL     1       3.630  22.637  19.228  1.00  0.00    -0.289 OA
ATOM     21  C   UNL     1       3.621  22.491  16.753  1.00  0.00     0.069 C 
ATOM     22  C   UNL     1       2.370  23.361  16.485  1.00  0.00     0.026 C 
ATOM     23  C   UNL     1       2.180  20.484  17.364  1.00  0.00     0.013 C 
ATOM     24  C   UNL     1       4.742  16.572  13.133  1.00  0.00     0.014 C 
ENDROOT
BRANCH  11  25
ATOM     25  O   UNL     1       3.131  14.813  14.685  1.00  0.00    -0.393 OA
ATOM     26  H   UNL     1       3.918  14.368  15.095  1.00  0.00     0.210 HD
ENDBRANCH  11  25
BRANCH  16  27
ATOM     27  O   UNL     1       6.892  24.117  15.994  1.00  0.00    -0.504 OA
ATOM     28  H   UNL     1       7.106  24.050  15.006  1.00  0.00     0.293 HD
ENDBRANCH  16  27
TORSDOF 2
ENDMDL
