MODEL 1
REMARK VINA RESULT:    -4.052      0.000      0.000
REMARK INTER + INTRA:          -7.713
REMARK INTER:                  -7.369
REMARK INTRA:                  -0.344
REMARK UNBOUND:                -0.344
REMARK SMILES CCCCCCCCCCCCCCCC(=O)[O-]
REMARK SMILES IDX 9 1 10 2 11 3 12 4 13 5 14 6 15 7 16 8 17 9 18 10 8 11 7 12
REMARK SMILES IDX 6 13 5 14 4 15 3 16 2 17 1 18
REMARK H PARENT
REMARK Flexibility Score: inf
ROOT
ATOM      1  C   UNL     1       2.074  16.099  21.990  1.00  0.00     0.000 C 
ENDROOT
BRANCH   1   2
ATOM      2  C   UNL     1       3.198  16.010  23.036  1.00  0.00     0.000 C 
BRANCH   2   3
ATOM      3  C   UNL     1       4.345  15.079  22.603  1.00  0.00     0.000 C 
BRANCH   3   4
ATOM      4  C   UNL     1       5.471  15.757  21.796  1.00  0.00     0.000 C 
BRANCH   4   5
ATOM      5  C   UNL     1       6.904  15.354  22.198  1.00  0.00     0.000 C 
BRANCH   5   6
ATOM      6  C   UNL     1       7.899  16.522  22.305  1.00  0.00     0.006 C 
BRANCH   6   7
ATOM      7  C   UNL     1       8.212  17.163  20.946  1.00  0.00     0.053 C 
BRANCH   7   8
ATOM      8  C   UNL     1       9.550  16.711  20.452  1.00  0.00     0.041 C 
ATOM      9  O   UNL     1      10.489  17.540  20.321  1.00  0.00    -0.550 OA
ATOM     10  O   UNL     1       9.775  15.367  20.184  1.00  0.00    -0.550 OA
ENDBRANCH   7   8
ENDBRANCH   6   7
ENDBRANCH   5   6
ENDBRANCH   4   5
ENDBRANCH   3   4
ENDBRANCH   2   3
ENDBRANCH   1   2
BRANCH   1  11
ATOM     11  C   UNL     1       0.668  16.040  22.615  1.00  0.00     0.000 C 
BRANCH  11  12
ATOM     12  C   UNL     1      -0.490  15.874  21.611  1.00  0.00    -0.000 C 
BRANCH  12  13
ATOM     13  C   UNL     1      -1.640  16.888  21.767  1.00  0.00    -0.000 C 
BRANCH  13  14
ATOM     14  C   UNL     1      -2.896  16.345  22.476  1.00  0.00    -0.000 C 
BRANCH  14  15
ATOM     15  C   UNL     1      -3.992  15.808  21.536  1.00  0.00    -0.000 C 
BRANCH  15  16
ATOM     16  C   UNL     1      -5.352  15.654  22.233  1.00  0.00    -0.000 C 
BRANCH  16  17
ATOM     17  C   UNL     1      -6.186  14.552  21.568  1.00  0.00    -0.003 C 
ATOM     18  C   UNL     1      -7.665  14.928  21.528  1.00  0.00     0.004 C 
ENDBRANCH  16  17
ENDBRANCH  15  16
ENDBRANCH  14  15
ENDBRANCH  13  14
ENDBRANCH  12  13
ENDBRANCH  11  12
ENDBRANCH   1  11
TORSDOF 14
ENDMDL
MODEL 2
REMARK VINA RESULT:    -4.024      1.678      3.669
REMARK INTER + INTRA:          -7.662
REMARK INTER:                  -6.975
REMARK INTRA:                  -0.686
REMARK UNBOUND:                -0.344
REMARK SMILES CCCCCCCCCCCCCCCC(=O)[O-]
REMARK SMILES IDX 9 1 10 2 11 3 12 4 13 5 14 6 15 7 16 8 17 9 18 10 8 11 7 12
REMARK SMILES IDX 6 13 5 14 4 15 3 16 2 17 1 18
REMARK H PARENT
REMARK Flexibility Score: inf
ROOT
ATOM      1  C   UNL     1      -2.184  16.179  21.353  1.00  0.00     0.000 C 
ENDROOT
BRANCH   1   2
ATOM      2  C   UNL     1      -0.854  15.408  21.318  1.00  0.00     0.000 C 
BRANCH   2   3
ATOM      3  C   UNL     1       0.209  16.007  22.257  1.00  0.00     0.000 C 
BRANCH   3   4
ATOM      4  C   UNL     1       1.646  16.021  21.696  1.00  0.00     0.000 C 
BRANCH   4   5
ATOM      5  C   UNL     1       2.757  16.261  22.738  1.00  0.00     0.000 C 
BRANCH   5   6
ATOM      6  C   UNL     1       4.048  15.457  22.504  1.00  0.00     0.006 C 
BRANCH   6   7
ATOM      7  C   UNL     1       5.118  16.257  21.749  1.00  0.00     0.053 C 
BRANCH   7   8
ATOM      8  C   UNL     1       6.445  15.574  21.847  1.00  0.00     0.041 C 
ATOM      9  O   UNL     1       7.508  16.250  21.846  1.00  0.00    -0.550 OA
ATOM     10  O   UNL     1       6.508  14.193  21.989  1.00  0.00    -0.550 OA
ENDBRANCH   7   8
ENDBRANCH   6   7
ENDBRANCH   5   6
ENDBRANCH   4   5
ENDBRANCH   3   4
ENDBRANCH   2   3
ENDBRANCH   1   2
BRANCH   1  11
ATOM     11  C   UNL     1      -2.582  16.621  22.773  1.00  0.00     0.000 C 
BRANCH  11  12
ATOM     12  C   UNL     1      -4.075  16.450  23.119  1.00  0.00    -0.000 C 
BRANCH  12  13
ATOM     13  C   UNL     1      -5.013  16.294  21.906  1.00  0.00    -0.000 C 
BRANCH  13  14
ATOM     14  C   UNL     1      -5.640  14.895  21.743  1.00  0.00    -0.000 C 
BRANCH  14  15
ATOM     15  C   UNL     1      -7.094  14.890  21.236  1.00  0.00    -0.000 C 
BRANCH  15  16
ATOM     16  C   UNL     1      -8.100  15.338  22.306  1.00  0.00    -0.000 C 
BRANCH  16  17
ATOM     17  C   UNL     1      -9.085  16.365  21.735  1.00  0.00    -0.003 C 
ATOM     18  C   UNL     1      -8.417  17.245  20.682  1.00  0.00     0.004 C 
ENDBRANCH  16  17
ENDBRANCH  15  16
ENDBRANCH  14  15
ENDBRANCH  13  14
ENDBRANCH  12  13
ENDBRANCH  11  12
ENDBRANCH   1  11
TORSDOF 14
ENDMDL
MODEL 3
REMARK VINA RESULT:    -4.003      6.096     11.704
REMARK INTER + INTRA:          -7.624
REMARK INTER:                  -7.020
REMARK INTRA:                  -0.603
REMARK UNBOUND:                -0.344
REMARK SMILES CCCCCCCCCCCCCCCC(=O)[O-]
REMARK SMILES IDX 9 1 10 2 11 3 12 4 13 5 14 6 15 7 16 8 17 9 18 10 8 11 7 12
REMARK SMILES IDX 6 13 5 14 4 15 3 16 2 17 1 18
REMARK H PARENT
REMARK Flexibility Score: inf
ROOT
ATOM      1  C   UNL     1      -1.028  16.010  21.681  1.00  0.00     0.000 C 
ENDROOT
BRANCH   1   2
ATOM      2  C   UNL     1      -1.645  17.401  21.466  1.00  0.00     0.000 C 
BRANCH   2   3
ATOM      3  C   UNL     1      -3.088  17.503  21.992  1.00  0.00     0.000 C 
BRANCH   3   4
ATOM      4  C   UNL     1      -3.504  16.399  22.985  1.00  0.00     0.000 C 
BRANCH   4   5
ATOM      5  C   UNL     1      -4.948  15.880  22.826  1.00  0.00     0.000 C 
BRANCH   5   6
ATOM      6  C   UNL     1      -5.277  15.299  21.439  1.00  0.00     0.006 C 
BRANCH   6   7
ATOM      7  C   UNL     1      -6.635  14.585  21.401  1.00  0.00     0.053 C 
BRANCH   7   8
ATOM      8  C   UNL     1      -7.749  15.584  21.416  1.00  0.00     0.041 C 
ATOM      9  O   UNL     1      -7.703  16.595  20.666  1.00  0.00    -0.550 OA
ATOM     10  O   UNL     1      -8.860  15.374  22.222  1.00  0.00    -0.550 OA
ENDBRANCH   7   8
ENDBRANCH   6   7
ENDBRANCH   5   6
ENDBRANCH   4   5
ENDBRANCH   3   4
ENDBRANCH   2   3
ENDBRANCH   1   2
BRANCH   1  11
ATOM     11  C   UNL     1       0.248  16.047  22.542  1.00  0.00     0.000 C 
BRANCH  11  12
ATOM     12  C   UNL     1       1.572  16.076  21.752  1.00  0.00    -0.000 C 
BRANCH  12  13
ATOM     13  C   UNL     1       2.840  16.253  22.609  1.00  0.00    -0.000 C 
BRANCH  13  14
ATOM     14  C   UNL     1       4.170  16.106  21.843  1.00  0.00    -0.000 C 
BRANCH  14  15
ATOM     15  C   UNL     1       5.258  15.300  22.578  1.00  0.00    -0.000 C 
BRANCH  15  16
ATOM     16  C   UNL     1       6.552  16.098  22.789  1.00  0.00    -0.000 C 
BRANCH  16  17
ATOM     17  C   UNL     1       7.574  15.785  21.689  1.00  0.00    -0.003 C 
ATOM     18  C   UNL     1       8.290  17.050  21.225  1.00  0.00     0.004 C 
ENDBRANCH  16  17
ENDBRANCH  15  16
ENDBRANCH  14  15
ENDBRANCH  13  14
ENDBRANCH  12  13
ENDBRANCH  11  12
ENDBRANCH   1  11
TORSDOF 14
ENDMDL
MODEL 4
REMARK VINA RESULT:    -3.957      5.778     11.794
REMARK INTER + INTRA:          -7.539
REMARK INTER:                  -7.169
REMARK INTRA:                  -0.369
REMARK UNBOUND:                -0.344
REMARK SMILES CCCCCCCCCCCCCCCC(=O)[O-]
REMARK SMILES IDX 9 1 10 2 11 3 12 4 13 5 14 6 15 7 16 8 17 9 18 10 8 11 7 12
REMARK SMILES IDX 6 13 5 14 4 15 3 16 2 17 1 18
REMARK H PARENT
REMARK Flexibility Score: inf
ROOT
ATOM      1  C   UNL     1       1.857  16.072  21.999  1.00  0.00     0.000 C 
ENDROOT
BRANCH   1   2
ATOM      2  C   UNL     1       0.591  16.148  22.868  1.00  0.00     0.000 C 
BRANCH   2   3
ATOM      3  C   UNL     1      -0.695  16.315  22.039  1.00  0.00     0.000 C 
BRANCH   3   4
ATOM      4  C   UNL     1      -1.937  16.757  22.839  1.00  0.00     0.000 C 
BRANCH   4   5
ATOM      5  C   UNL     1      -3.231  16.909  22.013  1.00  0.00     0.000 C 
BRANCH   5   6
ATOM      6  C   UNL     1      -4.410  16.043  22.492  1.00  0.00     0.006 C 
BRANCH   6   7
ATOM      7  C   UNL     1      -5.107  15.300  21.345  1.00  0.00     0.053 C 
BRANCH   7   8
ATOM      8  C   UNL     1      -6.568  15.619  21.330  1.00  0.00     0.041 C 
ATOM      9  O   UNL     1      -7.419  14.700  21.463  1.00  0.00    -0.550 OA
ATOM     10  O   UNL     1      -6.991  16.938  21.218  1.00  0.00    -0.550 OA
ENDBRANCH   7   8
ENDBRANCH   6   7
ENDBRANCH   5   6
ENDBRANCH   4   5
ENDBRANCH   3   4
ENDBRANCH   2   3
ENDBRANCH   1   2
BRANCH   1  11
ATOM     11  C   UNL     1       3.154  16.211  22.816  1.00  0.00     0.000 C 
BRANCH  11  12
ATOM     12  C   UNL     1       4.312  15.295  22.370  1.00  0.00    -0.000 C 
BRANCH  12  13
ATOM     13  C   UNL     1       5.553  16.029  21.825  1.00  0.00    -0.000 C 
BRANCH  13  14
ATOM     14  C   UNL     1       6.762  16.062  22.780  1.00  0.00    -0.000 C 
BRANCH  14  15
ATOM     15  C   UNL     1       8.137  16.094  22.087  1.00  0.00    -0.000 C 
BRANCH  15  16
ATOM     16  C   UNL     1       8.221  17.150  20.977  1.00  0.00    -0.000 C 
BRANCH  16  17
ATOM     17  C   UNL     1       9.675  17.376  20.544  1.00  0.00    -0.003 C 
ATOM     18  C   UNL     1      10.290  16.096  19.987  1.00  0.00     0.004 C 
ENDBRANCH  16  17
ENDBRANCH  15  16
ENDBRANCH  14  15
ENDBRANCH  13  14
ENDBRANCH  12  13
ENDBRANCH  11  12
ENDBRANCH   1  11
TORSDOF 14
ENDMDL
MODEL 5
REMARK VINA RESULT:    -3.908      0.818      1.396
REMARK INTER + INTRA:          -7.450
REMARK INTER:                  -7.043
REMARK INTRA:                  -0.407
REMARK UNBOUND:                -0.344
REMARK SMILES CCCCCCCCCCCCCCCC(=O)[O-]
REMARK SMILES IDX 9 1 10 2 11 3 12 4 13 5 14 6 15 7 16 8 17 9 18 10 8 11 7 12
REMARK SMILES IDX 6 13 5 14 4 15 3 16 2 17 1 18
REMARK H PARENT
REMARK Flexibility Score: inf
ROOT
ATOM      1  C   UNL     1       0.865  16.060  21.643  1.00  0.00     0.000 C 
ENDROOT
BRANCH   1   2
ATOM      2  C   UNL     1       2.025  16.052  22.652  1.00  0.00     0.000 C 
BRANCH   2   3
ATOM      3  C   UNL     1       3.385  16.361  22.002  1.00  0.00     0.000 C 
BRANCH   3   4
ATOM      4  C   UNL     1       4.514  15.365  22.338  1.00  0.00     0.000 C 
BRANCH   4   5
ATOM      5  C   UNL     1       5.833  16.003  22.818  1.00  0.00     0.000 C 
BRANCH   5   6
ATOM      6  C   UNL     1       7.085  15.564  22.038  1.00  0.00     0.006 C 
BRANCH   6   7
ATOM      7  C   UNL     1       7.993  16.742  21.659  1.00  0.00     0.053 C 
BRANCH   7   8
ATOM      8  C   UNL     1       9.170  16.260  20.870  1.00  0.00     0.041 C 
ATOM      9  O   UNL     1       9.325  15.029  20.653  1.00  0.00    -0.550 OA
ATOM     10  O   UNL     1      10.069  17.173  20.334  1.00  0.00    -0.550 OA
ENDBRANCH   7   8
ENDBRANCH   6   7
ENDBRANCH   5   6
ENDBRANCH   4   5
ENDBRANCH   3   4
ENDBRANCH   2   3
ENDBRANCH   1   2
BRANCH   1  11
ATOM     11  C   UNL     1      -0.511  16.228  22.313  1.00  0.00     0.000 C 
BRANCH  11  12
ATOM     12  C   UNL     1      -1.525  17.082  21.525  1.00  0.00    -0.000 C 
BRANCH  12  13
ATOM     13  C   UNL     1      -2.820  17.425  22.285  1.00  0.00    -0.000 C 
BRANCH  13  14
ATOM     14  C   UNL     1      -3.491  16.236  23.000  1.00  0.00    -0.000 C 
BRANCH  14  15
ATOM     15  C   UNL     1      -5.004  16.095  22.748  1.00  0.00    -0.000 C 
BRANCH  15  16
ATOM     16  C   UNL     1      -5.327  15.211  21.536  1.00  0.00    -0.000 C 
BRANCH  16  17
ATOM     17  C   UNL     1      -6.682  15.589  20.926  1.00  0.00    -0.003 C 
ATOM     18  C   UNL     1      -7.821  14.822  21.593  1.00  0.00     0.004 C 
ENDBRANCH  16  17
ENDBRANCH  15  16
ENDBRANCH  14  15
ENDBRANCH  13  14
ENDBRANCH  12  13
ENDBRANCH  11  12
ENDBRANCH   1  11
TORSDOF 14
ENDMDL
MODEL 6
REMARK VINA RESULT:    -3.833      4.592     10.851
REMARK INTER + INTRA:          -7.314
REMARK INTER:                  -6.372
REMARK INTRA:                  -0.942
REMARK UNBOUND:                -0.344
REMARK SMILES CCCCCCCCCCCCCCCC(=O)[O-]
REMARK SMILES IDX 9 1 10 2 11 3 12 4 13 5 14 6 15 7 16 8 17 9 18 10 8 11 7 12
REMARK SMILES IDX 6 13 5 14 4 15 3 16 2 17 1 18
REMARK H PARENT
REMARK Flexibility Score: inf
ROOT
ATOM      1  C   UNL     1       6.509  14.084  22.014  1.00  0.00     0.000 C 
ENDROOT
BRANCH   1   2
ATOM      2  C   UNL     1       5.814  15.426  22.296  1.00  0.00     0.000 C 
BRANCH   2   3
ATOM      3  C   UNL     1       4.363  15.258  22.783  1.00  0.00     0.000 C 
BRANCH   3   4
ATOM      4  C   UNL     1       3.320  16.120  22.044  1.00  0.00     0.000 C 
BRANCH   4   5
ATOM      5  C   UNL     1       1.982  16.314  22.786  1.00  0.00     0.000 C 
BRANCH   5   6
ATOM      6  C   UNL     1       0.728  15.996  21.952  1.00  0.00     0.006 C 
BRANCH   6   7
ATOM      7  C   UNL     1      -0.569  16.464  22.627  1.00  0.00     0.053 C 
BRANCH   7   8
ATOM      8  C   UNL     1      -1.718  16.358  21.675  1.00  0.00     0.041 C 
ATOM      9  O   UNL     1      -2.628  17.228  21.682  1.00  0.00    -0.550 OA
ATOM     10  O   UNL     1      -1.760  15.326  20.746  1.00  0.00    -0.550 OA
ENDBRANCH   7   8
ENDBRANCH   6   7
ENDBRANCH   5   6
ENDBRANCH   4   5
ENDBRANCH   3   4
ENDBRANCH   2   3
ENDBRANCH   1   2
BRANCH   1  11
ATOM     11  C   UNL     1       7.642  13.775  23.009  1.00  0.00     0.000 C 
BRANCH  11  12
ATOM     12  C   UNL     1       9.053  13.690  22.392  1.00  0.00    -0.000 C 
BRANCH  12  13
ATOM     13  C   UNL     1       9.093  13.689  20.851  1.00  0.00    -0.000 C 
BRANCH  13  14
ATOM     14  C   UNL     1      10.505  13.755  20.236  1.00  0.00    -0.000 C 
BRANCH  14  15
ATOM     15  C   UNL     1      10.837  15.071  19.509  1.00  0.00    -0.000 C 
BRANCH  15  16
ATOM     16  C   UNL     1      10.794  16.293  20.438  1.00  0.00    -0.000 C 
BRANCH  16  17
ATOM     17  C   UNL     1       9.661  17.245  20.037  1.00  0.00    -0.003 C 
ATOM     18  C   UNL     1       8.639  17.391  21.162  1.00  0.00     0.004 C 
ENDBRANCH  16  17
ENDBRANCH  15  16
ENDBRANCH  14  15
ENDBRANCH  13  14
ENDBRANCH  12  13
ENDBRANCH  11  12
ENDBRANCH   1  11
TORSDOF 14
ENDMDL
MODEL 7
REMARK VINA RESULT:    -3.803      5.289     11.425
REMARK INTER + INTRA:          -7.259
REMARK INTER:                  -6.644
REMARK INTRA:                  -0.615
REMARK UNBOUND:                -0.344
REMARK SMILES CCCCCCCCCCCCCCCC(=O)[O-]
REMARK SMILES IDX 9 1 10 2 11 3 12 4 13 5 14 6 15 7 16 8 17 9 18 10 8 11 7 12
REMARK SMILES IDX 6 13 5 14 4 15 3 16 2 17 1 18
REMARK H PARENT
REMARK Flexibility Score: inf
ROOT
ATOM      1  C   UNL     1       4.032  15.630  22.360  1.00  0.00     0.000 C 
ENDROOT
BRANCH   1   2
ATOM      2  C   UNL     1       2.707  15.966  23.063  1.00  0.00     0.000 C 
BRANCH   2   3
ATOM      3  C   UNL     1       1.553  16.214  22.075  1.00  0.00     0.000 C 
BRANCH   3   4
ATOM      4  C   UNL     1       0.145  16.236  22.705  1.00  0.00     0.000 C 
BRANCH   4   5
ATOM      5  C   UNL     1      -1.024  16.286  21.700  1.00  0.00     0.000 C 
BRANCH   5   6
ATOM      6  C   UNL     1      -2.426  16.239  22.334  1.00  0.00     0.006 C 
BRANCH   6   7
ATOM      7  C   UNL     1      -3.287  17.453  21.965  1.00  0.00     0.053 C 
BRANCH   7   8
ATOM      8  C   UNL     1      -4.732  17.068  21.907  1.00  0.00     0.041 C 
ATOM      9  O   UNL     1      -5.063  15.854  21.869  1.00  0.00    -0.550 OA
ATOM     10  O   UNL     1      -5.715  18.049  21.944  1.00  0.00    -0.550 OA
ENDBRANCH   7   8
ENDBRANCH   6   7
ENDBRANCH   5   6
ENDBRANCH   4   5
ENDBRANCH   3   4
ENDBRANCH   2   3
ENDBRANCH   1   2
BRANCH   1  11
ATOM     11  C   UNL     1       4.419  16.662  21.286  1.00  0.00     0.000 C 
BRANCH  11  12
ATOM     12  C   UNL     1       5.933  16.808  21.030  1.00  0.00    -0.000 C 
BRANCH  12  13
ATOM     13  C   UNL     1       6.838  16.031  22.005  1.00  0.00    -0.000 C 
BRANCH  13  14
ATOM     14  C   UNL     1       8.338  16.372  21.915  1.00  0.00    -0.000 C 
BRANCH  14  15
ATOM     15  C   UNL     1       8.691  17.494  20.921  1.00  0.00    -0.000 C 
BRANCH  15  16
ATOM     16  C   UNL     1      10.035  17.264  20.214  1.00  0.00    -0.000 C 
BRANCH  16  17
ATOM     17  C   UNL     1      10.629  15.904  20.598  1.00  0.00    -0.003 C 
ATOM     18  C   UNL     1      10.864  15.036  19.364  1.00  0.00     0.004 C 
ENDBRANCH  16  17
ENDBRANCH  15  16
ENDBRANCH  14  15
ENDBRANCH  13  14
ENDBRANCH  12  13
ENDBRANCH  11  12
ENDBRANCH   1  11
TORSDOF 14
ENDMDL
MODEL 8
REMARK VINA RESULT:    -3.680      2.489      5.216
REMARK INTER + INTRA:          -7.035
REMARK INTER:                  -6.306
REMARK INTRA:                  -0.729
REMARK UNBOUND:                -0.344
REMARK SMILES CCCCCCCCCCCCCCCC(=O)[O-]
REMARK SMILES IDX 9 1 10 2 11 3 12 4 13 5 14 6 15 7 16 8 17 9 18 10 8 11 7 12
REMARK SMILES IDX 6 13 5 14 4 15 3 16 2 17 1 18
REMARK H PARENT
REMARK Flexibility Score: inf
ROOT
ATOM      1  C   UNL     1      -3.289  16.334  21.535  1.00  0.00     0.000 C 
ENDROOT
BRANCH   1   2
ATOM      2  C   UNL     1      -2.551  17.344  22.429  1.00  0.00     0.000 C 
BRANCH   2   3
ATOM      3  C   UNL     1      -1.315  16.741  23.120  1.00  0.00     0.000 C 
BRANCH   3   4
ATOM      4  C   UNL     1      -0.173  16.322  22.172  1.00  0.00     0.000 C 
BRANCH   4   5
ATOM      5  C   UNL     1       1.136  15.893  22.867  1.00  0.00     0.000 C 
BRANCH   5   6
ATOM      6  C   UNL     1       2.420  16.215  22.083  1.00  0.00     0.006 C 
BRANCH   6   7
ATOM      7  C   UNL     1       3.693  15.789  22.827  1.00  0.00     0.053 C 
BRANCH   7   8
ATOM      8  C   UNL     1       4.868  15.808  21.901  1.00  0.00     0.041 C 
ATOM      9  O   UNL     1       5.732  14.894  21.955  1.00  0.00    -0.550 OA
ATOM     10  O   UNL     1       4.985  16.810  20.946  1.00  0.00    -0.550 OA
ENDBRANCH   7   8
ENDBRANCH   6   7
ENDBRANCH   5   6
ENDBRANCH   4   5
ENDBRANCH   3   4
ENDBRANCH   2   3
ENDBRANCH   1   2
BRANCH   1  11
ATOM     11  C   UNL     1      -4.597  15.822  22.164  1.00  0.00     0.000 C 
BRANCH  11  12
ATOM     12  C   UNL     1      -5.644  15.294  21.162  1.00  0.00    -0.000 C 
BRANCH  12  13
ATOM     13  C   UNL     1      -6.817  14.518  21.792  1.00  0.00    -0.000 C 
BRANCH  13  14
ATOM     14  C   UNL     1      -8.179  15.238  21.738  1.00  0.00    -0.000 C 
BRANCH  14  15
ATOM     15  C   UNL     1      -8.383  16.325  22.810  1.00  0.00    -0.000 C 
BRANCH  15  16
ATOM     16  C   UNL     1      -8.867  17.659  22.222  1.00  0.00    -0.000 C 
BRANCH  16  17
ATOM     17  C   UNL     1      -7.828  18.240  21.255  1.00  0.00    -0.003 C 
ATOM     18  C   UNL     1      -8.344  18.226  19.818  1.00  0.00     0.004 C 
ENDBRANCH  16  17
ENDBRANCH  15  16
ENDBRANCH  14  15
ENDBRANCH  13  14
ENDBRANCH  12  13
ENDBRANCH  11  12
ENDBRANCH   1  11
TORSDOF 14
ENDMDL
MODEL 9
REMARK VINA RESULT:    -3.653      6.334     11.867
REMARK INTER + INTRA:          -6.987
REMARK INTER:                  -6.425
REMARK INTRA:                  -0.562
REMARK UNBOUND:                -0.344
REMARK SMILES CCCCCCCCCCCCCCCC(=O)[O-]
REMARK SMILES IDX 9 1 10 2 11 3 12 4 13 5 14 6 15 7 16 8 17 9 18 10 8 11 7 12
REMARK SMILES IDX 6 13 5 14 4 15 3 16 2 17 1 18
REMARK H PARENT
REMARK Flexibility Score: inf
ROOT
ATOM      1  C   UNL     1      -2.451  17.512  21.821  1.00  0.00     0.000 C 
ENDROOT
BRANCH   1   2
ATOM      2  C   UNL     1      -3.891  17.422  22.351  1.00  0.00     0.000 C 
BRANCH   2   3
ATOM      3  C   UNL     1      -4.388  15.972  22.487  1.00  0.00     0.000 C 
BRANCH   3   4
ATOM      4  C   UNL     1      -5.223  15.451  21.299  1.00  0.00     0.000 C 
BRANCH   4   5
ATOM      5  C   UNL     1      -6.450  14.599  21.680  1.00  0.00     0.000 C 
BRANCH   5   6
ATOM      6  C   UNL     1      -7.810  15.269  21.414  1.00  0.00     0.006 C 
BRANCH   6   7
ATOM      7  C   UNL     1      -7.961  16.616  22.133  1.00  0.00     0.053 C 
BRANCH   7   8
ATOM      8  C   UNL     1      -8.173  17.715  21.140  1.00  0.00     0.041 C 
ATOM      9  O   UNL     1      -8.181  18.916  21.517  1.00  0.00    -0.550 OA
ATOM     10  O   UNL     1      -8.313  17.416  19.790  1.00  0.00    -0.550 OA
ENDBRANCH   7   8
ENDBRANCH   6   7
ENDBRANCH   5   6
ENDBRANCH   4   5
ENDBRANCH   3   4
ENDBRANCH   2   3
ENDBRANCH   1   2
BRANCH   1  11
ATOM     11  C   UNL     1      -1.434  16.787  22.722  1.00  0.00     0.000 C 
BRANCH  11  12
ATOM     12  C   UNL     1      -0.193  16.231  21.996  1.00  0.00    -0.000 C 
BRANCH  12  13
ATOM     13  C   UNL     1       1.026  15.960  22.899  1.00  0.00    -0.000 C 
BRANCH  13  14
ATOM     14  C   UNL     1       2.386  16.366  22.297  1.00  0.00    -0.000 C 
BRANCH  14  15
ATOM     15  C   UNL     1       3.616  15.779  23.015  1.00  0.00    -0.000 C 
BRANCH  15  16
ATOM     16  C   UNL     1       4.824  15.609  22.084  1.00  0.00    -0.000 C 
BRANCH  16  17
ATOM     17  C   UNL     1       6.120  15.461  22.890  1.00  0.00    -0.003 C 
ATOM     18  C   UNL     1       7.039  14.410  22.271  1.00  0.00     0.004 C 
ENDBRANCH  16  17
ENDBRANCH  15  16
ENDBRANCH  14  15
ENDBRANCH  13  14
ENDBRANCH  12  13
ENDBRANCH  11  12
ENDBRANCH   1  11
TORSDOF 14
ENDMDL
