MODEL 1
REMARK VINA RESULT:    -4.643      0.000      0.000
REMARK INTER + INTRA:          -7.619
REMARK INTER:                  -6.271
REMARK INTRA:                  -1.348
REMARK UNBOUND:                -1.348
REMARK SMILES CC(=O)CCC=C(C)CCC=C(C)C
REMARK SMILES IDX 7 1 6 2 8 3 9 4 10 5 11 6 13 7 12 8 14 9 5 10 4 11 2 12 3 13
REMARK SMILES IDX 1 14
REMARK H PARENT
REMARK Flexibility Score: inf
ROOT
ATOM      1  C   UNL     1       4.340  31.531  53.379  1.00  0.00    -0.077 C 
ATOM      2  C   UNL     1       5.093  31.400  54.495  1.00  0.00    -0.028 C 
ATOM      3  C   UNL     1       4.722  32.479  52.266  1.00  0.00     0.039 C 
ENDROOT
BRANCH   1   4
ATOM      4  C   UNL     1       3.067  30.724  53.255  1.00  0.00     0.034 C 
BRANCH   4   5
ATOM      5  C   UNL     1       3.279  29.293  53.761  1.00  0.00     0.032 C 
BRANCH   5   6
ATOM      6  C   UNL     1       3.717  28.386  52.638  1.00  0.00    -0.028 C 
ATOM      7  C   UNL     1       5.239  26.851  51.432  1.00  0.00     0.039 C 
ATOM      8  C   UNL     1       4.914  27.758  52.591  1.00  0.00    -0.080 C 
ATOM      9  C   UNL     1       5.972  27.967  53.646  1.00  0.00     0.039 C 
ENDBRANCH   5   6
ENDBRANCH   4   5
ENDBRANCH   1   4
BRANCH   2  10
ATOM     10  C   UNL     1       6.404  32.108  54.728  1.00  0.00     0.035 C 
BRANCH  10  11
ATOM     11  C   UNL     1       7.571  31.117  54.668  1.00  0.00     0.079 C 
BRANCH  11  12
ATOM     12  C   UNL     1       8.386  31.329  53.419  1.00  0.00     0.130 C 
ATOM     13  O   UNL     1       9.362  32.062  53.456  1.00  0.00    -0.300 OA
ATOM     14  C   UNL     1       8.016  30.671  52.123  1.00  0.00     0.087 C 
ENDBRANCH  11  12
ENDBRANCH  10  11
ENDBRANCH   2  10
TORSDOF 6
ENDMDL
MODEL 2
REMARK VINA RESULT:    -4.461      2.500      5.414
REMARK INTER + INTRA:          -7.374
REMARK INTER:                  -6.561
REMARK INTRA:                  -0.813
REMARK UNBOUND:                -1.348
REMARK SMILES CC(=O)CCC=C(C)CCC=C(C)C
REMARK SMILES IDX 7 1 6 2 8 3 9 4 10 5 11 6 13 7 12 8 14 9 5 10 4 11 2 12 3 13
REMARK SMILES IDX 1 14
REMARK H PARENT
REMARK Flexibility Score: inf
ROOT
ATOM      1  C   UNL     1       6.130  31.081  54.235  1.00  0.00    -0.077 C 
ATOM      2  C   UNL     1       6.867  30.008  53.868  1.00  0.00    -0.028 C 
ATOM      3  C   UNL     1       4.630  31.000  54.397  1.00  0.00     0.039 C 
ENDROOT
BRANCH   1   4
ATOM      4  C   UNL     1       6.826  32.404  54.465  1.00  0.00     0.034 C 
BRANCH   4   5
ATOM      5  C   UNL     1       8.323  32.194  54.719  1.00  0.00     0.032 C 
BRANCH   5   6
ATOM      6  C   UNL     1       9.150  32.946  53.706  1.00  0.00    -0.028 C 
ATOM      7  C   UNL     1      10.817  33.212  51.896  1.00  0.00     0.039 C 
ATOM      8  C   UNL     1      10.064  32.369  52.892  1.00  0.00    -0.080 C 
ATOM      9  C   UNL     1      10.397  30.900  52.973  1.00  0.00     0.039 C 
ENDBRANCH   5   6
ENDBRANCH   4   5
ENDBRANCH   1   4
BRANCH   2  10
ATOM     10  C   UNL     1       6.310  28.622  53.652  1.00  0.00     0.035 C 
BRANCH  10  11
ATOM     11  C   UNL     1       6.287  28.276  52.160  1.00  0.00     0.079 C 
BRANCH  11  12
ATOM     12  C   UNL     1       5.255  27.216  51.876  1.00  0.00     0.130 C 
ATOM     13  O   UNL     1       5.387  26.497  50.898  1.00  0.00    -0.300 OA
ATOM     14  C   UNL     1       4.059  27.032  52.762  1.00  0.00     0.087 C 
ENDBRANCH  11  12
ENDBRANCH  10  11
ENDBRANCH   2  10
TORSDOF 6
ENDMDL
MODEL 3
REMARK VINA RESULT:    -4.461      2.900      5.981
REMARK INTER + INTRA:          -7.373
REMARK INTER:                  -6.861
REMARK INTRA:                  -0.512
REMARK UNBOUND:                -1.348
REMARK SMILES CC(=O)CCC=C(C)CCC=C(C)C
REMARK SMILES IDX 7 1 6 2 8 3 9 4 10 5 11 6 13 7 12 8 14 9 5 10 4 11 2 12 3 13
REMARK SMILES IDX 1 14
REMARK H PARENT
REMARK Flexibility Score: inf
ROOT
ATOM      1  C   UNL     1       6.823  31.247  54.306  1.00  0.00    -0.077 C 
ATOM      2  C   UNL     1       7.209  30.300  53.421  1.00  0.00    -0.028 C 
ATOM      3  C   UNL     1       5.365  31.535  54.579  1.00  0.00     0.039 C 
ENDROOT
BRANCH   1   4
ATOM      4  C   UNL     1       7.881  32.056  55.023  1.00  0.00     0.034 C 
BRANCH   4   5
ATOM      5  C   UNL     1       7.906  33.498  54.504  1.00  0.00     0.032 C 
BRANCH   5   6
ATOM      6  C   UNL     1       8.817  33.622  53.308  1.00  0.00    -0.028 C 
ATOM      7  C   UNL     1      10.869  34.268  52.084  1.00  0.00     0.039 C 
ATOM      8  C   UNL     1      10.029  34.223  53.334  1.00  0.00    -0.080 C 
ATOM      9  C   UNL     1      10.562  34.901  54.572  1.00  0.00     0.039 C 
ENDBRANCH   5   6
ENDBRANCH   4   5
ENDBRANCH   1   4
BRANCH   2  10
ATOM     10  C   UNL     1       6.264  29.392  52.674  1.00  0.00     0.035 C 
BRANCH  10  11
ATOM     11  C   UNL     1       6.013  28.104  53.465  1.00  0.00     0.079 C 
BRANCH  11  12
ATOM     12  C   UNL     1       4.865  27.331  52.871  1.00  0.00     0.130 C 
ATOM     13  O   UNL     1       3.806  27.270  53.476  1.00  0.00    -0.300 OA
ATOM     14  C   UNL     1       4.996  26.620  51.557  1.00  0.00     0.087 C 
ENDBRANCH  11  12
ENDBRANCH  10  11
ENDBRANCH   2  10
TORSDOF 6
ENDMDL
MODEL 4
REMARK VINA RESULT:    -4.453      2.412      4.538
REMARK INTER + INTRA:          -7.363
REMARK INTER:                  -6.169
REMARK INTRA:                  -1.194
REMARK UNBOUND:                -1.348
REMARK SMILES CC(=O)CCC=C(C)CCC=C(C)C
REMARK SMILES IDX 7 1 6 2 8 3 9 4 10 5 11 6 13 7 12 8 14 9 5 10 4 11 2 12 3 13
REMARK SMILES IDX 1 14
REMARK H PARENT
REMARK Flexibility Score: inf
ROOT
ATOM      1  C   UNL     1       5.654  32.126  53.980  1.00  0.00    -0.077 C 
ATOM      2  C   UNL     1       4.793  31.179  54.419  1.00  0.00    -0.028 C 
ATOM      3  C   UNL     1       5.374  32.945  52.742  1.00  0.00     0.039 C 
ENDROOT
BRANCH   1   4
ATOM      4  C   UNL     1       6.943  32.352  54.738  1.00  0.00     0.034 C 
BRANCH   4   5
ATOM      5  C   UNL     1       7.827  31.101  54.692  1.00  0.00     0.032 C 
BRANCH   5   6
ATOM      6  C   UNL     1       8.583  31.026  53.389  1.00  0.00    -0.028 C 
ATOM      7  C   UNL     1       9.126  30.159  51.135  1.00  0.00     0.039 C 
ATOM      8  C   UNL     1       8.324  30.129  52.411  1.00  0.00    -0.080 C 
ATOM      9  C   UNL     1       7.278  29.052  52.565  1.00  0.00     0.039 C 
ENDBRANCH   5   6
ENDBRANCH   4   5
ENDBRANCH   1   4
BRANCH   2  10
ATOM     10  C   UNL     1       3.455  30.883  53.788  1.00  0.00     0.035 C 
BRANCH  10  11
ATOM     11  C   UNL     1       3.573  29.726  52.791  1.00  0.00     0.079 C 
BRANCH  11  12
ATOM     12  C   UNL     1       3.235  28.416  53.453  1.00  0.00     0.130 C 
ATOM     13  O   UNL     1       2.220  28.329  54.128  1.00  0.00    -0.300 OA
ATOM     14  C   UNL     1       4.124  27.216  53.314  1.00  0.00     0.087 C 
ENDBRANCH  11  12
ENDBRANCH  10  11
ENDBRANCH   2  10
TORSDOF 6
ENDMDL
MODEL 5
REMARK VINA RESULT:    -4.399      1.805      2.179
REMARK INTER + INTRA:          -7.290
REMARK INTER:                  -6.364
REMARK INTRA:                  -0.926
REMARK UNBOUND:                -1.348
REMARK SMILES CC(=O)CCC=C(C)CCC=C(C)C
REMARK SMILES IDX 7 1 6 2 8 3 9 4 10 5 11 6 13 7 12 8 14 9 5 10 4 11 2 12 3 13
REMARK SMILES IDX 1 14
REMARK H PARENT
REMARK Flexibility Score: inf
ROOT
ATOM      1  C   UNL     1       4.931  31.594  53.740  1.00  0.00    -0.077 C 
ATOM      2  C   UNL     1       6.102  31.349  54.372  1.00  0.00    -0.028 C 
ATOM      3  C   UNL     1       4.860  32.448  52.496  1.00  0.00     0.039 C 
ENDROOT
BRANCH   1   4
ATOM      4  C   UNL     1       3.656  31.016  54.312  1.00  0.00     0.034 C 
BRANCH   4   5
ATOM      5  C   UNL     1       2.935  30.154  53.270  1.00  0.00     0.032 C 
BRANCH   5   6
ATOM      6  C   UNL     1       3.478  28.746  53.271  1.00  0.00    -0.028 C 
ATOM      7  C   UNL     1       4.691  26.789  52.363  1.00  0.00     0.039 C 
ATOM      8  C   UNL     1       4.171  28.198  52.246  1.00  0.00    -0.080 C 
ATOM      9  C   UNL     1       4.411  28.937  50.953  1.00  0.00     0.039 C 
ENDBRANCH   5   6
ENDBRANCH   4   5
ENDBRANCH   1   4
BRANCH   2  10
ATOM     10  C   UNL     1       7.450  31.823  53.887  1.00  0.00     0.035 C 
BRANCH  10  11
ATOM     11  C   UNL     1       8.120  32.714  54.938  1.00  0.00     0.079 C 
BRANCH  11  12
ATOM     12  C   UNL     1       8.463  34.059  54.354  1.00  0.00     0.130 C 
ATOM     13  O   UNL     1       7.733  34.551  53.508  1.00  0.00    -0.300 OA
ATOM     14  C   UNL     1       9.692  34.806  54.780  1.00  0.00     0.087 C 
ENDBRANCH  11  12
ENDBRANCH  10  11
ENDBRANCH   2  10
TORSDOF 6
ENDMDL
MODEL 6
REMARK VINA RESULT:    -4.334     14.122     15.861
REMARK INTER + INTRA:          -7.202
REMARK INTER:                  -6.554
REMARK INTRA:                  -0.649
REMARK UNBOUND:                -1.348
REMARK SMILES CC(=O)CCC=C(C)CCC=C(C)C
REMARK SMILES IDX 7 1 6 2 8 3 9 4 10 5 11 6 13 7 12 8 14 9 5 10 4 11 2 12 3 13
REMARK SMILES IDX 1 14
REMARK H PARENT
REMARK Flexibility Score: inf
ROOT
ATOM      1  C   UNL     1      15.248  19.472  57.832  1.00  0.00    -0.077 C 
ATOM      2  C   UNL     1      15.925  20.640  57.753  1.00  0.00    -0.028 C 
ATOM      3  C   UNL     1      13.789  19.421  58.220  1.00  0.00     0.039 C 
ENDROOT
BRANCH   1   4
ATOM      4  C   UNL     1      15.981  18.180  57.547  1.00  0.00     0.034 C 
BRANCH   4   5
ATOM      5  C   UNL     1      15.527  17.581  56.211  1.00  0.00     0.032 C 
BRANCH   5   6
ATOM      6  C   UNL     1      16.715  17.211  55.358  1.00  0.00    -0.028 C 
ATOM      7  C   UNL     1      18.463  15.719  54.438  1.00  0.00     0.039 C 
ATOM      8  C   UNL     1      17.294  15.988  55.350  1.00  0.00    -0.080 C 
ATOM      9  C   UNL     1      16.840  14.879  56.267  1.00  0.00     0.039 C 
ENDBRANCH   5   6
ENDBRANCH   4   5
ENDBRANCH   1   4
BRANCH   2  10
ATOM     10  C   UNL     1      15.308  22.001  57.966  1.00  0.00     0.035 C 
BRANCH  10  11
ATOM     11  C   UNL     1      15.782  22.607  59.291  1.00  0.00     0.079 C 
BRANCH  11  12
ATOM     12  C   UNL     1      14.707  22.498  60.340  1.00  0.00     0.130 C 
ATOM     13  O   UNL     1      15.021  22.291  61.502  1.00  0.00    -0.300 OA
ATOM     14  C   UNL     1      13.254  22.626  59.989  1.00  0.00     0.087 C 
ENDBRANCH  11  12
ENDBRANCH  10  11
ENDBRANCH   2  10
TORSDOF 6
ENDMDL
MODEL 7
REMARK VINA RESULT:    -4.230     12.929     14.911
REMARK INTER + INTRA:          -7.061
REMARK INTER:                  -5.946
REMARK INTRA:                  -1.115
REMARK UNBOUND:                -1.348
REMARK SMILES CC(=O)CCC=C(C)CCC=C(C)C
REMARK SMILES IDX 7 1 6 2 8 3 9 4 10 5 11 6 13 7 12 8 14 9 5 10 4 11 2 12 3 13
REMARK SMILES IDX 1 14
REMARK H PARENT
REMARK Flexibility Score: inf
ROOT
ATOM      1  C   UNL     1      14.270  20.760  57.442  1.00  0.00    -0.077 C 
ATOM      2  C   UNL     1      14.527  19.476  57.782  1.00  0.00    -0.028 C 
ATOM      3  C   UNL     1      15.286  21.612  56.717  1.00  0.00     0.039 C 
ENDROOT
BRANCH   1   4
ATOM      4  C   UNL     1      12.937  21.366  57.821  1.00  0.00     0.034 C 
BRANCH   4   5
ATOM      5  C   UNL     1      13.120  22.475  58.861  1.00  0.00     0.032 C 
BRANCH   5   6
ATOM      6  C   UNL     1      13.287  21.893  60.243  1.00  0.00    -0.028 C 
ATOM      7  C   UNL     1      14.490  21.342  62.335  1.00  0.00     0.039 C 
ATOM      8  C   UNL     1      14.440  21.933  60.950  1.00  0.00    -0.080 C 
ATOM      9  C   UNL     1      15.711  22.513  60.380  1.00  0.00     0.039 C 
ENDBRANCH   5   6
ENDBRANCH   4   5
ENDBRANCH   1   4
BRANCH   2  10
ATOM     10  C   UNL     1      15.793  18.736  57.427  1.00  0.00     0.035 C 
BRANCH  10  11
ATOM     11  C   UNL     1      15.480  17.517  56.555  1.00  0.00     0.079 C 
BRANCH  11  12
ATOM     12  C   UNL     1      15.666  17.844  55.096  1.00  0.00     0.130 C 
ATOM     13  O   UNL     1      16.768  17.711  54.587  1.00  0.00    -0.300 OA
ATOM     14  C   UNL     1      14.529  18.344  54.256  1.00  0.00     0.087 C 
ENDBRANCH  11  12
ENDBRANCH  10  11
ENDBRANCH   2  10
TORSDOF 6
ENDMDL
MODEL 8
REMARK VINA RESULT:    -4.213     11.577     13.185
REMARK INTER + INTRA:          -7.038
REMARK INTER:                  -5.735
REMARK INTRA:                  -1.304
REMARK UNBOUND:                -1.348
REMARK SMILES CC(=O)CCC=C(C)CCC=C(C)C
REMARK SMILES IDX 7 1 6 2 8 3 9 4 10 5 11 6 13 7 12 8 14 9 5 10 4 11 2 12 3 13
REMARK SMILES IDX 1 14
REMARK H PARENT
REMARK Flexibility Score: inf
ROOT
ATOM      1  C   UNL     1      13.604  21.874  59.836  1.00  0.00    -0.077 C 
ATOM      2  C   UNL     1      14.542  22.718  60.322  1.00  0.00    -0.028 C 
ATOM      3  C   UNL     1      13.894  20.410  59.602  1.00  0.00     0.039 C 
ENDROOT
BRANCH   1   4
ATOM      4  C   UNL     1      12.234  22.418  59.494  1.00  0.00     0.034 C 
BRANCH   4   5
ATOM      5  C   UNL     1      11.871  22.101  58.040  1.00  0.00     0.032 C 
BRANCH   5   6
ATOM      6  C   UNL     1      12.703  22.924  57.088  1.00  0.00    -0.028 C 
ATOM      7  C   UNL     1      14.268  23.318  55.210  1.00  0.00     0.039 C 
ATOM      8  C   UNL     1      13.498  22.401  56.126  1.00  0.00    -0.080 C 
ATOM      9  C   UNL     1      13.683  20.913  55.959  1.00  0.00     0.039 C 
ENDBRANCH   5   6
ENDBRANCH   4   5
ENDBRANCH   1   4
BRANCH   2  10
ATOM     10  C   UNL     1      15.929  22.302  60.746  1.00  0.00     0.035 C 
BRANCH  10  11
ATOM     11  C   UNL     1      16.989  23.043  59.926  1.00  0.00     0.079 C 
BRANCH  11  12
ATOM     12  C   UNL     1      16.894  22.668  58.470  1.00  0.00     0.130 C 
ATOM     13  O   UNL     1      16.604  23.523  57.648  1.00  0.00    -0.300 OA
ATOM     14  C   UNL     1      17.135  21.261  58.007  1.00  0.00     0.087 C 
ENDBRANCH  11  12
ENDBRANCH  10  11
ENDBRANCH   2  10
TORSDOF 6
ENDMDL
MODEL 9
REMARK VINA RESULT:    -4.202     13.729     15.744
REMARK INTER + INTRA:          -7.024
REMARK INTER:                  -6.098
REMARK INTRA:                  -0.926
REMARK UNBOUND:                -1.348
REMARK SMILES CC(=O)CCC=C(C)CCC=C(C)C
REMARK SMILES IDX 7 1 6 2 8 3 9 4 10 5 11 6 13 7 12 8 14 9 5 10 4 11 2 12 3 13
REMARK SMILES IDX 1 14
REMARK H PARENT
REMARK Flexibility Score: inf
ROOT
ATOM      1  C   UNL     1      14.085  20.103  57.569  1.00  0.00    -0.077 C 
ATOM      2  C   UNL     1      15.096  19.206  57.636  1.00  0.00    -0.028 C 
ATOM      3  C   UNL     1      13.632  20.697  56.256  1.00  0.00     0.039 C 
ENDROOT
BRANCH   1   4
ATOM      4  C   UNL     1      13.408  20.539  58.849  1.00  0.00     0.034 C 
BRANCH   4   5
ATOM      5  C   UNL     1      13.673  22.023  59.126  1.00  0.00     0.032 C 
BRANCH   5   6
ATOM      6  C   UNL     1      14.933  22.201  59.937  1.00  0.00    -0.028 C 
ATOM      7  C   UNL     1      17.281  22.864  60.352  1.00  0.00     0.039 C 
ATOM      8  C   UNL     1      16.088  22.706  59.446  1.00  0.00    -0.080 C 
ATOM      9  C   UNL     1      16.247  23.080  57.993  1.00  0.00     0.039 C 
ENDBRANCH   5   6
ENDBRANCH   4   5
ENDBRANCH   1   4
BRANCH   2  10
ATOM     10  C   UNL     1      15.826  18.651  56.437  1.00  0.00     0.035 C 
BRANCH  10  11
ATOM     11  C   UNL     1      15.574  17.147  56.300  1.00  0.00     0.079 C 
BRANCH  11  12
ATOM     12  C   UNL     1      16.821  16.367  56.624  1.00  0.00     0.130 C 
ATOM     13  O   UNL     1      17.818  16.960  57.004  1.00  0.00    -0.300 OA
ATOM     14  C   UNL     1      16.871  14.875  56.475  1.00  0.00     0.087 C 
ENDBRANCH  11  12
ENDBRANCH  10  11
ENDBRANCH   2  10
TORSDOF 6
ENDMDL
