MODEL 1
REMARK VINA RESULT:     2.889      0.000      0.000
REMARK INTER + INTRA:           3.802
REMARK INTER:                   4.409
REMARK INTRA:                  -0.607
REMARK UNBOUND:                -0.607
REMARK SMILES OC[C@@H]1O[C@](CO)(O[C@@H]2O[C@H](CO)[C@H](O)[C@@H](O)[C@H]2O)[C@@H](O)[C@@H]1O
REMARK SMILES IDX 8 1 9 2 11 3 14 4 10 5 16 6 18 7 12 8 13 9 15 11 17 13 19 15
REMARK SMILES IDX 5 17 20 18 4 19 22 20 3 21 6 22 7 23 21 25 23 27 2 29 1 30
REMARK H PARENT 13 10 15 12 17 14 19 16 7 24 21 26 23 28 1 31
REMARK Flexibility Score: inf
ROOT
ATOM      1  O   UNL     1     161.584 163.620 162.521  1.00  0.00    -0.313 OA
ENDROOT
BRANCH   1   2
ATOM      2  C   UNL     1     161.505 162.982 163.813  1.00  0.00     0.285 C 
ATOM      3  C   UNL     1     160.216 161.514 165.116  1.00  0.00     0.178 C 
ATOM      4  C   UNL     1     159.886 162.579 166.197  1.00  0.00     0.177 C 
ATOM      5  O   UNL     1     160.303 162.204 163.880  1.00  0.00    -0.341 OA
ATOM      6  C   UNL     1     161.140 163.413 166.436  1.00  0.00     0.179 C 
ATOM      7  C   UNL     1     161.791 163.882 165.106  1.00  0.00     0.202 C 
BRANCH   3   8
ATOM      8  C   UNL     1     159.218 160.310 164.997  1.00  0.00     0.191 C 
BRANCH   8   9
ATOM      9  O   UNL     1     159.448 159.571 163.828  1.00  0.00    -0.394 OA
ATOM     10  H   UNL     1     159.216 158.615 164.031  1.00  0.00     0.210 HD
ENDBRANCH   8   9
ENDBRANCH   3   8
BRANCH   4  11
ATOM     11  O   UNL     1     158.824 163.411 165.820  1.00  0.00    -0.387 OA
ATOM     12  H   UNL     1     158.935 163.547 164.858  1.00  0.00     0.211 HD
ENDBRANCH   4  11
BRANCH   6  13
ATOM     13  O   UNL     1     162.054 162.704 167.234  1.00  0.00    -0.387 OA
ATOM     14  H   UNL     1     162.197 161.818 166.794  1.00  0.00     0.211 HD
ENDBRANCH   6  13
BRANCH   7  15
ATOM     15  O   UNL     1     163.180 164.123 165.237  1.00  0.00    -0.385 OA
ATOM     16  H   UNL     1     163.635 163.480 164.620  1.00  0.00     0.211 HD
ENDBRANCH   7  15
ENDBRANCH   1   2
BRANCH   1  17
ATOM     17  C   UNL     1     162.240 162.917 161.482  1.00  0.00     0.224 C 
ATOM     18  C   UNL     1     161.427 162.995 160.167  1.00  0.00     0.208 C 
ATOM     19  O   UNL     1     162.194 161.540 161.793  1.00  0.00    -0.337 OA
ATOM     20  C   UNL     1     161.709 161.652 159.476  1.00  0.00     0.180 C 
ATOM     21  C   UNL     1     162.336 160.822 160.597  1.00  0.00     0.179 C 
BRANCH  17  22
ATOM     22  C   UNL     1     163.712 163.431 161.251  1.00  0.00     0.225 C 
BRANCH  22  23
ATOM     23  O   UNL     1     164.679 162.410 161.184  1.00  0.00    -0.391 OA
ATOM     24  H   UNL     1     164.263 161.526 161.334  1.00  0.00     0.210 HD
ENDBRANCH  22  23
ENDBRANCH  17  22
BRANCH  18  25
ATOM     25  O   UNL     1     161.715 164.125 159.369  1.00  0.00    -0.385 OA
ATOM     26  H   UNL     1     160.939 164.276 158.760  1.00  0.00     0.211 HD
ENDBRANCH  18  25
BRANCH  20  27
ATOM     27  O   UNL     1     160.509 161.073 159.012  1.00  0.00    -0.387 OA
ATOM     28  H   UNL     1     159.860 161.092 159.754  1.00  0.00     0.211 HD
ENDBRANCH  20  27
BRANCH  21  29
ATOM     29  C   UNL     1     161.767 159.401 160.799  1.00  0.00     0.191 C 
BRANCH  29  30
ATOM     30  O   UNL     1     160.471 159.432 161.309  1.00  0.00    -0.394 OA
ATOM     31  H   UNL     1     160.413 158.683 161.965  1.00  0.00     0.210 HD
ENDBRANCH  29  30
ENDBRANCH  21  29
ENDBRANCH   1  17
TORSDOF 13
ENDMDL
MODEL 2
REMARK VINA RESULT:     3.910      1.677      5.960
REMARK INTER + INTRA:           5.360
REMARK INTER:                   5.797
REMARK INTRA:                  -0.437
REMARK UNBOUND:                -0.607
REMARK SMILES OC[C@@H]1O[C@](CO)(O[C@@H]2O[C@H](CO)[C@H](O)[C@@H](O)[C@H]2O)[C@@H](O)[C@@H]1O
REMARK SMILES IDX 8 1 9 2 11 3 14 4 10 5 16 6 18 7 12 8 13 9 15 11 17 13 19 15
REMARK SMILES IDX 5 17 20 18 4 19 22 20 3 21 6 22 7 23 21 25 23 27 2 29 1 30
REMARK H PARENT 13 10 15 12 17 14 19 16 7 24 21 26 23 28 1 31
REMARK Flexibility Score: inf
ROOT
ATOM      1  O   UNL     1     160.862 162.177 163.638  1.00  0.00    -0.313 OA
ENDROOT
BRANCH   1   2
ATOM      2  C   UNL     1     161.614 162.676 162.512  1.00  0.00     0.285 C 
ATOM      3  C   UNL     1     161.416 163.433 160.298  1.00  0.00     0.178 C 
ATOM      4  C   UNL     1     162.280 162.286 159.706  1.00  0.00     0.177 C 
ATOM      5  O   UNL     1     160.723 162.888 161.408  1.00  0.00    -0.341 OA
ATOM      6  C   UNL     1     163.444 162.033 160.658  1.00  0.00     0.179 C 
ATOM      7  C   UNL     1     162.977 161.924 162.135  1.00  0.00     0.202 C 
BRANCH   3   8
ATOM      8  C   UNL     1     160.408 164.125 159.315  1.00  0.00     0.191 C 
BRANCH   8   9
ATOM      9  O   UNL     1     159.484 163.205 158.800  1.00  0.00    -0.394 OA
ATOM     10  H   UNL     1     159.901 162.294 158.876  1.00  0.00     0.210 HD
ENDBRANCH   8   9
ENDBRANCH   3   8
BRANCH   4  11
ATOM     11  O   UNL     1     161.548 161.107 159.523  1.00  0.00    -0.387 OA
ATOM     12  H   UNL     1     160.972 161.038 160.311  1.00  0.00     0.211 HD
ENDBRANCH   4  11
BRANCH   6  13
ATOM     13  O   UNL     1     164.428 163.024 160.501  1.00  0.00    -0.387 OA
ATOM     14  H   UNL     1     163.952 163.902 160.456  1.00  0.00     0.211 HD
ENDBRANCH   6  13
BRANCH   7  15
ATOM     15  O   UNL     1     163.997 162.270 163.054  1.00  0.00    -0.385 OA
ATOM     16  H   UNL     1     164.273 163.206 162.826  1.00  0.00     0.211 HD
ENDBRANCH   7  15
ENDBRANCH   1   2
BRANCH   1  17
ATOM     17  C   UNL     1     160.703 163.036 164.751  1.00  0.00     0.224 C 
ATOM     18  C   UNL     1     160.639 162.223 166.067  1.00  0.00     0.208 C 
ATOM     19  O   UNL     1     159.414 163.609 164.678  1.00  0.00    -0.337 OA
ATOM     20  C   UNL     1     159.692 163.039 166.962  1.00  0.00     0.180 C 
ATOM     21  C   UNL     1     159.043 164.006 165.971  1.00  0.00     0.179 C 
BRANCH  17  22
ATOM     22  C   UNL     1     161.839 164.125 164.832  1.00  0.00     0.225 C 
BRANCH  22  23
ATOM     23  O   UNL     1     162.610 164.072 166.009  1.00  0.00    -0.391 OA
ATOM     24  H   UNL     1     163.562 164.251 165.810  1.00  0.00     0.210 HD
ENDBRANCH  22  23
ENDBRANCH  17  22
BRANCH  18  25
ATOM     25  O   UNL     1     161.897 161.959 166.653  1.00  0.00    -0.385 OA
ATOM     26  H   UNL     1     162.108 160.994 166.506  1.00  0.00     0.211 HD
ENDBRANCH  18  25
BRANCH  20  27
ATOM     27  O   UNL     1     158.734 162.197 167.565  1.00  0.00    -0.387 OA
ATOM     28  H   UNL     1     158.554 161.453 166.944  1.00  0.00     0.211 HD
ENDBRANCH  20  27
BRANCH  21  29
ATOM     29  C   UNL     1     157.505 164.124 166.034  1.00  0.00     0.191 C 
BRANCH  29  30
ATOM     30  O   UNL     1     156.901 163.598 164.893  1.00  0.00    -0.394 OA
ATOM     31  H   UNL     1     157.294 162.691 164.766  1.00  0.00     0.210 HD
ENDBRANCH  29  30
ENDBRANCH  21  29
ENDBRANCH   1  17
TORSDOF 13
ENDMDL
MODEL 3
REMARK VINA RESULT:     3.933     13.595     16.547
REMARK INTER + INTRA:           5.395
REMARK INTER:                   6.242
REMARK INTRA:                  -0.847
REMARK UNBOUND:                -0.607
REMARK SMILES OC[C@@H]1O[C@](CO)(O[C@@H]2O[C@H](CO)[C@H](O)[C@@H](O)[C@H]2O)[C@@H](O)[C@@H]1O
REMARK SMILES IDX 8 1 9 2 11 3 14 4 10 5 16 6 18 7 12 8 13 9 15 11 17 13 19 15
REMARK SMILES IDX 5 17 20 18 4 19 22 20 3 21 6 22 7 23 21 25 23 27 2 29 1 30
REMARK H PARENT 13 10 15 12 17 14 19 16 7 24 21 26 23 28 1 31
REMARK Flexibility Score: inf
ROOT
ATOM      1  O   UNL     1     160.370 148.035 171.415  1.00  0.00    -0.313 OA
ENDROOT
BRANCH   1   2
ATOM      2  C   UNL     1     159.628 148.932 170.564  1.00  0.00     0.285 C 
ATOM      3  C   UNL     1     159.734 150.152 168.560  1.00  0.00     0.178 C 
ATOM      4  C   UNL     1     159.600 151.533 169.259  1.00  0.00     0.177 C 
ATOM      5  O   UNL     1     160.449 149.313 169.452  1.00  0.00    -0.341 OA
ATOM      6  C   UNL     1     158.579 151.396 170.383  1.00  0.00     0.179 C 
ATOM      7  C   UNL     1     158.844 150.142 171.261  1.00  0.00     0.202 C 
BRANCH   3   8
ATOM      8  C   UNL     1     160.416 150.149 167.148  1.00  0.00     0.191 C 
BRANCH   8   9
ATOM      9  O   UNL     1     160.062 149.008 166.414  1.00  0.00    -0.394 OA
ATOM     10  H   UNL     1     160.883 148.433 166.347  1.00  0.00     0.210 HD
ENDBRANCH   8   9
ENDBRANCH   3   8
BRANCH   4  11
ATOM     11  O   UNL     1     160.819 151.991 169.774  1.00  0.00    -0.387 OA
ATOM     12  H   UNL     1     161.085 152.726 169.187  1.00  0.00     0.211 HD
ENDBRANCH   4  11
BRANCH   6  13
ATOM     13  O   UNL     1     157.275 151.393 169.861  1.00  0.00    -0.387 OA
ATOM     14  H   UNL     1     157.122 150.488 169.466  1.00  0.00     0.211 HD
ENDBRANCH   6  13
BRANCH   7  15
ATOM     15  O   UNL     1     157.670 149.666 171.894  1.00  0.00    -0.385 OA
ATOM     16  H   UNL     1     156.901 150.019 171.358  1.00  0.00     0.211 HD
ENDBRANCH   7  15
ENDBRANCH   1   2
BRANCH   1  17
ATOM     17  C   UNL     1     160.185 146.645 171.221  1.00  0.00     0.224 C 
ATOM     18  C   UNL     1     160.923 146.166 169.947  1.00  0.00     0.208 C 
ATOM     19  O   UNL     1     158.828 146.428 170.894  1.00  0.00    -0.337 OA
ATOM     20  C   UNL     1     160.038 145.029 169.412  1.00  0.00     0.180 C 
ATOM     21  C   UNL     1     158.741 145.213 170.199  1.00  0.00     0.179 C 
BRANCH  17  22
ATOM     22  C   UNL     1     160.643 145.802 172.472  1.00  0.00     0.225 C 
BRANCH  22  23
ATOM     23  O   UNL     1     161.806 146.284 173.102  1.00  0.00    -0.391 OA
ATOM     24  H   UNL     1     161.573 146.882 173.853  1.00  0.00     0.210 HD
ENDBRANCH  22  23
ENDBRANCH  17  22
BRANCH  18  25
ATOM     25  O   UNL     1     162.270 145.796 170.156  1.00  0.00    -0.385 OA
ATOM     26  H   UNL     1     162.849 146.510 169.766  1.00  0.00     0.211 HD
ENDBRANCH  18  25
BRANCH  20  27
ATOM     27  O   UNL     1     159.827 145.177 168.025  1.00  0.00    -0.387 OA
ATOM     28  H   UNL     1     159.453 146.077 167.873  1.00  0.00     0.211 HD
ENDBRANCH  20  27
BRANCH  21  29
ATOM     29  C   UNL     1     157.432 145.202 169.380  1.00  0.00     0.191 C 
BRANCH  29  30
ATOM     30  O   UNL     1     156.329 144.896 170.174  1.00  0.00    -0.394 OA
ATOM     31  H   UNL     1     155.542 145.318 169.730  1.00  0.00     0.210 HD
ENDBRANCH  29  30
ENDBRANCH  21  29
ENDBRANCH   1  17
TORSDOF 13
ENDMDL
MODEL 4
REMARK VINA RESULT:     5.399     13.186     15.992
REMARK INTER + INTRA:           7.633
REMARK INTER:                   7.891
REMARK INTRA:                  -0.258
REMARK UNBOUND:                -0.607
REMARK SMILES OC[C@@H]1O[C@](CO)(O[C@@H]2O[C@H](CO)[C@H](O)[C@@H](O)[C@H]2O)[C@@H](O)[C@@H]1O
REMARK SMILES IDX 8 1 9 2 11 3 14 4 10 5 16 6 18 7 12 8 13 9 15 11 17 13 19 15
REMARK SMILES IDX 5 17 20 18 4 19 22 20 3 21 6 22 7 23 21 25 23 27 2 29 1 30
REMARK H PARENT 13 10 15 12 17 14 19 16 7 24 21 26 23 28 1 31
REMARK Flexibility Score: inf
ROOT
ATOM      1  O   UNL     1     159.566 148.866 170.908  1.00  0.00    -0.313 OA
ENDROOT
BRANCH   1   2
ATOM      2  C   UNL     1     160.072 147.588 170.468  1.00  0.00     0.285 C 
ATOM      3  C   UNL     1     159.666 145.804 168.997  1.00  0.00     0.178 C 
ATOM      4  C   UNL     1     159.482 144.759 170.131  1.00  0.00     0.177 C 
ATOM      5  O   UNL     1     159.174 147.036 169.496  1.00  0.00    -0.341 OA
ATOM      6  C   UNL     1     160.518 145.049 171.212  1.00  0.00     0.179 C 
ATOM      7  C   UNL     1     160.560 146.555 171.590  1.00  0.00     0.202 C 
BRANCH   3   8
ATOM      8  C   UNL     1     158.990 145.466 167.622  1.00  0.00     0.191 C 
BRANCH   8   9
ATOM      9  O   UNL     1     159.931 145.003 166.691  1.00  0.00    -0.394 OA
ATOM     10  H   UNL     1     160.716 145.629 166.728  1.00  0.00     0.210 HD
ENDBRANCH   8   9
ENDBRANCH   3   8
BRANCH   4  11
ATOM     11  O   UNL     1     158.195 144.790 170.681  1.00  0.00    -0.387 OA
ATOM     12  H   UNL     1     158.153 144.016 171.279  1.00  0.00     0.211 HD
ENDBRANCH   4  11
BRANCH   6  13
ATOM     13  O   UNL     1     161.782 144.581 170.815  1.00  0.00    -0.387 OA
ATOM     14  H   UNL     1     161.986 143.781 171.377  1.00  0.00     0.211 HD
ENDBRANCH   6  13
BRANCH   7  15
ATOM     15  O   UNL     1     161.818 146.949 172.105  1.00  0.00    -0.385 OA
ATOM     16  H   UNL     1     161.775 146.797 173.095  1.00  0.00     0.211 HD
ENDBRANCH   7  15
ENDBRANCH   1   2
BRANCH   1  17
ATOM     17  C   UNL     1     159.893 150.003 170.130  1.00  0.00     0.224 C 
ATOM     18  C   UNL     1     158.618 150.800 169.761  1.00  0.00     0.208 C 
ATOM     19  O   UNL     1     160.350 149.551 168.872  1.00  0.00    -0.337 OA
ATOM     20  C   UNL     1     158.935 151.387 168.377  1.00  0.00     0.180 C 
ATOM     21  C   UNL     1     160.168 150.591 167.948  1.00  0.00     0.179 C 
BRANCH  17  22
ATOM     22  C   UNL     1     160.938 150.938 170.849  1.00  0.00     0.225 C 
BRANCH  22  23
ATOM     23  O   UNL     1     161.168 152.161 170.193  1.00  0.00    -0.391 OA
ATOM     24  H   UNL     1     161.053 152.060 169.216  1.00  0.00     0.210 HD
ENDBRANCH  22  23
ENDBRANCH  17  22
BRANCH  18  25
ATOM     25  O   UNL     1     158.234 151.764 170.720  1.00  0.00    -0.385 OA
ATOM     26  H   UNL     1     158.763 152.593 170.551  1.00  0.00     0.211 HD
ENDBRANCH  18  25
BRANCH  20  27
ATOM     27  O   UNL     1     157.854 151.182 167.494  1.00  0.00    -0.387 OA
ATOM     28  H   UNL     1     157.310 152.005 167.488  1.00  0.00     0.211 HD
ENDBRANCH  20  27
BRANCH  21  29
ATOM     29  C   UNL     1     160.138 149.992 166.525  1.00  0.00     0.191 C 
BRANCH  29  30
ATOM     30  O   UNL     1     159.541 148.732 166.509  1.00  0.00    -0.394 OA
ATOM     31  H   UNL     1     159.750 148.316 167.390  1.00  0.00     0.210 HD
ENDBRANCH  29  30
ENDBRANCH  21  29
ENDBRANCH   1  17
TORSDOF 13
ENDMDL
MODEL 5
REMARK VINA RESULT:     5.522     14.011     17.153
REMARK INTER + INTRA:           7.820
REMARK INTER:                   7.748
REMARK INTRA:                   0.071
REMARK UNBOUND:                -0.607
REMARK SMILES OC[C@@H]1O[C@](CO)(O[C@@H]2O[C@H](CO)[C@H](O)[C@@H](O)[C@H]2O)[C@@H](O)[C@@H]1O
REMARK SMILES IDX 8 1 9 2 11 3 14 4 10 5 16 6 18 7 12 8 13 9 15 11 17 13 19 15
REMARK SMILES IDX 5 17 20 18 4 19 22 20 3 21 6 22 7 23 21 25 23 27 2 29 1 30
REMARK H PARENT 13 10 15 12 17 14 19 16 7 24 21 26 23 28 1 31
REMARK Flexibility Score: inf
ROOT
ATOM      1  O   UNL     1     159.351 147.509 170.436  1.00  0.00    -0.313 OA
ENDROOT
BRANCH   1   2
ATOM      2  C   UNL     1     159.896 148.455 169.492  1.00  0.00     0.285 C 
ATOM      3  C   UNL     1     160.502 150.707 169.215  1.00  0.00     0.178 C 
ATOM      4  C   UNL     1     159.464 150.968 168.090  1.00  0.00     0.177 C 
ATOM      5  O   UNL     1     159.921 149.757 170.092  1.00  0.00    -0.341 OA
ATOM      6  C   UNL     1     159.432 149.742 167.183  1.00  0.00     0.179 C 
ATOM      7  C   UNL     1     159.332 148.420 167.994  1.00  0.00     0.202 C 
BRANCH   3   8
ATOM      8  C   UNL     1     160.990 151.962 170.019  1.00  0.00     0.191 C 
BRANCH   8   9
ATOM      9  O   UNL     1     160.319 153.123 169.608  1.00  0.00    -0.394 OA
ATOM     10  H   UNL     1     160.437 153.805 170.335  1.00  0.00     0.210 HD
ENDBRANCH   8   9
ENDBRANCH   3   8
BRANCH   4  11
ATOM     11  O   UNL     1     158.183 151.223 168.594  1.00  0.00    -0.387 OA
ATOM     12  H   UNL     1     157.726 151.725 167.891  1.00  0.00     0.211 HD
ENDBRANCH   4  11
BRANCH   6  13
ATOM     13  O   UNL     1     160.546 149.738 166.327  1.00  0.00    -0.387 OA
ATOM     14  H   UNL     1     160.590 148.830 165.911  1.00  0.00     0.211 HD
ENDBRANCH   6  13
BRANCH   7  15
ATOM     15  O   UNL     1     159.869 147.313 167.293  1.00  0.00    -0.385 OA
ATOM     16  H   UNL     1     160.031 147.627 166.356  1.00  0.00     0.211 HD
ENDBRANCH   7  15
ENDBRANCH   1   2
BRANCH   1  17
ATOM     17  C   UNL     1     160.167 146.414 170.810  1.00  0.00     0.224 C 
ATOM     18  C   UNL     1     159.302 145.175 171.145  1.00  0.00     0.208 C 
ATOM     19  O   UNL     1     160.763 146.721 172.054  1.00  0.00    -0.337 OA
ATOM     20  C   UNL     1     160.096 144.455 172.247  1.00  0.00     0.180 C 
ATOM     21  C   UNL     1     161.113 145.514 172.675  1.00  0.00     0.179 C 
BRANCH  17  22
ATOM     22  C   UNL     1     161.233 146.059 169.705  1.00  0.00     0.225 C 
BRANCH  22  23
ATOM     23  O   UNL     1     162.021 144.931 170.001  1.00  0.00    -0.391 OA
ATOM     24  H   UNL     1     161.456 144.123 170.081  1.00  0.00     0.210 HD
ENDBRANCH  22  23
ENDBRANCH  17  22
BRANCH  18  25
ATOM     25  O   UNL     1     158.994 144.360 170.033  1.00  0.00    -0.385 OA
ATOM     26  H   UNL     1     159.603 143.570 170.053  1.00  0.00     0.211 HD
ENDBRANCH  18  25
BRANCH  20  27
ATOM     27  O   UNL     1     159.246 144.094 173.313  1.00  0.00    -0.387 OA
ATOM     28  H   UNL     1     159.163 143.111 173.312  1.00  0.00     0.211 HD
ENDBRANCH  20  27
BRANCH  21  29
ATOM     29  C   UNL     1     161.253 145.757 174.193  1.00  0.00     0.191 C 
BRANCH  29  30
ATOM     30  O   UNL     1     162.589 145.802 174.587  1.00  0.00    -0.394 OA
ATOM     31  H   UNL     1     163.048 145.067 174.091  1.00  0.00     0.210 HD
ENDBRANCH  29  30
ENDBRANCH  21  29
ENDBRANCH   1  17
TORSDOF 13
ENDMDL
MODEL 6
REMARK VINA RESULT:     5.638     17.037     19.071
REMARK INTER + INTRA:           7.997
REMARK INTER:                   6.699
REMARK INTRA:                   1.299
REMARK UNBOUND:                -0.607
REMARK SMILES OC[C@@H]1O[C@](CO)(O[C@@H]2O[C@H](CO)[C@H](O)[C@@H](O)[C@H]2O)[C@@H](O)[C@@H]1O
REMARK SMILES IDX 8 1 9 2 11 3 14 4 10 5 16 6 18 7 12 8 13 9 15 11 17 13 19 15
REMARK SMILES IDX 5 17 20 18 4 19 22 20 3 21 6 22 7 23 21 25 23 27 2 29 1 30
REMARK H PARENT 13 10 15 12 17 14 19 16 7 24 21 26 23 28 1 31
REMARK Flexibility Score: inf
ROOT
ATOM      1  O   UNL     1     159.345 144.455 171.506  1.00  0.00    -0.313 OA
ENDROOT
BRANCH   1   2
ATOM      2  C   UNL     1     160.388 144.671 172.479  1.00  0.00     0.285 C 
ATOM      3  C   UNL     1     160.869 144.595 174.776  1.00  0.00     0.178 C 
ATOM      4  C   UNL     1     161.170 146.115 174.881  1.00  0.00     0.177 C 
ATOM      5  O   UNL     1     159.859 144.448 173.793  1.00  0.00    -0.341 OA
ATOM      6  C   UNL     1     161.940 146.531 173.632  1.00  0.00     0.179 C 
ATOM      7  C   UNL     1     161.280 145.993 172.333  1.00  0.00     0.202 C 
BRANCH   3   8
ATOM      8  C   UNL     1     160.445 143.875 176.103  1.00  0.00     0.191 C 
BRANCH   8   9
ATOM      9  O   UNL     1     161.488 143.875 177.040  1.00  0.00    -0.394 OA
ATOM     10  H   UNL     1     162.257 144.372 176.626  1.00  0.00     0.210 HD
ENDBRANCH   8   9
ENDBRANCH   3   8
BRANCH   4  11
ATOM     11  O   UNL     1     160.005 146.882 175.001  1.00  0.00    -0.387 OA
ATOM     12  H   UNL     1     159.275 146.280 174.753  1.00  0.00     0.211 HD
ENDBRANCH   4  11
BRANCH   6  13
ATOM     13  O   UNL     1     163.283 146.132 173.731  1.00  0.00    -0.387 OA
ATOM     14  H   UNL     1     163.836 146.964 173.728  1.00  0.00     0.211 HD
ENDBRANCH   6  13
BRANCH   7  15
ATOM     15  O   UNL     1     162.208 145.844 171.275  1.00  0.00    -0.385 OA
ATOM     16  H   UNL     1     162.634 146.742 171.148  1.00  0.00     0.211 HD
ENDBRANCH   7  15
ENDBRANCH   1   2
BRANCH   1  17
ATOM     17  C   UNL     1     159.202 145.416 170.475  1.00  0.00     0.224 C 
ATOM     18  C   UNL     1     158.102 144.988 169.475  1.00  0.00     0.208 C 
ATOM     19  O   UNL     1     160.372 145.381 169.683  1.00  0.00    -0.337 OA
ATOM     20  C   UNL     1     158.592 145.538 168.126  1.00  0.00     0.180 C 
ATOM     21  C   UNL     1     160.051 145.891 168.417  1.00  0.00     0.179 C 
BRANCH  17  22
ATOM     22  C   UNL     1     158.903 146.856 171.040  1.00  0.00     0.225 C 
BRANCH  22  23
ATOM     23  O   UNL     1     159.837 147.836 170.656  1.00  0.00    -0.391 OA
ATOM     24  H   UNL     1     160.511 147.972 171.366  1.00  0.00     0.210 HD
ENDBRANCH  22  23
ENDBRANCH  17  22
BRANCH  18  25
ATOM     25  O   UNL     1     156.798 145.404 169.826  1.00  0.00    -0.385 OA
ATOM     26  H   UNL     1     156.456 145.992 169.096  1.00  0.00     0.211 HD
ENDBRANCH  18  25
BRANCH  20  27
ATOM     27  O   UNL     1     158.489 144.552 167.122  1.00  0.00    -0.387 OA
ATOM     28  H   UNL     1     159.100 143.816 167.360  1.00  0.00     0.211 HD
ENDBRANCH  20  27
BRANCH  21  29
ATOM     29  C   UNL     1     161.096 145.388 167.398  1.00  0.00     0.191 C 
BRANCH  29  30
ATOM     30  O   UNL     1     160.668 145.576 166.085  1.00  0.00    -0.394 OA
ATOM     31  H   UNL     1     160.060 144.812 165.881  1.00  0.00     0.210 HD
ENDBRANCH  29  30
ENDBRANCH  21  29
ENDBRANCH   1  17
TORSDOF 13
ENDMDL
MODEL 7
REMARK VINA RESULT:     5.651     14.098     17.065
REMARK INTER + INTRA:           8.017
REMARK INTER:                   8.133
REMARK INTRA:                  -0.116
REMARK UNBOUND:                -0.607
REMARK SMILES OC[C@@H]1O[C@](CO)(O[C@@H]2O[C@H](CO)[C@H](O)[C@@H](O)[C@H]2O)[C@@H](O)[C@@H]1O
REMARK SMILES IDX 8 1 9 2 11 3 14 4 10 5 16 6 18 7 12 8 13 9 15 11 17 13 19 15
REMARK SMILES IDX 5 17 20 18 4 19 22 20 3 21 6 22 7 23 21 25 23 27 2 29 1 30
REMARK H PARENT 13 10 15 12 17 14 19 16 7 24 21 26 23 28 1 31
REMARK Flexibility Score: inf
ROOT
ATOM      1  O   UNL     1     158.595 147.615 170.799  1.00  0.00    -0.313 OA
ENDROOT
BRANCH   1   2
ATOM      2  C   UNL     1     159.464 146.504 171.103  1.00  0.00     0.285 C 
ATOM      3  C   UNL     1     160.909 145.631 172.735  1.00  0.00     0.178 C 
ATOM      4  C   UNL     1     162.164 145.692 171.822  1.00  0.00     0.177 C 
ATOM      5  O   UNL     1     160.089 146.729 172.373  1.00  0.00    -0.341 OA
ATOM      6  C   UNL     1     161.746 145.272 170.416  1.00  0.00     0.179 C 
ATOM      7  C   UNL     1     160.453 145.996 169.951  1.00  0.00     0.202 C 
BRANCH   3   8
ATOM      8  C   UNL     1     161.172 145.634 174.281  1.00  0.00     0.191 C 
BRANCH   8   9
ATOM      9  O   UNL     1     162.526 145.855 174.568  1.00  0.00    -0.394 OA
ATOM     10  H   UNL     1     162.913 146.366 173.795  1.00  0.00     0.210 HD
ENDBRANCH   8   9
ENDBRANCH   3   8
BRANCH   4  11
ATOM     11  O   UNL     1     162.736 146.970 171.787  1.00  0.00    -0.387 OA
ATOM     12  H   UNL     1     163.702 146.817 171.760  1.00  0.00     0.211 HD
ENDBRANCH   4  11
BRANCH   6  13
ATOM     13  O   UNL     1     161.609 143.875 170.345  1.00  0.00    -0.387 OA
ATOM     14  H   UNL     1     161.862 143.512 171.241  1.00  0.00     0.211 HD
ENDBRANCH   6  13
BRANCH   7  15
ATOM     15  O   UNL     1     159.737 145.255 168.981  1.00  0.00    -0.385 OA
ATOM     16  H   UNL     1     160.404 144.989 168.283  1.00  0.00     0.211 HD
ENDBRANCH   7  15
ENDBRANCH   1   2
BRANCH   1  17
ATOM     17  C   UNL     1     159.116 148.920 170.973  1.00  0.00     0.224 C 
ATOM     18  C   UNL     1     158.003 149.982 170.805  1.00  0.00     0.208 C 
ATOM     19  O   UNL     1     159.974 149.195 169.885  1.00  0.00    -0.337 OA
ATOM     20  C   UNL     1     158.731 151.189 170.194  1.00  0.00     0.180 C 
ATOM     21  C   UNL     1     160.064 150.588 169.748  1.00  0.00     0.179 C 
BRANCH  17  22
ATOM     22  C   UNL     1     159.837 149.094 172.364  1.00  0.00     0.225 C 
BRANCH  22  23
ATOM     23  O   UNL     1     161.240 149.168 172.285  1.00  0.00    -0.391 OA
ATOM     24  H   UNL     1     161.544 149.032 171.354  1.00  0.00     0.210 HD
ENDBRANCH  22  23
ENDBRANCH  17  22
BRANCH  18  25
ATOM     25  O   UNL     1     157.294 150.279 171.991  1.00  0.00    -0.385 OA
ATOM     26  H   UNL     1     157.145 149.423 172.482  1.00  0.00     0.211 HD
ENDBRANCH  18  25
BRANCH  20  27
ATOM     27  O   UNL     1     158.004 151.704 169.099  1.00  0.00    -0.387 OA
ATOM     28  H   UNL     1     157.496 152.486 169.418  1.00  0.00     0.211 HD
ENDBRANCH  20  27
BRANCH  21  29
ATOM     29  C   UNL     1     160.520 150.917 168.310  1.00  0.00     0.191 C 
BRANCH  29  30
ATOM     30  O   UNL     1     159.914 150.082 167.373  1.00  0.00    -0.394 OA
ATOM     31  H   UNL     1     159.322 149.469 167.891  1.00  0.00     0.210 HD
ENDBRANCH  29  30
ENDBRANCH  21  29
ENDBRANCH   1  17
TORSDOF 13
ENDMDL
MODEL 8
REMARK VINA RESULT:     5.694     14.115     16.983
REMARK INTER + INTRA:           8.083
REMARK INTER:                   8.403
REMARK INTRA:                  -0.320
REMARK UNBOUND:                -0.607
REMARK SMILES OC[C@@H]1O[C@](CO)(O[C@@H]2O[C@H](CO)[C@H](O)[C@@H](O)[C@H]2O)[C@@H](O)[C@@H]1O
REMARK SMILES IDX 8 1 9 2 11 3 14 4 10 5 16 6 18 7 12 8 13 9 15 11 17 13 19 15
REMARK SMILES IDX 5 17 20 18 4 19 22 20 3 21 6 22 7 23 21 25 23 27 2 29 1 30
REMARK H PARENT 13 10 15 12 17 14 19 16 7 24 21 26 23 28 1 31
REMARK Flexibility Score: inf
ROOT
ATOM      1  O   UNL     1     159.159 147.270 168.276  1.00  0.00    -0.313 OA
ENDROOT
BRANCH   1   2
ATOM      2  C   UNL     1     159.694 148.327 169.100  1.00  0.00     0.285 C 
ATOM      3  C   UNL     1     160.001 149.013 171.325  1.00  0.00     0.178 C 
ATOM      4  C   UNL     1     159.113 150.279 171.179  1.00  0.00     0.177 C 
ATOM      5  O   UNL     1     159.440 148.024 170.478  1.00  0.00    -0.341 OA
ATOM      6  C   UNL     1     159.394 150.897 169.813  1.00  0.00     0.179 C 
ATOM      7  C   UNL     1     159.368 149.837 168.677  1.00  0.00     0.202 C 
BRANCH   3   8
ATOM      8  C   UNL     1     160.176 148.448 172.777  1.00  0.00     0.191 C 
BRANCH   8   9
ATOM      9  O   UNL     1     160.969 147.292 172.783  1.00  0.00    -0.394 OA
ATOM     10  H   UNL     1     161.580 147.348 171.988  1.00  0.00     0.210 HD
ENDBRANCH   8   9
ENDBRANCH   3   8
BRANCH   4  11
ATOM     11  O   UNL     1     157.749 149.991 171.302  1.00  0.00    -0.387 OA
ATOM     12  H   UNL     1     157.297 150.855 171.224  1.00  0.00     0.211 HD
ENDBRANCH   4  11
BRANCH   6  13
ATOM     13  O   UNL     1     160.610 151.599 169.835  1.00  0.00    -0.387 OA
ATOM     14  H   UNL     1     161.294 151.010 169.406  1.00  0.00     0.211 HD
ENDBRANCH   6  13
BRANCH   7  15
ATOM     15  O   UNL     1     160.157 150.216 167.565  1.00  0.00    -0.385 OA
ATOM     16  H   UNL     1     160.299 149.383 167.026  1.00  0.00     0.211 HD
ENDBRANCH   7  15
ENDBRANCH   1   2
BRANCH   1  17
ATOM     17  C   UNL     1     159.390 145.936 168.690  1.00  0.00     0.224 C 
ATOM     18  C   UNL     1     158.641 145.634 170.010  1.00  0.00     0.208 C 
ATOM     19  O   UNL     1     160.746 145.829 169.071  1.00  0.00    -0.337 OA
ATOM     20  C   UNL     1     159.554 144.631 170.733  1.00  0.00     0.180 C 
ATOM     21  C   UNL     1     160.863 144.742 169.950  1.00  0.00     0.179 C 
BRANCH  17  22
ATOM     22  C   UNL     1     158.994 144.890 167.580  1.00  0.00     0.225 C 
BRANCH  22  23
ATOM     23  O   UNL     1     159.897 144.818 166.502  1.00  0.00    -0.391 OA
ATOM     24  H   UNL     1     159.421 144.915 165.642  1.00  0.00     0.210 HD
ENDBRANCH  22  23
ENDBRANCH  17  22
BRANCH  18  25
ATOM     25  O   UNL     1     157.313 145.182 169.838  1.00  0.00    -0.385 OA
ATOM     26  H   UNL     1     157.147 145.083 168.859  1.00  0.00     0.211 HD
ENDBRANCH  18  25
BRANCH  20  27
ATOM     27  O   UNL     1     159.727 145.004 172.083  1.00  0.00    -0.387 OA
ATOM     28  H   UNL     1     160.300 144.325 172.511  1.00  0.00     0.211 HD
ENDBRANCH  20  27
BRANCH  21  29
ATOM     29  C   UNL     1     162.150 144.912 170.784  1.00  0.00     0.191 C 
BRANCH  29  30
ATOM     30  O   UNL     1     162.464 146.256 170.980  1.00  0.00    -0.394 OA
ATOM     31  H   UNL     1     161.692 146.651 171.472  1.00  0.00     0.210 HD
ENDBRANCH  29  30
ENDBRANCH  21  29
ENDBRANCH   1  17
TORSDOF 13
ENDMDL
