MODEL 1
REMARK VINA RESULT:    -1.862      0.000      0.000
REMARK INTER + INTRA:          -1.862
REMARK INTER:                  -1.862
REMARK INTRA:                   0.000
REMARK UNBOUND:                 0.000
REMARK SMILES CC(=O)[O-]
REMARK SMILES IDX 1 1 2 2 3 3 4 4
REMARK H PARENT
REMARK Flexibility Score: inf
ROOT
ATOM      1  C   UNL     1      -7.822  -9.142  89.583  1.00  0.00     0.063 C 
ATOM      2  C   UNL     1      -8.241 -10.497  89.126  1.00  0.00     0.038 C 
ATOM      3  O   UNL     1      -7.386 -11.309  88.686  1.00  0.00    -0.550 OA
ATOM      4  O   UNL     1      -9.585 -10.849  89.131  1.00  0.00    -0.550 OA
ENDROOT
TORSDOF 0
ENDMDL
MODEL 2
REMARK VINA RESULT:    -1.826     10.813     11.208
REMARK INTER + INTRA:          -1.826
REMARK INTER:                  -1.826
REMARK INTRA:                   0.000
REMARK UNBOUND:                 0.000
REMARK SMILES CC(=O)[O-]
REMARK SMILES IDX 1 1 2 2 3 3 4 4
REMARK H PARENT
REMARK Flexibility Score: inf
ROOT
ATOM      1  C   UNL     1       1.141 -12.417  96.183  1.00  0.00     0.063 C 
ATOM      2  C   UNL     1      -0.299 -12.687  96.457  1.00  0.00     0.038 C 
ATOM      3  O   UNL     1      -1.110 -11.731  96.570  1.00  0.00    -0.550 OA
ATOM      4  O   UNL     1      -0.741 -13.990  96.643  1.00  0.00    -0.550 OA
ENDROOT
TORSDOF 0
ENDMDL
MODEL 3
REMARK VINA RESULT:    -1.816      0.128      1.624
REMARK INTER + INTRA:          -1.816
REMARK INTER:                  -1.816
REMARK INTRA:                   0.000
REMARK UNBOUND:                 0.000
REMARK SMILES CC(=O)[O-]
REMARK SMILES IDX 1 1 2 2 3 3 4 4
REMARK H PARENT
REMARK Flexibility Score: inf
ROOT
ATOM      1  C   UNL     1      -7.834  -9.186  89.577  1.00  0.00     0.063 C 
ATOM      2  C   UNL     1      -8.225 -10.538  89.085  1.00  0.00     0.038 C 
ATOM      3  O   UNL     1      -9.431 -10.896  89.114  1.00  0.00    -0.550 OA
ATOM      4  O   UNL     1      -7.252 -11.426  88.646  1.00  0.00    -0.550 OA
ENDROOT
TORSDOF 0
ENDMDL
MODEL 4
REMARK VINA RESULT:    -1.766      1.433      2.385
REMARK INTER + INTRA:          -1.766
REMARK INTER:                  -1.766
REMARK INTRA:                   0.000
REMARK UNBOUND:                 0.000
REMARK SMILES CC(=O)[O-]
REMARK SMILES IDX 1 1 2 2 3 3 4 4
REMARK H PARENT
REMARK Flexibility Score: inf
ROOT
ATOM      1  C   UNL     1      -8.809 -11.407  88.448  1.00  0.00     0.063 C 
ATOM      2  C   UNL     1      -8.680 -10.250  89.380  1.00  0.00     0.038 C 
ATOM      3  O   UNL     1      -9.596 -10.000  90.207  1.00  0.00    -0.550 OA
ATOM      4  O   UNL     1      -7.575  -9.413  89.302  1.00  0.00    -0.550 OA
ENDROOT
TORSDOF 0
ENDMDL
MODEL 5
REMARK VINA RESULT:    -1.750     10.940     11.092
REMARK INTER + INTRA:          -1.750
REMARK INTER:                  -1.750
REMARK INTRA:                   0.000
REMARK UNBOUND:                 0.000
REMARK SMILES CC(=O)[O-]
REMARK SMILES IDX 1 1 2 2 3 3 4 4
REMARK H PARENT
REMARK Flexibility Score: inf
ROOT
ATOM      1  C   UNL     1      -1.010 -11.575  96.921  1.00  0.00     0.063 C 
ATOM      2  C   UNL     1      -0.254 -12.762  96.429  1.00  0.00     0.038 C 
ATOM      3  O   UNL     1       0.822 -12.608  95.795  1.00  0.00    -0.550 OA
ATOM      4  O   UNL     1      -0.764 -14.040  96.620  1.00  0.00    -0.550 OA
ENDROOT
TORSDOF 0
ENDMDL
MODEL 6
REMARK VINA RESULT:    -1.618      8.093      8.547
REMARK INTER + INTRA:          -1.618
REMARK INTER:                  -1.618
REMARK INTRA:                   0.000
REMARK UNBOUND:                 0.000
REMARK SMILES CC(=O)[O-]
REMARK SMILES IDX 1 1 2 2 3 3 4 4
REMARK H PARENT
REMARK Flexibility Score: inf
ROOT
ATOM      1  C   UNL     1     -11.645 -11.718  95.501  1.00  0.00     0.063 C 
ATOM      2  C   UNL     1     -12.934 -11.265  96.098  1.00  0.00     0.038 C 
ATOM      3  O   UNL     1     -13.151 -11.425  97.328  1.00  0.00    -0.550 OA
ATOM      4  O   UNL     1     -13.921 -10.716  95.291  1.00  0.00    -0.550 OA
ENDROOT
TORSDOF 0
ENDMDL
MODEL 7
REMARK VINA RESULT:    -1.607      8.032      8.514
REMARK INTER + INTRA:          -1.607
REMARK INTER:                  -1.607
REMARK INTRA:                   0.000
REMARK UNBOUND:                 0.000
REMARK SMILES CC(=O)[O-]
REMARK SMILES IDX 1 1 2 2 3 3 4 4
REMARK H PARENT
REMARK Flexibility Score: inf
ROOT
ATOM      1  C   UNL     1     -11.615 -11.722  95.425  1.00  0.00     0.063 C 
ATOM      2  C   UNL     1     -12.937 -11.314  95.981  1.00  0.00     0.038 C 
ATOM      3  O   UNL     1     -13.827 -10.852  95.221  1.00  0.00    -0.550 OA
ATOM      4  O   UNL     1     -13.170 -11.391  97.348  1.00  0.00    -0.550 OA
ENDROOT
TORSDOF 0
ENDMDL
MODEL 8
REMARK VINA RESULT:    -1.602      7.051      7.534
REMARK INTER + INTRA:          -1.602
REMARK INTER:                  -1.602
REMARK INTRA:                   0.000
REMARK UNBOUND:                 0.000
REMARK SMILES CC(=O)[O-]
REMARK SMILES IDX 1 1 2 2 3 3 4 4
REMARK H PARENT
REMARK Flexibility Score: inf
ROOT
ATOM      1  C   UNL     1     -12.806 -11.399  96.162  1.00  0.00     0.063 C 
ATOM      2  C   UNL     1     -12.614 -11.944  94.788  1.00  0.00     0.038 C 
ATOM      3  O   UNL     1     -13.598 -12.063  94.012  1.00  0.00    -0.550 OA
ATOM      4  O   UNL     1     -11.358 -12.372  94.378  1.00  0.00    -0.550 OA
ENDROOT
TORSDOF 0
ENDMDL
MODEL 9
REMARK VINA RESULT:    -1.548      2.271      2.949
REMARK INTER + INTRA:          -1.548
REMARK INTER:                  -1.548
REMARK INTRA:                   0.000
REMARK UNBOUND:                 0.000
REMARK SMILES CC(=O)[O-]
REMARK SMILES IDX 1 1 2 2 3 3 4 4
REMARK H PARENT
REMARK Flexibility Score: inf
ROOT
ATOM      1  C   UNL     1      -7.567  -7.497  91.153  1.00  0.00     0.063 C 
ATOM      2  C   UNL     1      -8.220  -8.187  90.004  1.00  0.00     0.038 C 
ATOM      3  O   UNL     1      -9.361  -7.824  89.615  1.00  0.00    -0.550 OA
ATOM      4  O   UNL     1      -7.596  -9.267  89.395  1.00  0.00    -0.550 OA
ENDROOT
TORSDOF 0
ENDMDL
