MODEL 1
REMARK VINA RESULT:    -6.371      0.000      0.000
REMARK INTER + INTRA:         -15.948
REMARK INTER:                 -13.821
REMARK INTRA:                  -2.127
REMARK UNBOUND:                -2.127
REMARK SMILES CCCCCCCCCCCCCCCCCCCCCC(=O)[O-]
REMARK SMILES IDX 12 1 11 2 10 3 9 4 8 5 7 6 6 7 5 8 4 9 3 10 2 11 1 12 13 13
REMARK SMILES IDX 14 14 15 15 16 16 17 17 18 18 19 19 20 20 21 21 22 22 23 23
REMARK SMILES IDX 24 24
REMARK H PARENT
REMARK Flexibility Score: inf
ROOT
ATOM      1  C   UNL     1       3.116   3.113  16.417  1.00  0.00     0.000 C 
ENDROOT
BRANCH   1   2
ATOM      2  C   UNL     1       2.954   4.405  17.237  1.00  0.00     0.000 C 
BRANCH   2   3
ATOM      3  C   UNL     1       2.856   4.147  18.747  1.00  0.00     0.000 C 
BRANCH   3   4
ATOM      4  C   UNL     1       2.463   5.424  19.499  1.00  0.00    -0.000 C 
BRANCH   4   5
ATOM      5  C   UNL     1       2.146   6.565  18.521  1.00  0.00    -0.000 C 
BRANCH   5   6
ATOM      6  C   UNL     1       2.109   7.943  19.217  1.00  0.00    -0.000 C 
BRANCH   6   7
ATOM      7  C   UNL     1       2.486   9.112  18.290  1.00  0.00    -0.000 C 
BRANCH   7   8
ATOM      8  C   UNL     1       3.911   9.037  17.707  1.00  0.00    -0.000 C 
BRANCH   8   9
ATOM      9  C   UNL     1       3.979   8.756  16.192  1.00  0.00    -0.000 C 
BRANCH   9  10
ATOM     10  C   UNL     1       4.866   7.562  15.785  1.00  0.00    -0.000 C 
BRANCH  10  11
ATOM     11  C   UNL     1       5.248   7.514  14.295  1.00  0.00    -0.003 C 
ATOM     12  C   UNL     1       6.681   7.974  14.032  1.00  0.00     0.004 C 
ENDBRANCH  10  11
ENDBRANCH   9  10
ENDBRANCH   8   9
ENDBRANCH   7   8
ENDBRANCH   6   7
ENDBRANCH   5   6
ENDBRANCH   4   5
ENDBRANCH   3   4
ENDBRANCH   2   3
ENDBRANCH   1   2
BRANCH   1  13
ATOM     13  C   UNL     1       2.749   3.232  14.924  1.00  0.00     0.000 C 
BRANCH  13  14
ATOM     14  C   UNL     1       3.614   4.216  14.112  1.00  0.00     0.000 C 
BRANCH  14  15
ATOM     15  C   UNL     1       4.773   3.571  13.334  1.00  0.00     0.000 C 
BRANCH  15  16
ATOM     16  C   UNL     1       4.572   2.062  13.110  1.00  0.00     0.000 C 
BRANCH  16  17
ATOM     17  C   UNL     1       5.898   1.275  13.205  1.00  0.00     0.000 C 
BRANCH  17  18
ATOM     18  C   UNL     1       5.713  -0.215  13.543  1.00  0.00     0.000 C 
BRANCH  18  19
ATOM     19  C   UNL     1       4.644  -0.457  14.617  1.00  0.00     0.000 C 
BRANCH  19  20
ATOM     20  C   UNL     1       5.283  -0.890  15.944  1.00  0.00     0.006 C 
BRANCH  20  21
ATOM     21  C   UNL     1       4.900   0.037  17.105  1.00  0.00     0.053 C 
BRANCH  21  22
ATOM     22  C   UNL     1       5.264  -0.548  18.436  1.00  0.00     0.041 C 
ATOM     23  O   UNL     1       6.011  -1.560  18.499  1.00  0.00    -0.550 OA
ATOM     24  O   UNL     1       4.757   0.010  19.605  1.00  0.00    -0.550 OA
ENDBRANCH  21  22
ENDBRANCH  20  21
ENDBRANCH  19  20
ENDBRANCH  18  19
ENDBRANCH  17  18
ENDBRANCH  16  17
ENDBRANCH  15  16
ENDBRANCH  14  15
ENDBRANCH  13  14
ENDBRANCH   1  13
TORSDOF 20
ENDMDL
MODEL 2
REMARK VINA RESULT:    -6.306      1.300      3.896
REMARK INTER + INTRA:         -15.806
REMARK INTER:                 -13.369
REMARK INTRA:                  -2.437
REMARK UNBOUND:                -2.127
REMARK SMILES CCCCCCCCCCCCCCCCCCCCCC(=O)[O-]
REMARK SMILES IDX 12 1 11 2 10 3 9 4 8 5 7 6 6 7 5 8 4 9 3 10 2 11 1 12 13 13
REMARK SMILES IDX 14 14 15 15 16 16 17 17 18 18 19 19 20 20 21 21 22 22 23 23
REMARK SMILES IDX 24 24
REMARK H PARENT
REMARK Flexibility Score: inf
ROOT
ATOM      1  C   UNL     1       5.423   8.211  13.923  1.00  0.00     0.000 C 
ENDROOT
BRANCH   1   2
ATOM      2  C   UNL     1       5.624   7.649  15.341  1.00  0.00     0.000 C 
BRANCH   2   3
ATOM      3  C   UNL     1       4.327   7.625  16.164  1.00  0.00     0.000 C 
BRANCH   3   4
ATOM      4  C   UNL     1       3.812   9.046  16.419  1.00  0.00    -0.000 C 
BRANCH   4   5
ATOM      5  C   UNL     1       3.673   9.322  17.924  1.00  0.00    -0.000 C 
BRANCH   5   6
ATOM      6  C   UNL     1       2.199   9.463  18.362  1.00  0.00    -0.000 C 
BRANCH   6   7
ATOM      7  C   UNL     1       1.826   8.578  19.565  1.00  0.00    -0.000 C 
BRANCH   7   8
ATOM      8  C   UNL     1       2.417   7.155  19.526  1.00  0.00    -0.000 C 
BRANCH   8   9
ATOM      9  C   UNL     1       1.777   6.213  18.486  1.00  0.00    -0.000 C 
BRANCH   9  10
ATOM     10  C   UNL     1       2.598   4.953  18.148  1.00  0.00    -0.000 C 
BRANCH  10  11
ATOM     11  C   UNL     1       2.970   4.076  19.357  1.00  0.00    -0.003 C 
ATOM     12  C   UNL     1       2.153   2.788  19.432  1.00  0.00     0.004 C 
ENDBRANCH  10  11
ENDBRANCH   9  10
ENDBRANCH   8   9
ENDBRANCH   7   8
ENDBRANCH   6   7
ENDBRANCH   5   6
ENDBRANCH   4   5
ENDBRANCH   3   4
ENDBRANCH   2   3
ENDBRANCH   1   2
BRANCH   1  13
ATOM     13  C   UNL     1       4.926   7.193  12.877  1.00  0.00     0.000 C 
BRANCH  13  14
ATOM     14  C   UNL     1       5.334   5.729  13.140  1.00  0.00     0.000 C 
BRANCH  14  15
ATOM     15  C   UNL     1       4.162   4.740  13.256  1.00  0.00     0.000 C 
BRANCH  15  16
ATOM     16  C   UNL     1       3.841   4.366  14.715  1.00  0.00     0.000 C 
BRANCH  16  17
ATOM     17  C   UNL     1       3.230   2.953  14.834  1.00  0.00     0.000 C 
BRANCH  17  18
ATOM     18  C   UNL     1       4.160   1.830  14.342  1.00  0.00     0.000 C 
BRANCH  18  19
ATOM     19  C   UNL     1       5.132   1.341  15.424  1.00  0.00     0.000 C 
BRANCH  19  20
ATOM     20  C   UNL     1       4.448   1.292  16.798  1.00  0.00     0.006 C 
BRANCH  20  21
ATOM     21  C   UNL     1       5.310   0.584  17.852  1.00  0.00     0.053 C 
BRANCH  21  22
ATOM     22  C   UNL     1       5.195  -0.907  17.762  1.00  0.00     0.041 C 
ATOM     23  O   UNL     1       6.025  -1.643  18.358  1.00  0.00    -0.550 OA
ATOM     24  O   UNL     1       4.186  -1.483  16.997  1.00  0.00    -0.550 OA
ENDBRANCH  21  22
ENDBRANCH  20  21
ENDBRANCH  19  20
ENDBRANCH  18  19
ENDBRANCH  17  18
ENDBRANCH  16  17
ENDBRANCH  15  16
ENDBRANCH  14  15
ENDBRANCH  13  14
ENDBRANCH   1  13
TORSDOF 20
ENDMDL
MODEL 3
REMARK VINA RESULT:    -6.237      3.066      8.187
REMARK INTER + INTRA:         -15.657
REMARK INTER:                 -13.334
REMARK INTRA:                  -2.323
REMARK UNBOUND:                -2.127
REMARK SMILES CCCCCCCCCCCCCCCCCCCCCC(=O)[O-]
REMARK SMILES IDX 12 1 11 2 10 3 9 4 8 5 7 6 6 7 5 8 4 9 3 10 2 11 1 12 13 13
REMARK SMILES IDX 14 14 15 15 16 16 17 17 18 18 19 19 20 20 21 21 22 22 23 23
REMARK SMILES IDX 24 24
REMARK H PARENT
REMARK Flexibility Score: inf
ROOT
ATOM      1  C   UNL     1       3.239   3.148  17.078  1.00  0.00     0.000 C 
ENDROOT
BRANCH   1   2
ATOM      2  C   UNL     1       3.155   4.278  16.036  1.00  0.00     0.000 C 
BRANCH   2   3
ATOM      3  C   UNL     1       2.933   3.759  14.608  1.00  0.00     0.000 C 
BRANCH   3   4
ATOM      4  C   UNL     1       4.144   4.061  13.718  1.00  0.00    -0.000 C 
BRANCH   4   5
ATOM      5  C   UNL     1       4.683   2.780  13.065  1.00  0.00    -0.000 C 
BRANCH   5   6
ATOM      6  C   UNL     1       4.949   1.662  14.095  1.00  0.00    -0.000 C 
BRANCH   6   7
ATOM      7  C   UNL     1       4.050   0.427  13.911  1.00  0.00    -0.000 C 
BRANCH   7   8
ATOM      8  C   UNL     1       3.262   0.011  15.169  1.00  0.00    -0.000 C 
BRANCH   8   9
ATOM      9  C   UNL     1       3.713  -1.319  15.808  1.00  0.00    -0.000 C 
BRANCH   9  10
ATOM     10  C   UNL     1       4.980  -1.230  16.683  1.00  0.00    -0.000 C 
BRANCH  10  11
ATOM     11  C   UNL     1       5.130   0.079  17.478  1.00  0.00    -0.003 C 
ATOM     12  C   UNL     1       4.726  -0.064  18.944  1.00  0.00     0.004 C 
ENDBRANCH  10  11
ENDBRANCH   9  10
ENDBRANCH   8   9
ENDBRANCH   7   8
ENDBRANCH   6   7
ENDBRANCH   5   6
ENDBRANCH   4   5
ENDBRANCH   3   4
ENDBRANCH   2   3
ENDBRANCH   1   2
BRANCH   1  13
ATOM     13  C   UNL     1       2.377   3.354  18.340  1.00  0.00     0.000 C 
BRANCH  13  14
ATOM     14  C   UNL     1       3.017   4.229  19.437  1.00  0.00     0.000 C 
BRANCH  14  15
ATOM     15  C   UNL     1       2.267   5.536  19.743  1.00  0.00     0.000 C 
BRANCH  15  16
ATOM     16  C   UNL     1       2.259   6.511  18.552  1.00  0.00     0.000 C 
BRANCH  16  17
ATOM     17  C   UNL     1       2.264   7.987  19.005  1.00  0.00     0.000 C 
BRANCH  17  18
ATOM     18  C   UNL     1       2.662   8.976  17.895  1.00  0.00     0.000 C 
BRANCH  18  19
ATOM     19  C   UNL     1       4.121   8.819  17.448  1.00  0.00     0.000 C 
BRANCH  19  20
ATOM     20  C   UNL     1       4.224   8.739  15.918  1.00  0.00     0.006 C 
BRANCH  20  21
ATOM     21  C   UNL     1       5.058   7.538  15.452  1.00  0.00     0.053 C 
BRANCH  21  22
ATOM     22  C   UNL     1       5.648   7.757  14.092  1.00  0.00     0.041 C 
ATOM     23  O   UNL     1       4.903   7.800  13.078  1.00  0.00    -0.550 OA
ATOM     24  O   UNL     1       7.025   7.888  13.944  1.00  0.00    -0.550 OA
ENDBRANCH  21  22
ENDBRANCH  20  21
ENDBRANCH  19  20
ENDBRANCH  18  19
ENDBRANCH  17  18
ENDBRANCH  16  17
ENDBRANCH  15  16
ENDBRANCH  14  15
ENDBRANCH  13  14
ENDBRANCH   1  13
TORSDOF 20
ENDMDL
MODEL 4
REMARK VINA RESULT:    -6.192      3.107      8.279
REMARK INTER + INTRA:         -15.559
REMARK INTER:                 -13.279
REMARK INTRA:                  -2.280
REMARK UNBOUND:                -2.127
REMARK SMILES CCCCCCCCCCCCCCCCCCCCCC(=O)[O-]
REMARK SMILES IDX 12 1 11 2 10 3 9 4 8 5 7 6 6 7 5 8 4 9 3 10 2 11 1 12 13 13
REMARK SMILES IDX 14 14 15 15 16 16 17 17 18 18 19 19 20 20 21 21 22 22 23 23
REMARK SMILES IDX 24 24
REMARK H PARENT
REMARK Flexibility Score: inf
ROOT
ATOM      1  C   UNL     1       3.437   3.242  17.223  1.00  0.00     0.000 C 
ENDROOT
BRANCH   1   2
ATOM      2  C   UNL     1       2.725   4.232  16.284  1.00  0.00     0.000 C 
BRANCH   2   3
ATOM      3  C   UNL     1       3.023   3.969  14.800  1.00  0.00     0.000 C 
BRANCH   3   4
ATOM      4  C   UNL     1       4.291   3.122  14.636  1.00  0.00    -0.000 C 
BRANCH   4   5
ATOM      5  C   UNL     1       4.582   2.846  13.153  1.00  0.00    -0.000 C 
BRANCH   5   6
ATOM      6  C   UNL     1       5.234   1.465  12.930  1.00  0.00    -0.000 C 
BRANCH   6   7
ATOM      7  C   UNL     1       5.999   0.938  14.157  1.00  0.00    -0.000 C 
BRANCH   7   8
ATOM      8  C   UNL     1       5.579  -0.470  14.622  1.00  0.00    -0.000 C 
BRANCH   8   9
ATOM      9  C   UNL     1       4.415  -0.501  15.634  1.00  0.00    -0.000 C 
BRANCH   9  10
ATOM     10  C   UNL     1       3.025  -0.779  15.027  1.00  0.00    -0.000 C 
BRANCH  10  11
ATOM     11  C   UNL     1       2.050   0.412  15.060  1.00  0.00    -0.003 C 
ATOM     12  C   UNL     1       0.611   0.012  14.743  1.00  0.00     0.004 C 
ENDBRANCH  10  11
ENDBRANCH   9  10
ENDBRANCH   8   9
ENDBRANCH   7   8
ENDBRANCH   6   7
ENDBRANCH   5   6
ENDBRANCH   4   5
ENDBRANCH   3   4
ENDBRANCH   2   3
ENDBRANCH   1   2
BRANCH   1  13
ATOM     13  C   UNL     1       3.012   3.321  18.703  1.00  0.00     0.000 C 
BRANCH  13  14
ATOM     14  C   UNL     1       1.896   4.339  19.013  1.00  0.00     0.000 C 
BRANCH  14  15
ATOM     15  C   UNL     1       2.380   5.669  19.613  1.00  0.00     0.000 C 
BRANCH  15  16
ATOM     16  C   UNL     1       2.187   6.859  18.656  1.00  0.00     0.000 C 
BRANCH  16  17
ATOM     17  C   UNL     1       2.131   8.208  19.406  1.00  0.00     0.000 C 
BRANCH  17  18
ATOM     18  C   UNL     1       2.594   9.408  18.561  1.00  0.00     0.000 C 
BRANCH  18  19
ATOM     19  C   UNL     1       3.945   9.170  17.874  1.00  0.00     0.000 C 
BRANCH  19  20
ATOM     20  C   UNL     1       3.761   8.901  16.373  1.00  0.00     0.006 C 
BRANCH  20  21
ATOM     21  C   UNL     1       4.537   7.663  15.904  1.00  0.00     0.053 C 
BRANCH  21  22
ATOM     22  C   UNL     1       5.515   7.991  14.817  1.00  0.00     0.041 C 
ATOM     23  O   UNL     1       6.688   7.535  14.862  1.00  0.00    -0.550 OA
ATOM     24  O   UNL     1       5.138   8.825  13.769  1.00  0.00    -0.550 OA
ENDBRANCH  21  22
ENDBRANCH  20  21
ENDBRANCH  19  20
ENDBRANCH  18  19
ENDBRANCH  17  18
ENDBRANCH  16  17
ENDBRANCH  15  16
ENDBRANCH  14  15
ENDBRANCH  13  14
ENDBRANCH   1  13
TORSDOF 20
ENDMDL
MODEL 5
REMARK VINA RESULT:    -6.159      1.770      7.747
REMARK INTER + INTRA:         -15.487
REMARK INTER:                 -13.761
REMARK INTRA:                  -1.726
REMARK UNBOUND:                -2.127
REMARK SMILES CCCCCCCCCCCCCCCCCCCCCC(=O)[O-]
REMARK SMILES IDX 12 1 11 2 10 3 9 4 8 5 7 6 6 7 5 8 4 9 3 10 2 11 1 12 13 13
REMARK SMILES IDX 14 14 15 15 16 16 17 17 18 18 19 19 20 20 21 21 22 22 23 23
REMARK SMILES IDX 24 24
REMARK H PARENT
REMARK Flexibility Score: inf
ROOT
ATOM      1  C   UNL     1       4.802   5.516  14.245  1.00  0.00     0.000 C 
ENDROOT
BRANCH   1   2
ATOM      2  C   UNL     1       4.172   4.685  13.113  1.00  0.00     0.000 C 
BRANCH   2   3
ATOM      3  C   UNL     1       4.547   3.197  13.183  1.00  0.00     0.000 C 
BRANCH   3   4
ATOM      4  C   UNL     1       4.486   2.683  14.626  1.00  0.00    -0.000 C 
BRANCH   4   5
ATOM      5  C   UNL     1       3.216   1.854  14.864  1.00  0.00    -0.000 C 
BRANCH   5   6
ATOM      6  C   UNL     1       3.269   0.481  14.158  1.00  0.00    -0.000 C 
BRANCH   6   7
ATOM      7  C   UNL     1       2.401  -0.594  14.836  1.00  0.00    -0.000 C 
BRANCH   7   8
ATOM      8  C   UNL     1       3.194  -1.700  15.559  1.00  0.00    -0.000 C 
BRANCH   8   9
ATOM      9  C   UNL     1       4.718  -1.469  15.627  1.00  0.00    -0.000 C 
BRANCH   9  10
ATOM     10  C   UNL     1       5.299  -1.330  17.048  1.00  0.00    -0.000 C 
BRANCH  10  11
ATOM     11  C   UNL     1       4.911  -0.035  17.785  1.00  0.00    -0.003 C 
ATOM     12  C   UNL     1       5.039  -0.152  19.302  1.00  0.00     0.004 C 
ENDBRANCH  10  11
ENDBRANCH   9  10
ENDBRANCH   8   9
ENDBRANCH   7   8
ENDBRANCH   6   7
ENDBRANCH   5   6
ENDBRANCH   4   5
ENDBRANCH   3   4
ENDBRANCH   2   3
ENDBRANCH   1   2
BRANCH   1  13
ATOM     13  C   UNL     1       5.616   6.742  13.784  1.00  0.00     0.000 C 
BRANCH  13  14
ATOM     14  C   UNL     1       5.233   8.076  14.457  1.00  0.00     0.000 C 
BRANCH  14  15
ATOM     15  C   UNL     1       4.868   7.968  15.946  1.00  0.00     0.000 C 
BRANCH  15  16
ATOM     16  C   UNL     1       3.731   8.924  16.350  1.00  0.00     0.000 C 
BRANCH  16  17
ATOM     17  C   UNL     1       3.720   9.211  17.868  1.00  0.00     0.000 C 
BRANCH  17  18
ATOM     18  C   UNL     1       2.317   9.168  18.498  1.00  0.00     0.000 C 
BRANCH  18  19
ATOM     19  C   UNL     1       2.105   7.949  19.406  1.00  0.00     0.000 C 
BRANCH  19  20
ATOM     20  C   UNL     1       2.104   6.648  18.590  1.00  0.00     0.006 C 
BRANCH  20  21
ATOM     21  C   UNL     1       2.244   5.404  19.478  1.00  0.00     0.053 C 
BRANCH  21  22
ATOM     22  C   UNL     1       2.787   4.231  18.720  1.00  0.00     0.041 C 
ATOM     23  O   UNL     1       3.280   3.252  19.338  1.00  0.00    -0.550 OA
ATOM     24  O   UNL     1       2.772   4.233  17.329  1.00  0.00    -0.550 OA
ENDBRANCH  21  22
ENDBRANCH  20  21
ENDBRANCH  19  20
ENDBRANCH  18  19
ENDBRANCH  17  18
ENDBRANCH  16  17
ENDBRANCH  15  16
ENDBRANCH  14  15
ENDBRANCH  13  14
ENDBRANCH   1  13
TORSDOF 20
ENDMDL
MODEL 6
REMARK VINA RESULT:    -6.158      1.187      5.588
REMARK INTER + INTRA:         -15.486
REMARK INTER:                 -13.604
REMARK INTRA:                  -1.882
REMARK UNBOUND:                -2.127
REMARK SMILES CCCCCCCCCCCCCCCCCCCCCC(=O)[O-]
REMARK SMILES IDX 12 1 11 2 10 3 9 4 8 5 7 6 6 7 5 8 4 9 3 10 2 11 1 12 13 13
REMARK SMILES IDX 14 14 15 15 16 16 17 17 18 18 19 19 20 20 21 21 22 22 23 23
REMARK SMILES IDX 24 24
REMARK H PARENT
REMARK Flexibility Score: inf
ROOT
ATOM      1  C   UNL     1       2.982   9.392  18.724  1.00  0.00     0.000 C 
ENDROOT
BRANCH   1   2
ATOM      2  C   UNL     1       3.045   9.320  17.188  1.00  0.00     0.000 C 
BRANCH   2   3
ATOM      3  C   UNL     1       4.149   8.382  16.678  1.00  0.00     0.000 C 
BRANCH   3   4
ATOM      4  C   UNL     1       4.592   8.773  15.263  1.00  0.00    -0.000 C 
BRANCH   4   5
ATOM      5  C   UNL     1       5.626   7.779  14.714  1.00  0.00    -0.000 C 
BRANCH   5   6
ATOM      6  C   UNL     1       5.390   7.449  13.224  1.00  0.00    -0.000 C 
BRANCH   6   7
ATOM      7  C   UNL     1       5.270   5.941  12.939  1.00  0.00    -0.000 C 
BRANCH   7   8
ATOM      8  C   UNL     1       4.643   5.117  14.080  1.00  0.00    -0.000 C 
BRANCH   8   9
ATOM      9  C   UNL     1       3.847   3.877  13.625  1.00  0.00    -0.000 C 
BRANCH   9  10
ATOM     10  C   UNL     1       4.668   2.808  12.875  1.00  0.00    -0.000 C 
BRANCH  10  11
ATOM     11  C   UNL     1       4.705   1.425  13.551  1.00  0.00    -0.003 C 
ATOM     12  C   UNL     1       6.125   0.901  13.755  1.00  0.00     0.004 C 
ENDBRANCH  10  11
ENDBRANCH   9  10
ENDBRANCH   8   9
ENDBRANCH   7   8
ENDBRANCH   6   7
ENDBRANCH   5   6
ENDBRANCH   4   5
ENDBRANCH   3   4
ENDBRANCH   2   3
ENDBRANCH   1   2
BRANCH   1  13
ATOM     13  C   UNL     1       1.875   8.541  19.377  1.00  0.00     0.000 C 
BRANCH  13  14
ATOM     14  C   UNL     1       2.225   7.053  19.582  1.00  0.00     0.000 C 
BRANCH  14  15
ATOM     15  C   UNL     1       1.753   6.115  18.459  1.00  0.00     0.000 C 
BRANCH  15  16
ATOM     16  C   UNL     1       1.564   4.664  18.936  1.00  0.00     0.000 C 
BRANCH  16  17
ATOM     17  C   UNL     1       2.859   4.073  19.536  1.00  0.00     0.000 C 
BRANCH  17  18
ATOM     18  C   UNL     1       3.286   2.739  18.898  1.00  0.00     0.000 C 
BRANCH  18  19
ATOM     19  C   UNL     1       3.456   2.831  17.376  1.00  0.00     0.000 C 
BRANCH  19  20
ATOM     20  C   UNL     1       3.876   1.477  16.784  1.00  0.00     0.006 C 
BRANCH  20  21
ATOM     21  C   UNL     1       5.019   0.827  17.573  1.00  0.00     0.053 C 
BRANCH  21  22
ATOM     22  C   UNL     1       5.016  -0.666  17.440  1.00  0.00     0.041 C 
ATOM     23  O   UNL     1       4.249  -1.226  16.613  1.00  0.00    -0.550 OA
ATOM     24  O   UNL     1       5.841  -1.440  18.250  1.00  0.00    -0.550 OA
ENDBRANCH  21  22
ENDBRANCH  20  21
ENDBRANCH  19  20
ENDBRANCH  18  19
ENDBRANCH  17  18
ENDBRANCH  16  17
ENDBRANCH  15  16
ENDBRANCH  14  15
ENDBRANCH  13  14
ENDBRANCH   1  13
TORSDOF 20
ENDMDL
MODEL 7
REMARK VINA RESULT:    -6.151      1.234      3.572
REMARK INTER + INTRA:         -15.470
REMARK INTER:                 -13.169
REMARK INTRA:                  -2.300
REMARK UNBOUND:                -2.127
REMARK SMILES CCCCCCCCCCCCCCCCCCCCCC(=O)[O-]
REMARK SMILES IDX 12 1 11 2 10 3 9 4 8 5 7 6 6 7 5 8 4 9 3 10 2 11 1 12 13 13
REMARK SMILES IDX 14 14 15 15 16 16 17 17 18 18 19 19 20 20 21 21 22 22 23 23
REMARK SMILES IDX 24 24
REMARK H PARENT
REMARK Flexibility Score: inf
ROOT
ATOM      1  C   UNL     1       3.956   4.797  15.179  1.00  0.00     0.000 C 
ENDROOT
BRANCH   1   2
ATOM      2  C   UNL     1       4.512   5.094  13.775  1.00  0.00     0.000 C 
BRANCH   2   3
ATOM      3  C   UNL     1       5.380   6.360  13.730  1.00  0.00     0.000 C 
BRANCH   3   4
ATOM      4  C   UNL     1       5.443   7.033  15.107  1.00  0.00    -0.000 C 
BRANCH   4   5
ATOM      5  C   UNL     1       4.930   8.479  15.038  1.00  0.00    -0.000 C 
BRANCH   5   6
ATOM      6  C   UNL     1       4.361   8.965  16.389  1.00  0.00    -0.000 C 
BRANCH   6   7
ATOM      7  C   UNL     1       3.369   7.979  17.030  1.00  0.00    -0.000 C 
BRANCH   7   8
ATOM      8  C   UNL     1       2.689   8.494  18.314  1.00  0.00    -0.000 C 
BRANCH   8   9
ATOM      9  C   UNL     1       2.048   7.400  19.193  1.00  0.00    -0.000 C 
BRANCH   9  10
ATOM     10  C   UNL     1       2.261   5.954  18.701  1.00  0.00    -0.000 C 
BRANCH  10  11
ATOM     11  C   UNL     1       2.598   4.935  19.804  1.00  0.00    -0.003 C 
ATOM     12  C   UNL     1       3.035   3.580  19.250  1.00  0.00     0.004 C 
ENDBRANCH  10  11
ENDBRANCH   9  10
ENDBRANCH   8   9
ENDBRANCH   7   8
ENDBRANCH   6   7
ENDBRANCH   5   6
ENDBRANCH   4   5
ENDBRANCH   3   4
ENDBRANCH   2   3
ENDBRANCH   1   2
BRANCH   1  13
ATOM     13  C   UNL     1       2.715   3.883  15.214  1.00  0.00     0.000 C 
BRANCH  13  14
ATOM     14  C   UNL     1       2.952   2.476  15.799  1.00  0.00     0.000 C 
BRANCH  14  15
ATOM     15  C   UNL     1       2.363   1.322  14.971  1.00  0.00     0.000 C 
BRANCH  15  16
ATOM     16  C   UNL     1       3.373   0.732  13.970  1.00  0.00     0.000 C 
BRANCH  16  17
ATOM     17  C   UNL     1       4.830   0.868  14.463  1.00  0.00     0.000 C 
BRANCH  17  18
ATOM     18  C   UNL     1       5.566  -0.476  14.603  1.00  0.00     0.000 C 
BRANCH  18  19
ATOM     19  C   UNL     1       4.648  -1.617  15.060  1.00  0.00     0.000 C 
BRANCH  19  20
ATOM     20  C   UNL     1       4.232  -1.436  16.528  1.00  0.00     0.006 C 
BRANCH  20  21
ATOM     21  C   UNL     1       5.411  -1.617  17.493  1.00  0.00     0.053 C 
BRANCH  21  22
ATOM     22  C   UNL     1       5.503  -0.496  18.484  1.00  0.00     0.041 C 
ATOM     23  O   UNL     1       6.106  -0.664  19.576  1.00  0.00    -0.550 OA
ATOM     24  O   UNL     1       4.898   0.727  18.211  1.00  0.00    -0.550 OA
ENDBRANCH  21  22
ENDBRANCH  20  21
ENDBRANCH  19  20
ENDBRANCH  18  19
ENDBRANCH  17  18
ENDBRANCH  16  17
ENDBRANCH  15  16
ENDBRANCH  14  15
ENDBRANCH  13  14
ENDBRANCH   1  13
TORSDOF 20
ENDMDL
MODEL 8
REMARK VINA RESULT:    -6.134      3.488      7.943
REMARK INTER + INTRA:         -15.433
REMARK INTER:                 -13.389
REMARK INTRA:                  -2.044
REMARK UNBOUND:                -2.127
REMARK SMILES CCCCCCCCCCCCCCCCCCCCCC(=O)[O-]
REMARK SMILES IDX 12 1 11 2 10 3 9 4 8 5 7 6 6 7 5 8 4 9 3 10 2 11 1 12 13 13
REMARK SMILES IDX 14 14 15 15 16 16 17 17 18 18 19 19 20 20 21 21 22 22 23 23
REMARK SMILES IDX 24 24
REMARK H PARENT
REMARK Flexibility Score: inf
ROOT
ATOM      1  C   UNL     1       1.845   4.417  18.914  1.00  0.00     0.000 C 
ENDROOT
BRANCH   1   2
ATOM      2  C   UNL     1       3.005   3.452  18.611  1.00  0.00     0.000 C 
BRANCH   2   3
ATOM      3  C   UNL     1       3.013   2.965  17.154  1.00  0.00     0.000 C 
BRANCH   3   4
ATOM      4  C   UNL     1       3.314   4.118  16.190  1.00  0.00    -0.000 C 
BRANCH   4   5
ATOM      5  C   UNL     1       2.793   3.808  14.779  1.00  0.00    -0.000 C 
BRANCH   5   6
ATOM      6  C   UNL     1       3.780   4.252  13.678  1.00  0.00    -0.000 C 
BRANCH   6   7
ATOM      7  C   UNL     1       4.719   3.129  13.203  1.00  0.00    -0.000 C 
BRANCH   7   8
ATOM      8  C   UNL     1       4.527   1.780  13.924  1.00  0.00    -0.000 C 
BRANCH   8   9
ATOM      9  C   UNL     1       5.740   0.829  13.858  1.00  0.00    -0.000 C 
BRANCH   9  10
ATOM     10  C   UNL     1       5.618  -0.451  14.710  1.00  0.00    -0.000 C 
BRANCH  10  11
ATOM     11  C   UNL     1       4.567  -0.387  15.832  1.00  0.00    -0.003 C 
ATOM     12  C   UNL     1       5.073  -0.956  17.156  1.00  0.00     0.004 C 
ENDBRANCH  10  11
ENDBRANCH   9  10
ENDBRANCH   8   9
ENDBRANCH   7   8
ENDBRANCH   6   7
ENDBRANCH   5   6
ENDBRANCH   4   5
ENDBRANCH   3   4
ENDBRANCH   2   3
ENDBRANCH   1   2
BRANCH   1  13
ATOM     13  C   UNL     1       2.252   5.743  19.588  1.00  0.00     0.000 C 
BRANCH  13  14
ATOM     14  C   UNL     1       2.228   6.981  18.670  1.00  0.00     0.000 C 
BRANCH  14  15
ATOM     15  C   UNL     1       2.200   8.332  19.404  1.00  0.00     0.000 C 
BRANCH  15  16
ATOM     16  C   UNL     1       2.970   9.433  18.654  1.00  0.00     0.000 C 
BRANCH  16  17
ATOM     17  C   UNL     1       3.024   9.175  17.132  1.00  0.00     0.000 C 
BRANCH  17  18
ATOM     18  C   UNL     1       4.419   8.775  16.619  1.00  0.00     0.000 C 
BRANCH  18  19
ATOM     19  C   UNL     1       4.422   7.431  15.879  1.00  0.00     0.000 C 
BRANCH  19  20
ATOM     20  C   UNL     1       5.757   7.203  15.155  1.00  0.00     0.006 C 
BRANCH  20  21
ATOM     21  C   UNL     1       5.639   7.404  13.638  1.00  0.00     0.053 C 
BRANCH  21  22
ATOM     22  C   UNL     1       5.939   8.815  13.234  1.00  0.00     0.041 C 
ATOM     23  O   UNL     1       7.125   9.237  13.241  1.00  0.00    -0.550 OA
ATOM     24  O   UNL     1       4.903   9.673  12.875  1.00  0.00    -0.550 OA
ENDBRANCH  21  22
ENDBRANCH  20  21
ENDBRANCH  19  20
ENDBRANCH  18  19
ENDBRANCH  17  18
ENDBRANCH  16  17
ENDBRANCH  15  16
ENDBRANCH  14  15
ENDBRANCH  13  14
ENDBRANCH   1  13
TORSDOF 20
ENDMDL
MODEL 9
REMARK VINA RESULT:    -6.118      1.187      3.505
REMARK INTER + INTRA:         -15.399
REMARK INTER:                 -13.290
REMARK INTRA:                  -2.109
REMARK UNBOUND:                -2.127
REMARK SMILES CCCCCCCCCCCCCCCCCCCCCC(=O)[O-]
REMARK SMILES IDX 12 1 11 2 10 3 9 4 8 5 7 6 6 7 5 8 4 9 3 10 2 11 1 12 13 13
REMARK SMILES IDX 14 14 15 15 16 16 17 17 18 18 19 19 20 20 21 21 22 22 23 23
REMARK SMILES IDX 24 24
REMARK H PARENT
REMARK Flexibility Score: inf
ROOT
ATOM      1  C   UNL     1       4.086   5.310  15.448  1.00  0.00     0.000 C 
ENDROOT
BRANCH   1   2
ATOM      2  C   UNL     1       4.923   6.037  14.381  1.00  0.00     0.000 C 
BRANCH   2   3
ATOM      3  C   UNL     1       5.759   7.189  14.958  1.00  0.00     0.000 C 
BRANCH   3   4
ATOM      4  C   UNL     1       4.902   8.445  15.155  1.00  0.00    -0.000 C 
BRANCH   4   5
ATOM      5  C   UNL     1       4.665   8.724  16.646  1.00  0.00    -0.000 C 
BRANCH   5   6
ATOM      6  C   UNL     1       3.171   8.935  16.975  1.00  0.00    -0.000 C 
BRANCH   6   7
ATOM      7  C   UNL     1       2.899   9.191  18.468  1.00  0.00    -0.000 C 
BRANCH   7   8
ATOM      8  C   UNL     1       2.211   8.026  19.206  1.00  0.00    -0.000 C 
BRANCH   8   9
ATOM      9  C   UNL     1       2.201   6.687  18.440  1.00  0.00    -0.000 C 
BRANCH   9  10
ATOM     10  C   UNL     1       2.189   5.424  19.326  1.00  0.00    -0.000 C 
BRANCH  10  11
ATOM     11  C   UNL     1       2.299   4.093  18.561  1.00  0.00    -0.003 C 
ATOM     12  C   UNL     1       3.222   3.087  19.246  1.00  0.00     0.004 C 
ENDBRANCH  10  11
ENDBRANCH   9  10
ENDBRANCH   8   9
ENDBRANCH   7   8
ENDBRANCH   6   7
ENDBRANCH   5   6
ENDBRANCH   4   5
ENDBRANCH   3   4
ENDBRANCH   2   3
ENDBRANCH   1   2
BRANCH   1  13
ATOM     13  C   UNL     1       3.448   3.984  14.990  1.00  0.00     0.000 C 
BRANCH  13  14
ATOM     14  C   UNL     1       4.148   3.293  13.802  1.00  0.00     0.000 C 
BRANCH  14  15
ATOM     15  C   UNL     1       4.763   1.920  14.122  1.00  0.00     0.000 C 
BRANCH  15  16
ATOM     16  C   UNL     1       4.300   0.820  13.150  1.00  0.00     0.000 C 
BRANCH  16  17
ATOM     17  C   UNL     1       3.035   0.091  13.654  1.00  0.00     0.000 C 
BRANCH  17  18
ATOM     18  C   UNL     1       2.973  -0.059  15.185  1.00  0.00     0.000 C 
BRANCH  18  19
ATOM     19  C   UNL     1       3.473  -1.424  15.674  1.00  0.00     0.000 C 
BRANCH  19  20
ATOM     20  C   UNL     1       4.961  -1.364  16.051  1.00  0.00     0.006 C 
BRANCH  20  21
ATOM     21  C   UNL     1       5.184  -1.494  17.563  1.00  0.00     0.053 C 
BRANCH  21  22
ATOM     22  C   UNL     1       5.208  -0.160  18.245  1.00  0.00     0.041 C 
ATOM     23  O   UNL     1       5.443   0.885  17.582  1.00  0.00    -0.550 OA
ATOM     24  O   UNL     1       4.998  -0.075  19.617  1.00  0.00    -0.550 OA
ENDBRANCH  21  22
ENDBRANCH  20  21
ENDBRANCH  19  20
ENDBRANCH  18  19
ENDBRANCH  17  18
ENDBRANCH  16  17
ENDBRANCH  15  16
ENDBRANCH  14  15
ENDBRANCH  13  14
ENDBRANCH   1  13
TORSDOF 20
ENDMDL
