MODEL 1
REMARK VINA RESULT:    -3.920      0.000      0.000
REMARK INTER + INTRA:          -5.173
REMARK INTER:                  -4.951
REMARK INTRA:                  -0.222
REMARK UNBOUND:                -0.222
REMARK SMILES CCCCCCO
REMARK SMILES IDX 4 1 3 2 2 3 1 4 5 5 6 6 7 7
REMARK H PARENT 7 8
REMARK Flexibility Score: inf
ROOT
ATOM      1  C   UNL     1      10.226   3.237  -2.436  1.00  0.00     0.002 C 
ENDROOT
BRANCH   1   2
ATOM      2  C   UNL     1      10.104   3.309  -0.906  1.00  0.00    -0.000 C 
BRANCH   2   3
ATOM      3  C   UNL     1       9.106   4.382  -0.443  1.00  0.00    -0.003 C 
ATOM      4  C   UNL     1       8.324   5.001  -1.601  1.00  0.00     0.004 C 
ENDBRANCH   2   3
ENDBRANCH   1   2
BRANCH   1   5
ATOM      5  C   UNL     1      11.630   3.657  -2.895  1.00  0.00     0.028 C 
BRANCH   5   6
ATOM      6  C   UNL     1      11.692   5.143  -3.250  1.00  0.00     0.156 C 
BRANCH   6   7
ATOM      7  O   UNL     1      12.135   5.884  -2.147  1.00  0.00    -0.396 OA
ATOM      8  H   UNL     1      11.714   6.779  -2.231  1.00  0.00     0.210 HD
ENDBRANCH   6   7
ENDBRANCH   5   6
ENDBRANCH   1   5
TORSDOF 5
ENDMDL
MODEL 2
REMARK VINA RESULT:    -3.864      1.435      2.661
REMARK INTER + INTRA:          -5.102
REMARK INTER:                  -4.960
REMARK INTRA:                  -0.142
REMARK UNBOUND:                -0.222
REMARK SMILES CCCCCCO
REMARK SMILES IDX 4 1 3 2 2 3 1 4 5 5 6 6 7 7
REMARK H PARENT 7 8
REMARK Flexibility Score: inf
ROOT
ATOM      1  C   UNL     1      10.108   3.050  -2.194  1.00  0.00     0.002 C 
ENDROOT
BRANCH   1   2
ATOM      2  C   UNL     1      11.123   3.461  -3.272  1.00  0.00    -0.000 C 
BRANCH   2   3
ATOM      3  C   UNL     1      10.504   4.364  -4.351  1.00  0.00    -0.003 C 
ATOM      4  C   UNL     1       8.981   4.255  -4.412  1.00  0.00     0.004 C 
ENDBRANCH   2   3
ENDBRANCH   1   2
BRANCH   1   5
ATOM      5  C   UNL     1      10.535   3.567  -0.813  1.00  0.00     0.028 C 
BRANCH   5   6
ATOM      6  C   UNL     1      10.222   5.053  -0.641  1.00  0.00     0.156 C 
BRANCH   6   7
ATOM      7  O   UNL     1      11.366   5.820  -0.897  1.00  0.00    -0.396 OA
ATOM      8  H   UNL     1      11.303   6.613  -0.303  1.00  0.00     0.210 HD
ENDBRANCH   6   7
ENDBRANCH   5   6
ENDBRANCH   1   5
TORSDOF 5
ENDMDL
MODEL 3
REMARK VINA RESULT:    -3.799      1.618      2.764
REMARK INTER + INTRA:          -5.020
REMARK INTER:                  -4.828
REMARK INTRA:                  -0.193
REMARK UNBOUND:                -0.222
REMARK SMILES CCCCCCO
REMARK SMILES IDX 4 1 3 2 2 3 1 4 5 5 6 6 7 7
REMARK H PARENT 7 8
REMARK Flexibility Score: inf
ROOT
ATOM      1  C   UNL     1      10.086   3.478  -2.513  1.00  0.00     0.002 C 
ENDROOT
BRANCH   1   2
ATOM      2  C   UNL     1       8.879   4.291  -3.004  1.00  0.00    -0.000 C 
BRANCH   2   3
ATOM      3  C   UNL     1       9.080   4.850  -4.422  1.00  0.00    -0.003 C 
ATOM      4  C   UNL     1      10.555   4.995  -4.796  1.00  0.00     0.004 C 
ENDBRANCH   2   3
ENDBRANCH   1   2
BRANCH   1   5
ATOM      5  C   UNL     1      10.335   3.716  -1.017  1.00  0.00     0.028 C 
BRANCH   5   6
ATOM      6  C   UNL     1      10.310   5.204  -0.666  1.00  0.00     0.156 C 
BRANCH   6   7
ATOM      7  O   UNL     1      11.486   5.824  -1.110  1.00  0.00    -0.396 OA
ATOM      8  H   UNL     1      11.292   6.155  -2.025  1.00  0.00     0.210 HD
ENDBRANCH   6   7
ENDBRANCH   5   6
ENDBRANCH   1   5
TORSDOF 5
ENDMDL
MODEL 4
REMARK VINA RESULT:    -3.798      1.602      1.883
REMARK INTER + INTRA:          -5.019
REMARK INTER:                  -4.853
REMARK INTRA:                  -0.166
REMARK UNBOUND:                -0.222
REMARK SMILES CCCCCCO
REMARK SMILES IDX 4 1 3 2 2 3 1 4 5 5 6 6 7 7
REMARK H PARENT 7 8
REMARK Flexibility Score: inf
ROOT
ATOM      1  C   UNL     1      10.225   3.483  -1.092  1.00  0.00     0.002 C 
ENDROOT
BRANCH   1   2
ATOM      2  C   UNL     1       9.072   4.254  -0.431  1.00  0.00    -0.000 C 
BRANCH   2   3
ATOM      3  C   UNL     1       8.299   5.130  -1.429  1.00  0.00    -0.003 C 
ATOM      4  C   UNL     1       8.230   6.595  -1.000  1.00  0.00     0.004 C 
ENDBRANCH   2   3
ENDBRANCH   1   2
BRANCH   1   5
ATOM      5  C   UNL     1      11.233   4.446  -1.734  1.00  0.00     0.028 C 
BRANCH   5   6
ATOM      6  C   UNL     1      11.466   4.123  -3.210  1.00  0.00     0.156 C 
BRANCH   6   7
ATOM      7  O   UNL     1      10.803   2.938  -3.555  1.00  0.00    -0.396 OA
ATOM      8  H   UNL     1      10.045   3.207  -4.137  1.00  0.00     0.210 HD
ENDBRANCH   6   7
ENDBRANCH   5   6
ENDBRANCH   1   5
TORSDOF 5
ENDMDL
MODEL 5
REMARK VINA RESULT:    -3.759      1.901      2.446
REMARK INTER + INTRA:          -4.970
REMARK INTER:                  -4.796
REMARK INTRA:                  -0.174
REMARK UNBOUND:                -0.222
REMARK SMILES CCCCCCO
REMARK SMILES IDX 4 1 3 2 2 3 1 4 5 5 6 6 7 7
REMARK H PARENT 7 8
REMARK Flexibility Score: inf
ROOT
ATOM      1  C   UNL     1       8.612   4.364  -3.100  1.00  0.00     0.002 C 
ENDROOT
BRANCH   1   2
ATOM      2  C   UNL     1       8.636   5.324  -1.901  1.00  0.00    -0.000 C 
BRANCH   2   3
ATOM      3  C   UNL     1       8.890   4.600  -0.570  1.00  0.00    -0.003 C 
ATOM      4  C   UNL     1       9.962   3.516  -0.681  1.00  0.00     0.004 C 
ENDBRANCH   2   3
ENDBRANCH   1   2
BRANCH   1   5
ATOM      5  C   UNL     1       9.231   5.021  -4.342  1.00  0.00     0.028 C 
BRANCH   5   6
ATOM      6  C   UNL     1      10.689   4.604  -4.537  1.00  0.00     0.156 C 
BRANCH   6   7
ATOM      7  O   UNL     1      10.888   3.305  -4.052  1.00  0.00    -0.396 OA
ATOM      8  H   UNL     1      10.613   3.323  -3.098  1.00  0.00     0.210 HD
ENDBRANCH   6   7
ENDBRANCH   5   6
ENDBRANCH   1   5
TORSDOF 5
ENDMDL
MODEL 6
REMARK VINA RESULT:    -3.754      2.257      2.520
REMARK INTER + INTRA:          -4.964
REMARK INTER:                  -4.742
REMARK INTRA:                  -0.222
REMARK UNBOUND:                -0.222
REMARK SMILES CCCCCCO
REMARK SMILES IDX 4 1 3 2 2 3 1 4 5 5 6 6 7 7
REMARK H PARENT 7 8
REMARK Flexibility Score: inf
ROOT
ATOM      1  C   UNL     1      11.156   3.654  -3.340  1.00  0.00     0.002 C 
ENDROOT
BRANCH   1   2
ATOM      2  C   UNL     1      11.193   4.196  -1.903  1.00  0.00    -0.000 C 
BRANCH   2   3
ATOM      3  C   UNL     1      10.131   3.549  -1.000  1.00  0.00    -0.003 C 
ATOM      4  C   UNL     1       8.972   4.492  -0.682  1.00  0.00     0.004 C 
ENDBRANCH   2   3
ENDBRANCH   1   2
BRANCH   1   5
ATOM      5  C   UNL     1      10.661   4.727  -4.320  1.00  0.00     0.028 C 
BRANCH   5   6
ATOM      6  C   UNL     1       9.139   4.712  -4.458  1.00  0.00     0.156 C 
BRANCH   6   7
ATOM      7  O   UNL     1       8.672   3.391  -4.509  1.00  0.00    -0.396 OA
ATOM      8  H   UNL     1       7.686   3.452  -4.597  1.00  0.00     0.210 HD
ENDBRANCH   6   7
ENDBRANCH   5   6
ENDBRANCH   1   5
TORSDOF 5
ENDMDL
MODEL 7
REMARK VINA RESULT:    -3.747      0.708      1.180
REMARK INTER + INTRA:          -4.955
REMARK INTER:                  -4.735
REMARK INTRA:                  -0.220
REMARK UNBOUND:                -0.222
REMARK SMILES CCCCCCO
REMARK SMILES IDX 4 1 3 2 2 3 1 4 5 5 6 6 7 7
REMARK H PARENT 7 8
REMARK Flexibility Score: inf
ROOT
ATOM      1  C   UNL     1      10.135   3.314  -2.365  1.00  0.00     0.002 C 
ENDROOT
BRANCH   1   2
ATOM      2  C   UNL     1       9.123   4.436  -2.638  1.00  0.00    -0.000 C 
BRANCH   2   3
ATOM      3  C   UNL     1       8.342   4.846  -1.379  1.00  0.00    -0.003 C 
ATOM      4  C   UNL     1       9.237   5.457  -0.302  1.00  0.00     0.004 C 
ENDBRANCH   2   3
ENDBRANCH   1   2
BRANCH   1   5
ATOM      5  C   UNL     1      11.521   3.680  -2.915  1.00  0.00     0.028 C 
BRANCH   5   6
ATOM      6  C   UNL     1      11.642   5.177  -3.202  1.00  0.00     0.156 C 
BRANCH   6   7
ATOM      7  O   UNL     1      12.395   5.801  -2.199  1.00  0.00    -0.396 OA
ATOM      8  H   UNL     1      12.900   6.529  -2.648  1.00  0.00     0.210 HD
ENDBRANCH   6   7
ENDBRANCH   5   6
ENDBRANCH   1   5
TORSDOF 5
ENDMDL
MODEL 8
REMARK VINA RESULT:    -3.676      1.832      3.395
REMARK INTER + INTRA:          -4.865
REMARK INTER:                  -4.741
REMARK INTRA:                  -0.125
REMARK UNBOUND:                -0.222
REMARK SMILES CCCCCCO
REMARK SMILES IDX 4 1 3 2 2 3 1 4 5 5 6 6 7 7
REMARK H PARENT 7 8
REMARK Flexibility Score: inf
ROOT
ATOM      1  C   UNL     1       9.861   3.923  -0.965  1.00  0.00     0.002 C 
ENDROOT
BRANCH   1   2
ATOM      2  C   UNL     1      10.624   3.118  -2.027  1.00  0.00    -0.000 C 
BRANCH   2   3
ATOM      3  C   UNL     1      11.189   4.005  -3.148  1.00  0.00    -0.003 C 
ATOM      4  C   UNL     1      12.313   4.921  -2.667  1.00  0.00     0.004 C 
ENDBRANCH   2   3
ENDBRANCH   1   2
BRANCH   1   5
ATOM      5  C   UNL     1       8.675   4.671  -1.589  1.00  0.00     0.028 C 
BRANCH   5   6
ATOM      6  C   UNL     1       8.492   6.059  -0.975  1.00  0.00     0.156 C 
BRANCH   6   7
ATOM      7  O   UNL     1       8.507   5.974   0.423  1.00  0.00    -0.396 OA
ATOM      8  H   UNL     1       9.310   6.477   0.720  1.00  0.00     0.210 HD
ENDBRANCH   6   7
ENDBRANCH   5   6
ENDBRANCH   1   5
TORSDOF 5
ENDMDL
MODEL 9
REMARK VINA RESULT:    -3.644      1.274      2.543
REMARK INTER + INTRA:          -4.825
REMARK INTER:                  -4.587
REMARK INTRA:                  -0.238
REMARK UNBOUND:                -0.222
REMARK SMILES CCCCCCO
REMARK SMILES IDX 4 1 3 2 2 3 1 4 5 5 6 6 7 7
REMARK H PARENT 7 8
REMARK Flexibility Score: inf
ROOT
ATOM      1  C   UNL     1       8.450   5.218  -1.485  1.00  0.00     0.002 C 
ENDROOT
BRANCH   1   2
ATOM      2  C   UNL     1       8.925   4.252  -0.389  1.00  0.00    -0.000 C 
BRANCH   2   3
ATOM      3  C   UNL     1      10.235   3.539  -0.759  1.00  0.00    -0.003 C 
ATOM      4  C   UNL     1      10.270   3.084  -2.217  1.00  0.00     0.004 C 
ENDBRANCH   2   3
ENDBRANCH   1   2
BRANCH   1   5
ATOM      5  C   UNL     1       9.159   6.575  -1.366  1.00  0.00     0.028 C 
BRANCH   5   6
ATOM      6  C   UNL     1       9.943   6.919  -2.632  1.00  0.00     0.156 C 
BRANCH   6   7
ATOM      7  O   UNL     1      11.271   6.488  -2.510  1.00  0.00    -0.396 OA
ATOM      8  H   UNL     1      11.807   7.302  -2.323  1.00  0.00     0.210 HD
ENDBRANCH   6   7
ENDBRANCH   5   6
ENDBRANCH   1   5
TORSDOF 5
ENDMDL
