MODEL 1
REMARK VINA RESULT:    -7.382      0.000      0.000
REMARK INTER + INTRA:         -10.113
REMARK INTER:                  -9.324
REMARK INTRA:                  -0.789
REMARK UNBOUND:                -0.789
REMARK SMILES CC(C)[C@@H](C)C=C[C@@H](C)[C@H]1CC[C@@H]2C3=CC=C4C[C@H](O)CC[C@@]4(C)[C@@H]3CC[C@]21C
REMARK SMILES IDX 8 1 9 2 7 3 6 4 4 5 5 6 2 7 1 8 3 9 10 10 11 11 28 12 12 13
REMARK SMILES IDX 13 14 27 15 29 16 14 17 26 18 25 19 15 20 23 21 16 22 17 23
REMARK SMILES IDX 22 24 24 25 18 26 21 27 19 28 20 29
REMARK H PARENT 20 30
REMARK Flexibility Score: inf
ROOT
ATOM      1  C   UNL     1     147.329 137.837 147.843  1.00  0.00     0.012 C 
ATOM      2  C   UNL     1     146.967 138.706 146.615  1.00  0.00     0.012 C 
ENDROOT
BRANCH   1   3
ATOM      3  C   UNL     1     148.634 138.345 148.425  1.00  0.00    -0.028 C 
ATOM      4  C   UNL     1     149.572 138.948 147.671  1.00  0.00    -0.028 C 
BRANCH   4   5
ATOM      5  C   UNL     1     150.884 139.490 148.218  1.00  0.00     0.011 C 
ATOM      6  C   UNL     1     152.125 138.714 147.725  1.00  0.00     0.012 C 
BRANCH   5   7
ATOM      7  C   UNL     1     150.874 139.574 149.778  1.00  0.00    -0.011 C 
ATOM      8  C   UNL     1     151.737 138.475 150.418  1.00  0.00     0.008 C 
ATOM      9  C   UNL     1     151.286 140.958 150.310  1.00  0.00     0.008 C 
ENDBRANCH   5   7
ENDBRANCH   4   5
ENDBRANCH   1   3
BRANCH   1  10
ATOM     10  C   UNL     1     147.365 136.297 147.511  1.00  0.00     0.002 C 
ATOM     11  C   UNL     1     148.312 135.488 148.456  1.00  0.00     0.005 C 
ATOM     12  C   UNL     1     146.000 135.534 147.622  1.00  0.00    -0.023 C 
ATOM     13  C   UNL     1     147.448 134.513 149.260  1.00  0.00     0.009 C 
ATOM     14  C   UNL     1     146.035 135.034 149.063  1.00  0.00     0.021 C 
ATOM     15  C   UNL     1     144.689 136.344 147.437  1.00  0.00     0.008 C 
ATOM     16  C   UNL     1     146.026 134.360 146.592  1.00  0.00     0.012 C 
ATOM     17  C   UNL     1     144.845 134.164 149.405  1.00  0.00    -0.063 C 
ATOM     18  C   UNL     1     143.445 135.479 147.710  1.00  0.00     0.009 C 
ATOM     19  C   UNL     1     143.478 134.772 149.104  1.00  0.00     0.025 C 
ATOM     20  C   UNL     1     144.954 133.174 150.304  1.00  0.00    -0.000 C 
ATOM     21  C   UNL     1     142.277 133.771 149.332  1.00  0.00    -0.005 C 
ATOM     22  C   UNL     1     143.774 132.594 150.952  1.00  0.00    -0.000 C 
ATOM     23  C   UNL     1     142.521 132.932 150.591  1.00  0.00    -0.061 C 
ATOM     24  C   UNL     1     140.965 134.604 149.497  1.00  0.00     0.014 C 
ATOM     25  C   UNL     1     142.124 132.779 148.146  1.00  0.00     0.017 C 
ATOM     26  C   UNL     1     141.361 132.251 151.282  1.00  0.00     0.063 C 
ATOM     27  C   UNL     1     139.794 133.817 150.099  1.00  0.00     0.033 C 
ATOM     28  C   UNL     1     140.177 133.219 151.452  1.00  0.00     0.118 C 
BRANCH  28  29
ATOM     29  O   UNL     1     139.049 132.581 151.998  1.00  0.00    -0.393 OA
ATOM     30  H   UNL     1     138.480 133.264 152.447  1.00  0.00     0.210 HD
ENDBRANCH  28  29
ENDBRANCH   1  10
TORSDOF 5
ENDMDL
MODEL 2
REMARK VINA RESULT:    -7.173      1.955      4.264
REMARK INTER + INTRA:          -9.850
REMARK INTER:                  -7.698
REMARK INTRA:                  -2.152
REMARK UNBOUND:                -0.789
REMARK SMILES CC(C)[C@@H](C)C=C[C@@H](C)[C@H]1CC[C@@H]2C3=CC=C4C[C@H](O)CC[C@@]4(C)[C@@H]3CC[C@]21C
REMARK SMILES IDX 8 1 9 2 7 3 6 4 4 5 5 6 2 7 1 8 3 9 10 10 11 11 28 12 12 13
REMARK SMILES IDX 13 14 27 15 29 16 14 17 26 18 25 19 15 20 23 21 16 22 17 23
REMARK SMILES IDX 22 24 24 25 18 26 21 27 19 28 20 29
REMARK H PARENT 20 30
REMARK Flexibility Score: inf
ROOT
ATOM      1  C   UNL     1     150.283 139.273 149.035  1.00  0.00     0.012 C 
ATOM      2  C   UNL     1     151.361 140.380 149.119  1.00  0.00     0.012 C 
ENDROOT
BRANCH   1   3
ATOM      3  C   UNL     1     150.827 138.020 149.692  1.00  0.00    -0.028 C 
ATOM      4  C   UNL     1     150.086 137.261 150.522  1.00  0.00    -0.028 C 
BRANCH   4   5
ATOM      5  C   UNL     1     150.586 135.987 151.185  1.00  0.00     0.011 C 
ATOM      6  C   UNL     1     152.125 135.904 151.279  1.00  0.00     0.012 C 
BRANCH   5   7
ATOM      7  C   UNL     1     150.009 134.708 150.499  1.00  0.00    -0.011 C 
ATOM      8  C   UNL     1     148.478 134.762 150.380  1.00  0.00     0.008 C 
ATOM      9  C   UNL     1     150.646 134.419 149.128  1.00  0.00     0.008 C 
ENDBRANCH   5   7
ENDBRANCH   4   5
ENDBRANCH   1   3
BRANCH   1  10
ATOM     10  C   UNL     1     149.779 139.023 147.563  1.00  0.00     0.002 C 
ATOM     11  C   UNL     1     150.631 137.961 146.794  1.00  0.00     0.005 C 
ATOM     12  C   UNL     1     148.312 138.490 147.416  1.00  0.00    -0.023 C 
ATOM     13  C   UNL     1     149.724 136.765 146.490  1.00  0.00     0.009 C 
ATOM     14  C   UNL     1     148.526 136.979 147.401  1.00  0.00     0.021 C 
ATOM     15  C   UNL     1     147.298 138.809 148.547  1.00  0.00     0.008 C 
ATOM     16  C   UNL     1     147.748 139.018 146.058  1.00  0.00     0.012 C 
ATOM     17  C   UNL     1     147.241 136.213 147.166  1.00  0.00    -0.063 C 
ATOM     18  C   UNL     1     145.949 138.102 148.316  1.00  0.00     0.009 C 
ATOM     19  C   UNL     1     146.089 136.559 148.103  1.00  0.00     0.025 C 
ATOM     20  C   UNL     1     147.254 135.034 146.527  1.00  0.00    -0.000 C 
ATOM     21  C   UNL     1     144.729 135.850 147.723  1.00  0.00    -0.005 C 
ATOM     22  C   UNL     1     146.136 134.091 146.637  1.00  0.00    -0.000 C 
ATOM     23  C   UNL     1     144.994 134.408 147.277  1.00  0.00    -0.061 C 
ATOM     24  C   UNL     1     143.802 135.854 148.981  1.00  0.00     0.014 C 
ATOM     25  C   UNL     1     144.018 136.568 146.543  1.00  0.00     0.017 C 
ATOM     26  C   UNL     1     143.874 133.391 147.305  1.00  0.00     0.063 C 
ATOM     27  C   UNL     1     142.621 134.879 148.892  1.00  0.00     0.033 C 
ATOM     28  C   UNL     1     143.107 133.454 148.637  1.00  0.00     0.118 C 
BRANCH  28  29
ATOM     29  O   UNL     1     141.997 132.590 148.647  1.00  0.00    -0.393 OA
ATOM     30  H   UNL     1     141.193 133.105 148.930  1.00  0.00     0.210 HD
ENDBRANCH  28  29
ENDBRANCH   1  10
TORSDOF 5
ENDMDL
MODEL 3
REMARK VINA RESULT:    -7.026      3.073      9.275
REMARK INTER + INTRA:          -9.663
REMARK INTER:                  -8.816
REMARK INTRA:                  -0.847
REMARK UNBOUND:                -0.789
REMARK SMILES CC(C)[C@@H](C)C=C[C@@H](C)[C@H]1CC[C@@H]2C3=CC=C4C[C@H](O)CC[C@@]4(C)[C@@H]3CC[C@]21C
REMARK SMILES IDX 8 1 9 2 7 3 6 4 4 5 5 6 2 7 1 8 3 9 10 10 11 11 28 12 12 13
REMARK SMILES IDX 13 14 27 15 29 16 14 17 26 18 25 19 15 20 23 21 16 22 17 23
REMARK SMILES IDX 22 24 24 25 18 26 21 27 19 28 20 29
REMARK H PARENT 20 30
REMARK Flexibility Score: inf
ROOT
ATOM      1  C   UNL     1     143.565 133.729 149.461  1.00  0.00     0.012 C 
ATOM      2  C   UNL     1     143.635 132.207 149.731  1.00  0.00     0.012 C 
ENDROOT
BRANCH   1   3
ATOM      3  C   UNL     1     142.136 134.190 149.666  1.00  0.00    -0.028 C 
ATOM      4  C   UNL     1     141.168 133.364 150.105  1.00  0.00    -0.028 C 
BRANCH   4   5
ATOM      5  C   UNL     1     139.728 133.791 150.344  1.00  0.00     0.011 C 
ATOM      6  C   UNL     1     139.175 133.354 151.717  1.00  0.00     0.012 C 
BRANCH   5   7
ATOM      7  C   UNL     1     138.782 133.315 149.195  1.00  0.00    -0.011 C 
ATOM      8  C   UNL     1     139.253 131.990 148.575  1.00  0.00     0.008 C 
ATOM      9  C   UNL     1     137.309 133.211 149.631  1.00  0.00     0.008 C 
ENDBRANCH   5   7
ENDBRANCH   4   5
ENDBRANCH   1   3
BRANCH   1  10
ATOM     10  C   UNL     1     144.139 134.124 148.046  1.00  0.00     0.002 C 
ATOM     11  C   UNL     1     143.350 135.291 147.369  1.00  0.00     0.005 C 
ATOM     12  C   UNL     1     145.625 134.622 148.018  1.00  0.00    -0.023 C 
ATOM     13  C   UNL     1     144.303 136.483 147.237  1.00  0.00     0.009 C 
ATOM     14  C   UNL     1     145.454 136.131 148.164  1.00  0.00     0.021 C 
ATOM     15  C   UNL     1     146.580 134.147 149.145  1.00  0.00     0.008 C 
ATOM     16  C   UNL     1     146.232 134.229 146.633  1.00  0.00     0.012 C 
ATOM     17  C   UNL     1     146.768 136.876 148.067  1.00  0.00    -0.063 C 
ATOM     18  C   UNL     1     147.957 134.830 149.048  1.00  0.00     0.009 C 
ATOM     19  C   UNL     1     147.869 136.391 149.004  1.00  0.00     0.025 C 
ATOM     20  C   UNL     1     146.816 138.119 147.564  1.00  0.00    -0.000 C 
ATOM     21  C   UNL     1     149.264 137.093 148.760  1.00  0.00    -0.005 C 
ATOM     22  C   UNL     1     147.954 139.006 147.823  1.00  0.00    -0.000 C 
ATOM     23  C   UNL     1     149.058 138.584 148.468  1.00  0.00    -0.061 C 
ATOM     24  C   UNL     1     150.135 136.920 150.045  1.00  0.00     0.014 C 
ATOM     25  C   UNL     1     150.004 136.487 147.536  1.00  0.00     0.017 C 
ATOM     26  C   UNL     1     150.204 139.554 148.654  1.00  0.00     0.063 C 
ATOM     27  C   UNL     1     151.346 137.859 150.112  1.00  0.00     0.033 C 
ATOM     28  C   UNL     1     150.911 139.319 150.000  1.00  0.00     0.118 C 
BRANCH  28  29
ATOM     29  O   UNL     1     152.044 140.140 150.150  1.00  0.00    -0.393 OA
ATOM     30  H   UNL     1     151.785 141.082 149.954  1.00  0.00     0.210 HD
ENDBRANCH  28  29
ENDBRANCH   1  10
TORSDOF 5
ENDMDL
MODEL 4
REMARK VINA RESULT:    -6.895      3.765      9.436
REMARK INTER + INTRA:          -9.499
REMARK INTER:                  -8.125
REMARK INTRA:                  -1.374
REMARK UNBOUND:                -0.789
REMARK SMILES CC(C)[C@@H](C)C=C[C@@H](C)[C@H]1CC[C@@H]2C3=CC=C4C[C@H](O)CC[C@@]4(C)[C@@H]3CC[C@]21C
REMARK SMILES IDX 8 1 9 2 7 3 6 4 4 5 5 6 2 7 1 8 3 9 10 10 11 11 28 12 12 13
REMARK SMILES IDX 13 14 27 15 29 16 14 17 26 18 25 19 15 20 23 21 16 22 17 23
REMARK SMILES IDX 22 24 24 25 18 26 21 27 19 28 20 29
REMARK H PARENT 20 30
REMARK Flexibility Score: inf
ROOT
ATOM      1  C   UNL     1     137.900 132.961 149.169  1.00  0.00     0.012 C 
ATOM      2  C   UNL     1     136.714 132.790 150.148  1.00  0.00     0.012 C 
ENDROOT
BRANCH   1   3
ATOM      3  C   UNL     1     137.378 132.824 147.752  1.00  0.00    -0.028 C 
ATOM      4  C   UNL     1     137.705 133.693 146.777  1.00  0.00    -0.028 C 
BRANCH   4   5
ATOM      5  C   UNL     1     137.220 133.581 145.340  1.00  0.00     0.011 C 
ATOM      6  C   UNL     1     137.682 132.290 144.631  1.00  0.00     0.012 C 
BRANCH   5   7
ATOM      7  C   UNL     1     137.605 134.838 144.496  1.00  0.00    -0.011 C 
ATOM      8  C   UNL     1     136.739 136.056 144.853  1.00  0.00     0.008 C 
ATOM      9  C   UNL     1     139.099 135.194 144.591  1.00  0.00     0.008 C 
ENDBRANCH   5   7
ENDBRANCH   4   5
ENDBRANCH   1   3
BRANCH   1  10
ATOM     10  C   UNL     1     139.094 131.979 149.478  1.00  0.00     0.002 C 
ATOM     11  C   UNL     1     139.269 130.865 148.396  1.00  0.00     0.005 C 
ATOM     12  C   UNL     1     140.517 132.629 149.568  1.00  0.00    -0.023 C 
ATOM     13  C   UNL     1     140.627 131.077 147.722  1.00  0.00     0.009 C 
ATOM     14  C   UNL     1     141.018 132.487 148.134  1.00  0.00     0.021 C 
ATOM     15  C   UNL     1     140.617 134.129 149.954  1.00  0.00     0.008 C 
ATOM     16  C   UNL     1     141.364 131.784 150.573  1.00  0.00     0.012 C 
ATOM     17  C   UNL     1     142.446 132.963 147.968  1.00  0.00    -0.063 C 
ATOM     18  C   UNL     1     142.066 134.643 149.864  1.00  0.00     0.009 C 
ATOM     19  C   UNL     1     142.731 134.373 148.475  1.00  0.00     0.025 C 
ATOM     20  C   UNL     1     143.253 132.404 147.054  1.00  0.00    -0.000 C 
ATOM     21  C   UNL     1     144.261 134.767 148.422  1.00  0.00    -0.005 C 
ATOM     22  C   UNL     1     144.466 133.082 146.586  1.00  0.00    -0.000 C 
ATOM     23  C   UNL     1     144.897 134.234 147.133  1.00  0.00    -0.061 C 
ATOM     24  C   UNL     1     144.371 136.325 148.462  1.00  0.00     0.014 C 
ATOM     25  C   UNL     1     145.052 134.153 149.609  1.00  0.00     0.017 C 
ATOM     26  C   UNL     1     146.183 134.843 146.619  1.00  0.00     0.063 C 
ATOM     27  C   UNL     1     145.741 136.868 148.036  1.00  0.00     0.033 C 
ATOM     28  C   UNL     1     146.110 136.380 146.636  1.00  0.00     0.118 C 
BRANCH  28  29
ATOM     29  O   UNL     1     147.331 136.969 146.260  1.00  0.00    -0.393 OA
ATOM     30  H   UNL     1     147.720 136.447 145.507  1.00  0.00     0.210 HD
ENDBRANCH  28  29
ENDBRANCH   1  10
TORSDOF 5
ENDMDL
MODEL 5
REMARK VINA RESULT:    -6.876      4.713      7.206
REMARK INTER + INTRA:          -9.474
REMARK INTER:                  -8.379
REMARK INTRA:                  -1.095
REMARK UNBOUND:                -0.789
REMARK SMILES CC(C)[C@@H](C)C=C[C@@H](C)[C@H]1CC[C@@H]2C3=CC=C4C[C@H](O)CC[C@@]4(C)[C@@H]3CC[C@]21C
REMARK SMILES IDX 8 1 9 2 7 3 6 4 4 5 5 6 2 7 1 8 3 9 10 10 11 11 28 12 12 13
REMARK SMILES IDX 13 14 27 15 29 16 14 17 26 18 25 19 15 20 23 21 16 22 17 23
REMARK SMILES IDX 22 24 24 25 18 26 21 27 19 28 20 29
REMARK H PARENT 20 30
REMARK Flexibility Score: inf
ROOT
ATOM      1  C   UNL     1     140.996 139.807 144.201  1.00  0.00     0.012 C 
ATOM      2  C   UNL     1     139.558 139.442 143.763  1.00  0.00     0.012 C 
ENDROOT
BRANCH   1   3
ATOM      3  C   UNL     1     141.181 141.304 144.050  1.00  0.00    -0.028 C 
ATOM      4  C   UNL     1     141.182 142.140 145.105  1.00  0.00    -0.028 C 
BRANCH   4   5
ATOM      5  C   UNL     1     141.384 143.644 145.000  1.00  0.00     0.011 C 
ATOM      6  C   UNL     1     141.013 144.220 143.617  1.00  0.00     0.012 C 
BRANCH   5   7
ATOM      7  C   UNL     1     142.834 144.066 145.399  1.00  0.00    -0.011 C 
ATOM      8  C   UNL     1     143.317 143.338 146.663  1.00  0.00     0.008 C 
ATOM      9  C   UNL     1     143.850 143.890 144.255  1.00  0.00     0.008 C 
ENDBRANCH   5   7
ENDBRANCH   4   5
ENDBRANCH   1   3
BRANCH   1  10
ATOM     10  C   UNL     1     142.097 138.974 143.439  1.00  0.00     0.002 C 
ATOM     11  C   UNL     1     143.403 139.787 143.168  1.00  0.00     0.005 C 
ATOM     12  C   UNL     1     142.613 137.684 144.164  1.00  0.00    -0.023 C 
ATOM     13  C   UNL     1     144.539 139.123 143.952  1.00  0.00     0.009 C 
ATOM     14  C   UNL     1     143.817 138.217 144.935  1.00  0.00     0.021 C 
ATOM     15  C   UNL     1     141.672 136.989 145.185  1.00  0.00     0.008 C 
ATOM     16  C   UNL     1     143.027 136.654 143.066  1.00  0.00     0.012 C 
ATOM     17  C   UNL     1     144.570 137.125 145.663  1.00  0.00    -0.063 C 
ATOM     18  C   UNL     1     142.377 135.825 145.905  1.00  0.00     0.009 C 
ATOM     19  C   UNL     1     143.727 136.239 146.575  1.00  0.00     0.025 C 
ATOM     20  C   UNL     1     145.895 137.218 145.858  1.00  0.00    -0.000 C 
ATOM     21  C   UNL     1     144.526 135.022 147.190  1.00  0.00    -0.005 C 
ATOM     22  C   UNL     1     146.576 136.418 146.880  1.00  0.00    -0.000 C 
ATOM     23  C   UNL     1     145.938 135.465 147.586  1.00  0.00    -0.061 C 
ATOM     24  C   UNL     1     143.756 134.515 148.452  1.00  0.00     0.014 C 
ATOM     25  C   UNL     1     144.681 133.863 146.168  1.00  0.00     0.017 C 
ATOM     26  C   UNL     1     146.729 134.657 148.590  1.00  0.00     0.063 C 
ATOM     27  C   UNL     1     144.586 133.607 149.369  1.00  0.00     0.033 C 
ATOM     28  C   UNL     1     145.868 134.307 149.816  1.00  0.00     0.118 C 
BRANCH  28  29
ATOM     29  O   UNL     1     146.549 133.468 150.717  1.00  0.00    -0.393 OA
ATOM     30  H   UNL     1     146.235 133.668 151.641  1.00  0.00     0.210 HD
ENDBRANCH  28  29
ENDBRANCH   1  10
TORSDOF 5
ENDMDL
MODEL 6
REMARK VINA RESULT:    -6.832      3.799      6.959
REMARK INTER + INTRA:          -9.418
REMARK INTER:                  -7.293
REMARK INTRA:                  -2.125
REMARK UNBOUND:                -0.789
REMARK SMILES CC(C)[C@@H](C)C=C[C@@H](C)[C@H]1CC[C@@H]2C3=CC=C4C[C@H](O)CC[C@@]4(C)[C@@H]3CC[C@]21C
REMARK SMILES IDX 8 1 9 2 7 3 6 4 4 5 5 6 2 7 1 8 3 9 10 10 11 11 28 12 12 13
REMARK SMILES IDX 13 14 27 15 29 16 14 17 26 18 25 19 15 20 23 21 16 22 17 23
REMARK SMILES IDX 22 24 24 25 18 26 21 27 19 28 20 29
REMARK H PARENT 20 30
REMARK Flexibility Score: inf
ROOT
ATOM      1  C   UNL     1     144.523 134.382 149.550  1.00  0.00     0.012 C 
ATOM      2  C   UNL     1     145.875 135.135 149.525  1.00  0.00     0.012 C 
ENDROOT
BRANCH   1   3
ATOM      3  C   UNL     1     144.768 132.968 150.040  1.00  0.00    -0.028 C 
ATOM      4  C   UNL     1     144.023 132.401 151.007  1.00  0.00    -0.028 C 
BRANCH   4   5
ATOM      5  C   UNL     1     144.223 130.980 151.512  1.00  0.00     0.011 C 
ATOM      6  C   UNL     1     145.669 130.466 151.352  1.00  0.00     0.012 C 
BRANCH   5   7
ATOM      7  C   UNL     1     143.212 129.983 150.861  1.00  0.00    -0.011 C 
ATOM      8  C   UNL     1     141.760 130.470 150.993  1.00  0.00     0.008 C 
ATOM      9  C   UNL     1     143.540 129.663 149.392  1.00  0.00     0.008 C 
ENDBRANCH   5   7
ENDBRANCH   4   5
ENDBRANCH   1   3
BRANCH   1  10
ATOM     10  C   UNL     1     143.773 134.429 148.165  1.00  0.00     0.002 C 
ATOM     11  C   UNL     1     144.263 133.333 147.164  1.00  0.00     0.005 C 
ATOM     12  C   UNL     1     142.221 134.212 148.212  1.00  0.00    -0.023 C 
ATOM     13  C   UNL     1     143.091 132.385 146.897  1.00  0.00     0.009 C 
ATOM     14  C   UNL     1     142.107 132.704 148.011  1.00  0.00     0.021 C 
ATOM     15  C   UNL     1     141.469 134.569 149.522  1.00  0.00     0.008 C 
ATOM     16  C   UNL     1     141.593 135.012 147.027  1.00  0.00     0.012 C 
ATOM     17  C   UNL     1     140.670 132.237 147.918  1.00  0.00    -0.063 C 
ATOM     18  C   UNL     1     139.983 134.172 149.450  1.00  0.00     0.009 C 
ATOM     19  C   UNL     1     139.763 132.673 149.065  1.00  0.00     0.025 C 
ATOM     20  C   UNL     1     140.343 131.172 147.172  1.00  0.00    -0.000 C 
ATOM     21  C   UNL     1     138.244 132.294 148.847  1.00  0.00    -0.005 C 
ATOM     22  C   UNL     1     139.079 130.456 147.373  1.00  0.00    -0.000 C 
ATOM     23  C   UNL     1     138.133 130.900 148.222  1.00  0.00    -0.061 C 
ATOM     24  C   UNL     1     137.528 132.311 150.236  1.00  0.00     0.014 C 
ATOM     25  C   UNL     1     137.539 133.284 147.880  1.00  0.00     0.017 C 
ATOM     26  C   UNL     1     136.840 130.122 148.335  1.00  0.00     0.063 C 
ATOM     27  C   UNL     1     136.167 131.603 150.248  1.00  0.00     0.033 C 
ATOM     28  C   UNL     1     136.301 130.156 149.776  1.00  0.00     0.118 C 
BRANCH  28  29
ATOM     29  O   UNL     1     135.047 129.529 149.885  1.00  0.00    -0.393 OA
ATOM     30  H   UNL     1     134.971 129.119 150.789  1.00  0.00     0.210 HD
ENDBRANCH  28  29
ENDBRANCH   1  10
TORSDOF 5
ENDMDL
MODEL 7
REMARK VINA RESULT:    -6.784      3.197      7.956
REMARK INTER + INTRA:          -9.358
REMARK INTER:                  -7.560
REMARK INTRA:                  -1.797
REMARK UNBOUND:                -0.789
REMARK SMILES CC(C)[C@@H](C)C=C[C@@H](C)[C@H]1CC[C@@H]2C3=CC=C4C[C@H](O)CC[C@@]4(C)[C@@H]3CC[C@]21C
REMARK SMILES IDX 8 1 9 2 7 3 6 4 4 5 5 6 2 7 1 8 3 9 10 10 11 11 28 12 12 13
REMARK SMILES IDX 13 14 27 15 29 16 14 17 26 18 25 19 15 20 23 21 16 22 17 23
REMARK SMILES IDX 22 24 24 25 18 26 21 27 19 28 20 29
REMARK H PARENT 20 30
REMARK Flexibility Score: inf
ROOT
ATOM      1  C   UNL     1     141.159 131.850 148.221  1.00  0.00     0.012 C 
ATOM      2  C   UNL     1     139.893 131.005 147.942  1.00  0.00     0.012 C 
ENDROOT
BRANCH   1   3
ATOM      3  C   UNL     1     141.578 131.629 149.661  1.00  0.00    -0.028 C 
ATOM      4  C   UNL     1     142.866 131.478 150.022  1.00  0.00    -0.028 C 
BRANCH   4   5
ATOM      5  C   UNL     1     143.330 131.275 151.456  1.00  0.00     0.011 C 
ATOM      6  C   UNL     1     142.366 131.866 152.506  1.00  0.00     0.012 C 
BRANCH   5   7
ATOM      7  C   UNL     1     144.780 131.810 151.680  1.00  0.00    -0.011 C 
ATOM      8  C   UNL     1     145.809 130.670 151.751  1.00  0.00     0.008 C 
ATOM      9  C   UNL     1     145.207 132.855 150.633  1.00  0.00     0.008 C 
ENDBRANCH   5   7
ENDBRANCH   4   5
ENDBRANCH   1   3
BRANCH   1  10
ATOM     10  C   UNL     1     140.966 133.374 147.867  1.00  0.00     0.002 C 
ATOM     11  C   UNL     1     140.484 134.231 149.082  1.00  0.00     0.005 C 
ATOM     12  C   UNL     1     142.242 134.134 147.366  1.00  0.00    -0.023 C 
ATOM     13  C   UNL     1     141.590 135.238 149.411  1.00  0.00     0.009 C 
ATOM     14  C   UNL     1     142.802 134.700 148.668  1.00  0.00     0.021 C 
ATOM     15  C   UNL     1     143.370 133.309 146.690  1.00  0.00     0.008 C 
ATOM     16  C   UNL     1     141.774 135.259 146.389  1.00  0.00     0.012 C 
ATOM     17  C   UNL     1     144.014 135.579 148.445  1.00  0.00    -0.063 C 
ATOM     18  C   UNL     1     144.603 134.180 146.383  1.00  0.00     0.009 C 
ATOM     19  C   UNL     1     145.141 134.951 147.632  1.00  0.00     0.025 C 
ATOM     20  C   UNL     1     144.272 136.610 149.265  1.00  0.00    -0.000 C 
ATOM     21  C   UNL     1     146.314 135.955 147.296  1.00  0.00    -0.005 C 
ATOM     22  C   UNL     1     145.607 137.214 149.337  1.00  0.00    -0.000 C 
ATOM     23  C   UNL     1     146.601 136.853 148.504  1.00  0.00    -0.061 C 
ATOM     24  C   UNL     1     147.588 135.124 146.938  1.00  0.00     0.014 C 
ATOM     25  C   UNL     1     145.946 136.890 146.111  1.00  0.00     0.017 C 
ATOM     26  C   UNL     1     147.934 137.559 148.620  1.00  0.00     0.063 C 
ATOM     27  C   UNL     1     148.891 135.932 146.964  1.00  0.00     0.033 C 
ATOM     28  C   UNL     1     149.096 136.594 148.325  1.00  0.00     0.118 C 
BRANCH  28  29
ATOM     29  O   UNL     1     150.340 137.251 148.325  1.00  0.00    -0.393 OA
ATOM     30  H   UNL     1     150.595 137.453 147.384  1.00  0.00     0.210 HD
ENDBRANCH  28  29
ENDBRANCH   1  10
TORSDOF 5
ENDMDL
MODEL 8
REMARK VINA RESULT:    -6.781      3.710     10.174
REMARK INTER + INTRA:          -9.355
REMARK INTER:                  -8.457
REMARK INTRA:                  -0.897
REMARK UNBOUND:                -0.789
REMARK SMILES CC(C)[C@@H](C)C=C[C@@H](C)[C@H]1CC[C@@H]2C3=CC=C4C[C@H](O)CC[C@@]4(C)[C@@H]3CC[C@]21C
REMARK SMILES IDX 8 1 9 2 7 3 6 4 4 5 5 6 2 7 1 8 3 9 10 10 11 11 28 12 12 13
REMARK SMILES IDX 13 14 27 15 29 16 14 17 26 18 25 19 15 20 23 21 16 22 17 23
REMARK SMILES IDX 22 24 24 25 18 26 21 27 19 28 20 29
REMARK H PARENT 20 30
REMARK Flexibility Score: inf
ROOT
ATOM      1  C   UNL     1     139.209 132.531 147.576  1.00  0.00     0.012 C 
ATOM      2  C   UNL     1     138.154 133.331 146.774  1.00  0.00     0.012 C 
ENDROOT
BRANCH   1   3
ATOM      3  C   UNL     1     138.672 131.135 147.820  1.00  0.00    -0.028 C 
ATOM      4  C   UNL     1     137.360 130.885 147.985  1.00  0.00    -0.028 C 
BRANCH   4   5
ATOM      5  C   UNL     1     136.779 129.498 148.211  1.00  0.00     0.011 C 
ATOM      6  C   UNL     1     135.928 128.986 147.029  1.00  0.00     0.012 C 
BRANCH   5   7
ATOM      7  C   UNL     1     135.970 129.416 149.545  1.00  0.00    -0.011 C 
ATOM      8  C   UNL     1     136.313 130.574 150.496  1.00  0.00     0.008 C 
ATOM      9  C   UNL     1     134.449 129.334 149.324  1.00  0.00     0.008 C 
ENDBRANCH   5   7
ENDBRANCH   4   5
ENDBRANCH   1   3
BRANCH   1  10
ATOM     10  C   UNL     1     139.646 133.259 148.904  1.00  0.00     0.002 C 
ATOM     11  C   UNL     1     139.958 132.270 150.073  1.00  0.00     0.005 C 
ATOM     12  C   UNL     1     140.941 134.139 148.815  1.00  0.00    -0.023 C 
ATOM     13  C   UNL     1     141.445 132.405 150.415  1.00  0.00     0.009 C 
ATOM     14  C   UNL     1     142.025 133.146 149.223  1.00  0.00     0.021 C 
ATOM     15  C   UNL     1     141.337 134.726 147.434  1.00  0.00     0.008 C 
ATOM     16  C   UNL     1     140.795 135.306 149.844  1.00  0.00     0.012 C 
ATOM     17  C   UNL     1     143.394 133.786 149.313  1.00  0.00    -0.063 C 
ATOM     18  C   UNL     1     142.697 135.446 147.492  1.00  0.00     0.009 C 
ATOM     19  C   UNL     1     143.842 134.557 148.076  1.00  0.00     0.025 C 
ATOM     20  C   UNL     1     144.306 133.333 150.187  1.00  0.00    -0.000 C 
ATOM     21  C   UNL     1     145.205 135.333 148.273  1.00  0.00    -0.005 C 
ATOM     22  C   UNL     1     145.732 133.636 150.031  1.00  0.00    -0.000 C 
ATOM     23  C   UNL     1     146.185 134.478 149.084  1.00  0.00    -0.061 C 
ATOM     24  C   UNL     1     145.807 135.637 146.863  1.00  0.00     0.014 C 
ATOM     25  C   UNL     1     145.001 136.659 149.055  1.00  0.00     0.017 C 
ATOM     26  C   UNL     1     147.668 134.768 149.022  1.00  0.00     0.063 C 
ATOM     27  C   UNL     1     147.289 136.035 146.888  1.00  0.00     0.033 C 
ATOM     28  C   UNL     1     148.132 134.958 147.567  1.00  0.00     0.118 C 
BRANCH  28  29
ATOM     29  O   UNL     1     149.486 135.330 147.490  1.00  0.00    -0.393 OA
ATOM     30  H   UNL     1     149.543 136.322 147.417  1.00  0.00     0.210 HD
ENDBRANCH  28  29
ENDBRANCH   1  10
TORSDOF 5
ENDMDL
MODEL 9
REMARK VINA RESULT:    -6.710      5.039      8.620
REMARK INTER + INTRA:          -9.264
REMARK INTER:                  -8.077
REMARK INTRA:                  -1.187
REMARK UNBOUND:                -0.789
REMARK SMILES CC(C)[C@@H](C)C=C[C@@H](C)[C@H]1CC[C@@H]2C3=CC=C4C[C@H](O)CC[C@@]4(C)[C@@H]3CC[C@]21C
REMARK SMILES IDX 8 1 9 2 7 3 6 4 4 5 5 6 2 7 1 8 3 9 10 10 11 11 28 12 12 13
REMARK SMILES IDX 13 14 27 15 29 16 14 17 26 18 25 19 15 20 23 21 16 22 17 23
REMARK SMILES IDX 22 24 24 25 18 26 21 27 19 28 20 29
REMARK H PARENT 20 30
REMARK Flexibility Score: inf
ROOT
ATOM      1  C   UNL     1     150.692 133.409 154.877  1.00  0.00     0.012 C 
ATOM      2  C   UNL     1     152.125 133.309 155.451  1.00  0.00     0.012 C 
ENDROOT
BRANCH   1   3
ATOM      3  C   UNL     1     149.710 132.992 155.955  1.00  0.00    -0.028 C 
ATOM      4  C   UNL     1     148.602 133.704 156.235  1.00  0.00    -0.028 C 
BRANCH   4   5
ATOM      5  C   UNL     1     147.583 133.310 157.293  1.00  0.00     0.011 C 
ATOM      6  C   UNL     1     147.975 132.045 158.086  1.00  0.00     0.012 C 
BRANCH   5   7
ATOM      7  C   UNL     1     146.149 133.159 156.693  1.00  0.00    -0.011 C 
ATOM      8  C   UNL     1     146.133 132.220 155.476  1.00  0.00     0.008 C 
ATOM      9  C   UNL     1     145.104 132.712 157.731  1.00  0.00     0.008 C 
ENDBRANCH   5   7
ENDBRANCH   4   5
ENDBRANCH   1   3
BRANCH   1  10
ATOM     10  C   UNL     1     150.512 132.597 153.538  1.00  0.00     0.002 C 
ATOM     11  C   UNL     1     149.194 131.758 153.501  1.00  0.00     0.005 C 
ATOM     12  C   UNL     1     150.444 133.443 152.220  1.00  0.00    -0.023 C 
ATOM     13  C   UNL     1     148.315 132.318 152.379  1.00  0.00     0.009 C 
ATOM     14  C   UNL     1     148.943 133.666 152.067  1.00  0.00     0.021 C 
ATOM     15  C   UNL     1     151.130 134.836 152.205  1.00  0.00     0.008 C 
ATOM     16  C   UNL     1     151.030 132.571 151.064  1.00  0.00     0.012 C 
ATOM     17  C   UNL     1     148.592 134.394 150.787  1.00  0.00    -0.063 C 
ATOM     18  C   UNL     1     150.855 135.589 150.891  1.00  0.00     0.009 C 
ATOM     19  C   UNL     1     149.333 135.707 150.553  1.00  0.00     0.025 C 
ATOM     20  C   UNL     1     147.426 134.163 150.165  1.00  0.00    -0.000 C 
ATOM     21  C   UNL     1     149.049 136.350 149.138  1.00  0.00    -0.005 C 
ATOM     22  C   UNL     1     146.879 135.110 149.188  1.00  0.00    -0.000 C 
ATOM     23  C   UNL     1     147.569 136.189 148.774  1.00  0.00    -0.061 C 
ATOM     24  C   UNL     1     149.417 137.868 149.203  1.00  0.00     0.014 C 
ATOM     25  C   UNL     1     149.872 135.657 148.018  1.00  0.00     0.017 C 
ATOM     26  C   UNL     1     146.946 137.090 147.730  1.00  0.00     0.063 C 
ATOM     27  C   UNL     1     148.846 138.701 148.049  1.00  0.00     0.033 C 
ATOM     28  C   UNL     1     147.326 138.561 147.974  1.00  0.00     0.118 C 
BRANCH  28  29
ATOM     29  O   UNL     1     146.845 139.405 146.957  1.00  0.00    -0.393 OA
ATOM     30  H   UNL     1     147.508 140.132 146.803  1.00  0.00     0.210 HD
ENDBRANCH  28  29
ENDBRANCH   1  10
TORSDOF 5
ENDMDL
