MODEL 1
REMARK VINA RESULT:    -2.853      0.000      0.000
REMARK INTER + INTRA:          -1.945
REMARK INTER:                  -4.021
REMARK INTRA:                   2.076
REMARK UNBOUND:                 2.076
REMARK SMILES CC1=CCC(=C(C)C)C(=O)CC(C)=CCC1
REMARK SMILES IDX 12 1 14 2 13 3 15 4 16 5 2 6 1 7 3 8 11 10 9 11 10 12 5 13
REMARK SMILES IDX 6 14 7 15 8 16 4 17
REMARK H PARENT
REMARK Flexibility Score: 60.00
ROOT
ATOM      1  C   UNL     1       9.062 -32.352  16.608  1.00  0.00    -0.070 C 
ATOM      2  C   UNL     1       9.519 -31.701  15.512  1.00  0.00    -0.027 C 
ATOM      3  C   UNL     1       9.285 -31.698  17.950  1.00  0.00     0.039 C 
ENDROOT
BRANCH   2   4
ATOM      4  C   UNL     1       9.313 -32.116  14.076  1.00  0.00     0.032 C 
BRANCH   4   5
ATOM      5  C   UNL     1      10.608 -32.633  13.418  1.00  0.00     0.034 C 
BRANCH   5   6
ATOM      6  C   UNL     1      10.573 -34.132  13.190  1.00  0.00    -0.077 C 
ATOM      7  C   UNL     1      11.882 -34.876  13.112  1.00  0.00     0.039 C 
ATOM      8  C   UNL     1       9.432 -34.839  13.027  1.00  0.00    -0.023 CG0
ATOM      9  G   UNL     1       8.032 -34.273  13.037  1.00  0.00     0.000 G0
ENDBRANCH   5   6
ENDBRANCH   4   5
ENDBRANCH   2   4
BRANCH   1  10
ATOM     10  C   UNL     1       8.287 -33.658  16.553  1.00  0.00     0.111 C 
BRANCH  10  11
ATOM     11  C   UNL     1       7.283 -33.660  15.425  1.00  0.00     0.163 C 
ATOM     12  O   UNL     1       6.366 -32.795  15.446  1.00  0.00    -0.294 OA
BRANCH  11  13
ATOM     13  C   UNL     1       7.322 -34.680  14.331  1.00  0.00    -0.002 C 
ATOM     14  C   UNL     1       6.700 -35.892  14.454  1.00  0.00    -0.069 C 
ATOM     15  C   UNL     1       6.778 -36.932  13.359  1.00  0.00     0.039 C 
ATOM     16  C   UNL     1       5.877 -36.239  15.674  1.00  0.00     0.039 C 
BRANCH  13  17
ATOM     17  C   UNL     1       8.021 -34.283  13.044  1.00  0.00     0.066 CG0
ATOM     18  G   UNL     1       9.428 -34.831  13.034  1.00  0.00     0.000 G0
ENDBRANCH  13  17
ENDBRANCH  11  13
ENDBRANCH  10  11
ENDBRANCH   1  10
TORSDOF 0
ENDMDL
MODEL 2
REMARK VINA RESULT:    -2.203      1.694      4.722
REMARK INTER + INTRA:          -1.028
REMARK INTER:                  -3.938
REMARK INTRA:                   2.911
REMARK UNBOUND:                 2.076
REMARK SMILES CC1=CCC(=C(C)C)C(=O)CC(C)=CCC1
REMARK SMILES IDX 12 1 14 2 13 3 15 4 16 5 2 6 1 7 3 8 11 10 9 11 10 12 5 13
REMARK SMILES IDX 6 14 7 15 8 16 4 17
REMARK H PARENT
REMARK Flexibility Score: 60.00
ROOT
ATOM      1  C   UNL     1      10.543 -34.449  13.393  1.00  0.00    -0.070 C 
ATOM      2  C   UNL     1       9.286 -34.803  13.034  1.00  0.00    -0.027 C 
ATOM      3  C   UNL     1      11.631 -35.485  13.232  1.00  0.00     0.039 C 
ENDROOT
BRANCH   2   4
ATOM      4  C   UNL     1       8.077 -33.901  13.012  1.00  0.00     0.032 C 
BRANCH   4   5
ATOM      5  C   UNL     1       6.887 -34.486  13.798  1.00  0.00     0.034 C 
BRANCH   5   6
ATOM      6  C   UNL     1       7.253 -34.806  15.235  1.00  0.00    -0.077 C 
ATOM      7  C   UNL     1       7.132 -36.233  15.705  1.00  0.00     0.039 C 
ATOM      8  C   UNL     1       7.659 -33.877  16.129  1.00  0.00    -0.023 CG0
ATOM      9  G   UNL     1       7.808 -32.398  15.862  1.00  0.00     0.000 G0
ENDBRANCH   5   6
ENDBRANCH   4   5
ENDBRANCH   2   4
BRANCH   1  10
ATOM     10  C   UNL     1      10.925 -33.061  13.880  1.00  0.00     0.111 C 
BRANCH  10  11
ATOM     11  C   UNL     1       9.705 -32.222  14.173  1.00  0.00     0.163 C 
ATOM     12  O   UNL     1       9.118 -31.670  13.203  1.00  0.00    -0.294 OA
BRANCH  11  13
ATOM     13  C   UNL     1       9.217 -31.993  15.568  1.00  0.00    -0.002 C 
ATOM     14  C   UNL     1      10.001 -31.396  16.516  1.00  0.00    -0.069 C 
ATOM     15  C   UNL     1       9.514 -31.204  17.936  1.00  0.00     0.039 C 
ATOM     16  C   UNL     1      11.378 -30.867  16.186  1.00  0.00     0.039 C 
BRANCH  13  17
ATOM     17  C   UNL     1       7.783 -32.386  15.870  1.00  0.00     0.066 CG0
ATOM     18  G   UNL     1       7.701 -33.872  16.127  1.00  0.00     0.000 G0
ENDBRANCH  13  17
ENDBRANCH  11  13
ENDBRANCH  10  11
ENDBRANCH   1  10
TORSDOF 0
ENDMDL
MODEL 3
REMARK VINA RESULT:    -2.175      1.087      3.730
REMARK INTER + INTRA:          -0.988
REMARK INTER:                  -3.086
REMARK INTRA:                   2.098
REMARK UNBOUND:                 2.076
REMARK SMILES CC1=CCC(=C(C)C)C(=O)CC(C)=CCC1
REMARK SMILES IDX 12 1 14 2 13 3 15 4 16 5 2 6 1 7 3 8 11 10 9 11 10 12 5 13
REMARK SMILES IDX 6 14 7 15 8 16 4 17
REMARK H PARENT
REMARK Flexibility Score: 60.00
ROOT
ATOM      1  C   UNL     1       7.094 -35.390  15.444  1.00  0.00    -0.070 C 
ATOM      2  C   UNL     1       7.181 -35.603  14.109  1.00  0.00    -0.027 C 
ATOM      3  C   UNL     1       6.047 -36.168  16.205  1.00  0.00     0.039 C 
ENDROOT
BRANCH   2   4
ATOM      4  C   UNL     1       8.214 -35.018  13.177  1.00  0.00     0.032 C 
BRANCH   4   5
ATOM      5  C   UNL     1       9.557 -35.772  13.235  1.00  0.00     0.034 C 
BRANCH   5   6
ATOM      6  C   UNL     1      10.743 -34.827  13.225  1.00  0.00    -0.077 C 
ATOM      7  C   UNL     1      12.125 -35.413  13.080  1.00  0.00     0.039 C 
ATOM      8  C   UNL     1      10.635 -33.487  13.366  1.00  0.00    -0.023 CG0
ATOM      9  G   UNL     1       9.349 -32.719  13.558  1.00  0.00     0.000 G0
ENDBRANCH   5   6
ENDBRANCH   4   5
ENDBRANCH   2   4
BRANCH   1  10
ATOM     10  C   UNL     1       8.026 -34.472  16.216  1.00  0.00     0.111 C 
BRANCH  10  11
ATOM     11  C   UNL     1       7.955 -33.053  15.706  1.00  0.00     0.163 C 
ATOM     12  O   UNL     1       6.862 -32.435  15.822  1.00  0.00    -0.294 OA
BRANCH  11  13
ATOM     13  C   UNL     1       9.116 -32.395  15.031  1.00  0.00    -0.002 C 
ATOM     14  C   UNL     1       9.991 -31.598  15.717  1.00  0.00    -0.069 C 
ATOM     15  C   UNL     1      11.140 -30.905  15.018  1.00  0.00     0.039 C 
ATOM     16  C   UNL     1       9.874 -31.398  17.210  1.00  0.00     0.039 C 
BRANCH  13  17
ATOM     17  C   UNL     1       9.328 -32.709  13.561  1.00  0.00     0.066 CG0
ATOM     18  G   UNL     1      10.615 -33.479  13.381  1.00  0.00     0.000 G0
ENDBRANCH  13  17
ENDBRANCH  11  13
ENDBRANCH  10  11
ENDBRANCH   1  10
TORSDOF 0
ENDMDL
MODEL 4
REMARK VINA RESULT:    -1.637      1.339      3.887
REMARK INTER + INTRA:          -0.231
REMARK INTER:                  -2.281
REMARK INTRA:                   2.050
REMARK UNBOUND:                 2.076
REMARK SMILES CC1=CCC(=C(C)C)C(=O)CC(C)=CCC1
REMARK SMILES IDX 12 1 14 2 13 3 15 4 16 5 2 6 1 7 3 8 11 10 9 11 10 12 5 13
REMARK SMILES IDX 6 14 7 15 8 16 4 17
REMARK H PARENT
REMARK Flexibility Score: 60.00
ROOT
ATOM      1  C   UNL     1       6.789 -35.714  14.876  1.00  0.00    -0.070 C 
ATOM      2  C   UNL     1       7.539 -35.887  13.761  1.00  0.00    -0.027 C 
ATOM      3  C   UNL     1       6.058 -36.921  15.417  1.00  0.00     0.039 C 
ENDROOT
BRANCH   2   4
ATOM      4  C   UNL     1       8.428 -34.854  13.115  1.00  0.00     0.032 C 
BRANCH   4   5
ATOM      5  C   UNL     1       9.907 -35.288  13.073  1.00  0.00     0.034 C 
BRANCH   5   6
ATOM      6  C   UNL     1      10.846 -34.153  13.429  1.00  0.00    -0.077 C 
ATOM      7  C   UNL     1      12.321 -34.336  13.173  1.00  0.00     0.039 C 
ATOM      8  C   UNL     1      10.440 -32.991  13.988  1.00  0.00    -0.023 CG0
ATOM      9  G   UNL     1       9.019 -32.635  14.352  1.00  0.00     0.000 G0
ENDBRANCH   5   6
ENDBRANCH   4   5
ENDBRANCH   2   4
BRANCH   1  10
ATOM     10  C   UNL     1       6.698 -34.404  15.639  1.00  0.00     0.111 C 
BRANCH  10  11
ATOM     11  C   UNL     1       8.024 -34.026  16.252  1.00  0.00     0.163 C 
ATOM     12  O   UNL     1       8.487 -34.762  17.165  1.00  0.00    -0.294 OA
BRANCH  11  13
ATOM     13  C   UNL     1       8.763 -32.791  15.843  1.00  0.00    -0.002 C 
ATOM     14  C   UNL     1       9.258 -31.909  16.764  1.00  0.00    -0.069 C 
ATOM     15  C   UNL     1       9.969 -30.643  16.340  1.00  0.00     0.039 C 
ATOM     16  C   UNL     1       9.150 -32.172  18.248  1.00  0.00     0.039 C 
BRANCH  13  17
ATOM     17  C   UNL     1       9.006 -32.593  14.357  1.00  0.00     0.066 CG0
ATOM     18  G   UNL     1      10.423 -32.986  14.013  1.00  0.00     0.000 G0
ENDBRANCH  13  17
ENDBRANCH  11  13
ENDBRANCH  10  11
ENDBRANCH   1  10
TORSDOF 0
ENDMDL
MODEL 5
REMARK VINA RESULT:    -1.542      2.117      4.790
REMARK INTER + INTRA:          -0.097
REMARK INTER:                  -2.246
REMARK INTRA:                   2.148
REMARK UNBOUND:                 2.076
REMARK SMILES CC1=CCC(=C(C)C)C(=O)CC(C)=CCC1
REMARK SMILES IDX 12 1 14 2 13 3 15 4 16 5 2 6 1 7 3 8 11 10 9 11 10 12 5 13
REMARK SMILES IDX 6 14 7 15 8 16 4 17
REMARK H PARENT
REMARK Flexibility Score: 60.00
ROOT
ATOM      1  C   UNL     1       7.708 -32.785  13.194  1.00  0.00    -0.070 C 
ATOM      2  C   UNL     1       6.636 -33.611  13.156  1.00  0.00    -0.027 C 
ATOM      3  C   UNL     1       7.465 -31.318  12.926  1.00  0.00     0.039 C 
ENDROOT
BRANCH   2   4
ATOM      4  C   UNL     1       6.631 -35.082  13.494  1.00  0.00     0.032 C 
BRANCH   4   5
ATOM      5  C   UNL     1       5.951 -35.378  14.845  1.00  0.00     0.034 C 
BRANCH   5   6
ATOM      6  C   UNL     1       6.956 -35.530  15.970  1.00  0.00    -0.077 C 
ATOM      7  C   UNL     1       7.171 -36.901  16.559  1.00  0.00     0.039 C 
ATOM      8  C   UNL     1       7.655 -34.498  16.494  1.00  0.00    -0.023 CG0
ATOM      9  G   UNL     1       7.554 -33.054  16.067  1.00  0.00     0.000 G0
ENDBRANCH   5   6
ENDBRANCH   4   5
ENDBRANCH   2   4
BRANCH   1  10
ATOM     10  C   UNL     1       9.114 -33.238  13.552  1.00  0.00     0.111 C 
BRANCH  10  11
ATOM     11  C   UNL     1       9.658 -32.475  14.735  1.00  0.00     0.163 C 
ATOM     12  O   UNL     1      10.800 -31.951  14.628  1.00  0.00    -0.294 OA
BRANCH  11  13
ATOM     13  C   UNL     1       8.907 -32.373  16.025  1.00  0.00    -0.002 C 
ATOM     14  C   UNL     1       9.393 -31.661  17.087  1.00  0.00    -0.069 C 
ATOM     15  C   UNL     1       8.646 -31.596  18.400  1.00  0.00     0.039 C 
ATOM     16  C   UNL     1      10.682 -30.877  16.990  1.00  0.00     0.039 C 
BRANCH  13  17
ATOM     17  C   UNL     1       7.542 -33.034  16.082  1.00  0.00     0.066 CG0
ATOM     18  G   UNL     1       7.687 -34.475  16.509  1.00  0.00     0.000 G0
ENDBRANCH  13  17
ENDBRANCH  11  13
ENDBRANCH  10  11
ENDBRANCH   1  10
TORSDOF 0
ENDMDL
MODEL 6
REMARK VINA RESULT:    -1.249      1.332      3.930
REMARK INTER + INTRA:           0.317
REMARK INTER:                  -2.505
REMARK INTRA:                   2.822
REMARK UNBOUND:                 2.076
REMARK SMILES CC1=CCC(=C(C)C)C(=O)CC(C)=CCC1
REMARK SMILES IDX 12 1 14 2 13 3 15 4 16 5 2 6 1 7 3 8 11 10 9 11 10 12 5 13
REMARK SMILES IDX 6 14 7 15 8 16 4 17
REMARK H PARENT
REMARK Flexibility Score: 60.00
ROOT
ATOM      1  C   UNL     1       8.875 -31.947  17.520  1.00  0.00    -0.070 C 
ATOM      2  C   UNL     1       8.207 -33.125  17.529  1.00  0.00    -0.027 C 
ATOM      3  C   UNL     1       8.624 -30.995  18.666  1.00  0.00     0.039 C 
ENDROOT
BRANCH   2   4
ATOM      4  C   UNL     1       8.382 -34.258  16.549  1.00  0.00     0.032 C 
BRANCH   4   5
ATOM      5  C   UNL     1       7.061 -34.654  15.859  1.00  0.00     0.034 C 
BRANCH   5   6
ATOM      6  C   UNL     1       7.153 -34.554  14.349  1.00  0.00    -0.077 C 
ATOM      7  C   UNL     1       5.876 -34.596  13.549  1.00  0.00     0.039 C 
ATOM      8  C   UNL     1       8.321 -34.454  13.674  1.00  0.00    -0.023 CG0
ATOM      9  G   UNL     1       9.699 -34.432  14.290  1.00  0.00     0.000 G0
ENDBRANCH   5   6
ENDBRANCH   4   5
ENDBRANCH   2   4
BRANCH   1  10
ATOM     10  C   UNL     1       9.900 -31.564  16.465  1.00  0.00     0.111 C 
BRANCH  10  11
ATOM     11  C   UNL     1       9.473 -32.012  15.089  1.00  0.00     0.163 C 
ATOM     12  O   UNL     1       8.397 -31.548  14.621  1.00  0.00    -0.294 OA
BRANCH  11  13
ATOM     13  C   UNL     1      10.257 -33.014  14.302  1.00  0.00    -0.002 C 
ATOM     14  C   UNL     1      11.443 -32.690  13.702  1.00  0.00    -0.069 C 
ATOM     15  C   UNL     1      12.210 -33.699  12.876  1.00  0.00     0.039 C 
ATOM     16  C   UNL     1      12.062 -31.321  13.862  1.00  0.00     0.039 C 
BRANCH  13  17
ATOM     17  C   UNL     1       9.718 -34.432  14.260  1.00  0.00     0.066 CG0
ATOM     18  G   UNL     1       8.323 -34.434  13.681  1.00  0.00     0.000 G0
ENDBRANCH  13  17
ENDBRANCH  11  13
ENDBRANCH  10  11
ENDBRANCH   1  10
TORSDOF 0
ENDMDL
MODEL 7
REMARK VINA RESULT:    -1.181      1.482      2.490
REMARK INTER + INTRA:           0.411
REMARK INTER:                  -0.442
REMARK INTRA:                   0.853
REMARK UNBOUND:                 2.076
REMARK SMILES CC1=CCC(=C(C)C)C(=O)CC(C)=CCC1
REMARK SMILES IDX 12 1 14 2 13 3 15 4 16 5 2 6 1 7 3 8 11 10 9 11 10 12 5 13
REMARK SMILES IDX 6 14 7 15 8 16 4 17
REMARK H PARENT
REMARK Flexibility Score: 60.00
ROOT
ATOM      1  C   UNL     1       8.016 -33.684  16.365  1.00  0.00    -0.070 C 
ATOM      2  C   UNL     1       9.022 -32.818  16.631  1.00  0.00    -0.027 C 
ATOM      3  C   UNL     1       7.800 -34.819  17.339  1.00  0.00     0.039 C 
ENDROOT
BRANCH   2   4
ATOM      4  C   UNL     1       9.348 -31.563  15.858  1.00  0.00     0.032 C 
BRANCH   4   5
ATOM      5  C   UNL     1      10.763 -31.594  15.248  1.00  0.00     0.034 C 
BRANCH   5   6
ATOM      6  C   UNL     1      10.731 -31.710  13.736  1.00  0.00    -0.077 C 
ATOM      7  C   UNL     1      10.917 -30.457  12.918  1.00  0.00     0.039 C 
ATOM      8  C   UNL     1      10.519 -32.871  13.078  1.00  0.00    -0.023 CG0
ATOM      9  G   UNL     1      10.277 -34.218  13.716  1.00  0.00     0.000 G0
ENDBRANCH   5   6
ENDBRANCH   4   5
ENDBRANCH   2   4
BRANCH   1  10
ATOM     10  C   UNL     1       7.063 -33.539  15.191  1.00  0.00     0.111 C 
BRANCH  10  11
ATOM     11  C   UNL     1       7.794 -33.604  13.872  1.00  0.00     0.163 C 
ATOM     12  O   UNL     1       7.481 -32.772  12.978  1.00  0.00    -0.294 OA
BRANCH  11  13
ATOM     13  C   UNL     1       8.828 -34.648  13.590  1.00  0.00    -0.002 C 
ATOM     14  C   UNL     1       8.487 -35.904  13.169  1.00  0.00    -0.069 C 
ATOM     15  C   UNL     1       9.537 -36.966  12.924  1.00  0.00     0.039 C 
ATOM     16  C   UNL     1       7.050 -36.284  12.895  1.00  0.00     0.039 C 
BRANCH  13  17
ATOM     17  C   UNL     1      10.282 -34.232  13.719  1.00  0.00     0.066 CG0
ATOM     18  G   UNL     1      10.489 -32.883  13.072  1.00  0.00     0.000 G0
ENDBRANCH  13  17
ENDBRANCH  11  13
ENDBRANCH  10  11
ENDBRANCH   1  10
TORSDOF 0
ENDMDL
MODEL 8
REMARK VINA RESULT:    -1.178      2.442      4.288
REMARK INTER + INTRA:           0.416
REMARK INTER:                  -1.182
REMARK INTRA:                   1.597
REMARK UNBOUND:                 2.076
REMARK SMILES CC1=CCC(=C(C)C)C(=O)CC(C)=CCC1
REMARK SMILES IDX 12 1 14 2 13 3 15 4 16 5 2 6 1 7 3 8 11 10 9 11 10 12 5 13
REMARK SMILES IDX 6 14 7 15 8 16 4 17
REMARK H PARENT
REMARK Flexibility Score: 60.00
ROOT
ATOM      1  C   UNL     1      11.819 -31.329  14.886  1.00  0.00    -0.070 C 
ATOM      2  C   UNL     1      11.516 -30.347  15.767  1.00  0.00    -0.027 C 
ATOM      3  C   UNL     1      13.093 -31.179  14.088  1.00  0.00     0.039 C 
ENDROOT
BRANCH   2   4
ATOM      4  C   UNL     1      10.358 -30.343  16.735  1.00  0.00     0.032 C 
BRANCH   4   5
ATOM      5  C   UNL     1      10.309 -31.614  17.605  1.00  0.00     0.034 C 
BRANCH   5   6
ATOM      6  C   UNL     1       8.890 -31.990  17.988  1.00  0.00    -0.077 C 
ATOM      7  C   UNL     1       8.286 -31.349  19.212  1.00  0.00     0.039 C 
ATOM      8  C   UNL     1       8.143 -32.888  17.308  1.00  0.00    -0.023 CG0
ATOM      9  G   UNL     1       8.582 -33.658  16.086  1.00  0.00     0.000 G0
ENDBRANCH   5   6
ENDBRANCH   4   5
ENDBRANCH   2   4
BRANCH   1  10
ATOM     10  C   UNL     1      10.991 -32.591  14.707  1.00  0.00     0.111 C 
BRANCH  10  11
ATOM     11  C   UNL     1       9.604 -32.277  14.201  1.00  0.00     0.163 C 
ATOM     12  O   UNL     1       9.490 -31.445  13.260  1.00  0.00    -0.294 OA
BRANCH  11  13
ATOM     13  C   UNL     1       8.381 -32.882  14.815  1.00  0.00    -0.002 C 
ATOM     14  C   UNL     1       7.152 -32.777  14.224  1.00  0.00    -0.069 C 
ATOM     15  C   UNL     1       5.914 -33.358  14.872  1.00  0.00     0.039 C 
ATOM     16  C   UNL     1       6.974 -32.107  12.881  1.00  0.00     0.039 C 
BRANCH  13  17
ATOM     17  C   UNL     1       8.574 -33.684  16.089  1.00  0.00     0.066 CG0
ATOM     18  G   UNL     1       8.140 -32.866  17.281  1.00  0.00     0.000 G0
ENDBRANCH  13  17
ENDBRANCH  11  13
ENDBRANCH  10  11
ENDBRANCH   1  10
TORSDOF 0
ENDMDL
MODEL 9
REMARK VINA RESULT:    -0.979      1.911      4.474
REMARK INTER + INTRA:           0.697
REMARK INTER:                  -0.426
REMARK INTRA:                   1.123
REMARK UNBOUND:                 2.076
REMARK SMILES CC1=CCC(=C(C)C)C(=O)CC(C)=CCC1
REMARK SMILES IDX 12 1 14 2 13 3 15 4 16 5 2 6 1 7 3 8 11 10 9 11 10 12 5 13
REMARK SMILES IDX 6 14 7 15 8 16 4 17
REMARK H PARENT
REMARK Flexibility Score: 60.00
ROOT
ATOM      1  C   UNL     1      10.028 -32.757  13.659  1.00  0.00    -0.070 C 
ATOM      2  C   UNL     1       9.346 -33.747  13.037  1.00  0.00    -0.027 C 
ATOM      3  C   UNL     1      10.263 -31.481  12.885  1.00  0.00     0.039 C 
ENDROOT
BRANCH   2   4
ATOM      4  C   UNL     1       8.910 -35.054  13.653  1.00  0.00     0.032 C 
BRANCH   4   5
ATOM      5  C   UNL     1       7.379 -35.161  13.793  1.00  0.00     0.034 C 
BRANCH   5   6
ATOM      6  C   UNL     1       6.747 -33.839  14.183  1.00  0.00    -0.077 C 
ATOM      7  C   UNL     1       5.886 -33.129  13.170  1.00  0.00     0.039 C 
ATOM      8  C   UNL     1       6.933 -33.244  15.384  1.00  0.00    -0.023 CG0
ATOM      9  G   UNL     1       7.785 -33.777  16.511  1.00  0.00     0.000 G0
ENDBRANCH   5   6
ENDBRANCH   4   5
ENDBRANCH   2   4
BRANCH   1  10
ATOM     10  C   UNL     1      10.504 -32.834  15.100  1.00  0.00     0.111 C 
BRANCH  10  11
ATOM     11  C   UNL     1       9.624 -32.021  16.019  1.00  0.00     0.163 C 
ATOM     12  O   UNL     1       9.702 -30.764  15.956  1.00  0.00    -0.294 OA
BRANCH  11  13
ATOM     13  C   UNL     1       8.717 -32.663  17.020  1.00  0.00    -0.002 C 
ATOM     14  C   UNL     1       8.668 -32.244  18.321  1.00  0.00    -0.069 C 
ATOM     15  C   UNL     1       7.776 -32.926  19.335  1.00  0.00     0.039 C 
ATOM     16  C   UNL     1       9.476 -31.061  18.802  1.00  0.00     0.039 C 
BRANCH  13  17
ATOM     17  C   UNL     1       7.793 -33.755  16.512  1.00  0.00     0.066 CG0
ATOM     18  G   UNL     1       6.937 -33.222  15.388  1.00  0.00     0.000 G0
ENDBRANCH  13  17
ENDBRANCH  11  13
ENDBRANCH  10  11
ENDBRANCH   1  10
TORSDOF 0
ENDMDL
