MODEL 1
REMARK VINA RESULT:    -4.221      0.000      0.000
REMARK INTER + INTRA:          -7.257
REMARK INTER:                  -6.442
REMARK INTRA:                  -0.815
REMARK UNBOUND:                -0.815
REMARK SMILES CCCCCCCCCCC(=O)[O-]
REMARK SMILES IDX 7 1 8 2 9 3 10 4 11 5 12 6 13 7 6 8 5 9 4 10 3 11 2 12 1 13
REMARK H PARENT
REMARK Flexibility Score: inf
ROOT
ATOM      1  C   UNL     1       2.137  49.205  21.651  1.00  0.00     0.000 C 
ENDROOT
BRANCH   1   2
ATOM      2  C   UNL     1       1.149  48.030  21.573  1.00  0.00     0.000 C 
BRANCH   2   3
ATOM      3  C   UNL     1       0.239  47.938  22.806  1.00  0.00     0.006 C 
BRANCH   3   4
ATOM      4  C   UNL     1      -0.487  46.591  22.852  1.00  0.00     0.053 C 
BRANCH   4   5
ATOM      5  C   UNL     1      -0.806  46.214  24.264  1.00  0.00     0.041 C 
ATOM      6  O   UNL     1       0.021  46.449  25.184  1.00  0.00    -0.550 OA
ATOM      7  O   UNL     1      -1.995  45.558  24.557  1.00  0.00    -0.550 OA
ENDBRANCH   4   5
ENDBRANCH   3   4
ENDBRANCH   2   3
ENDBRANCH   1   2
BRANCH   1   8
ATOM      8  C   UNL     1       1.435  50.571  21.646  1.00  0.00     0.000 C 
BRANCH   8   9
ATOM      9  C   UNL     1       2.100  51.531  22.646  1.00  0.00    -0.000 C 
BRANCH   9  10
ATOM     10  C   UNL     1       1.587  51.345  24.084  1.00  0.00    -0.000 C 
BRANCH  10  11
ATOM     11  C   UNL     1       2.578  50.656  25.042  1.00  0.00    -0.000 C 
BRANCH  11  12
ATOM     12  C   UNL     1       2.010  49.392  25.722  1.00  0.00    -0.003 C 
ATOM     13  C   UNL     1       3.027  48.714  26.638  1.00  0.00     0.004 C 
ENDBRANCH  11  12
ENDBRANCH  10  11
ENDBRANCH   9  10
ENDBRANCH   8   9
ENDBRANCH   1   8
TORSDOF 9
ENDMDL
MODEL 2
REMARK VINA RESULT:    -4.121      0.934      1.714
REMARK INTER + INTRA:          -7.104
REMARK INTER:                  -6.264
REMARK INTRA:                  -0.840
REMARK UNBOUND:                -0.815
REMARK SMILES CCCCCCCCCCC(=O)[O-]
REMARK SMILES IDX 7 1 8 2 9 3 10 4 11 5 12 6 13 7 6 8 5 9 4 10 3 11 2 12 1 13
REMARK H PARENT
REMARK Flexibility Score: inf
ROOT
ATOM      1  C   UNL     1       1.128  47.922  21.632  1.00  0.00     0.000 C 
ENDROOT
BRANCH   1   2
ATOM      2  C   UNL     1       0.141  48.005  22.807  1.00  0.00     0.000 C 
BRANCH   2   3
ATOM      3  C   UNL     1      -0.515  46.653  23.125  1.00  0.00     0.006 C 
BRANCH   3   4
ATOM      4  C   UNL     1      -0.601  46.429  24.638  1.00  0.00     0.053 C 
BRANCH   4   5
ATOM      5  C   UNL     1      -2.027  46.431  25.088  1.00  0.00     0.041 C 
ATOM      6  O   UNL     1      -2.359  47.039  26.140  1.00  0.00    -0.550 OA
ATOM      7  O   UNL     1      -2.983  45.719  24.374  1.00  0.00    -0.550 OA
ENDBRANCH   4   5
ENDBRANCH   3   4
ENDBRANCH   2   3
ENDBRANCH   1   2
BRANCH   1   8
ATOM      8  C   UNL     1       2.140  49.077  21.625  1.00  0.00     0.000 C 
BRANCH   8   9
ATOM      9  C   UNL     1       1.423  50.433  21.546  1.00  0.00    -0.000 C 
BRANCH   9  10
ATOM     10  C   UNL     1       2.043  51.492  22.474  1.00  0.00    -0.000 C 
BRANCH  10  11
ATOM     11  C   UNL     1       1.545  51.448  23.932  1.00  0.00    -0.000 C 
BRANCH  11  12
ATOM     12  C   UNL     1       2.581  50.882  24.926  1.00  0.00    -0.003 C 
ATOM     13  C   UNL     1       2.206  49.489  25.431  1.00  0.00     0.004 C 
ENDBRANCH  11  12
ENDBRANCH  10  11
ENDBRANCH   9  10
ENDBRANCH   8   9
ENDBRANCH   1   8
TORSDOF 9
ENDMDL
MODEL 3
REMARK VINA RESULT:    -4.053      2.240      4.476
REMARK INTER + INTRA:          -7.001
REMARK INTER:                  -5.922
REMARK INTRA:                  -1.079
REMARK UNBOUND:                -0.815
REMARK SMILES CCCCCCCCCCC(=O)[O-]
REMARK SMILES IDX 7 1 8 2 9 3 10 4 11 5 12 6 13 7 6 8 5 9 4 10 3 11 2 12 1 13
REMARK H PARENT
REMARK Flexibility Score: inf
ROOT
ATOM      1  C   UNL     1       0.761  51.615  23.413  1.00  0.00     0.000 C 
ENDROOT
BRANCH   1   2
ATOM      2  C   UNL     1       1.033  51.181  24.862  1.00  0.00     0.000 C 
BRANCH   2   3
ATOM      3  C   UNL     1       2.473  50.692  25.073  1.00  0.00     0.006 C 
BRANCH   3   4
ATOM      4  C   UNL     1       2.491  49.254  25.600  1.00  0.00     0.053 C 
BRANCH   4   5
ATOM      5  C   UNL     1       2.822  49.234  27.059  1.00  0.00     0.041 C 
ATOM      6  O   UNL     1       1.922  49.434  27.916  1.00  0.00    -0.550 OA
ATOM      7  O   UNL     1       4.135  49.044  27.471  1.00  0.00    -0.550 OA
ENDBRANCH   4   5
ENDBRANCH   3   4
ENDBRANCH   2   3
ENDBRANCH   1   2
BRANCH   1   8
ATOM      8  C   UNL     1       1.996  51.474  22.510  1.00  0.00     0.000 C 
BRANCH   8   9
ATOM      9  C   UNL     1       1.740  50.456  21.388  1.00  0.00    -0.000 C 
BRANCH   9  10
ATOM     10  C   UNL     1       2.135  49.022  21.781  1.00  0.00    -0.000 C 
BRANCH  10  11
ATOM     11  C   UNL     1       0.990  47.992  21.713  1.00  0.00    -0.000 C 
BRANCH  11  12
ATOM     12  C   UNL     1       0.065  48.010  22.948  1.00  0.00    -0.003 C 
ATOM     13  C   UNL     1      -0.634  46.669  23.175  1.00  0.00     0.004 C 
ENDBRANCH  11  12
ENDBRANCH  10  11
ENDBRANCH   9  10
ENDBRANCH   8   9
ENDBRANCH   1   8
TORSDOF 9
ENDMDL
MODEL 4
REMARK VINA RESULT:    -4.052      1.903      2.799
REMARK INTER + INTRA:          -6.999
REMARK INTER:                  -6.505
REMARK INTRA:                  -0.494
REMARK UNBOUND:                -0.815
REMARK SMILES CCCCCCCCCCC(=O)[O-]
REMARK SMILES IDX 7 1 8 2 9 3 10 4 11 5 12 6 13 7 6 8 5 9 4 10 3 11 2 12 1 13
REMARK H PARENT
REMARK Flexibility Score: inf
ROOT
ATOM      1  C   UNL     1       1.014  48.137  21.695  1.00  0.00     0.000 C 
ENDROOT
BRANCH   1   2
ATOM      2  C   UNL     1       0.128  47.964  22.939  1.00  0.00     0.000 C 
BRANCH   2   3
ATOM      3  C   UNL     1      -0.512  46.570  23.020  1.00  0.00     0.006 C 
BRANCH   3   4
ATOM      4  C   UNL     1      -0.924  46.241  24.458  1.00  0.00     0.053 C 
BRANCH   4   5
ATOM      5  C   UNL     1      -2.406  46.054  24.549  1.00  0.00     0.041 C 
ATOM      6  O   UNL     1      -2.903  44.899  24.498  1.00  0.00    -0.550 OA
ATOM      7  O   UNL     1      -3.242  47.161  24.640  1.00  0.00    -0.550 OA
ENDBRANCH   4   5
ENDBRANCH   3   4
ENDBRANCH   2   3
ENDBRANCH   1   2
BRANCH   1   8
ATOM      8  C   UNL     1       2.135  49.165  21.904  1.00  0.00     0.000 C 
BRANCH   8   9
ATOM      9  C   UNL     1       1.773  50.510  21.255  1.00  0.00    -0.000 C 
BRANCH   9  10
ATOM     10  C   UNL     1       1.360  51.577  22.283  1.00  0.00    -0.000 C 
BRANCH  10  11
ATOM     11  C   UNL     1       2.263  51.661  23.529  1.00  0.00    -0.000 C 
BRANCH  11  12
ATOM     12  C   UNL     1       3.486  52.584  23.349  1.00  0.00    -0.003 C 
ATOM     13  C   UNL     1       3.117  53.927  22.720  1.00  0.00     0.004 C 
ENDBRANCH  11  12
ENDBRANCH  10  11
ENDBRANCH   9  10
ENDBRANCH   8   9
ENDBRANCH   1   8
TORSDOF 9
ENDMDL
MODEL 5
REMARK VINA RESULT:    -4.000      3.543      4.891
REMARK INTER + INTRA:          -6.919
REMARK INTER:                  -6.020
REMARK INTRA:                  -0.900
REMARK UNBOUND:                -0.815
REMARK SMILES CCCCCCCCCCC(=O)[O-]
REMARK SMILES IDX 7 1 8 2 9 3 10 4 11 5 12 6 13 7 6 8 5 9 4 10 3 11 2 12 1 13
REMARK H PARENT
REMARK Flexibility Score: inf
ROOT
ATOM      1  C   UNL     1       1.008  48.226  21.587  1.00  0.00     0.000 C 
ENDROOT
BRANCH   1   2
ATOM      2  C   UNL     1       2.124  49.166  22.069  1.00  0.00     0.000 C 
BRANCH   2   3
ATOM      3  C   UNL     1       2.058  50.551  21.408  1.00  0.00     0.006 C 
BRANCH   3   4
ATOM      4  C   UNL     1       1.557  51.606  22.397  1.00  0.00     0.053 C 
BRANCH   4   5
ATOM      5  C   UNL     1       1.706  52.978  21.821  1.00  0.00     0.041 C 
ATOM      6  O   UNL     1       0.963  53.353  20.875  1.00  0.00    -0.550 OA
ATOM      7  O   UNL     1       2.699  53.828  22.294  1.00  0.00    -0.550 OA
ENDBRANCH   4   5
ENDBRANCH   3   4
ENDBRANCH   2   3
ENDBRANCH   1   2
BRANCH   1   8
ATOM      8  C   UNL     1       0.258  47.552  22.745  1.00  0.00     0.000 C 
BRANCH   8   9
ATOM      9  C   UNL     1      -0.221  48.594  23.768  1.00  0.00    -0.000 C 
BRANCH   9  10
ATOM     10  C   UNL     1       0.298  48.319  25.189  1.00  0.00    -0.000 C 
BRANCH  10  11
ATOM     11  C   UNL     1       0.993  49.515  25.869  1.00  0.00    -0.000 C 
BRANCH  11  12
ATOM     12  C   UNL     1       2.531  49.495  25.741  1.00  0.00    -0.003 C 
ATOM     13  C   UNL     1       3.201  48.698  26.860  1.00  0.00     0.004 C 
ENDBRANCH  11  12
ENDBRANCH  10  11
ENDBRANCH   9  10
ENDBRANCH   8   9
ENDBRANCH   1   8
TORSDOF 9
ENDMDL
MODEL 6
REMARK VINA RESULT:    -3.909      4.075      6.262
REMARK INTER + INTRA:          -6.780
REMARK INTER:                  -6.211
REMARK INTRA:                  -0.569
REMARK UNBOUND:                -0.815
REMARK SMILES CCCCCCCCCCC(=O)[O-]
REMARK SMILES IDX 7 1 8 2 9 3 10 4 11 5 12 6 13 7 6 8 5 9 4 10 3 11 2 12 1 13
REMARK H PARENT
REMARK Flexibility Score: inf
ROOT
ATOM      1  C   UNL     1       1.297  51.608  22.298  1.00  0.00     0.000 C 
ENDROOT
BRANCH   1   2
ATOM      2  C   UNL     1       2.236  51.686  23.511  1.00  0.00     0.000 C 
BRANCH   2   3
ATOM      3  C   UNL     1       3.419  52.638  23.284  1.00  0.00     0.006 C 
BRANCH   3   4
ATOM      4  C   UNL     1       2.966  53.913  22.568  1.00  0.00     0.053 C 
BRANCH   4   5
ATOM      5  C   UNL     1       2.561  54.956  23.561  1.00  0.00     0.041 C 
ATOM      6  O   UNL     1       1.351  55.087  23.884  1.00  0.00    -0.550 OA
ATOM      7  O   UNL     1       3.513  55.818  24.093  1.00  0.00    -0.550 OA
ENDBRANCH   4   5
ENDBRANCH   3   4
ENDBRANCH   2   3
ENDBRANCH   1   2
BRANCH   1   8
ATOM      8  C   UNL     1       1.776  50.603  21.240  1.00  0.00     0.000 C 
BRANCH   8   9
ATOM      9  C   UNL     1       2.096  49.244  21.882  1.00  0.00    -0.000 C 
BRANCH   9  10
ATOM     10  C   UNL     1       0.931  48.245  21.777  1.00  0.00    -0.000 C 
BRANCH  10  11
ATOM     11  C   UNL     1       0.152  48.018  23.087  1.00  0.00    -0.000 C 
BRANCH  11  12
ATOM     12  C   UNL     1      -0.588  46.665  23.144  1.00  0.00    -0.003 C 
ATOM     13  C   UNL     1      -0.807  46.177  24.576  1.00  0.00     0.004 C 
ENDBRANCH  11  12
ENDBRANCH  10  11
ENDBRANCH   9  10
ENDBRANCH   8   9
ENDBRANCH   1   8
TORSDOF 9
ENDMDL
MODEL 7
REMARK VINA RESULT:    -3.887      3.709      5.095
REMARK INTER + INTRA:          -6.747
REMARK INTER:                  -5.603
REMARK INTRA:                  -1.143
REMARK UNBOUND:                -0.815
REMARK SMILES CCCCCCCCCCC(=O)[O-]
REMARK SMILES IDX 7 1 8 2 9 3 10 4 11 5 12 6 13 7 6 8 5 9 4 10 3 11 2 12 1 13
REMARK H PARENT
REMARK Flexibility Score: inf
ROOT
ATOM      1  C   UNL     1       2.099  48.858  21.863  1.00  0.00     0.000 C 
ENDROOT
BRANCH   1   2
ATOM      2  C   UNL     1       1.783  50.279  21.372  1.00  0.00     0.000 C 
BRANCH   2   3
ATOM      3  C   UNL     1       2.176  51.359  22.390  1.00  0.00     0.006 C 
BRANCH   3   4
ATOM      4  C   UNL     1       0.986  52.268  22.711  1.00  0.00     0.053 C 
BRANCH   4   5
ATOM      5  C   UNL     1       1.241  53.658  22.222  1.00  0.00     0.041 C 
ATOM      6  O   UNL     1       2.417  54.106  22.170  1.00  0.00    -0.550 OA
ATOM      7  O   UNL     1       0.176  54.478  21.870  1.00  0.00    -0.550 OA
ENDBRANCH   4   5
ENDBRANCH   3   4
ENDBRANCH   2   3
ENDBRANCH   1   2
BRANCH   1   8
ATOM      8  C   UNL     1       0.845  47.978  21.979  1.00  0.00     0.000 C 
BRANCH   8   9
ATOM      9  C   UNL     1      -0.094  48.505  23.076  1.00  0.00    -0.000 C 
BRANCH   9  10
ATOM     10  C   UNL     1      -0.149  47.585  24.307  1.00  0.00    -0.000 C 
BRANCH  10  11
ATOM     11  C   UNL     1       0.277  48.248  25.632  1.00  0.00    -0.000 C 
BRANCH  11  12
ATOM     12  C   UNL     1       1.010  49.593  25.446  1.00  0.00    -0.003 C 
ATOM     13  C   UNL     1       2.526  49.457  25.587  1.00  0.00     0.004 C 
ENDBRANCH  11  12
ENDBRANCH  10  11
ENDBRANCH   9  10
ENDBRANCH   8   9
ENDBRANCH   1   8
TORSDOF 9
ENDMDL
MODEL 8
REMARK VINA RESULT:    -3.886      3.326      6.206
REMARK INTER + INTRA:          -6.746
REMARK INTER:                  -6.412
REMARK INTRA:                  -0.334
REMARK UNBOUND:                -0.815
REMARK SMILES CCCCCCCCCCC(=O)[O-]
REMARK SMILES IDX 7 1 8 2 9 3 10 4 11 5 12 6 13 7 6 8 5 9 4 10 3 11 2 12 1 13
REMARK H PARENT
REMARK Flexibility Score: inf
ROOT
ATOM      1  C   UNL     1       0.206  48.093  22.945  1.00  0.00     0.000 C 
ENDROOT
BRANCH   1   2
ATOM      2  C   UNL     1       1.047  48.137  21.660  1.00  0.00     0.000 C 
BRANCH   2   3
ATOM      3  C   UNL     1       2.120  49.235  21.692  1.00  0.00     0.006 C 
BRANCH   3   4
ATOM      4  C   UNL     1       1.936  50.144  22.910  1.00  0.00     0.053 C 
BRANCH   4   5
ATOM      5  C   UNL     1       1.885  51.579  22.491  1.00  0.00     0.041 C 
ATOM      6  O   UNL     1       2.271  52.483  23.278  1.00  0.00    -0.550 OA
ATOM      7  O   UNL     1       1.366  51.923  21.249  1.00  0.00    -0.550 OA
ENDBRANCH   4   5
ENDBRANCH   3   4
ENDBRANCH   2   3
ENDBRANCH   1   2
BRANCH   1   8
ATOM      8  C   UNL     1      -0.500  46.743  23.147  1.00  0.00     0.000 C 
BRANCH   8   9
ATOM      9  C   UNL     1      -0.772  46.486  24.637  1.00  0.00    -0.000 C 
BRANCH   9  10
ATOM     10  C   UNL     1      -2.264  46.274  24.943  1.00  0.00    -0.000 C 
BRANCH  10  11
ATOM     11  C   UNL     1      -2.917  45.090  24.202  1.00  0.00    -0.000 C 
BRANCH  11  12
ATOM     12  C   UNL     1      -4.428  44.941  24.479  1.00  0.00    -0.003 C 
ATOM     13  C   UNL     1      -5.010  43.665  23.871  1.00  0.00     0.004 C 
ENDBRANCH  11  12
ENDBRANCH  10  11
ENDBRANCH   9  10
ENDBRANCH   8   9
ENDBRANCH   1   8
TORSDOF 9
ENDMDL
MODEL 9
REMARK VINA RESULT:    -3.866      1.711      2.152
REMARK INTER + INTRA:          -6.715
REMARK INTER:                  -5.686
REMARK INTRA:                  -1.029
REMARK UNBOUND:                -0.815
REMARK SMILES CCCCCCCCCCC(=O)[O-]
REMARK SMILES IDX 7 1 8 2 9 3 10 4 11 5 12 6 13 7 6 8 5 9 4 10 3 11 2 12 1 13
REMARK H PARENT
REMARK Flexibility Score: inf
ROOT
ATOM      1  C   UNL     1       2.044  49.191  22.076  1.00  0.00     0.000 C 
ENDROOT
BRANCH   1   2
ATOM      2  C   UNL     1       1.251  48.007  21.501  1.00  0.00     0.000 C 
BRANCH   2   3
ATOM      3  C   UNL     1       0.160  47.505  22.459  1.00  0.00     0.006 C 
BRANCH   3   4
ATOM      4  C   UNL     1       0.138  48.334  23.746  1.00  0.00     0.053 C 
BRANCH   4   5
ATOM      5  C   UNL     1      -1.220  48.920  23.970  1.00  0.00     0.041 C 
ATOM      6  O   UNL     1      -2.193  48.174  24.255  1.00  0.00    -0.550 OA
ATOM      7  O   UNL     1      -1.422  50.286  23.815  1.00  0.00    -0.550 OA
ENDBRANCH   4   5
ENDBRANCH   3   4
ENDBRANCH   2   3
ENDBRANCH   1   2
BRANCH   1   8
ATOM      8  C   UNL     1       1.782  50.503  21.321  1.00  0.00     0.000 C 
BRANCH   8   9
ATOM      9  C   UNL     1       1.424  51.634  22.298  1.00  0.00    -0.000 C 
BRANCH   9  10
ATOM     10  C   UNL     1       2.653  52.427  22.770  1.00  0.00    -0.000 C 
BRANCH  10  11
ATOM     11  C   UNL     1       3.015  52.238  24.256  1.00  0.00    -0.000 C 
BRANCH  11  12
ATOM     12  C   UNL     1       1.985  51.405  25.046  1.00  0.00    -0.003 C 
ATOM     13  C   UNL     1       2.594  50.140  25.650  1.00  0.00     0.004 C 
ENDBRANCH  11  12
ENDBRANCH  10  11
ENDBRANCH   9  10
ENDBRANCH   8   9
ENDBRANCH   1   8
TORSDOF 9
ENDMDL
