MODEL 1
REMARK VINA RESULT:    -2.413      0.000      0.000
REMARK INTER + INTRA:          -3.420
REMARK INTER:                  -2.907
REMARK INTRA:                  -0.512
REMARK UNBOUND:                -0.512
REMARK SMILES NC(=O)C[C@H]([NH3+])C(=O)[O-]
REMARK SMILES IDX 4 1 5 2 6 3 7 7 8 8 9 9 2 10 3 11 1 12
REMARK H PARENT 6 4 6 5 6 6 1 13 1 14
REMARK Flexibility Score: inf
ROOT
ATOM      1  C   UNL     1       0.428   3.762  -1.793  1.00  0.00     0.171 C 
ENDROOT
BRANCH   1   2
ATOM      2  C   UNL     1      -0.893   4.432  -1.360  1.00  0.00     0.237 C 
BRANCH   2   3
ATOM      3  N   UNL     1      -2.039   3.752  -1.975  1.00  0.00    -0.350 N 
ATOM      4  H   UNL     1      -1.738   3.275  -2.856  1.00  0.00     0.345 HD
ATOM      5  H   UNL     1      -2.777   4.452  -2.220  1.00  0.00     0.345 HD
ATOM      6  H   UNL     1      -2.445   3.044  -1.320  1.00  0.00     0.345 HD
ENDBRANCH   2   3
BRANCH   2   7
ATOM      7  C   UNL     1      -0.902   5.896  -1.720  1.00  0.00     0.100 C 
ATOM      8  O   UNL     1      -0.723   6.773  -0.834  1.00  0.00    -0.544 OA
ATOM      9  O   UNL     1      -1.126   6.285  -3.035  1.00  0.00    -0.544 OA
ENDBRANCH   2   7
ENDBRANCH   1   2
BRANCH   1  10
ATOM     10  C   UNL     1       0.320   3.167  -3.167  1.00  0.00     0.223 C 
ATOM     11  O   UNL     1      -0.052   1.970  -3.305  1.00  0.00    -0.275 OA
ATOM     12  N   UNL     1       0.603   3.957  -4.321  1.00  0.00    -0.369 N 
ATOM     13  H   UNL     1       0.897   4.955  -4.224  1.00  0.00     0.159 HD
ATOM     14  H   UNL     1       0.516   3.546  -5.276  1.00  0.00     0.159 HD
ENDBRANCH   1  10
TORSDOF 4
ENDMDL
MODEL 2
REMARK VINA RESULT:    -2.401      9.790     10.701
REMARK INTER + INTRA:          -3.405
REMARK INTER:                  -3.058
REMARK INTRA:                  -0.347
REMARK UNBOUND:                -0.512
REMARK SMILES NC(=O)C[C@H]([NH3+])C(=O)[O-]
REMARK SMILES IDX 4 1 5 2 6 3 7 7 8 8 9 9 2 10 3 11 1 12
REMARK H PARENT 6 4 6 5 6 6 1 13 1 14
REMARK Flexibility Score: inf
ROOT
ATOM      1  C   UNL     1       1.545   7.184   7.242  1.00  0.00     0.171 C 
ENDROOT
BRANCH   1   2
ATOM      2  C   UNL     1       3.050   7.190   7.581  1.00  0.00     0.237 C 
BRANCH   2   3
ATOM      3  N   UNL     1       3.827   6.603   6.483  1.00  0.00    -0.350 N 
ATOM      4  H   UNL     1       3.757   7.211   5.634  1.00  0.00     0.345 HD
ATOM      5  H   UNL     1       3.442   5.660   6.241  1.00  0.00     0.345 HD
ATOM      6  H   UNL     1       4.833   6.503   6.753  1.00  0.00     0.345 HD
ENDBRANCH   2   3
BRANCH   2   7
ATOM      7  C   UNL     1       3.320   6.447   8.865  1.00  0.00     0.100 C 
ATOM      8  O   UNL     1       4.355   6.691   9.539  1.00  0.00    -0.544 OA
ATOM      9  O   UNL     1       2.430   5.474   9.303  1.00  0.00    -0.544 OA
ENDBRANCH   2   7
ENDBRANCH   1   2
BRANCH   1  10
ATOM     10  C   UNL     1       1.248   6.296   6.067  1.00  0.00     0.223 C 
ATOM     11  O   UNL     1       1.389   5.048   6.173  1.00  0.00    -0.275 OA
ATOM     12  N   UNL     1       0.774   6.854   4.843  1.00  0.00    -0.369 N 
ATOM     13  H   UNL     1       0.637   7.885   4.745  1.00  0.00     0.159 HD
ATOM     14  H   UNL     1       0.555   6.235   4.031  1.00  0.00     0.159 HD
ENDBRANCH   1  10
TORSDOF 4
ENDMDL
MODEL 3
REMARK VINA RESULT:    -2.397      1.731      1.963
REMARK INTER + INTRA:          -3.400
REMARK INTER:                  -2.902
REMARK INTRA:                  -0.498
REMARK UNBOUND:                -0.512
REMARK SMILES NC(=O)C[C@H]([NH3+])C(=O)[O-]
REMARK SMILES IDX 4 1 5 2 6 3 7 7 8 8 9 9 2 10 3 11 1 12
REMARK H PARENT 6 4 6 5 6 6 1 13 1 14
REMARK Flexibility Score: inf
ROOT
ATOM      1  C   UNL     1      -0.404   5.271  -1.588  1.00  0.00     0.171 C 
ENDROOT
BRANCH   1   2
ATOM      2  C   UNL     1      -1.814   5.330  -2.211  1.00  0.00     0.237 C 
BRANCH   2   3
ATOM      3  N   UNL     1      -2.337   3.976  -2.426  1.00  0.00    -0.350 N 
ATOM      4  H   UNL     1      -2.130   3.379  -1.593  1.00  0.00     0.345 HD
ATOM      5  H   UNL     1      -1.873   3.545  -3.259  1.00  0.00     0.345 HD
ATOM      6  H   UNL     1      -3.371   3.999  -2.586  1.00  0.00     0.345 HD
ENDBRANCH   2   3
BRANCH   2   7
ATOM      7  C   UNL     1      -1.802   6.097  -3.509  1.00  0.00     0.100 C 
ATOM      8  O   UNL     1      -2.628   7.026  -3.710  1.00  0.00    -0.544 OA
ATOM      9  O   UNL     1      -0.885   5.768  -4.499  1.00  0.00    -0.544 OA
ENDBRANCH   2   7
ENDBRANCH   1   2
BRANCH   1  10
ATOM     10  C   UNL     1       0.259   3.948  -1.847  1.00  0.00     0.223 C 
ATOM     11  O   UNL     1       0.081   2.991  -1.047  1.00  0.00    -0.275 OA
ATOM     12  N   UNL     1       1.060   3.757  -3.012  1.00  0.00    -0.369 N 
ATOM     13  H   UNL     1       1.203   4.536  -3.693  1.00  0.00     0.159 HD
ATOM     14  H   UNL     1       1.509   2.834  -3.197  1.00  0.00     0.159 HD
ENDBRANCH   1  10
TORSDOF 4
ENDMDL
MODEL 4
REMARK VINA RESULT:    -2.396      6.099      7.012
REMARK INTER + INTRA:          -3.398
REMARK INTER:                  -3.110
REMARK INTRA:                  -0.289
REMARK UNBOUND:                -0.512
REMARK SMILES NC(=O)C[C@H]([NH3+])C(=O)[O-]
REMARK SMILES IDX 4 1 5 2 6 3 7 7 8 8 9 9 2 10 3 11 1 12
REMARK H PARENT 6 4 6 5 6 6 1 13 1 14
REMARK Flexibility Score: inf
ROOT
ATOM      1  C   UNL     1       5.006   2.109  -5.266  1.00  0.00     0.171 C 
ENDROOT
BRANCH   1   2
ATOM      2  C   UNL     1       5.435   3.566  -5.540  1.00  0.00     0.237 C 
BRANCH   2   3
ATOM      3  N   UNL     1       6.733   3.845  -4.913  1.00  0.00    -0.350 N 
ATOM      4  H   UNL     1       7.384   3.042  -5.071  1.00  0.00     0.345 HD
ATOM      5  H   UNL     1       6.609   3.966  -3.880  1.00  0.00     0.345 HD
ATOM      6  H   UNL     1       7.156   4.716  -5.309  1.00  0.00     0.345 HD
ENDBRANCH   2   3
BRANCH   2   7
ATOM      7  C   UNL     1       4.397   4.540  -5.043  1.00  0.00     0.100 C 
ATOM      8  O   UNL     1       4.347   5.711  -5.503  1.00  0.00    -0.544 OA
ATOM      9  O   UNL     1       3.496   4.151  -4.060  1.00  0.00    -0.544 OA
ENDBRANCH   2   7
ENDBRANCH   1   2
BRANCH   1  10
ATOM     10  C   UNL     1       6.194   1.205  -5.107  1.00  0.00     0.223 C 
ATOM     11  O   UNL     1       7.035   1.103  -6.040  1.00  0.00    -0.275 OA
ATOM     12  N   UNL     1       6.395   0.485  -3.892  1.00  0.00    -0.369 N 
ATOM     13  H   UNL     1       5.716   0.571  -3.103  1.00  0.00     0.159 HD
ATOM     14  H   UNL     1       7.228  -0.133  -3.777  1.00  0.00     0.159 HD
ENDBRANCH   1  10
TORSDOF 4
ENDMDL
MODEL 5
REMARK VINA RESULT:    -2.381      9.865     10.844
REMARK INTER + INTRA:          -3.381
REMARK INTER:                  -2.904
REMARK INTRA:                  -0.477
REMARK UNBOUND:                -0.512
REMARK SMILES NC(=O)C[C@H]([NH3+])C(=O)[O-]
REMARK SMILES IDX 4 1 5 2 6 3 7 7 8 8 9 9 2 10 3 11 1 12
REMARK H PARENT 6 4 6 5 6 6 1 13 1 14
REMARK Flexibility Score: inf
ROOT
ATOM      1  C   UNL     1       0.783   6.214   7.515  1.00  0.00     0.171 C 
ENDROOT
BRANCH   1   2
ATOM      2  C   UNL     1       2.234   6.728   7.615  1.00  0.00     0.237 C 
BRANCH   2   3
ATOM      3  N   UNL     1       3.029   6.246   6.478  1.00  0.00    -0.350 N 
ATOM      4  H   UNL     1       3.028   5.200   6.462  1.00  0.00     0.345 HD
ATOM      5  H   UNL     1       4.019   6.570   6.576  1.00  0.00     0.345 HD
ATOM      6  H   UNL     1       2.640   6.605   5.576  1.00  0.00     0.345 HD
ENDBRANCH   2   3
BRANCH   2   7
ATOM      7  C   UNL     1       2.872   6.304   8.913  1.00  0.00     0.100 C 
ATOM      8  O   UNL     1       4.093   6.526   9.128  1.00  0.00    -0.544 OA
ATOM      9  O   UNL     1       2.115   5.648   9.876  1.00  0.00    -0.544 OA
ENDBRANCH   2   7
ENDBRANCH   1   2
BRANCH   1  10
ATOM     10  C   UNL     1       0.725   4.837   6.919  1.00  0.00     0.223 C 
ATOM     11  O   UNL     1       0.656   4.697   5.668  1.00  0.00    -0.275 OA
ATOM     12  N   UNL     1       0.783   3.684   7.757  1.00  0.00    -0.369 N 
ATOM     13  H   UNL     1       0.857   3.783   8.794  1.00  0.00     0.159 HD
ATOM     14  H   UNL     1       0.756   2.727   7.340  1.00  0.00     0.159 HD
ENDBRANCH   1  10
TORSDOF 4
ENDMDL
MODEL 6
REMARK VINA RESULT:    -2.368      1.097      3.885
REMARK INTER + INTRA:          -3.365
REMARK INTER:                  -2.873
REMARK INTRA:                  -0.492
REMARK UNBOUND:                -0.512
REMARK SMILES NC(=O)C[C@H]([NH3+])C(=O)[O-]
REMARK SMILES IDX 4 1 5 2 6 3 7 7 8 8 9 9 2 10 3 11 1 12
REMARK H PARENT 6 4 6 5 6 6 1 13 1 14
REMARK Flexibility Score: inf
ROOT
ATOM      1  C   UNL     1       0.529   4.199  -1.861  1.00  0.00     0.171 C 
ENDROOT
BRANCH   1   2
ATOM      2  C   UNL     1       0.254   3.676  -3.286  1.00  0.00     0.237 C 
BRANCH   2   3
ATOM      3  N   UNL     1      -0.670   4.572  -3.992  1.00  0.00    -0.350 N 
ATOM      4  H   UNL     1      -1.372   4.009  -4.525  1.00  0.00     0.345 HD
ATOM      5  H   UNL     1      -0.139   5.162  -4.675  1.00  0.00     0.345 HD
ATOM      6  H   UNL     1      -1.169   5.197  -3.317  1.00  0.00     0.345 HD
ENDBRANCH   2   3
BRANCH   2   7
ATOM      7  C   UNL     1      -0.303   2.276  -3.252  1.00  0.00     0.100 C 
ATOM      8  O   UNL     1       0.173   1.380  -3.999  1.00  0.00    -0.544 OA
ATOM      9  O   UNL     1      -1.359   1.970  -2.403  1.00  0.00    -0.544 OA
ENDBRANCH   2   7
ENDBRANCH   1   2
BRANCH   1  10
ATOM     10  C   UNL     1      -0.570   5.104  -1.383  1.00  0.00     0.223 C 
ATOM     11  O   UNL     1      -0.492   6.346  -1.582  1.00  0.00    -0.275 OA
ATOM     12  N   UNL     1      -1.721   4.562  -0.735  1.00  0.00    -0.369 N 
ATOM     13  H   UNL     1      -1.808   3.533  -0.578  1.00  0.00     0.159 HD
ATOM     14  H   UNL     1      -2.490   5.190  -0.415  1.00  0.00     0.159 HD
ENDBRANCH   1  10
TORSDOF 4
ENDMDL
MODEL 7
REMARK VINA RESULT:    -2.320      1.524      3.864
REMARK INTER + INTRA:          -3.308
REMARK INTER:                  -2.834
REMARK INTRA:                  -0.474
REMARK UNBOUND:                -0.512
REMARK SMILES NC(=O)C[C@H]([NH3+])C(=O)[O-]
REMARK SMILES IDX 4 1 5 2 6 3 7 7 8 8 9 9 2 10 3 11 1 12
REMARK H PARENT 6 4 6 5 6 6 1 13 1 14
REMARK Flexibility Score: inf
ROOT
ATOM      1  C   UNL     1      -0.447   5.655  -1.493  1.00  0.00     0.171 C 
ENDROOT
BRANCH   1   2
ATOM      2  C   UNL     1      -0.026   4.645  -2.580  1.00  0.00     0.237 C 
BRANCH   2   3
ATOM      3  N   UNL     1      -0.705   4.941  -3.847  1.00  0.00    -0.350 N 
ATOM      4  H   UNL     1      -0.275   4.383  -4.620  1.00  0.00     0.345 HD
ATOM      5  H   UNL     1      -0.597   5.956  -4.078  1.00  0.00     0.345 HD
ATOM      6  H   UNL     1      -1.725   4.713  -3.783  1.00  0.00     0.345 HD
ENDBRANCH   2   3
BRANCH   2   7
ATOM      7  C   UNL     1      -0.320   3.230  -2.150  1.00  0.00     0.100 C 
ATOM      8  O   UNL     1      -0.114   2.267  -2.934  1.00  0.00    -0.544 OA
ATOM      9  O   UNL     1      -0.838   2.984  -0.884  1.00  0.00    -0.544 OA
ENDBRANCH   2   7
ENDBRANCH   1   2
BRANCH   1  10
ATOM     10  C   UNL     1      -1.834   6.177  -1.732  1.00  0.00     0.223 C 
ATOM     11  O   UNL     1      -2.002   7.227  -2.408  1.00  0.00    -0.275 OA
ATOM     12  N   UNL     1      -2.968   5.472  -1.227  1.00  0.00    -0.369 N 
ATOM     13  H   UNL     1      -2.846   4.591  -0.679  1.00  0.00     0.159 HD
ATOM     14  H   UNL     1      -3.932   5.828  -1.405  1.00  0.00     0.159 HD
ENDBRANCH   1  10
TORSDOF 4
ENDMDL
MODEL 8
REMARK VINA RESULT:    -2.317      8.291      9.123
REMARK INTER + INTRA:          -3.303
REMARK INTER:                  -2.813
REMARK INTRA:                  -0.490
REMARK UNBOUND:                -0.512
REMARK SMILES NC(=O)C[C@H]([NH3+])C(=O)[O-]
REMARK SMILES IDX 4 1 5 2 6 3 7 7 8 8 9 9 2 10 3 11 1 12
REMARK H PARENT 6 4 6 5 6 6 1 13 1 14
REMARK Flexibility Score: inf
ROOT
ATOM      1  C   UNL     1       7.771   0.881  -5.310  1.00  0.00     0.171 C 
ENDROOT
BRANCH   1   2
ATOM      2  C   UNL     1       6.398   0.414  -4.781  1.00  0.00     0.237 C 
BRANCH   2   3
ATOM      3  N   UNL     1       5.511   1.564  -4.571  1.00  0.00    -0.350 N 
ATOM      4  H   UNL     1       6.070   2.449  -4.574  1.00  0.00     0.345 HD
ATOM      5  H   UNL     1       5.037   1.481  -3.641  1.00  0.00     0.345 HD
ATOM      6  H   UNL     1       4.784   1.613  -5.322  1.00  0.00     0.345 HD
ENDBRANCH   2   3
BRANCH   2   7
ATOM      7  C   UNL     1       6.548  -0.369  -3.502  1.00  0.00     0.100 C 
ATOM      8  O   UNL     1       5.699  -1.243  -3.184  1.00  0.00    -0.544 OA
ATOM      9  O   UNL     1       7.621  -0.117  -2.656  1.00  0.00    -0.544 OA
ENDBRANCH   2   7
ENDBRANCH   1   2
BRANCH   1  10
ATOM     10  C   UNL     1       8.048   2.309  -4.941  1.00  0.00     0.223 C 
ATOM     11  O   UNL     1       7.665   3.239  -5.700  1.00  0.00    -0.275 OA
ATOM     12  N   UNL     1       8.712   2.623  -3.718  1.00  0.00    -0.369 N 
ATOM     13  H   UNL     1       9.021   1.864  -3.070  1.00  0.00     0.159 HD
ATOM     14  H   UNL     1       8.893   3.617  -3.455  1.00  0.00     0.159 HD
ENDBRANCH   1  10
TORSDOF 4
ENDMDL
MODEL 9
REMARK VINA RESULT:    -2.308      9.243     10.255
REMARK INTER + INTRA:          -3.293
REMARK INTER:                  -2.819
REMARK INTRA:                  -0.474
REMARK UNBOUND:                -0.512
REMARK SMILES NC(=O)C[C@H]([NH3+])C(=O)[O-]
REMARK SMILES IDX 4 1 5 2 6 3 7 7 8 8 9 9 2 10 3 11 1 12
REMARK H PARENT 6 4 6 5 6 6 1 13 1 14
REMARK Flexibility Score: inf
ROOT
ATOM      1  C   UNL     1       1.598   7.725   7.397  1.00  0.00     0.171 C 
ENDROOT
BRANCH   1   2
ATOM      2  C   UNL     1       2.560   6.526   7.533  1.00  0.00     0.237 C 
BRANCH   2   3
ATOM      3  N   UNL     1       3.574   6.560   6.473  1.00  0.00    -0.350 N 
ATOM      4  H   UNL     1       4.236   7.353   6.640  1.00  0.00     0.345 HD
ATOM      5  H   UNL     1       3.113   6.710   5.545  1.00  0.00     0.345 HD
ATOM      6  H   UNL     1       4.112   5.663   6.446  1.00  0.00     0.345 HD
ENDBRANCH   2   3
BRANCH   2   7
ATOM      7  C   UNL     1       1.808   5.220   7.492  1.00  0.00     0.100 C 
ATOM      8  O   UNL     1       1.724   4.498   8.521  1.00  0.00    -0.544 OA
ATOM      9  O   UNL     1       1.214   4.798   6.309  1.00  0.00    -0.544 OA
ENDBRANCH   2   7
ENDBRANCH   1   2
BRANCH   1  10
ATOM     10  C   UNL     1       1.598   8.278   6.001  1.00  0.00     0.223 C 
ATOM     11  O   UNL     1       2.329   9.265   5.718  1.00  0.00    -0.275 OA
ATOM     12  N   UNL     1       0.804   7.672   4.984  1.00  0.00    -0.369 N 
ATOM     13  H   UNL     1       0.205   6.843   5.199  1.00  0.00     0.159 HD
ATOM     14  H   UNL     1       0.815   8.049   4.011  1.00  0.00     0.159 HD
ENDBRANCH   1  10
TORSDOF 4
ENDMDL
