MODEL 1
REMARK VINA RESULT:    -4.182      0.000      0.000
REMARK INTER + INTRA:          -9.996
REMARK INTER:                  -7.604
REMARK INTRA:                  -2.392
REMARK UNBOUND:                -2.392
REMARK SMILES CCCCCCCCCCCCCCCC(=O)[O-]
REMARK SMILES IDX 9 1 10 2 11 3 12 4 13 5 14 6 15 7 16 8 17 9 18 10 8 11 7 12
REMARK SMILES IDX 6 13 5 14 4 15 3 16 2 17 1 18
REMARK H PARENT
REMARK Flexibility Score: inf
ROOT
ATOM      1  C   UNL     1      18.206 -39.963  25.185  1.00  0.00     0.000 C 
ENDROOT
BRANCH   1   2
ATOM      2  C   UNL     1      18.605 -40.012  26.676  1.00  0.00     0.000 C 
BRANCH   2   3
ATOM      3  C   UNL     1      17.428 -40.312  27.623  1.00  0.00     0.000 C 
BRANCH   3   4
ATOM      4  C   UNL     1      17.822 -40.942  28.973  1.00  0.00     0.000 C 
BRANCH   4   5
ATOM      5  C   UNL     1      19.023 -41.904  28.919  1.00  0.00     0.000 C 
BRANCH   5   6
ATOM      6  C   UNL     1      19.774 -42.002  30.258  1.00  0.00     0.006 C 
BRANCH   6   7
ATOM      7  C   UNL     1      20.121 -43.452  30.622  1.00  0.00     0.053 C 
BRANCH   7   8
ATOM      8  C   UNL     1      19.581 -43.833  31.967  1.00  0.00     0.041 C 
ATOM      9  O   UNL     1      19.062 -42.960  32.711  1.00  0.00    -0.550 OA
ATOM     10  O   UNL     1      19.685 -45.144  32.413  1.00  0.00    -0.550 OA
ENDBRANCH   7   8
ENDBRANCH   6   7
ENDBRANCH   5   6
ENDBRANCH   4   5
ENDBRANCH   3   4
ENDBRANCH   2   3
ENDBRANCH   1   2
BRANCH   1  11
ATOM     11  C   UNL     1      17.973 -41.364  24.594  1.00  0.00     0.000 C 
BRANCH  11  12
ATOM     12  C   UNL     1      18.898 -42.427  25.208  1.00  0.00    -0.000 C 
BRANCH  12  13
ATOM     13  C   UNL     1      18.189 -43.777  25.418  1.00  0.00    -0.000 C 
BRANCH  13  14
ATOM     14  C   UNL     1      16.717 -43.600  25.829  1.00  0.00    -0.000 C 
BRANCH  14  15
ATOM     15  C   UNL     1      16.446 -43.966  27.306  1.00  0.00    -0.000 C 
BRANCH  15  16
ATOM     16  C   UNL     1      17.292 -45.148  27.814  1.00  0.00    -0.000 C 
BRANCH  16  17
ATOM     17  C   UNL     1      17.130 -45.448  29.314  1.00  0.00    -0.003 C 
ATOM     18  C   UNL     1      16.422 -44.324  30.070  1.00  0.00     0.004 C 
ENDBRANCH  16  17
ENDBRANCH  15  16
ENDBRANCH  14  15
ENDBRANCH  13  14
ENDBRANCH  12  13
ENDBRANCH  11  12
ENDBRANCH   1  11
TORSDOF 14
ENDMDL
MODEL 2
REMARK VINA RESULT:    -4.128      1.945      4.158
REMARK INTER + INTRA:          -9.898
REMARK INTER:                  -8.162
REMARK INTRA:                  -1.736
REMARK UNBOUND:                -2.392
REMARK SMILES CCCCCCCCCCCCCCCC(=O)[O-]
REMARK SMILES IDX 9 1 10 2 11 3 12 4 13 5 14 6 15 7 16 8 17 9 18 10 8 11 7 12
REMARK SMILES IDX 6 13 5 14 4 15 3 16 2 17 1 18
REMARK H PARENT
REMARK Flexibility Score: inf
ROOT
ATOM      1  C   UNL     1      18.273 -40.434  24.760  1.00  0.00     0.000 C 
ENDROOT
BRANCH   1   2
ATOM      2  C   UNL     1      17.910 -41.628  25.671  1.00  0.00     0.000 C 
BRANCH   2   3
ATOM      3  C   UNL     1      18.642 -42.932  25.305  1.00  0.00     0.000 C 
BRANCH   3   4
ATOM      4  C   UNL     1      17.841 -44.223  25.558  1.00  0.00     0.000 C 
BRANCH   4   5
ATOM      5  C   UNL     1      17.111 -44.282  26.913  1.00  0.00     0.000 C 
BRANCH   5   6
ATOM      6  C   UNL     1      17.277 -45.635  27.626  1.00  0.00     0.006 C 
BRANCH   6   7
ATOM      7  C   UNL     1      17.215 -45.498  29.153  1.00  0.00     0.053 C 
BRANCH   7   8
ATOM      8  C   UNL     1      15.904 -44.936  29.609  1.00  0.00     0.041 C 
ATOM      9  O   UNL     1      15.875 -43.952  30.395  1.00  0.00    -0.550 OA
ATOM     10  O   UNL     1      14.714 -45.522  29.196  1.00  0.00    -0.550 OA
ENDBRANCH   7   8
ENDBRANCH   6   7
ENDBRANCH   5   6
ENDBRANCH   4   5
ENDBRANCH   3   4
ENDBRANCH   2   3
ENDBRANCH   1   2
BRANCH   1  11
ATOM     11  C   UNL     1      18.468 -39.131  25.554  1.00  0.00     0.000 C 
BRANCH  11  12
ATOM     12  C   UNL     1      18.014 -39.254  27.017  1.00  0.00    -0.000 C 
BRANCH  12  13
ATOM     13  C   UNL     1      19.054 -38.700  28.007  1.00  0.00    -0.000 C 
BRANCH  13  14
ATOM     14  C   UNL     1      19.398 -39.715  29.112  1.00  0.00    -0.000 C 
BRANCH  14  15
ATOM     15  C   UNL     1      18.478 -40.957  29.110  1.00  0.00    -0.000 C 
BRANCH  15  16
ATOM     16  C   UNL     1      19.233 -42.283  29.318  1.00  0.00    -0.000 C 
BRANCH  16  17
ATOM     17  C   UNL     1      19.228 -42.796  30.769  1.00  0.00    -0.003 C 
ATOM     18  C   UNL     1      19.960 -44.129  30.928  1.00  0.00     0.004 C 
ENDBRANCH  16  17
ENDBRANCH  15  16
ENDBRANCH  14  15
ENDBRANCH  13  14
ENDBRANCH  12  13
ENDBRANCH  11  12
ENDBRANCH   1  11
TORSDOF 14
ENDMDL
MODEL 3
REMARK VINA RESULT:    -4.093      1.817      4.137
REMARK INTER + INTRA:          -9.834
REMARK INTER:                  -8.062
REMARK INTRA:                  -1.772
REMARK UNBOUND:                -2.392
REMARK SMILES CCCCCCCCCCCCCCCC(=O)[O-]
REMARK SMILES IDX 9 1 10 2 11 3 12 4 13 5 14 6 15 7 16 8 17 9 18 10 8 11 7 12
REMARK SMILES IDX 6 13 5 14 4 15 3 16 2 17 1 18
REMARK H PARENT
REMARK Flexibility Score: inf
ROOT
ATOM      1  C   UNL     1      16.683 -43.592  25.794  1.00  0.00     0.000 C 
ENDROOT
BRANCH   1   2
ATOM      2  C   UNL     1      18.185 -43.776  25.486  1.00  0.00     0.000 C 
BRANCH   2   3
ATOM      3  C   UNL     1      18.954 -42.450  25.338  1.00  0.00     0.000 C 
BRANCH   3   4
ATOM      4  C   UNL     1      18.093 -41.179  25.463  1.00  0.00     0.000 C 
BRANCH   4   5
ATOM      5  C   UNL     1      18.380 -40.317  26.707  1.00  0.00     0.000 C 
BRANCH   5   6
ATOM      6  C   UNL     1      18.469 -41.142  28.002  1.00  0.00     0.006 C 
BRANCH   6   7
ATOM      7  C   UNL     1      18.808 -40.273  29.221  1.00  0.00     0.053 C 
BRANCH   7   8
ATOM      8  C   UNL     1      17.581 -39.885  29.987  1.00  0.00     0.041 C 
ATOM      9  O   UNL     1      16.904 -38.883  29.634  1.00  0.00    -0.550 OA
ATOM     10  O   UNL     1      17.206 -40.607  31.113  1.00  0.00    -0.550 OA
ENDBRANCH   7   8
ENDBRANCH   6   7
ENDBRANCH   5   6
ENDBRANCH   4   5
ENDBRANCH   3   4
ENDBRANCH   2   3
ENDBRANCH   1   2
BRANCH   1  11
ATOM     11  C   UNL     1      16.288 -44.184  27.159  1.00  0.00     0.000 C 
BRANCH  11  12
ATOM     12  C   UNL     1      17.189 -45.356  27.579  1.00  0.00    -0.000 C 
BRANCH  12  13
ATOM     13  C   UNL     1      17.255 -45.532  29.107  1.00  0.00    -0.000 C 
BRANCH  13  14
ATOM     14  C   UNL     1      17.502 -44.197  29.833  1.00  0.00    -0.000 C 
BRANCH  14  15
ATOM     15  C   UNL     1      18.950 -44.040  30.349  1.00  0.00    -0.000 C 
BRANCH  15  16
ATOM     16  C   UNL     1      19.035 -43.592  31.821  1.00  0.00    -0.000 C 
BRANCH  16  17
ATOM     17  C   UNL     1      19.561 -44.671  32.784  1.00  0.00    -0.003 C 
ATOM     18  C   UNL     1      18.548 -45.787  33.035  1.00  0.00     0.004 C 
ENDBRANCH  16  17
ENDBRANCH  15  16
ENDBRANCH  14  15
ENDBRANCH  13  14
ENDBRANCH  12  13
ENDBRANCH  11  12
ENDBRANCH   1  11
TORSDOF 14
ENDMDL
MODEL 4
REMARK VINA RESULT:    -4.057      3.071      6.021
REMARK INTER + INTRA:          -9.769
REMARK INTER:                  -8.239
REMARK INTRA:                  -1.531
REMARK UNBOUND:                -2.392
REMARK SMILES CCCCCCCCCCCCCCCC(=O)[O-]
REMARK SMILES IDX 9 1 10 2 11 3 12 4 13 5 14 6 15 7 16 8 17 9 18 10 8 11 7 12
REMARK SMILES IDX 6 13 5 14 4 15 3 16 2 17 1 18
REMARK H PARENT
REMARK Flexibility Score: inf
ROOT
ATOM      1  C   UNL     1      17.514 -45.501  29.081  1.00  0.00     0.000 C 
ENDROOT
BRANCH   1   2
ATOM      2  C   UNL     1      16.855 -45.365  27.691  1.00  0.00     0.000 C 
BRANCH   2   3
ATOM      3  C   UNL     1      16.244 -43.976  27.428  1.00  0.00     0.000 C 
BRANCH   3   4
ATOM      4  C   UNL     1      16.697 -43.302  26.119  1.00  0.00     0.000 C 
BRANCH   4   5
ATOM      5  C   UNL     1      18.090 -43.724  25.617  1.00  0.00     0.000 C 
BRANCH   5   6
ATOM      6  C   UNL     1      18.986 -42.527  25.255  1.00  0.00     0.006 C 
BRANCH   6   7
ATOM      7  C   UNL     1      18.189 -41.375  24.626  1.00  0.00     0.053 C 
BRANCH   7   8
ATOM      8  C   UNL     1      18.475 -40.068  25.299  1.00  0.00     0.041 C 
ATOM      9  O   UNL     1      18.656 -39.028  24.612  1.00  0.00    -0.550 OA
ATOM     10  O   UNL     1      18.577 -40.004  26.683  1.00  0.00    -0.550 OA
ENDBRANCH   7   8
ENDBRANCH   6   7
ENDBRANCH   5   6
ENDBRANCH   4   5
ENDBRANCH   3   4
ENDBRANCH   2   3
ENDBRANCH   1   2
BRANCH   1  11
ATOM     11  C   UNL     1      17.930 -44.141  29.667  1.00  0.00     0.000 C 
BRANCH  11  12
ATOM     12  C   UNL     1      19.037 -44.265  30.726  1.00  0.00    -0.000 C 
BRANCH  12  13
ATOM     13  C   UNL     1      19.075 -43.061  31.685  1.00  0.00    -0.000 C 
BRANCH  13  14
ATOM     14  C   UNL     1      18.428 -43.383  33.043  1.00  0.00    -0.000 C 
BRANCH  14  15
ATOM     15  C   UNL     1      17.215 -42.482  33.372  1.00  0.00    -0.000 C 
BRANCH  15  16
ATOM     16  C   UNL     1      15.856 -43.155  33.098  1.00  0.00    -0.000 C 
BRANCH  16  17
ATOM     17  C   UNL     1      15.930 -44.678  32.895  1.00  0.00    -0.003 C 
ATOM     18  C   UNL     1      14.996 -45.175  31.792  1.00  0.00     0.004 C 
ENDBRANCH  16  17
ENDBRANCH  15  16
ENDBRANCH  14  15
ENDBRANCH  13  14
ENDBRANCH  12  13
ENDBRANCH  11  12
ENDBRANCH   1  11
TORSDOF 14
ENDMDL
MODEL 5
REMARK VINA RESULT:    -4.030      2.060      4.969
REMARK INTER + INTRA:          -9.720
REMARK INTER:                  -8.011
REMARK INTRA:                  -1.709
REMARK UNBOUND:                -2.392
REMARK SMILES CCCCCCCCCCCCCCCC(=O)[O-]
REMARK SMILES IDX 9 1 10 2 11 3 12 4 13 5 14 6 15 7 16 8 17 9 18 10 8 11 7 12
REMARK SMILES IDX 6 13 5 14 4 15 3 16 2 17 1 18
REMARK H PARENT
REMARK Flexibility Score: inf
ROOT
ATOM      1  C   UNL     1      14.682 -43.850  29.781  1.00  0.00     0.000 C 
ENDROOT
BRANCH   1   2
ATOM      2  C   UNL     1      13.802 -44.214  30.998  1.00  0.00     0.000 C 
BRANCH   2   3
ATOM      3  C   UNL     1      14.506 -44.014  32.353  1.00  0.00     0.000 C 
BRANCH   3   4
ATOM      4  C   UNL     1      15.262 -45.246  32.883  1.00  0.00     0.000 C 
BRANCH   4   5
ATOM      5  C   UNL     1      16.793 -45.190  32.725  1.00  0.00     0.000 C 
BRANCH   5   6
ATOM      6  C   UNL     1      17.359 -43.767  32.865  1.00  0.00     0.006 C 
BRANCH   6   7
ATOM      7  C   UNL     1      18.267 -43.385  31.688  1.00  0.00     0.053 C 
BRANCH   7   8
ATOM      8  C   UNL     1      17.729 -42.213  30.926  1.00  0.00     0.041 C 
ATOM      9  O   UNL     1      16.929 -41.412  31.478  1.00  0.00    -0.550 OA
ATOM     10  O   UNL     1      18.081 -42.026  29.596  1.00  0.00    -0.550 OA
ENDBRANCH   7   8
ENDBRANCH   6   7
ENDBRANCH   5   6
ENDBRANCH   4   5
ENDBRANCH   3   4
ENDBRANCH   2   3
ENDBRANCH   1   2
BRANCH   1  11
ATOM     11  C   UNL     1      15.107 -45.090  28.975  1.00  0.00     0.000 C 
BRANCH  11  12
ATOM     12  C   UNL     1      16.628 -45.309  28.984  1.00  0.00    -0.000 C 
BRANCH  12  13
ATOM     13  C   UNL     1      17.222 -45.389  27.566  1.00  0.00    -0.000 C 
BRANCH  13  14
ATOM     14  C   UNL     1      17.075 -44.062  26.802  1.00  0.00    -0.000 C 
BRANCH  14  15
ATOM     15  C   UNL     1      17.878 -44.023  25.481  1.00  0.00    -0.000 C 
BRANCH  15  16
ATOM     16  C   UNL     1      18.849 -42.831  25.385  1.00  0.00    -0.000 C 
BRANCH  16  17
ATOM     17  C   UNL     1      18.172 -41.482  25.085  1.00  0.00    -0.003 C 
ATOM     18  C   UNL     1      18.277 -40.495  26.248  1.00  0.00     0.004 C 
ENDBRANCH  16  17
ENDBRANCH  15  16
ENDBRANCH  14  15
ENDBRANCH  13  14
ENDBRANCH  12  13
ENDBRANCH  11  12
ENDBRANCH   1  11
TORSDOF 14
ENDMDL
MODEL 6
REMARK VINA RESULT:    -4.017      1.200      3.582
REMARK INTER + INTRA:          -9.696
REMARK INTER:                  -7.537
REMARK INTRA:                  -2.159
REMARK UNBOUND:                -2.392
REMARK SMILES CCCCCCCCCCCCCCCC(=O)[O-]
REMARK SMILES IDX 9 1 10 2 11 3 12 4 13 5 14 6 15 7 16 8 17 9 18 10 8 11 7 12
REMARK SMILES IDX 6 13 5 14 4 15 3 16 2 17 1 18
REMARK H PARENT
REMARK Flexibility Score: inf
ROOT
ATOM      1  C   UNL     1      18.923 -42.489  25.410  1.00  0.00     0.000 C 
ENDROOT
BRANCH   1   2
ATOM      2  C   UNL     1      18.248 -43.878  25.358  1.00  0.00     0.000 C 
BRANCH   2   3
ATOM      3  C   UNL     1      17.003 -43.997  26.257  1.00  0.00     0.000 C 
BRANCH   3   4
ATOM      4  C   UNL     1      17.129 -45.006  27.414  1.00  0.00     0.000 C 
BRANCH   4   5
ATOM      5  C   UNL     1      15.920 -45.060  28.367  1.00  0.00     0.000 C 
BRANCH   5   6
ATOM      6  C   UNL     1      16.327 -45.185  29.845  1.00  0.00     0.006 C 
BRANCH   6   7
ATOM      7  C   UNL     1      17.850 -45.167  30.031  1.00  0.00     0.053 C 
BRANCH   7   8
ATOM      8  C   UNL     1      18.239 -44.697  31.399  1.00  0.00     0.041 C 
ATOM      9  O   UNL     1      19.040 -43.735  31.534  1.00  0.00    -0.550 OA
ATOM     10  O   UNL     1      17.746 -45.345  32.524  1.00  0.00    -0.550 OA
ENDBRANCH   7   8
ENDBRANCH   6   7
ENDBRANCH   5   6
ENDBRANCH   4   5
ENDBRANCH   3   4
ENDBRANCH   2   3
ENDBRANCH   1   2
BRANCH   1  11
ATOM     11  C   UNL     1      18.278 -41.489  24.435  1.00  0.00     0.000 C 
BRANCH  11  12
ATOM     12  C   UNL     1      17.635 -40.291  25.153  1.00  0.00    -0.000 C 
BRANCH  12  13
ATOM     13  C   UNL     1      18.637 -39.523  26.034  1.00  0.00    -0.000 C 
BRANCH  13  14
ATOM     14  C   UNL     1      18.077 -39.247  27.440  1.00  0.00    -0.000 C 
BRANCH  14  15
ATOM     15  C   UNL     1      18.873 -39.950  28.564  1.00  0.00    -0.000 C 
BRANCH  15  16
ATOM     16  C   UNL     1      18.446 -41.410  28.801  1.00  0.00    -0.000 C 
BRANCH  16  17
ATOM     17  C   UNL     1      16.963 -41.586  29.177  1.00  0.00    -0.003 C 
ATOM     18  C   UNL     1      16.680 -41.259  30.643  1.00  0.00     0.004 C 
ENDBRANCH  16  17
ENDBRANCH  15  16
ENDBRANCH  14  15
ENDBRANCH  13  14
ENDBRANCH  12  13
ENDBRANCH  11  12
ENDBRANCH   1  11
TORSDOF 14
ENDMDL
MODEL 7
REMARK VINA RESULT:    -4.004      1.308      2.238
REMARK INTER + INTRA:          -9.672
REMARK INTER:                  -7.366
REMARK INTRA:                  -2.306
REMARK UNBOUND:                -2.392
REMARK SMILES CCCCCCCCCCCCCCCC(=O)[O-]
REMARK SMILES IDX 9 1 10 2 11 3 12 4 13 5 14 6 15 7 16 8 17 9 18 10 8 11 7 12
REMARK SMILES IDX 6 13 5 14 4 15 3 16 2 17 1 18
REMARK H PARENT
REMARK Flexibility Score: inf
ROOT
ATOM      1  C   UNL     1      18.171 -41.377  24.573  1.00  0.00     0.000 C 
ENDROOT
BRANCH   1   2
ATOM      2  C   UNL     1      18.518 -39.966  25.096  1.00  0.00     0.000 C 
BRANCH   2   3
ATOM      3  C   UNL     1      17.809 -39.602  26.414  1.00  0.00     0.000 C 
BRANCH   3   4
ATOM      4  C   UNL     1      18.746 -39.219  27.574  1.00  0.00     0.000 C 
BRANCH   4   5
ATOM      5  C   UNL     1      18.196 -39.514  28.982  1.00  0.00     0.000 C 
BRANCH   5   6
ATOM      6  C   UNL     1      17.792 -40.986  29.172  1.00  0.00     0.006 C 
BRANCH   6   7
ATOM      7  C   UNL     1      18.996 -41.934  29.082  1.00  0.00     0.053 C 
BRANCH   7   8
ATOM      8  C   UNL     1      19.857 -41.860  30.306  1.00  0.00     0.041 C 
ATOM      9  O   UNL     1      19.517 -42.464  31.357  1.00  0.00    -0.550 OA
ATOM     10  O   UNL     1      21.015 -41.092  30.298  1.00  0.00    -0.550 OA
ENDBRANCH   7   8
ENDBRANCH   6   7
ENDBRANCH   5   6
ENDBRANCH   4   5
ENDBRANCH   3   4
ENDBRANCH   2   3
ENDBRANCH   1   2
BRANCH   1  11
ATOM     11  C   UNL     1      18.726 -42.490  25.478  1.00  0.00     0.000 C 
BRANCH  11  12
ATOM     12  C   UNL     1      17.668 -43.545  25.839  1.00  0.00    -0.000 C 
BRANCH  12  13
ATOM     13  C   UNL     1      16.237 -43.081  25.512  1.00  0.00    -0.000 C 
BRANCH  13  14
ATOM     14  C   UNL     1      15.492 -42.579  26.762  1.00  0.00    -0.000 C 
BRANCH  14  15
ATOM     15  C   UNL     1      14.881 -43.718  27.609  1.00  0.00    -0.000 C 
BRANCH  15  16
ATOM     16  C   UNL     1      15.504 -43.846  29.012  1.00  0.00    -0.000 C 
BRANCH  16  17
ATOM     17  C   UNL     1      16.009 -45.258  29.357  1.00  0.00    -0.003 C 
ATOM     18  C   UNL     1      17.490 -45.453  29.036  1.00  0.00     0.004 C 
ENDBRANCH  16  17
ENDBRANCH  15  16
ENDBRANCH  14  15
ENDBRANCH  13  14
ENDBRANCH  12  13
ENDBRANCH  11  12
ENDBRANCH   1  11
TORSDOF 14
ENDMDL
MODEL 8
REMARK VINA RESULT:    -3.990      2.204      4.025
REMARK INTER + INTRA:          -9.647
REMARK INTER:                  -7.487
REMARK INTRA:                  -2.160
REMARK UNBOUND:                -2.392
REMARK SMILES CCCCCCCCCCCCCCCC(=O)[O-]
REMARK SMILES IDX 9 1 10 2 11 3 12 4 13 5 14 6 15 7 16 8 17 9 18 10 8 11 7 12
REMARK SMILES IDX 6 13 5 14 4 15 3 16 2 17 1 18
REMARK H PARENT
REMARK Flexibility Score: inf
ROOT
ATOM      1  C   UNL     1      17.499 -44.599  26.195  1.00  0.00     0.000 C 
ENDROOT
BRANCH   1   2
ATOM      2  C   UNL     1      16.387 -44.108  27.149  1.00  0.00     0.000 C 
BRANCH   2   3
ATOM      3  C   UNL     1      16.235 -44.969  28.417  1.00  0.00     0.000 C 
BRANCH   3   4
ATOM      4  C   UNL     1      17.555 -45.492  29.013  1.00  0.00     0.000 C 
BRANCH   4   5
ATOM      5  C   UNL     1      18.179 -44.597  30.100  1.00  0.00     0.000 C 
BRANCH   5   6
ATOM      6  C   UNL     1      17.958 -45.140  31.523  1.00  0.00     0.006 C 
BRANCH   6   7
ATOM      7  C   UNL     1      16.831 -44.400  32.257  1.00  0.00     0.053 C 
BRANCH   7   8
ATOM      8  C   UNL     1      15.588 -45.231  32.349  1.00  0.00     0.041 C 
ATOM      9  O   UNL     1      15.455 -46.070  33.279  1.00  0.00    -0.550 OA
ATOM     10  O   UNL     1      14.593 -45.106  31.388  1.00  0.00    -0.550 OA
ENDBRANCH   7   8
ENDBRANCH   6   7
ENDBRANCH   5   6
ENDBRANCH   4   5
ENDBRANCH   3   4
ENDBRANCH   2   3
ENDBRANCH   1   2
BRANCH   1  11
ATOM     11  C   UNL     1      18.101 -43.455  25.360  1.00  0.00     0.000 C 
BRANCH  11  12
ATOM     12  C   UNL     1      18.853 -42.426  26.220  1.00  0.00    -0.000 C 
BRANCH  12  13
ATOM     13  C   UNL     1      18.301 -40.999  26.052  1.00  0.00    -0.000 C 
BRANCH  13  14
ATOM     14  C   UNL     1      18.312 -40.215  27.376  1.00  0.00    -0.000 C 
BRANCH  14  15
ATOM     15  C   UNL     1      18.136 -41.115  28.621  1.00  0.00    -0.000 C 
BRANCH  15  16
ATOM     16  C   UNL     1      17.087 -40.588  29.618  1.00  0.00    -0.000 C 
BRANCH  16  17
ATOM     17  C   UNL     1      16.021 -41.621  30.025  1.00  0.00    -0.003 C 
ATOM     18  C   UNL     1      14.707 -41.446  29.265  1.00  0.00     0.004 C 
ENDBRANCH  16  17
ENDBRANCH  15  16
ENDBRANCH  14  15
ENDBRANCH  13  14
ENDBRANCH  12  13
ENDBRANCH  11  12
ENDBRANCH   1  11
TORSDOF 14
ENDMDL
MODEL 9
REMARK VINA RESULT:    -3.970      3.361      5.777
REMARK INTER + INTRA:          -9.612
REMARK INTER:                  -7.252
REMARK INTRA:                  -2.360
REMARK UNBOUND:                -2.392
REMARK SMILES CCCCCCCCCCCCCCCC(=O)[O-]
REMARK SMILES IDX 9 1 10 2 11 3 12 4 13 5 14 6 15 7 16 8 17 9 18 10 8 11 7 12
REMARK SMILES IDX 6 13 5 14 4 15 3 16 2 17 1 18
REMARK H PARENT
REMARK Flexibility Score: inf
ROOT
ATOM      1  C   UNL     1      15.215 -44.770  28.388  1.00  0.00     0.000 C 
ENDROOT
BRANCH   1   2
ATOM      2  C   UNL     1      15.130 -43.244  28.165  1.00  0.00     0.000 C 
BRANCH   2   3
ATOM      3  C   UNL     1      15.929 -42.751  26.944  1.00  0.00     0.000 C 
BRANCH   3   4
ATOM      4  C   UNL     1      16.328 -43.848  25.939  1.00  0.00     0.000 C 
BRANCH   4   5
ATOM      5  C   UNL     1      17.843 -44.011  25.718  1.00  0.00     0.000 C 
BRANCH   5   6
ATOM      6  C   UNL     1      18.621 -42.697  25.904  1.00  0.00     0.006 C 
BRANCH   6   7
ATOM      7  C   UNL     1      18.793 -41.933  24.583  1.00  0.00     0.053 C 
BRANCH   7   8
ATOM      8  C   UNL     1      18.020 -40.650  24.577  1.00  0.00     0.041 C 
ATOM      9  O   UNL     1      16.809 -40.642  24.234  1.00  0.00    -0.550 OA
ATOM     10  O   UNL     1      18.647 -39.458  24.915  1.00  0.00    -0.550 OA
ENDBRANCH   7   8
ENDBRANCH   6   7
ENDBRANCH   5   6
ENDBRANCH   4   5
ENDBRANCH   3   4
ENDBRANCH   2   3
ENDBRANCH   1   2
BRANCH   1  11
ATOM     11  C   UNL     1      16.009 -45.132  29.655  1.00  0.00     0.000 C 
BRANCH  11  12
ATOM     12  C   UNL     1      17.495 -45.399  29.368  1.00  0.00    -0.000 C 
BRANCH  12  13
ATOM     13  C   UNL     1      18.429 -44.499  30.198  1.00  0.00    -0.000 C 
BRANCH  13  14
ATOM     14  C   UNL     1      18.482 -43.061  29.652  1.00  0.00    -0.000 C 
BRANCH  14  15
ATOM     15  C   UNL     1      18.343 -41.983  30.752  1.00  0.00    -0.000 C 
BRANCH  15  16
ATOM     16  C   UNL     1      16.905 -41.825  31.281  1.00  0.00    -0.000 C 
BRANCH  16  17
ATOM     17  C   UNL     1      16.737 -42.152  32.775  1.00  0.00    -0.003 C 
ATOM     18  C   UNL     1      15.895 -43.405  33.016  1.00  0.00     0.004 C 
ENDBRANCH  16  17
ENDBRANCH  15  16
ENDBRANCH  14  15
ENDBRANCH  13  14
ENDBRANCH  12  13
ENDBRANCH  11  12
ENDBRANCH   1  11
TORSDOF 14
ENDMDL
