MODEL 1
REMARK VINA RESULT:    57.758      0.000      0.000
REMARK INTER + INTRA:          80.939
REMARK INTER:                  81.394
REMARK INTRA:                  -0.455
REMARK UNBOUND:                -0.455
REMARK SMILES COc1c(O[C@@H]2O[C@H](C(=O)[O-])[C@@H](O)[C@H](O)[C@H]2O)cc(O)c2c(=O)cc(-c3ccccc3)oc12
REMARK SMILES IDX 5 1 6 2 8 3 12 4 7 5 14 6 16 7 9 8 10 9 11 10 13 11 15 13
REMARK SMILES IDX 17 15 4 17 3 18 18 19 33 20 19 21 21 22 32 23 22 24 25 25
REMARK SMILES IDX 24 26 23 27 2 28 1 29 20 30 26 32 27 33 31 34 28 35 30 36
REMARK SMILES IDX 29 37
REMARK H PARENT 13 12 15 14 17 16 20 31
REMARK Flexibility Score: inf
ROOT
ATOM      1  O   UNL     1     -15.250 -23.903  -8.400  1.00  0.00    -0.458 OA
ENDROOT
BRANCH   1   2
ATOM      2  C   UNL     1     -16.321 -22.992  -8.643  1.00  0.00     0.339 C 
ATOM      3  C   UNL     1     -18.571 -22.865  -9.231  1.00  0.00     0.199 C 
ATOM      4  C   UNL     1     -18.316 -21.821 -10.343  1.00  0.00     0.180 C 
ATOM      5  O   UNL     1     -17.451 -23.721  -9.093  1.00  0.00    -0.328 OA
ATOM      6  C   UNL     1     -17.034 -21.019 -10.032  1.00  0.00     0.181 C 
ATOM      7  C   UNL     1     -15.879 -21.979  -9.716  1.00  0.00     0.214 C 
BRANCH   3   8
ATOM      8  C   UNL     1     -19.767 -23.701  -9.577  1.00  0.00     0.073 C 
ATOM      9  O   UNL     1     -20.184 -23.752 -10.765  1.00  0.00    -0.547 OA
ATOM     10  O   UNL     1     -20.399 -24.456  -8.596  1.00  0.00    -0.547 OA
ENDBRANCH   3   8
BRANCH   4  11
ATOM     11  O   UNL     1     -19.417 -20.959 -10.494  1.00  0.00    -0.387 OA
ATOM     12  H   UNL     1     -19.980 -21.045  -9.681  1.00  0.00     0.211 HD
ENDBRANCH   4  11
BRANCH   6  13
ATOM     13  O   UNL     1     -16.685 -20.221 -11.133  1.00  0.00    -0.387 OA
ATOM     14  H   UNL     1     -15.695 -20.138 -11.126  1.00  0.00     0.211 HD
ENDBRANCH   6  13
BRANCH   7  15
ATOM     15  O   UNL     1     -14.777 -21.239  -9.256  1.00  0.00    -0.384 OA
ATOM     16  H   UNL     1     -14.014 -21.453  -9.857  1.00  0.00     0.211 HD
ENDBRANCH   7  15
ENDBRANCH   1   2
BRANCH   1  17
ATOM     17  C   UNL     1     -14.850 -24.360  -7.133  1.00  0.00     0.172 A 
ATOM     18  C   UNL     1     -13.795 -23.701  -6.498  1.00  0.00     0.205 A 
ATOM     19  C   UNL     1     -15.483 -25.432  -6.487  1.00  0.00     0.097 A 
ATOM     20  C   UNL     1     -13.329 -24.146  -5.249  1.00  0.00     0.188 A 
ATOM     21  C   UNL     1     -15.079 -25.855  -5.217  1.00  0.00     0.134 A 
ATOM     22  C   UNL     1     -13.952 -25.242  -4.596  1.00  0.00     0.111 A 
ATOM     23  O   UNL     1     -12.277 -23.541  -4.702  1.00  0.00    -0.452 OA
ATOM     24  C   UNL     1     -13.376 -25.675  -3.378  1.00  0.00     0.197 A 
ATOM     25  C   UNL     1     -11.733 -23.912  -3.548  1.00  0.00     0.138 A 
ATOM     26  C   UNL     1     -12.280 -24.995  -2.848  1.00  0.00     0.100 A 
ATOM     27  O   UNL     1     -13.802 -26.684  -2.759  1.00  0.00    -0.289 OA
BRANCH  18  28
ATOM     28  O   UNL     1     -13.196 -22.615  -7.141  1.00  0.00    -0.490 OA
ATOM     29  C   UNL     1     -12.104 -21.907  -6.566  1.00  0.00     0.278 C 
ENDBRANCH  18  28
BRANCH  21  30
ATOM     30  O   UNL     1     -15.844 -26.864  -4.623  1.00  0.00    -0.507 OA
ATOM     31  H   UNL     1     -16.753 -26.728  -4.207  1.00  0.00     0.293 HD
ENDBRANCH  21  30
BRANCH  25  32
ATOM     32  C   UNL     1     -10.557 -23.166  -3.034  1.00  0.00     0.017 A 
ATOM     33  C   UNL     1     -10.693 -21.906  -2.414  1.00  0.00     0.012 A 
ATOM     34  C   UNL     1      -9.275 -23.736  -3.132  1.00  0.00     0.012 A 
ATOM     35  C   UNL     1      -9.570 -21.232  -1.928  1.00  0.00     0.001 A 
ATOM     36  C   UNL     1      -8.154 -23.056  -2.644  1.00  0.00     0.001 A 
ATOM     37  C   UNL     1      -8.301 -21.803  -2.045  1.00  0.00     0.000 A 
ENDBRANCH  25  32
ENDBRANCH   1  17
TORSDOF 9
ENDMDL
MODEL 2
REMARK VINA RESULT:    58.109      1.643      3.550
REMARK INTER + INTRA:          81.433
REMARK INTER:                  79.627
REMARK INTRA:                   1.806
REMARK UNBOUND:                -0.455
REMARK SMILES COc1c(O[C@@H]2O[C@H](C(=O)[O-])[C@@H](O)[C@H](O)[C@H]2O)cc(O)c2c(=O)cc(-c3ccccc3)oc12
REMARK SMILES IDX 5 1 6 2 8 3 12 4 7 5 14 6 16 7 9 8 10 9 11 10 13 11 15 13
REMARK SMILES IDX 17 15 4 17 3 18 18 19 33 20 19 21 21 22 32 23 22 24 25 25
REMARK SMILES IDX 24 26 23 27 2 28 1 29 20 30 26 32 27 33 31 34 28 35 30 36
REMARK SMILES IDX 29 37
REMARK H PARENT 13 12 15 14 17 16 20 31
REMARK Flexibility Score: inf
ROOT
ATOM      1  O   UNL     1     -16.575 -23.169 -10.557  1.00  0.00    -0.458 OA
ENDROOT
BRANCH   1   2
ATOM      2  C   UNL     1     -17.805 -22.462 -10.708  1.00  0.00     0.339 C 
ATOM      3  C   UNL     1     -18.778 -20.349 -10.566  1.00  0.00     0.199 C 
ATOM      4  C   UNL     1     -19.941 -20.845  -9.676  1.00  0.00     0.180 C 
ATOM      5  O   UNL     1     -17.609 -21.112 -10.318  1.00  0.00    -0.328 OA
ATOM      6  C   UNL     1     -20.192 -22.348  -9.920  1.00  0.00     0.181 C 
ATOM      7  C   UNL     1     -18.872 -23.124  -9.815  1.00  0.00     0.214 C 
BRANCH   3   8
ATOM      8  C   UNL     1     -18.477 -18.911 -10.265  1.00  0.00     0.073 C 
ATOM      9  O   UNL     1     -17.508 -18.335 -10.828  1.00  0.00    -0.547 OA
ATOM     10  O   UNL     1     -19.290 -18.194  -9.396  1.00  0.00    -0.547 OA
ENDBRANCH   3   8
BRANCH   4  11
ATOM     11  O   UNL     1     -21.112 -20.100  -9.909  1.00  0.00    -0.387 OA
ATOM     12  H   UNL     1     -21.429 -20.317 -10.824  1.00  0.00     0.211 HD
ENDBRANCH   4  11
BRANCH   6  13
ATOM     13  O   UNL     1     -21.099 -22.846  -8.972  1.00  0.00    -0.387 OA
ATOM     14  H   UNL     1     -21.164 -22.166  -8.251  1.00  0.00     0.211 HD
ENDBRANCH   6  13
BRANCH   7  15
ATOM     15  O   UNL     1     -19.084 -24.452 -10.221  1.00  0.00    -0.384 OA
ATOM     16  H   UNL     1     -20.068 -24.593 -10.244  1.00  0.00     0.211 HD
ENDBRANCH   7  15
ENDBRANCH   1   2
BRANCH   1  17
ATOM     17  C   UNL     1     -16.169 -23.845  -9.395  1.00  0.00     0.172 A 
ATOM     18  C   UNL     1     -15.414 -23.142  -8.454  1.00  0.00     0.205 A 
ATOM     19  C   UNL     1     -16.513 -25.182  -9.145  1.00  0.00     0.097 A 
ATOM     20  C   UNL     1     -14.946 -23.785  -7.295  1.00  0.00     0.188 A 
ATOM     21  C   UNL     1     -16.113 -25.827  -7.970  1.00  0.00     0.134 A 
ATOM     22  C   UNL     1     -15.274 -25.144  -7.043  1.00  0.00     0.111 A 
ATOM     23  O   UNL     1     -14.170 -23.109  -6.452  1.00  0.00    -0.452 OA
ATOM     24  C   UNL     1     -14.703 -25.738  -5.892  1.00  0.00     0.197 A 
ATOM     25  C   UNL     1     -13.643 -23.637  -5.352  1.00  0.00     0.138 A 
ATOM     26  C   UNL     1     -13.906 -24.976  -5.040  1.00  0.00     0.100 A 
ATOM     27  O   UNL     1     -14.866 -26.956  -5.619  1.00  0.00    -0.289 OA
BRANCH  18  28
ATOM     28  O   UNL     1     -15.107 -21.802  -8.703  1.00  0.00    -0.490 OA
ATOM     29  C   UNL     1     -14.970 -21.293 -10.024  1.00  0.00     0.278 C 
ENDBRANCH  18  28
BRANCH  21  30
ATOM     30  O   UNL     1     -16.597 -27.124  -7.777  1.00  0.00    -0.507 OA
ATOM     31  H   UNL     1     -16.076 -27.967  -7.966  1.00  0.00     0.293 HD
ENDBRANCH  21  30
BRANCH  25  32
ATOM     32  C   UNL     1     -12.786 -22.787  -4.486  1.00  0.00     0.017 A 
ATOM     33  C   UNL     1     -11.757 -23.340  -3.695  1.00  0.00     0.012 A 
ATOM     34  C   UNL     1     -12.975 -21.394  -4.472  1.00  0.00     0.012 A 
ATOM     35  C   UNL     1     -10.957 -22.515  -2.898  1.00  0.00     0.001 A 
ATOM     36  C   UNL     1     -12.173 -20.574  -3.673  1.00  0.00     0.001 A 
ATOM     37  C   UNL     1     -11.166 -21.135  -2.884  1.00  0.00     0.000 A 
ENDBRANCH  25  32
ENDBRANCH   1  17
TORSDOF 9
ENDMDL
