MODEL 1
REMARK VINA RESULT:    -4.997      0.000      0.000
REMARK INTER + INTRA:          -8.180
REMARK INTER:                  -7.626
REMARK INTRA:                  -0.554
REMARK UNBOUND:                -0.554
REMARK SMILES CCCCCCCCCC=CC(=O)[O-]
REMARK SMILES IDX 7 1 8 2 9 3 10 4 11 5 12 6 13 7 14 8 6 9 5 10 4 11 3 12 2 13
REMARK SMILES IDX 1 14
REMARK H PARENT
REMARK Flexibility Score: inf
ROOT
ATOM      1  C   UNL     1      23.285  40.403   1.032  1.00  0.00     0.000 C 
ENDROOT
BRANCH   1   2
ATOM      2  C   UNL     1      21.805  40.349   0.617  1.00  0.00     0.004 C 
BRANCH   2   3
ATOM      3  C   UNL     1      21.184  41.752   0.514  1.00  0.00     0.027 C 
BRANCH   3   4
ATOM      4  C   UNL     1      20.647  42.238   1.834  1.00  0.00    -0.025 C 
ATOM      5  C   UNL     1      19.355  42.266   2.201  1.00  0.00     0.020 C 
BRANCH   5   6
ATOM      6  C   UNL     1      18.196  41.872   1.372  1.00  0.00     0.064 C 
ATOM      7  O   UNL     1      17.653  42.738   0.637  1.00  0.00    -0.545 OA
ATOM      8  O   UNL     1      17.704  40.574   1.353  1.00  0.00    -0.545 OA
ENDBRANCH   5   6
ENDBRANCH   3   4
ENDBRANCH   2   3
ENDBRANCH   1   2
BRANCH   1   9
ATOM      9  C   UNL     1      24.031  39.084   0.759  1.00  0.00     0.000 C 
BRANCH   9  10
ATOM     10  C   UNL     1      24.008  38.068   1.917  1.00  0.00     0.000 C 
BRANCH  10  11
ATOM     11  C   UNL     1      23.583  36.641   1.526  1.00  0.00    -0.000 C 
BRANCH  11  12
ATOM     12  C   UNL     1      24.762  35.770   1.072  1.00  0.00    -0.000 C 
BRANCH  12  13
ATOM     13  C   UNL     1      24.467  35.107  -0.279  1.00  0.00    -0.003 C 
ATOM     14  C   UNL     1      22.978  35.165  -0.608  1.00  0.00     0.004 C 
ENDBRANCH  12  13
ENDBRANCH  11  12
ENDBRANCH  10  11
ENDBRANCH   9  10
ENDBRANCH   1   9
TORSDOF 9
ENDMDL
MODEL 2
REMARK VINA RESULT:    -4.906      1.648      1.991
REMARK INTER + INTRA:          -8.041
REMARK INTER:                  -7.363
REMARK INTRA:                  -0.678
REMARK UNBOUND:                -0.554
REMARK SMILES CCCCCCCCCC=CC(=O)[O-]
REMARK SMILES IDX 7 1 8 2 9 3 10 4 11 5 12 6 13 7 14 8 6 9 5 10 4 11 3 12 2 13
REMARK SMILES IDX 1 14
REMARK H PARENT
REMARK Flexibility Score: inf
ROOT
ATOM      1  C   UNL     1      22.478  40.748   1.087  1.00  0.00     0.000 C 
ENDROOT
BRANCH   1   2
ATOM      2  C   UNL     1      21.498  41.672   0.344  1.00  0.00     0.004 C 
BRANCH   2   3
ATOM      3  C   UNL     1      20.404  42.219   1.275  1.00  0.00     0.027 C 
BRANCH   3   4
ATOM      4  C   UNL     1      19.137  41.407   1.209  1.00  0.00    -0.025 C 
ATOM      5  C   UNL     1      18.627  40.654   2.197  1.00  0.00     0.020 C 
BRANCH   5   6
ATOM      6  C   UNL     1      19.224  40.430   3.530  1.00  0.00     0.064 C 
ATOM      7  O   UNL     1      18.762  41.060   4.517  1.00  0.00    -0.545 OA
ATOM      8  O   UNL     1      20.258  39.526   3.737  1.00  0.00    -0.545 OA
ENDBRANCH   5   6
ENDBRANCH   3   4
ENDBRANCH   2   3
ENDBRANCH   1   2
BRANCH   1   9
ATOM      9  C   UNL     1      22.310  39.266   0.705  1.00  0.00     0.000 C 
BRANCH   9  10
ATOM     10  C   UNL     1      23.533  38.373   0.995  1.00  0.00     0.000 C 
BRANCH  10  11
ATOM     11  C   UNL     1      23.225  36.873   1.147  1.00  0.00    -0.000 C 
BRANCH  11  12
ATOM     12  C   UNL     1      24.485  35.998   1.111  1.00  0.00    -0.000 C 
BRANCH  12  13
ATOM     13  C   UNL     1      24.468  35.059  -0.101  1.00  0.00    -0.003 C 
ATOM     14  C   UNL     1      23.080  34.995  -0.729  1.00  0.00     0.004 C 
ENDBRANCH  12  13
ENDBRANCH  11  12
ENDBRANCH  10  11
ENDBRANCH   9  10
ENDBRANCH   1   9
TORSDOF 9
ENDMDL
MODEL 3
REMARK VINA RESULT:    -4.775      1.830      2.871
REMARK INTER + INTRA:          -7.842
REMARK INTER:                  -6.702
REMARK INTRA:                  -1.140
REMARK UNBOUND:                -0.554
REMARK SMILES CCCCCCCCCC=CC(=O)[O-]
REMARK SMILES IDX 7 1 8 2 9 3 10 4 11 5 12 6 13 7 14 8 6 9 5 10 4 11 3 12 2 13
REMARK SMILES IDX 1 14
REMARK H PARENT
REMARK Flexibility Score: inf
ROOT
ATOM      1  C   UNL     1      22.031  38.074   3.973  1.00  0.00     0.000 C 
ENDROOT
BRANCH   1   2
ATOM      2  C   UNL     1      23.140  39.119   4.186  1.00  0.00     0.004 C 
BRANCH   2   3
ATOM      3  C   UNL     1      22.965  40.340   3.270  1.00  0.00     0.027 C 
BRANCH   3   4
ATOM      4  C   UNL     1      22.873  39.957   1.816  1.00  0.00    -0.025 C 
ATOM      5  C   UNL     1      21.917  40.343   0.955  1.00  0.00     0.020 C 
BRANCH   5   6
ATOM      6  C   UNL     1      20.739  41.179   1.265  1.00  0.00     0.064 C 
ATOM      7  O   UNL     1      20.789  42.414   1.026  1.00  0.00    -0.545 OA
ATOM      8  O   UNL     1      19.566  40.645   1.784  1.00  0.00    -0.545 OA
ENDBRANCH   5   6
ENDBRANCH   3   4
ENDBRANCH   2   3
ENDBRANCH   1   2
BRANCH   1   9
ATOM      9  C   UNL     1      22.581  36.683   3.611  1.00  0.00     0.000 C 
BRANCH   9  10
ATOM     10  C   UNL     1      24.091  36.637   3.301  1.00  0.00     0.000 C 
BRANCH  10  11
ATOM     11  C   UNL     1      24.448  36.343   1.833  1.00  0.00    -0.000 C 
BRANCH  11  12
ATOM     12  C   UNL     1      23.254  36.507   0.883  1.00  0.00    -0.000 C 
BRANCH  12  13
ATOM     13  C   UNL     1      23.257  35.417  -0.195  1.00  0.00    -0.003 C 
ATOM     14  C   UNL     1      24.653  34.832  -0.384  1.00  0.00     0.004 C 
ENDBRANCH  12  13
ENDBRANCH  11  12
ENDBRANCH  10  11
ENDBRANCH   9  10
ENDBRANCH   1   9
TORSDOF 9
ENDMDL
MODEL 4
REMARK VINA RESULT:    -4.727      7.301      8.801
REMARK INTER + INTRA:          -7.769
REMARK INTER:                  -7.334
REMARK INTRA:                  -0.434
REMARK UNBOUND:                -0.554
REMARK SMILES CCCCCCCCCC=CC(=O)[O-]
REMARK SMILES IDX 7 1 8 2 9 3 10 4 11 5 12 6 13 7 14 8 6 9 5 10 4 11 3 12 2 13
REMARK SMILES IDX 1 14
REMARK H PARENT
REMARK Flexibility Score: inf
ROOT
ATOM      1  C   UNL     1      25.224  38.299   6.393  1.00  0.00     0.000 C 
ENDROOT
BRANCH   1   2
ATOM      2  C   UNL     1      25.947  36.999   6.784  1.00  0.00     0.004 C 
BRANCH   2   3
ATOM      3  C   UNL     1      26.580  37.090   8.182  1.00  0.00     0.027 C 
BRANCH   3   4
ATOM      4  C   UNL     1      25.692  37.805   9.167  1.00  0.00    -0.025 C 
ATOM      5  C   UNL     1      26.102  38.533  10.218  1.00  0.00     0.020 C 
BRANCH   5   6
ATOM      6  C   UNL     1      27.499  38.742  10.652  1.00  0.00     0.064 C 
ATOM      7  O   UNL     1      28.227  39.534   9.998  1.00  0.00    -0.545 OA
ATOM      8  O   UNL     1      28.029  38.119  11.774  1.00  0.00    -0.545 OA
ENDBRANCH   5   6
ENDBRANCH   3   4
ENDBRANCH   2   3
ENDBRANCH   1   2
BRANCH   1   9
ATOM      9  C   UNL     1      24.508  38.199   5.034  1.00  0.00     0.000 C 
BRANCH   9  10
ATOM     10  C   UNL     1      24.326  36.767   4.494  1.00  0.00     0.000 C 
BRANCH  10  11
ATOM     11  C   UNL     1      23.639  36.669   3.120  1.00  0.00    -0.000 C 
BRANCH  11  12
ATOM     12  C   UNL     1      24.607  36.276   1.995  1.00  0.00    -0.000 C 
BRANCH  12  13
ATOM     13  C   UNL     1      24.036  36.653   0.623  1.00  0.00    -0.003 C 
ATOM     14  C   UNL     1      23.424  35.441  -0.072  1.00  0.00     0.004 C 
ENDBRANCH  12  13
ENDBRANCH  11  12
ENDBRANCH  10  11
ENDBRANCH   9  10
ENDBRANCH   1   9
TORSDOF 9
ENDMDL
MODEL 5
REMARK VINA RESULT:    -4.647      2.474      2.897
REMARK INTER + INTRA:          -7.647
REMARK INTER:                  -7.087
REMARK INTRA:                  -0.559
REMARK UNBOUND:                -0.554
REMARK SMILES CCCCCCCCCC=CC(=O)[O-]
REMARK SMILES IDX 7 1 8 2 9 3 10 4 11 5 12 6 13 7 14 8 6 9 5 10 4 11 3 12 2 13
REMARK SMILES IDX 1 14
REMARK H PARENT
REMARK Flexibility Score: inf
ROOT
ATOM      1  C   UNL     1      21.875  39.622   1.112  1.00  0.00     0.000 C 
ENDROOT
BRANCH   1   2
ATOM      2  C   UNL     1      21.104  40.905   1.465  1.00  0.00     0.004 C 
BRANCH   2   3
ATOM      3  C   UNL     1      20.153  40.696   2.655  1.00  0.00     0.027 C 
BRANCH   3   4
ATOM      4  C   UNL     1      20.891  40.382   3.929  1.00  0.00    -0.025 C 
ATOM      5  C   UNL     1      20.356  39.860   5.045  1.00  0.00     0.020 C 
BRANCH   5   6
ATOM      6  C   UNL     1      18.932  39.535   5.269  1.00  0.00     0.064 C 
ATOM      7  O   UNL     1      18.522  38.378   4.990  1.00  0.00    -0.545 OA
ATOM      8  O   UNL     1      18.037  40.451   5.805  1.00  0.00    -0.545 OA
ENDBRANCH   5   6
ENDBRANCH   3   4
ENDBRANCH   2   3
ENDBRANCH   1   2
BRANCH   1   9
ATOM      9  C   UNL     1      23.398  39.838   1.048  1.00  0.00     0.000 C 
BRANCH   9  10
ATOM     10  C   UNL     1      24.219  38.596   0.650  1.00  0.00     0.000 C 
BRANCH  10  11
ATOM     11  C   UNL     1      23.527  37.245   0.907  1.00  0.00    -0.000 C 
BRANCH  11  12
ATOM     12  C   UNL     1      24.522  36.092   1.105  1.00  0.00    -0.000 C 
BRANCH  12  13
ATOM     13  C   UNL     1      24.498  35.135  -0.092  1.00  0.00    -0.003 C 
ATOM     14  C   UNL     1      23.115  35.090  -0.735  1.00  0.00     0.004 C 
ENDBRANCH  12  13
ENDBRANCH  11  12
ENDBRANCH  10  11
ENDBRANCH   9  10
ENDBRANCH   1   9
TORSDOF 9
ENDMDL
MODEL 6
REMARK VINA RESULT:    -4.630      6.113      7.716
REMARK INTER + INTRA:          -7.620
REMARK INTER:                  -7.248
REMARK INTRA:                  -0.372
REMARK UNBOUND:                -0.554
REMARK SMILES CCCCCCCCCC=CC(=O)[O-]
REMARK SMILES IDX 7 1 8 2 9 3 10 4 11 5 12 6 13 7 14 8 6 9 5 10 4 11 3 12 2 13
REMARK SMILES IDX 1 14
REMARK H PARENT
REMARK Flexibility Score: inf
ROOT
ATOM      1  C   UNL     1      24.036  38.967   4.526  1.00  0.00     0.000 C 
ENDROOT
BRANCH   1   2
ATOM      2  C   UNL     1      24.698  37.881   5.392  1.00  0.00     0.004 C 
BRANCH   2   3
ATOM      3  C   UNL     1      25.494  38.483   6.561  1.00  0.00     0.027 C 
BRANCH   3   4
ATOM      4  C   UNL     1      26.213  37.432   7.365  1.00  0.00    -0.025 C 
ATOM      5  C   UNL     1      27.132  37.657   8.318  1.00  0.00     0.020 C 
BRANCH   5   6
ATOM      6  C   UNL     1      27.661  38.971   8.739  1.00  0.00     0.064 C 
ATOM      7  O   UNL     1      28.543  39.525   8.033  1.00  0.00    -0.545 OA
ATOM      8  O   UNL     1      27.197  39.629   9.870  1.00  0.00    -0.545 OA
ENDBRANCH   5   6
ENDBRANCH   3   4
ENDBRANCH   2   3
ENDBRANCH   1   2
BRANCH   1   9
ATOM      9  C   UNL     1      23.205  38.384   3.368  1.00  0.00     0.000 C 
BRANCH   9  10
ATOM     10  C   UNL     1      23.710  38.743   1.956  1.00  0.00     0.000 C 
BRANCH  10  11
ATOM     11  C   UNL     1      23.362  37.721   0.859  1.00  0.00    -0.000 C 
BRANCH  11  12
ATOM     12  C   UNL     1      23.633  36.271   1.285  1.00  0.00    -0.000 C 
BRANCH  12  13
ATOM     13  C   UNL     1      24.276  35.475   0.144  1.00  0.00    -0.003 C 
ATOM     14  C   UNL     1      23.217  34.895  -0.789  1.00  0.00     0.004 C 
ENDBRANCH  12  13
ENDBRANCH  11  12
ENDBRANCH  10  11
ENDBRANCH   9  10
ENDBRANCH   1   9
TORSDOF 9
ENDMDL
MODEL 7
REMARK VINA RESULT:    -4.628      2.847      3.455
REMARK INTER + INTRA:          -7.617
REMARK INTER:                  -6.783
REMARK INTRA:                  -0.835
REMARK UNBOUND:                -0.554
REMARK SMILES CCCCCCCCCC=CC(=O)[O-]
REMARK SMILES IDX 7 1 8 2 9 3 10 4 11 5 12 6 13 7 14 8 6 9 5 10 4 11 3 12 2 13
REMARK SMILES IDX 1 14
REMARK H PARENT
REMARK Flexibility Score: inf
ROOT
ATOM      1  C   UNL     1      22.096  39.778   0.634  1.00  0.00     0.000 C 
ENDROOT
BRANCH   1   2
ATOM      2  C   UNL     1      21.248  40.900   1.255  1.00  0.00     0.004 C 
BRANCH   2   3
ATOM      3  C   UNL     1      20.374  40.388   2.412  1.00  0.00     0.027 C 
BRANCH   3   4
ATOM      4  C   UNL     1      20.819  40.926   3.747  1.00  0.00    -0.025 C 
ATOM      5  C   UNL     1      21.733  40.370   4.559  1.00  0.00     0.020 C 
BRANCH   5   6
ATOM      6  C   UNL     1      22.451  39.098   4.335  1.00  0.00     0.064 C 
ATOM      7  O   UNL     1      21.787  38.064   4.063  1.00  0.00    -0.545 OA
ATOM      8  O   UNL     1      23.837  39.010   4.384  1.00  0.00    -0.545 OA
ENDBRANCH   5   6
ENDBRANCH   3   4
ENDBRANCH   2   3
ENDBRANCH   1   2
BRANCH   1   9
ATOM      9  C   UNL     1      23.590  39.893   0.988  1.00  0.00     0.000 C 
BRANCH   9  10
ATOM     10  C   UNL     1      24.375  38.566   0.947  1.00  0.00     0.000 C 
BRANCH  10  11
ATOM     11  C   UNL     1      23.517  37.295   1.069  1.00  0.00    -0.000 C 
BRANCH  11  12
ATOM     12  C   UNL     1      24.355  36.026   1.281  1.00  0.00    -0.000 C 
BRANCH  12  13
ATOM     13  C   UNL     1      24.486  35.231  -0.023  1.00  0.00    -0.003 C 
ATOM     14  C   UNL     1      23.125  35.022  -0.681  1.00  0.00     0.004 C 
ENDBRANCH  12  13
ENDBRANCH  11  12
ENDBRANCH  10  11
ENDBRANCH   9  10
ENDBRANCH   1   9
TORSDOF 9
ENDMDL
MODEL 8
REMARK VINA RESULT:    -4.612      3.996      7.343
REMARK INTER + INTRA:          -7.594
REMARK INTER:                  -7.062
REMARK INTRA:                  -0.531
REMARK UNBOUND:                -0.554
REMARK SMILES CCCCCCCCCC=CC(=O)[O-]
REMARK SMILES IDX 7 1 8 2 9 3 10 4 11 5 12 6 13 7 14 8 6 9 5 10 4 11 3 12 2 13
REMARK SMILES IDX 1 14
REMARK H PARENT
REMARK Flexibility Score: inf
ROOT
ATOM      1  C   UNL     1      22.501  39.315   1.285  1.00  0.00     0.000 C 
ENDROOT
BRANCH   1   2
ATOM      2  C   UNL     1      23.845  38.672   0.901  1.00  0.00     0.004 C 
BRANCH   2   3
ATOM      3  C   UNL     1      23.979  37.244   1.455  1.00  0.00     0.027 C 
BRANCH   3   4
ATOM      4  C   UNL     1      23.130  36.255   0.699  1.00  0.00    -0.025 C 
ATOM      5  C   UNL     1      23.574  35.337  -0.174  1.00  0.00     0.020 C 
BRANCH   5   6
ATOM      6  C   UNL     1      24.972  35.139  -0.609  1.00  0.00     0.064 C 
ATOM      7  O   UNL     1      25.784  34.593   0.183  1.00  0.00    -0.545 OA
ATOM      8  O   UNL     1      25.416  35.508  -1.872  1.00  0.00    -0.545 OA
ENDBRANCH   5   6
ENDBRANCH   3   4
ENDBRANCH   2   3
ENDBRANCH   1   2
BRANCH   1   9
ATOM      9  C   UNL     1      22.536  40.853   1.223  1.00  0.00     0.000 C 
BRANCH   9  10
ATOM     10  C   UNL     1      21.346  41.505   0.491  1.00  0.00     0.000 C 
BRANCH  10  11
ATOM     11  C   UNL     1      20.437  42.381   1.373  1.00  0.00    -0.000 C 
BRANCH  11  12
ATOM     12  C   UNL     1      19.714  41.581   2.465  1.00  0.00    -0.000 C 
BRANCH  12  13
ATOM     13  C   UNL     1      18.568  40.754   1.872  1.00  0.00    -0.003 C 
ATOM     14  C   UNL     1      17.419  41.648   1.416  1.00  0.00     0.004 C 
ENDBRANCH  12  13
ENDBRANCH  11  12
ENDBRANCH  10  11
ENDBRANCH   9  10
ENDBRANCH   1   9
TORSDOF 9
ENDMDL
MODEL 9
REMARK VINA RESULT:    -4.453      5.968      8.083
REMARK INTER + INTRA:          -7.350
REMARK INTER:                  -6.846
REMARK INTRA:                  -0.504
REMARK UNBOUND:                -0.554
REMARK SMILES CCCCCCCCCC=CC(=O)[O-]
REMARK SMILES IDX 7 1 8 2 9 3 10 4 11 5 12 6 13 7 14 8 6 9 5 10 4 11 3 12 2 13
REMARK SMILES IDX 1 14
REMARK H PARENT
REMARK Flexibility Score: inf
ROOT
ATOM      1  C   UNL     1      24.413  38.170   5.098  1.00  0.00     0.000 C 
ENDROOT
BRANCH   1   2
ATOM      2  C   UNL     1      24.362  36.716   4.599  1.00  0.00     0.004 C 
BRANCH   2   3
ATOM      3  C   UNL     1      23.545  36.580   3.304  1.00  0.00     0.027 C 
BRANCH   3   4
ATOM      4  C   UNL     1      24.062  37.472   2.205  1.00  0.00    -0.025 C 
ATOM      5  C   UNL     1      24.246  37.121   0.922  1.00  0.00     0.020 C 
BRANCH   5   6
ATOM      6  C   UNL     1      24.028  35.783   0.336  1.00  0.00     0.064 C 
ATOM      7  O   UNL     1      22.882  35.486  -0.092  1.00  0.00    -0.545 OA
ATOM      8  O   UNL     1      25.050  34.851   0.213  1.00  0.00    -0.545 OA
ENDBRANCH   5   6
ENDBRANCH   3   4
ENDBRANCH   2   3
ENDBRANCH   1   2
BRANCH   1   9
ATOM      9  C   UNL     1      25.283  38.339   6.357  1.00  0.00     0.000 C 
BRANCH   9  10
ATOM     10  C   UNL     1      25.975  37.053   6.851  1.00  0.00     0.000 C 
BRANCH  10  11
ATOM     11  C   UNL     1      26.591  37.143   8.260  1.00  0.00    -0.000 C 
BRANCH  11  12
ATOM     12  C   UNL     1      26.100  38.364   9.050  1.00  0.00    -0.000 C 
BRANCH  12  13
ATOM     13  C   UNL     1      26.045  38.061  10.551  1.00  0.00    -0.003 C 
ATOM     14  C   UNL     1      27.310  38.541  11.257  1.00  0.00     0.004 C 
ENDBRANCH  12  13
ENDBRANCH  11  12
ENDBRANCH  10  11
ENDBRANCH   9  10
ENDBRANCH   1   9
TORSDOF 9
ENDMDL
