MODEL 1
REMARK VINA RESULT:    -7.578      0.000      0.000
REMARK INTER + INTRA:         -10.612
REMARK INTER:                  -9.571
REMARK INTRA:                  -1.040
REMARK UNBOUND:                -1.040
REMARK SMILES CC(C)[C@@H](C)C=C[C@H](C)[C@@H]1CC[C@@H]2C3=CC=C4C[C@@H](O)CC[C@@]4(C)[C@H]3CC[C@@]21C
REMARK SMILES IDX 8 1 9 2 7 3 6 4 4 5 5 6 2 7 1 8 3 9 10 10 11 11 28 12 12 13
REMARK SMILES IDX 13 14 27 15 29 16 14 17 26 18 25 19 15 20 23 21 16 22 17 23
REMARK SMILES IDX 22 24 24 25 18 26 21 27 19 28 20 29
REMARK H PARENT 20 30
REMARK Flexibility Score: inf
ROOT
ATOM      1  C   UNL     1      20.204 -35.879  24.635  1.00  0.00     0.012 C 
ATOM      2  C   UNL     1      20.398 -36.932  25.738  1.00  0.00     0.012 C 
ENDROOT
BRANCH   1   3
ATOM      3  C   UNL     1      21.393 -35.911  23.695  1.00  0.00    -0.028 C 
ATOM      4  C   UNL     1      22.317 -34.936  23.663  1.00  0.00    -0.028 C 
BRANCH   4   5
ATOM      5  C   UNL     1      23.493 -34.984  22.714  1.00  0.00     0.011 C 
ATOM      6  C   UNL     1      24.738 -35.477  23.470  1.00  0.00     0.012 C 
BRANCH   5   7
ATOM      7  C   UNL     1      23.685 -33.609  22.007  1.00  0.00    -0.011 C 
ATOM      8  C   UNL     1      25.065 -33.002  22.299  1.00  0.00     0.008 C 
ATOM      9  C   UNL     1      22.577 -32.591  22.331  1.00  0.00     0.008 C 
ENDBRANCH   5   7
ENDBRANCH   4   5
ENDBRANCH   1   3
BRANCH   1  10
ATOM     10  C   UNL     1      18.857 -36.046  23.853  1.00  0.00     0.002 C 
ATOM     11  C   UNL     1      19.088 -36.169  22.336  1.00  0.00     0.005 C 
ATOM     12  C   UNL     1      17.778 -34.926  24.004  1.00  0.00    -0.023 C 
ATOM     13  C   UNL     1      17.856 -35.598  21.642  1.00  0.00     0.009 C 
ATOM     14  C   UNL     1      16.902 -35.144  22.748  1.00  0.00     0.021 C 
ATOM     15  C   UNL     1      18.415 -33.505  23.984  1.00  0.00     0.008 C 
ATOM     16  C   UNL     1      16.912 -35.129  25.275  1.00  0.00     0.012 C 
ATOM     17  C   UNL     1      16.069 -33.945  22.315  1.00  0.00    -0.063 C 
ATOM     18  C   UNL     1      17.370 -32.401  23.814  1.00  0.00     0.009 C 
ATOM     19  C   UNL     1      16.614 -32.537  22.473  1.00  0.00     0.025 C 
ATOM     20  C   UNL     1      15.029 -34.168  21.506  1.00  0.00    -0.000 C 
ATOM     21  C   UNL     1      15.545 -31.386  22.230  1.00  0.00    -0.005 C 
ATOM     22  C   UNL     1      14.271 -33.077  20.893  1.00  0.00    -0.000 C 
ATOM     23  C   UNL     1      14.502 -31.790  21.188  1.00  0.00    -0.061 C 
ATOM     24  C   UNL     1      14.748 -31.021  23.520  1.00  0.00     0.014 C 
ATOM     25  C   UNL     1      16.322 -30.139  21.721  1.00  0.00     0.017 C 
ATOM     26  C   UNL     1      13.424 -30.785  20.857  1.00  0.00     0.063 C 
ATOM     27  C   UNL     1      13.593 -30.021  23.278  1.00  0.00     0.033 C 
ATOM     28  C   UNL     1      12.644 -30.451  22.140  1.00  0.00     0.118 C 
BRANCH  28  29
ATOM     29  O   UNL     1      11.892 -31.563  22.559  1.00  0.00    -0.393 OA
ATOM     30  H   UNL     1      11.304 -31.249  23.294  1.00  0.00     0.210 HD
ENDBRANCH  28  29
ENDBRANCH   1  10
TORSDOF 5
ENDMDL
MODEL 2
REMARK VINA RESULT:    -7.425      2.775      8.305
REMARK INTER + INTRA:         -10.419
REMARK INTER:                  -9.513
REMARK INTRA:                  -0.906
REMARK UNBOUND:                -1.040
REMARK SMILES CC(C)[C@@H](C)C=C[C@H](C)[C@@H]1CC[C@@H]2C3=CC=C4C[C@@H](O)CC[C@@]4(C)[C@H]3CC[C@@]21C
REMARK SMILES IDX 8 1 9 2 7 3 6 4 4 5 5 6 2 7 1 8 3 9 10 10 11 11 28 12 12 13
REMARK SMILES IDX 13 14 27 15 29 16 14 17 26 18 25 19 15 20 23 21 16 22 17 23
REMARK SMILES IDX 22 24 24 25 18 26 21 27 19 28 20 29
REMARK H PARENT 20 30
REMARK Flexibility Score: inf
ROOT
ATOM      1  C   UNL     1      14.990 -33.191  20.890  1.00  0.00     0.012 C 
ATOM      2  C   UNL     1      14.304 -33.905  19.714  1.00  0.00     0.012 C 
ENDROOT
BRANCH   1   3
ATOM      3  C   UNL     1      13.940 -32.506  21.744  1.00  0.00    -0.028 C 
ATOM      4  C   UNL     1      13.433 -31.300  21.437  1.00  0.00    -0.028 C 
BRANCH   4   5
ATOM      5  C   UNL     1      12.390 -30.631  22.304  1.00  0.00     0.011 C 
ATOM      6  C   UNL     1      11.050 -30.595  21.552  1.00  0.00     0.012 C 
BRANCH   5   7
ATOM      7  C   UNL     1      12.887 -29.234  22.781  1.00  0.00    -0.011 C 
ATOM      8  C   UNL     1      14.420 -29.136  22.766  1.00  0.00     0.008 C 
ATOM      9  C   UNL     1      12.343 -28.825  24.161  1.00  0.00     0.008 C 
ENDBRANCH   5   7
ENDBRANCH   4   5
ENDBRANCH   1   3
BRANCH   1  10
ATOM     10  C   UNL     1      15.888 -34.144  21.750  1.00  0.00     0.002 C 
ATOM     11  C   UNL     1      15.587 -34.010  23.254  1.00  0.00     0.005 C 
ATOM     12  C   UNL     1      17.438 -33.989  21.637  1.00  0.00    -0.023 C 
ATOM     13  C   UNL     1      16.875 -34.330  24.004  1.00  0.00     0.009 C 
ATOM     14  C   UNL     1      17.929 -34.653  22.945  1.00  0.00     0.021 C 
ATOM     15  C   UNL     1      17.867 -32.493  21.592  1.00  0.00     0.008 C 
ATOM     16  C   UNL     1      18.007 -34.767  20.421  1.00  0.00     0.012 C 
ATOM     17  C   UNL     1      19.326 -34.250  23.399  1.00  0.00    -0.063 C 
ATOM     18  C   UNL     1      19.372 -32.312  21.798  1.00  0.00     0.009 C 
ATOM     19  C   UNL     1      19.822 -32.832  23.182  1.00  0.00     0.025 C 
ATOM     20  C   UNL     1      19.953 -35.047  24.270  1.00  0.00    -0.000 C 
ATOM     21  C   UNL     1      21.373 -32.626  23.461  1.00  0.00    -0.005 C 
ATOM     22  C   UNL     1      21.217 -34.669  24.902  1.00  0.00    -0.000 C 
ATOM     23  C   UNL     1      21.878 -33.552  24.568  1.00  0.00    -0.061 C 
ATOM     24  C   UNL     1      22.256 -32.928  22.210  1.00  0.00     0.014 C 
ATOM     25  C   UNL     1      21.568 -31.148  23.900  1.00  0.00     0.017 C 
ATOM     26  C   UNL     1      23.340 -33.459  24.939  1.00  0.00     0.063 C 
ATOM     27  C   UNL     1      23.776 -32.893  22.497  1.00  0.00     0.033 C 
ATOM     28  C   UNL     1      24.190 -33.773  23.694  1.00  0.00     0.118 C 
BRANCH  28  29
ATOM     29  O   UNL     1      24.060 -35.127  23.342  1.00  0.00    -0.393 OA
ATOM     30  H   UNL     1      23.159 -35.231  22.938  1.00  0.00     0.210 HD
ENDBRANCH  28  29
ENDBRANCH   1  10
TORSDOF 5
ENDMDL
MODEL 3
REMARK VINA RESULT:    -7.049      3.415      9.195
REMARK INTER + INTRA:          -9.944
REMARK INTER:                  -9.041
REMARK INTRA:                  -0.903
REMARK UNBOUND:                -1.040
REMARK SMILES CC(C)[C@@H](C)C=C[C@H](C)[C@@H]1CC[C@@H]2C3=CC=C4C[C@@H](O)CC[C@@]4(C)[C@H]3CC[C@@]21C
REMARK SMILES IDX 8 1 9 2 7 3 6 4 4 5 5 6 2 7 1 8 3 9 10 10 11 11 28 12 12 13
REMARK SMILES IDX 13 14 27 15 29 16 14 17 26 18 25 19 15 20 23 21 16 22 17 23
REMARK SMILES IDX 22 24 24 25 18 26 21 27 19 28 20 29
REMARK H PARENT 20 30
REMARK Flexibility Score: inf
ROOT
ATOM      1  C   UNL     1      17.898 -30.853  22.555  1.00  0.00     0.012 C 
ATOM      2  C   UNL     1      17.531 -29.980  21.344  1.00  0.00     0.012 C 
ENDROOT
BRANCH   1   3
ATOM      3  C   UNL     1      16.630 -31.282  23.268  1.00  0.00    -0.028 C 
ATOM      4  C   UNL     1      15.404 -30.961  22.820  1.00  0.00    -0.028 C 
BRANCH   4   5
ATOM      5  C   UNL     1      14.152 -31.393  23.549  1.00  0.00     0.011 C 
ATOM      6  C   UNL     1      14.266 -32.880  23.920  1.00  0.00     0.012 C 
BRANCH   5   7
ATOM      7  C   UNL     1      12.884 -31.043  22.715  1.00  0.00    -0.011 C 
ATOM      8  C   UNL     1      13.085 -31.329  21.219  1.00  0.00     0.008 C 
ATOM      9  C   UNL     1      12.392 -29.599  22.918  1.00  0.00     0.008 C 
ENDBRANCH   5   7
ENDBRANCH   4   5
ENDBRANCH   1   3
BRANCH   1  10
ATOM     10  C   UNL     1      18.782 -32.090  22.176  1.00  0.00     0.002 C 
ATOM     11  C   UNL     1      18.508 -33.293  23.098  1.00  0.00     0.005 C 
ATOM     12  C   UNL     1      20.335 -31.915  22.198  1.00  0.00    -0.023 C 
ATOM     13  C   UNL     1      19.798 -34.100  23.185  1.00  0.00     0.009 C 
ATOM     14  C   UNL     1      20.827 -33.376  22.315  1.00  0.00     0.021 C 
ATOM     15  C   UNL     1      20.804 -31.082  23.427  1.00  0.00     0.008 C 
ATOM     16  C   UNL     1      20.863 -31.299  20.875  1.00  0.00     0.012 C 
ATOM     17  C   UNL     1      22.241 -33.549  22.853  1.00  0.00    -0.063 C 
ATOM     18  C   UNL     1      22.316 -31.163  23.642  1.00  0.00     0.009 C 
ATOM     19  C   UNL     1      22.773 -32.613  23.923  1.00  0.00     0.025 C 
ATOM     20  C   UNL     1      22.859 -34.711  22.621  1.00  0.00    -0.000 C 
ATOM     21  C   UNL     1      24.333 -32.742  24.196  1.00  0.00    -0.005 C 
ATOM     22  C   UNL     1      24.143 -35.048  23.237  1.00  0.00    -0.000 C 
ATOM     23  C   UNL     1      24.830 -34.172  23.984  1.00  0.00    -0.061 C 
ATOM     24  C   UNL     1      25.188 -31.844  23.248  1.00  0.00     0.014 C 
ATOM     25  C   UNL     1      24.576 -32.328  25.674  1.00  0.00     0.017 C 
ATOM     26  C   UNL     1      26.299 -34.440  24.213  1.00  0.00     0.063 C 
ATOM     27  C   UNL     1      26.713 -32.071  23.381  1.00  0.00     0.033 C 
ATOM     28  C   UNL     1      27.120 -33.554  23.260  1.00  0.00     0.118 C 
BRANCH  28  29
ATOM     29  O   UNL     1      26.947 -33.975  21.930  1.00  0.00    -0.393 OA
ATOM     30  H   UNL     1      27.837 -33.914  21.493  1.00  0.00     0.210 HD
ENDBRANCH  28  29
ENDBRANCH   1  10
TORSDOF 5
ENDMDL
MODEL 4
REMARK VINA RESULT:    -7.039      5.028      7.602
REMARK INTER + INTRA:          -9.931
REMARK INTER:                  -8.999
REMARK INTRA:                  -0.932
REMARK UNBOUND:                -1.040
REMARK SMILES CC(C)[C@@H](C)C=C[C@H](C)[C@@H]1CC[C@@H]2C3=CC=C4C[C@@H](O)CC[C@@]4(C)[C@H]3CC[C@@]21C
REMARK SMILES IDX 8 1 9 2 7 3 6 4 4 5 5 6 2 7 1 8 3 9 10 10 11 11 28 12 12 13
REMARK SMILES IDX 13 14 27 15 29 16 14 17 26 18 25 19 15 20 23 21 16 22 17 23
REMARK SMILES IDX 22 24 24 25 18 26 21 27 19 28 20 29
REMARK H PARENT 20 30
REMARK Flexibility Score: inf
ROOT
ATOM      1  C   UNL     1      22.087 -27.656  21.129  1.00  0.00     0.012 C 
ATOM      2  C   UNL     1      22.915 -27.126  19.947  1.00  0.00     0.012 C 
ENDROOT
BRANCH   1   3
ATOM      3  C   UNL     1      21.696 -26.498  22.028  1.00  0.00    -0.028 C 
ATOM      4  C   UNL     1      22.398 -25.353  22.078  1.00  0.00    -0.028 C 
BRANCH   4   5
ATOM      5  C   UNL     1      21.995 -24.212  22.985  1.00  0.00     0.011 C 
ATOM      6  C   UNL     1      20.539 -23.817  22.691  1.00  0.00     0.012 C 
BRANCH   5   7
ATOM      7  C   UNL     1      23.008 -23.034  22.868  1.00  0.00    -0.011 C 
ATOM      8  C   UNL     1      22.324 -21.671  23.050  1.00  0.00     0.008 C 
ATOM      9  C   UNL     1      23.822 -23.049  21.562  1.00  0.00     0.008 C 
ENDBRANCH   5   7
ENDBRANCH   4   5
ENDBRANCH   1   3
BRANCH   1  10
ATOM     10  C   UNL     1      20.830 -28.477  20.681  1.00  0.00     0.002 C 
ATOM     11  C   UNL     1      19.520 -27.718  20.965  1.00  0.00     0.005 C 
ATOM     12  C   UNL     1      20.617 -29.891  21.309  1.00  0.00    -0.023 C 
ATOM     13  C   UNL     1      18.438 -28.761  21.215  1.00  0.00     0.009 C 
ATOM     14  C   UNL     1      19.107 -30.129  21.075  1.00  0.00     0.021 C 
ATOM     15  C   UNL     1      20.940 -29.901  22.833  1.00  0.00     0.008 C 
ATOM     16  C   UNL     1      21.431 -30.981  20.562  1.00  0.00     0.012 C 
ATOM     17  C   UNL     1      18.460 -31.168  21.981  1.00  0.00    -0.063 C 
ATOM     18  C   UNL     1      20.445 -31.172  23.525  1.00  0.00     0.009 C 
ATOM     19  C   UNL     1      18.908 -31.311  23.424  1.00  0.00     0.025 C 
ATOM     20  C   UNL     1      17.295 -31.696  21.593  1.00  0.00    -0.000 C 
ATOM     21  C   UNL     1      18.341 -32.596  24.167  1.00  0.00    -0.005 C 
ATOM     22  C   UNL     1      16.505 -32.567  22.463  1.00  0.00    -0.000 C 
ATOM     23  C   UNL     1      16.950 -32.977  23.659  1.00  0.00    -0.061 C 
ATOM     24  C   UNL     1      19.235 -33.858  23.959  1.00  0.00     0.014 C 
ATOM     25  C   UNL     1      18.258 -32.252  25.681  1.00  0.00     0.017 C 
ATOM     26  C   UNL     1      16.287 -34.182  24.283  1.00  0.00     0.063 C 
ATOM     27  C   UNL     1      18.623 -35.157  24.534  1.00  0.00     0.033 C 
ATOM     28  C   UNL     1      17.180 -35.415  24.055  1.00  0.00     0.118 C 
BRANCH  28  29
ATOM     29  O   UNL     1      17.197 -35.759  22.693  1.00  0.00    -0.393 OA
ATOM     30  H   UNL     1      17.800 -36.543  22.605  1.00  0.00     0.210 HD
ENDBRANCH  28  29
ENDBRANCH   1  10
TORSDOF 5
ENDMDL
MODEL 5
REMARK VINA RESULT:    -6.985      9.839     12.765
REMARK INTER + INTRA:          -9.862
REMARK INTER:                  -9.813
REMARK INTRA:                  -0.049
REMARK UNBOUND:                -1.040
REMARK SMILES CC(C)[C@@H](C)C=C[C@H](C)[C@@H]1CC[C@@H]2C3=CC=C4C[C@@H](O)CC[C@@]4(C)[C@H]3CC[C@@]21C
REMARK SMILES IDX 8 1 9 2 7 3 6 4 4 5 5 6 2 7 1 8 3 9 10 10 11 11 28 12 12 13
REMARK SMILES IDX 13 14 27 15 29 16 14 17 26 18 25 19 15 20 23 21 16 22 17 23
REMARK SMILES IDX 22 24 24 25 18 26 21 27 19 28 20 29
REMARK H PARENT 20 30
REMARK Flexibility Score: inf
ROOT
ATOM      1  C   UNL     1      20.101 -21.514  26.925  1.00  0.00     0.012 C 
ATOM      2  C   UNL     1      18.760 -21.709  26.200  1.00  0.00     0.012 C 
ENDROOT
BRANCH   1   3
ATOM      3  C   UNL     1      20.222 -22.533  28.041  1.00  0.00    -0.028 C 
ATOM      4  C   UNL     1      20.764 -22.238  29.235  1.00  0.00    -0.028 C 
BRANCH   4   5
ATOM      5  C   UNL     1      20.880 -23.271  30.334  1.00  0.00     0.011 C 
ATOM      6  C   UNL     1      20.416 -24.636  29.802  1.00  0.00     0.012 C 
BRANCH   5   7
ATOM      7  C   UNL     1      20.127 -22.799  31.613  1.00  0.00    -0.011 C 
ATOM      8  C   UNL     1      19.785 -21.302  31.556  1.00  0.00     0.008 C 
ATOM      9  C   UNL     1      20.869 -23.125  32.921  1.00  0.00     0.008 C 
ENDBRANCH   5   7
ENDBRANCH   4   5
ENDBRANCH   1   3
BRANCH   1  10
ATOM     10  C   UNL     1      21.336 -21.575  25.963  1.00  0.00     0.002 C 
ATOM     11  C   UNL     1      21.265 -20.493  24.870  1.00  0.00     0.005 C 
ATOM     12  C   UNL     1      21.598 -22.908  25.191  1.00  0.00    -0.023 C 
ATOM     13  C   UNL     1      21.988 -21.040  23.645  1.00  0.00     0.009 C 
ATOM     14  C   UNL     1      22.487 -22.436  24.017  1.00  0.00     0.021 C 
ATOM     15  C   UNL     1      20.276 -23.534  24.657  1.00  0.00     0.008 C 
ATOM     16  C   UNL     1      22.386 -23.928  26.055  1.00  0.00     0.012 C 
ATOM     17  C   UNL     1      22.520 -23.363  22.809  1.00  0.00    -0.063 C 
ATOM     18  C   UNL     1      20.529 -24.651  23.643  1.00  0.00     0.009 C 
ATOM     19  C   UNL     1      21.276 -24.128  22.395  1.00  0.00     0.025 C 
ATOM     20  C   UNL     1      23.533 -23.228  21.947  1.00  0.00    -0.000 C 
ATOM     21  C   UNL     1      21.524 -25.245  21.293  1.00  0.00    -0.005 C 
ATOM     22  C   UNL     1      23.571 -23.942  20.671  1.00  0.00    -0.000 C 
ATOM     23  C   UNL     1      22.649 -24.855  20.334  1.00  0.00    -0.061 C 
ATOM     24  C   UNL     1      21.937 -26.618  21.907  1.00  0.00     0.014 C 
ATOM     25  C   UNL     1      20.200 -25.402  20.493  1.00  0.00     0.017 C 
ATOM     26  C   UNL     1      22.990 -25.828  19.229  1.00  0.00     0.063 C 
ATOM     27  C   UNL     1      22.342 -27.676  20.853  1.00  0.00     0.033 C 
ATOM     28  C   UNL     1      23.406 -27.169  19.859  1.00  0.00     0.118 C 
BRANCH  28  29
ATOM     29  O   UNL     1      24.637 -27.035  20.525  1.00  0.00    -0.393 OA
ATOM     30  H   UNL     1      24.427 -26.812  21.469  1.00  0.00     0.210 HD
ENDBRANCH  28  29
ENDBRANCH   1  10
TORSDOF 5
ENDMDL
MODEL 6
REMARK VINA RESULT:    -6.974      4.259      8.858
REMARK INTER + INTRA:          -9.849
REMARK INTER:                  -8.842
REMARK INTRA:                  -1.007
REMARK UNBOUND:                -1.040
REMARK SMILES CC(C)[C@@H](C)C=C[C@H](C)[C@@H]1CC[C@@H]2C3=CC=C4C[C@@H](O)CC[C@@]4(C)[C@H]3CC[C@@]21C
REMARK SMILES IDX 8 1 9 2 7 3 6 4 4 5 5 6 2 7 1 8 3 9 10 10 11 11 28 12 12 13
REMARK SMILES IDX 13 14 27 15 29 16 14 17 26 18 25 19 15 20 23 21 16 22 17 23
REMARK SMILES IDX 22 24 24 25 18 26 21 27 19 28 20 29
REMARK H PARENT 20 30
REMARK Flexibility Score: inf
ROOT
ATOM      1  C   UNL     1      17.906 -32.174  21.696  1.00  0.00     0.012 C 
ATOM      2  C   UNL     1      17.499 -33.423  20.896  1.00  0.00     0.012 C 
ENDROOT
BRANCH   1   3
ATOM      3  C   UNL     1      16.760 -31.181  21.695  1.00  0.00    -0.028 C 
ATOM      4  C   UNL     1      15.476 -31.559  21.573  1.00  0.00    -0.028 C 
BRANCH   4   5
ATOM      5  C   UNL     1      14.347 -30.552  21.569  1.00  0.00     0.011 C 
ATOM      6  C   UNL     1      14.930 -29.133  21.667  1.00  0.00     0.012 C 
BRANCH   5   7
ATOM      7  C   UNL     1      13.307 -30.890  22.678  1.00  0.00    -0.011 C 
ATOM      8  C   UNL     1      12.856 -29.634  23.440  1.00  0.00     0.008 C 
ATOM      9  C   UNL     1      13.787 -31.967  23.665  1.00  0.00     0.008 C 
ENDBRANCH   5   7
ENDBRANCH   4   5
ENDBRANCH   1   3
BRANCH   1  10
ATOM     10  C   UNL     1      18.372 -32.503  23.155  1.00  0.00     0.002 C 
ATOM     11  C   UNL     1      17.585 -31.694  24.203  1.00  0.00     0.005 C 
ATOM     12  C   UNL     1      19.874 -32.269  23.515  1.00  0.00    -0.023 C 
ATOM     13  C   UNL     1      18.506 -31.484  25.399  1.00  0.00     0.009 C 
ATOM     14  C   UNL     1      19.829 -32.171  25.058  1.00  0.00     0.021 C 
ATOM     15  C   UNL     1      20.415 -30.944  22.901  1.00  0.00     0.008 C 
ATOM     16  C   UNL     1      20.759 -33.475  23.103  1.00  0.00     0.012 C 
ATOM     17  C   UNL     1      21.013 -31.463  25.703  1.00  0.00    -0.063 C 
ATOM     18  C   UNL     1      21.767 -30.539  23.490  1.00  0.00     0.009 C 
ATOM     19  C   UNL     1      21.670 -30.282  25.011  1.00  0.00     0.025 C 
ATOM     20  C   UNL     1      21.235 -31.677  27.004  1.00  0.00    -0.000 C 
ATOM     21  C   UNL     1      23.042 -29.815  25.662  1.00  0.00    -0.005 C 
ATOM     22  C   UNL     1      22.231 -30.918  27.760  1.00  0.00    -0.000 C 
ATOM     23  C   UNL     1      23.058 -30.040  27.175  1.00  0.00    -0.061 C 
ATOM     24  C   UNL     1      24.272 -30.592  25.098  1.00  0.00     0.014 C 
ATOM     25  C   UNL     1      23.197 -28.297  25.368  1.00  0.00     0.017 C 
ATOM     26  C   UNL     1      24.305 -29.637  27.925  1.00  0.00     0.063 C 
ATOM     27  C   UNL     1      25.599 -30.273  25.829  1.00  0.00     0.033 C 
ATOM     28  C   UNL     1      25.502 -30.423  27.360  1.00  0.00     0.118 C 
BRANCH  28  29
ATOM     29  O   UNL     1      25.388 -31.786  27.687  1.00  0.00    -0.393 OA
ATOM     30  H   UNL     1      24.461 -31.924  28.012  1.00  0.00     0.210 HD
ENDBRANCH  28  29
ENDBRANCH   1  10
TORSDOF 5
ENDMDL
MODEL 7
REMARK VINA RESULT:    -6.884      8.118     10.643
REMARK INTER + INTRA:          -9.735
REMARK INTER:                  -8.852
REMARK INTRA:                  -0.883
REMARK UNBOUND:                -1.040
REMARK SMILES CC(C)[C@@H](C)C=C[C@H](C)[C@@H]1CC[C@@H]2C3=CC=C4C[C@@H](O)CC[C@@]4(C)[C@H]3CC[C@@]21C
REMARK SMILES IDX 8 1 9 2 7 3 6 4 4 5 5 6 2 7 1 8 3 9 10 10 11 11 28 12 12 13
REMARK SMILES IDX 13 14 27 15 29 16 14 17 26 18 25 19 15 20 23 21 16 22 17 23
REMARK SMILES IDX 22 24 24 25 18 26 21 27 19 28 20 29
REMARK H PARENT 20 30
REMARK Flexibility Score: inf
ROOT
ATOM      1  C   UNL     1      22.325 -26.732  20.706  1.00  0.00     0.012 C 
ATOM      2  C   UNL     1      23.516 -26.859  19.741  1.00  0.00     0.012 C 
ENDROOT
BRANCH   1   3
ATOM      3  C   UNL     1      21.605 -28.064  20.793  1.00  0.00    -0.028 C 
ATOM      4  C   UNL     1      20.265 -28.162  20.815  1.00  0.00    -0.028 C 
BRANCH   4   5
ATOM      5  C   UNL     1      19.565 -29.499  20.908  1.00  0.00     0.011 C 
ATOM      6  C   UNL     1      18.082 -29.276  21.243  1.00  0.00     0.012 C 
BRANCH   5   7
ATOM      7  C   UNL     1      20.307 -30.439  21.905  1.00  0.00    -0.011 C 
ATOM      8  C   UNL     1      21.218 -31.439  21.179  1.00  0.00     0.008 C 
ATOM      9  C   UNL     1      19.364 -31.181  22.868  1.00  0.00     0.008 C 
ENDBRANCH   5   7
ENDBRANCH   4   5
ENDBRANCH   1   3
BRANCH   1  10
ATOM     10  C   UNL     1      22.736 -26.215  22.126  1.00  0.00     0.002 C 
ATOM     11  C   UNL     1      22.301 -27.188  23.237  1.00  0.00     0.005 C 
ATOM     12  C   UNL     1      22.198 -24.821  22.582  1.00  0.00    -0.023 C 
ATOM     13  C   UNL     1      22.048 -26.359  24.491  1.00  0.00     0.009 C 
ATOM     14  C   UNL     1      22.336 -24.904  24.120  1.00  0.00     0.021 C 
ATOM     15  C   UNL     1      20.708 -24.618  22.178  1.00  0.00     0.008 C 
ATOM     16  C   UNL     1      23.081 -23.661  22.049  1.00  0.00     0.012 C 
ATOM     17  C   UNL     1      21.461 -23.938  24.908  1.00  0.00    -0.063 C 
ATOM     18  C   UNL     1      20.074 -23.414  22.877  1.00  0.00     0.009 C 
ATOM     19  C   UNL     1      20.070 -23.587  24.414  1.00  0.00     0.025 C 
ATOM     20  C   UNL     1      21.799 -23.684  26.177  1.00  0.00    -0.000 C 
ATOM     21  C   UNL     1      19.382 -22.379  25.184  1.00  0.00    -0.005 C 
ATOM     22  C   UNL     1      20.937 -22.913  27.073  1.00  0.00    -0.000 C 
ATOM     23  C   UNL     1      19.810 -22.323  26.650  1.00  0.00    -0.061 C 
ATOM     24  C   UNL     1      19.746 -20.989  24.575  1.00  0.00     0.014 C 
ATOM     25  C   UNL     1      17.845 -22.601  25.106  1.00  0.00     0.017 C 
ATOM     26  C   UNL     1      19.227 -21.222  27.504  1.00  0.00     0.063 C 
ATOM     27  C   UNL     1      19.223 -19.790  25.401  1.00  0.00     0.033 C 
ATOM     28  C   UNL     1      19.610 -19.862  26.892  1.00  0.00     0.118 C 
BRANCH  28  29
ATOM     29  O   UNL     1      20.991 -19.639  27.024  1.00  0.00    -0.393 OA
ATOM     30  H   UNL     1      21.325 -19.375  26.127  1.00  0.00     0.210 HD
ENDBRANCH  28  29
ENDBRANCH   1  10
TORSDOF 5
ENDMDL
MODEL 8
REMARK VINA RESULT:    -6.845      3.226      8.272
REMARK INTER + INTRA:          -9.687
REMARK INTER:                  -9.578
REMARK INTRA:                  -0.109
REMARK UNBOUND:                -1.040
REMARK SMILES CC(C)[C@@H](C)C=C[C@H](C)[C@@H]1CC[C@@H]2C3=CC=C4C[C@@H](O)CC[C@@]4(C)[C@H]3CC[C@@]21C
REMARK SMILES IDX 8 1 9 2 7 3 6 4 4 5 5 6 2 7 1 8 3 9 10 10 11 11 28 12 12 13
REMARK SMILES IDX 13 14 27 15 29 16 14 17 26 18 25 19 15 20 23 21 16 22 17 23
REMARK SMILES IDX 22 24 24 25 18 26 21 27 19 28 20 29
REMARK H PARENT 20 30
REMARK Flexibility Score: inf
ROOT
ATOM      1  C   UNL     1      15.605 -33.122  21.400  1.00  0.00     0.012 C 
ATOM      2  C   UNL     1      15.971 -34.508  21.957  1.00  0.00     0.012 C 
ENDROOT
BRANCH   1   3
ATOM      3  C   UNL     1      14.453 -32.547  22.201  1.00  0.00    -0.028 C 
ATOM      4  C   UNL     1      13.761 -31.466  21.800  1.00  0.00    -0.028 C 
BRANCH   4   5
ATOM      5  C   UNL     1      12.619 -30.904  22.615  1.00  0.00     0.011 C 
ATOM      6  C   UNL     1      11.414 -30.648  21.696  1.00  0.00     0.012 C 
BRANCH   5   7
ATOM      7  C   UNL     1      13.082 -29.652  23.418  1.00  0.00    -0.011 C 
ATOM      8  C   UNL     1      11.895 -28.772  23.839  1.00  0.00     0.008 C 
ATOM      9  C   UNL     1      14.137 -28.806  22.685  1.00  0.00     0.008 C 
ENDBRANCH   5   7
ENDBRANCH   4   5
ENDBRANCH   1   3
BRANCH   1  10
ATOM     10  C   UNL     1      16.819 -32.133  21.361  1.00  0.00     0.002 C 
ATOM     11  C   UNL     1      17.876 -32.566  20.328  1.00  0.00     0.005 C 
ATOM     12  C   UNL     1      17.621 -31.906  22.682  1.00  0.00    -0.023 C 
ATOM     13  C   UNL     1      19.229 -32.078  20.833  1.00  0.00     0.009 C 
ATOM     14  C   UNL     1      18.969 -31.358  22.156  1.00  0.00     0.021 C 
ATOM     15  C   UNL     1      17.840 -33.236  23.461  1.00  0.00     0.008 C 
ATOM     16  C   UNL     1      16.950 -30.837  23.585  1.00  0.00     0.012 C 
ATOM     17  C   UNL     1      20.147 -31.493  23.112  1.00  0.00    -0.063 C 
ATOM     18  C   UNL     1      18.876 -33.094  24.577  1.00  0.00     0.009 C 
ATOM     19  C   UNL     1      20.264 -32.706  24.017  1.00  0.00     0.025 C 
ATOM     20  C   UNL     1      21.215 -30.718  22.898  1.00  0.00    -0.000 C 
ATOM     21  C   UNL     1      21.387 -32.588  25.135  1.00  0.00    -0.005 C 
ATOM     22  C   UNL     1      22.462 -30.887  23.644  1.00  0.00    -0.000 C 
ATOM     23  C   UNL     1      22.577 -31.754  24.660  1.00  0.00    -0.061 C 
ATOM     24  C   UNL     1      20.871 -31.899  26.437  1.00  0.00     0.014 C 
ATOM     25  C   UNL     1      21.867 -34.031  25.457  1.00  0.00     0.017 C 
ATOM     26  C   UNL     1      23.722 -31.563  25.625  1.00  0.00     0.063 C 
ATOM     27  C   UNL     1      21.981 -31.626  27.479  1.00  0.00     0.033 C 
ATOM     28  C   UNL     1      23.193 -30.872  26.895  1.00  0.00     0.118 C 
BRANCH  28  29
ATOM     29  O   UNL     1      22.822 -29.547  26.610  1.00  0.00    -0.393 OA
ATOM     30  H   UNL     1      22.159 -29.588  25.872  1.00  0.00     0.210 HD
ENDBRANCH  28  29
ENDBRANCH   1  10
TORSDOF 5
ENDMDL
MODEL 9
REMARK VINA RESULT:    -6.740      8.264     10.864
REMARK INTER + INTRA:          -9.553
REMARK INTER:                  -8.476
REMARK INTRA:                  -1.077
REMARK UNBOUND:                -1.040
REMARK SMILES CC(C)[C@@H](C)C=C[C@H](C)[C@@H]1CC[C@@H]2C3=CC=C4C[C@@H](O)CC[C@@]4(C)[C@H]3CC[C@@]21C
REMARK SMILES IDX 8 1 9 2 7 3 6 4 4 5 5 6 2 7 1 8 3 9 10 10 11 11 28 12 12 13
REMARK SMILES IDX 13 14 27 15 29 16 14 17 26 18 25 19 15 20 23 21 16 22 17 23
REMARK SMILES IDX 22 24 24 25 18 26 21 27 19 28 20 29
REMARK H PARENT 20 30
REMARK Flexibility Score: inf
ROOT
ATOM      1  C   UNL     1      20.204 -27.959  21.328  1.00  0.00     0.012 C 
ATOM      2  C   UNL     1      18.958 -28.220  20.465  1.00  0.00     0.012 C 
ENDROOT
BRANCH   1   3
ATOM      3  C   UNL     1      21.104 -29.180  21.292  1.00  0.00    -0.028 C 
ATOM      4  C   UNL     1      21.217 -30.026  22.330  1.00  0.00    -0.028 C 
BRANCH   4   5
ATOM      5  C   UNL     1      22.124 -31.234  22.277  1.00  0.00     0.011 C 
ATOM      6  C   UNL     1      21.271 -32.506  22.143  1.00  0.00     0.012 C 
BRANCH   5   7
ATOM      7  C   UNL     1      23.094 -31.247  23.497  1.00  0.00    -0.011 C 
ATOM      8  C   UNL     1      23.653 -29.848  23.798  1.00  0.00     0.008 C 
ATOM      9  C   UNL     1      24.243 -32.260  23.359  1.00  0.00     0.008 C 
ENDBRANCH   5   7
ENDBRANCH   4   5
ENDBRANCH   1   3
BRANCH   1  10
ATOM     10  C   UNL     1      20.983 -26.666  20.911  1.00  0.00     0.002 C 
ATOM     11  C   UNL     1      22.442 -26.977  20.527  1.00  0.00     0.005 C 
ATOM     12  C   UNL     1      21.082 -25.503  21.949  1.00  0.00    -0.023 C 
ATOM     13  C   UNL     1      23.270 -25.741  20.858  1.00  0.00     0.009 C 
ATOM     14  C   UNL     1      22.302 -24.705  21.432  1.00  0.00     0.021 C 
ATOM     15  C   UNL     1      21.349 -26.035  23.388  1.00  0.00     0.008 C 
ATOM     16  C   UNL     1      19.823 -24.595  21.917  1.00  0.00     0.012 C 
ATOM     17  C   UNL     1      22.979 -23.808  22.459  1.00  0.00    -0.063 C 
ATOM     18  C   UNL     1      21.758 -24.922  24.354  1.00  0.00     0.009 C 
ATOM     19  C   UNL     1      23.073 -24.241  23.911  1.00  0.00     0.025 C 
ATOM     20  C   UNL     1      23.766 -22.826  22.007  1.00  0.00    -0.000 C 
ATOM     21  C   UNL     1      23.563 -23.104  24.907  1.00  0.00    -0.005 C 
ATOM     22  C   UNL     1      24.597 -22.020  22.900  1.00  0.00    -0.000 C 
ATOM     23  C   UNL     1      24.543 -22.143  24.234  1.00  0.00    -0.061 C 
ATOM     24  C   UNL     1      22.391 -22.222  25.440  1.00  0.00     0.014 C 
ATOM     25  C   UNL     1      24.273 -23.811  26.096  1.00  0.00     0.017 C 
ATOM     26  C   UNL     1      25.093 -21.012  25.070  1.00  0.00     0.063 C 
ATOM     27  C   UNL     1      22.856 -21.010  26.281  1.00  0.00     0.033 C 
ATOM     28  C   UNL     1      23.921 -20.149  25.573  1.00  0.00     0.118 C 
BRANCH  28  29
ATOM     29  O   UNL     1      23.325 -19.462  24.502  1.00  0.00    -0.393 OA
ATOM     30  H   UNL     1      22.579 -20.031  24.178  1.00  0.00     0.210 HD
ENDBRANCH  28  29
ENDBRANCH   1  10
TORSDOF 5
ENDMDL
