MODEL 1
REMARK VINA RESULT:    -1.640      0.000      0.000
REMARK INTER + INTRA:          -3.800
REMARK INTER:                  -2.503
REMARK INTRA:                  -1.297
REMARK UNBOUND:                -1.297
REMARK SMILES OC[C@@H]1O[C@H](O[C@@]2(CO)O[C@H](CO)[C@H](O)[C@@H]2O)[C@@H](O)[C@@H](O)[C@H]1O
REMARK SMILES IDX 6 1 5 2 3 3 22 4 4 5 20 6 18 7 2 8 1 9 23 11 21 13 19 15
REMARK SMILES IDX 7 17 16 18 10 19 14 20 11 21 8 22 9 23 17 25 15 27 12 29
REMARK SMILES IDX 13 30
REMARK H PARENT 1 10 23 12 21 14 19 16 9 24 17 26 15 28 13 31
REMARK Flexibility Score: inf
ROOT
ATOM      1  O   UNL     1       5.984 -37.147  -1.703  1.00  0.00    -0.313 OA
ENDROOT
BRANCH   1   2
ATOM      2  C   UNL     1       5.684 -36.298  -2.805  1.00  0.00     0.285 C 
ATOM      3  C   UNL     1       7.720 -35.041  -2.689  1.00  0.00     0.178 C 
ATOM      4  C   UNL     1       8.284 -35.718  -3.962  1.00  0.00     0.177 C 
ATOM      5  O   UNL     1       6.296 -35.023  -2.644  1.00  0.00    -0.341 OA
ATOM      6  C   UNL     1       7.633 -37.093  -4.191  1.00  0.00     0.179 C 
ATOM      7  C   UNL     1       6.106 -36.982  -4.120  1.00  0.00     0.202 C 
BRANCH   3   8
ATOM      8  C   UNL     1       8.350 -35.564  -1.382  1.00  0.00     0.191 C 
BRANCH   8   9
ATOM      9  O   UNL     1       7.589 -35.136  -0.284  1.00  0.00    -0.394 OA
ATOM     10  H   UNL     1       8.149 -34.474   0.197  1.00  0.00     0.210 HD
ENDBRANCH   8   9
ENDBRANCH   3   8
BRANCH   4  11
ATOM     11  O   UNL     1       8.054 -34.875  -5.064  1.00  0.00    -0.387 OA
ATOM     12  H   UNL     1       7.930 -33.957  -4.708  1.00  0.00     0.211 HD
ENDBRANCH   4  11
BRANCH   6  13
ATOM     13  O   UNL     1       8.011 -37.606  -5.446  1.00  0.00    -0.387 OA
ATOM     14  H   UNL     1       7.551 -38.477  -5.566  1.00  0.00     0.211 HD
ENDBRANCH   6  13
BRANCH   7  15
ATOM     15  O   UNL     1       5.621 -36.259  -5.223  1.00  0.00    -0.385 OA
ATOM     16  H   UNL     1       4.854 -35.718  -4.899  1.00  0.00     0.211 HD
ENDBRANCH   7  15
ENDBRANCH   1   2
BRANCH   1  17
ATOM     17  C   UNL     1       4.886 -37.391  -0.827  1.00  0.00     0.224 C 
ATOM     18  C   UNL     1       5.474 -37.644   0.569  1.00  0.00     0.208 C 
ATOM     19  O   UNL     1       4.211 -38.581  -1.192  1.00  0.00    -0.337 OA
ATOM     20  C   UNL     1       5.838 -39.116   0.502  1.00  0.00     0.180 C 
ATOM     21  C   UNL     1       4.902 -39.663  -0.597  1.00  0.00     0.179 C 
BRANCH  17  22
ATOM     22  C   UNL     1       3.913 -36.181  -0.834  1.00  0.00     0.225 C 
BRANCH  22  23
ATOM     23  O   UNL     1       4.492 -35.072  -0.202  1.00  0.00    -0.391 OA
ATOM     24  H   UNL     1       5.172 -34.715  -0.833  1.00  0.00     0.210 HD
ENDBRANCH  22  23
ENDBRANCH  17  22
BRANCH  18  25
ATOM     25  O   UNL     1       4.560 -37.373   1.610  1.00  0.00    -0.385 OA
ATOM     26  H   UNL     1       3.931 -38.139   1.684  1.00  0.00     0.211 HD
ENDBRANCH  18  25
BRANCH  20  27
ATOM     27  O   UNL     1       5.677 -39.763   1.741  1.00  0.00    -0.387 OA
ATOM     28  H   UNL     1       6.141 -40.637   1.663  1.00  0.00     0.211 HD
ENDBRANCH  20  27
BRANCH  21  29
ATOM     29  C   UNL     1       3.876 -40.694  -0.108  1.00  0.00     0.191 C 
BRANCH  29  30
ATOM     30  O   UNL     1       3.913 -41.837  -0.918  1.00  0.00    -0.394 OA
ATOM     31  H   UNL     1       4.873 -42.020  -1.090  1.00  0.00     0.210 HD
ENDBRANCH  29  30
ENDBRANCH  21  29
ENDBRANCH   1  17
TORSDOF 13
ENDMDL
MODEL 2
REMARK VINA RESULT:    -1.601      1.923      3.357
REMARK INTER + INTRA:          -3.740
REMARK INTER:                  -3.701
REMARK INTRA:                  -0.039
REMARK UNBOUND:                -1.297
REMARK SMILES OC[C@@H]1O[C@H](O[C@@]2(CO)O[C@H](CO)[C@H](O)[C@@H]2O)[C@@H](O)[C@@H](O)[C@H]1O
REMARK SMILES IDX 6 1 5 2 3 3 22 4 4 5 20 6 18 7 2 8 1 9 23 11 21 13 19 15
REMARK SMILES IDX 7 17 16 18 10 19 14 20 11 21 8 22 9 23 17 25 15 27 12 29
REMARK SMILES IDX 13 30
REMARK H PARENT 1 10 23 12 21 14 19 16 9 24 17 26 15 28 13 31
REMARK Flexibility Score: inf
ROOT
ATOM      1  O   UNL     1       4.744 -38.110   0.015  1.00  0.00    -0.313 OA
ENDROOT
BRANCH   1   2
ATOM      2  C   UNL     1       4.328 -37.603  -1.248  1.00  0.00     0.285 C 
ATOM      3  C   UNL     1       4.964 -35.335  -0.808  1.00  0.00     0.178 C 
ATOM      4  C   UNL     1       6.178 -35.425  -1.765  1.00  0.00     0.177 C 
ATOM      5  O   UNL     1       3.918 -36.245  -1.139  1.00  0.00    -0.341 OA
ATOM      6  C   UNL     1       6.643 -36.882  -1.933  1.00  0.00     0.179 C 
ATOM      7  C   UNL     1       5.457 -37.787  -2.281  1.00  0.00     0.202 C 
BRANCH   3   8
ATOM      8  C   UNL     1       5.351 -35.392   0.684  1.00  0.00     0.191 C 
BRANCH   8   9
ATOM      9  O   UNL     1       4.197 -35.543   1.467  1.00  0.00    -0.394 OA
ATOM     10  H   UNL     1       4.506 -35.574   2.409  1.00  0.00     0.210 HD
ENDBRANCH   8   9
ENDBRANCH   3   8
BRANCH   4  11
ATOM     11  O   UNL     1       5.816 -34.877  -3.009  1.00  0.00    -0.387 OA
ATOM     12  H   UNL     1       5.690 -35.636  -3.636  1.00  0.00     0.211 HD
ENDBRANCH   4  11
BRANCH   6  13
ATOM     13  O   UNL     1       7.615 -36.967  -2.948  1.00  0.00    -0.387 OA
ATOM     14  H   UNL     1       8.152 -36.133  -2.920  1.00  0.00     0.211 HD
ENDBRANCH   6  13
BRANCH   7  15
ATOM     15  O   UNL     1       4.988 -37.496  -3.573  1.00  0.00    -0.385 OA
ATOM     16  H   UNL     1       5.304 -36.581  -3.796  1.00  0.00     0.211 HD
ENDBRANCH   7  15
ENDBRANCH   1   2
BRANCH   1  17
ATOM     17  C   UNL     1       4.910 -39.525   0.060  1.00  0.00     0.224 C 
ATOM     18  C   UNL     1       4.270 -40.010   1.370  1.00  0.00     0.208 C 
ATOM     19  O   UNL     1       6.282 -39.864   0.145  1.00  0.00    -0.337 OA
ATOM     20  C   UNL     1       5.382 -39.777   2.377  1.00  0.00     0.180 C 
ATOM     21  C   UNL     1       6.657 -39.795   1.507  1.00  0.00     0.179 C 
BRANCH  17  22
ATOM     22  C   UNL     1       4.254 -40.184  -1.183  1.00  0.00     0.225 C 
BRANCH  22  23
ATOM     23  O   UNL     1       4.252 -41.581  -1.064  1.00  0.00    -0.391 OA
ATOM     24  H   UNL     1       4.381 -41.939  -1.982  1.00  0.00     0.210 HD
ENDBRANCH  22  23
ENDBRANCH  17  22
BRANCH  18  25
ATOM     25  O   UNL     1       3.876 -41.364   1.323  1.00  0.00    -0.385 OA
ATOM     26  H   UNL     1       3.428 -41.592   2.180  1.00  0.00     0.211 HD
ENDBRANCH  18  25
BRANCH  20  27
ATOM     27  O   UNL     1       5.390 -40.746   3.396  1.00  0.00    -0.387 OA
ATOM     28  H   UNL     1       5.015 -40.306   4.204  1.00  0.00     0.211 HD
ENDBRANCH  20  27
BRANCH  21  29
ATOM     29  C   UNL     1       7.622 -40.948   1.813  1.00  0.00     0.191 C 
BRANCH  29  30
ATOM     30  O   UNL     1       8.785 -40.823   1.042  1.00  0.00    -0.394 OA
ATOM     31  H   UNL     1       9.544 -40.875   1.680  1.00  0.00     0.210 HD
ENDBRANCH  29  30
ENDBRANCH  21  29
ENDBRANCH   1  17
TORSDOF 13
ENDMDL
MODEL 3
REMARK VINA RESULT:    -1.522     13.008     15.786
REMARK INTER + INTRA:          -3.620
REMARK INTER:                  -3.061
REMARK INTRA:                  -0.560
REMARK UNBOUND:                -1.297
REMARK SMILES OC[C@@H]1O[C@H](O[C@@]2(CO)O[C@H](CO)[C@H](O)[C@@H]2O)[C@@H](O)[C@@H](O)[C@H]1O
REMARK SMILES IDX 6 1 5 2 3 3 22 4 4 5 20 6 18 7 2 8 1 9 23 11 21 13 19 15
REMARK SMILES IDX 7 17 16 18 10 19 14 20 11 21 8 22 9 23 17 25 15 27 12 29
REMARK SMILES IDX 13 30
REMARK H PARENT 1 10 23 12 21 14 19 16 9 24 17 26 15 28 13 31
REMARK Flexibility Score: inf
ROOT
ATOM      1  O   UNL     1      18.290 -38.182  -8.261  1.00  0.00    -0.313 OA
ENDROOT
BRANCH   1   2
ATOM      2  C   UNL     1      17.935 -39.432  -7.679  1.00  0.00     0.285 C 
ATOM      3  C   UNL     1      16.258 -39.974  -9.303  1.00  0.00     0.178 C 
ATOM      4  C   UNL     1      17.151 -41.058  -9.954  1.00  0.00     0.177 C 
ATOM      5  O   UNL     1      16.568 -39.738  -7.932  1.00  0.00    -0.341 OA
ATOM      6  C   UNL     1      18.641 -40.782  -9.687  1.00  0.00     0.179 C 
ATOM      7  C   UNL     1      18.881 -40.534  -8.194  1.00  0.00     0.202 C 
BRANCH   3   8
ATOM      8  C   UNL     1      16.171 -38.672 -10.125  1.00  0.00     0.191 C 
BRANCH   8   9
ATOM      9  O   UNL     1      15.329 -37.757  -9.477  1.00  0.00    -0.394 OA
ATOM     10  H   UNL     1      14.776 -37.341 -10.187  1.00  0.00     0.210 HD
ENDBRANCH   8   9
ENDBRANCH   3   8
BRANCH   4  11
ATOM     11  O   UNL     1      16.784 -42.315  -9.442  1.00  0.00    -0.387 OA
ATOM     12  H   UNL     1      17.294 -42.998  -9.950  1.00  0.00     0.211 HD
ENDBRANCH   4  11
BRANCH   6  13
ATOM     13  O   UNL     1      19.421 -41.871 -10.116  1.00  0.00    -0.387 OA
ATOM     14  H   UNL     1      20.111 -42.040  -9.423  1.00  0.00     0.211 HD
ENDBRANCH   6  13
BRANCH   7  15
ATOM     15  O   UNL     1      18.686 -41.722  -7.468  1.00  0.00    -0.385 OA
ATOM     16  H   UNL     1      19.276 -41.674  -6.671  1.00  0.00     0.211 HD
ENDBRANCH   7  15
ENDBRANCH   1   2
BRANCH   1  17
ATOM     17  C   UNL     1      19.540 -37.657  -7.819  1.00  0.00     0.224 C 
ATOM     18  C   UNL     1      19.546 -36.162  -8.170  1.00  0.00     0.208 C 
ATOM     19  O   UNL     1      20.609 -38.236  -8.544  1.00  0.00    -0.337 OA
ATOM     20  C   UNL     1      19.987 -36.175  -9.623  1.00  0.00     0.180 C 
ATOM     21  C   UNL     1      20.751 -37.510  -9.750  1.00  0.00     0.179 C 
BRANCH  17  22
ATOM     22  C   UNL     1      19.714 -37.894  -6.295  1.00  0.00     0.225 C 
BRANCH  22  23
ATOM     23  O   UNL     1      21.023 -37.596  -5.890  1.00  0.00    -0.391 OA
ATOM     24  H   UNL     1      20.992 -37.494  -4.902  1.00  0.00     0.210 HD
ENDBRANCH  22  23
ENDBRANCH  17  22
BRANCH  18  25
ATOM     25  O   UNL     1      20.423 -35.409  -7.360  1.00  0.00    -0.385 OA
ATOM     26  H   UNL     1      21.316 -35.391  -7.795  1.00  0.00     0.211 HD
ENDBRANCH  18  25
BRANCH  20  27
ATOM     27  O   UNL     1      20.768 -35.053  -9.955  1.00  0.00    -0.387 OA
ATOM     28  H   UNL     1      20.818 -35.030 -10.946  1.00  0.00     0.211 HD
ENDBRANCH  20  27
BRANCH  21  29
ATOM     29  C   UNL     1      22.246 -37.363 -10.063  1.00  0.00     0.191 C 
BRANCH  29  30
ATOM     30  O   UNL     1      22.917 -38.564  -9.802  1.00  0.00    -0.394 OA
ATOM     31  H   UNL     1      23.802 -38.310  -9.432  1.00  0.00     0.210 HD
ENDBRANCH  29  30
ENDBRANCH  21  29
ENDBRANCH   1  17
TORSDOF 13
ENDMDL
MODEL 4
REMARK VINA RESULT:    -0.552      1.366      5.940
REMARK INTER + INTRA:          -2.139
REMARK INTER:                  -2.517
REMARK INTRA:                   0.379
REMARK UNBOUND:                -1.297
REMARK SMILES OC[C@@H]1O[C@H](O[C@@]2(CO)O[C@H](CO)[C@H](O)[C@@H]2O)[C@@H](O)[C@@H](O)[C@H]1O
REMARK SMILES IDX 6 1 5 2 3 3 22 4 4 5 20 6 18 7 2 8 1 9 23 11 21 13 19 15
REMARK SMILES IDX 7 17 16 18 10 19 14 20 11 21 8 22 9 23 17 25 15 27 12 29
REMARK SMILES IDX 13 30
REMARK H PARENT 1 10 23 12 21 14 19 16 9 24 17 26 15 28 13 31
REMARK Flexibility Score: inf
ROOT
ATOM      1  O   UNL     1       5.552 -37.369  -1.520  1.00  0.00    -0.313 OA
ENDROOT
BRANCH   1   2
ATOM      2  C   UNL     1       5.141 -37.365  -0.157  1.00  0.00     0.285 C 
ATOM      3  C   UNL     1       3.875 -39.395  -0.292  1.00  0.00     0.178 C 
ATOM      4  C   UNL     1       4.936 -40.184   0.513  1.00  0.00     0.177 C 
ATOM      5  O   UNL     1       3.875 -37.999  -0.008  1.00  0.00    -0.341 OA
ATOM      6  C   UNL     1       6.321 -39.520   0.401  1.00  0.00     0.179 C 
ATOM      7  C   UNL     1       6.226 -38.024   0.717  1.00  0.00     0.202 C 
BRANCH   3   8
ATOM      8  C   UNL     1       3.903 -39.694  -1.805  1.00  0.00     0.191 C 
BRANCH   8   9
ATOM      9  O   UNL     1       4.245 -41.038  -2.017  1.00  0.00    -0.394 OA
ATOM     10  H   UNL     1       4.108 -41.208  -2.985  1.00  0.00     0.210 HD
ENDBRANCH   8   9
ENDBRANCH   3   8
BRANCH   4  11
ATOM     11  O   UNL     1       4.529 -40.247   1.858  1.00  0.00    -0.387 OA
ATOM     12  H   UNL     1       3.816 -40.936   1.915  1.00  0.00     0.211 HD
ENDBRANCH   4  11
BRANCH   6  13
ATOM     13  O   UNL     1       7.225 -40.133   1.289  1.00  0.00    -0.387 OA
ATOM     14  H   UNL     1       7.031 -39.791   2.200  1.00  0.00     0.211 HD
ENDBRANCH   6  13
BRANCH   7  15
ATOM     15  O   UNL     1       5.937 -37.833   2.079  1.00  0.00    -0.385 OA
ATOM     16  H   UNL     1       6.052 -36.865   2.265  1.00  0.00     0.211 HD
ENDBRANCH   7  15
ENDBRANCH   1   2
BRANCH   1  17
ATOM     17  C   UNL     1       5.467 -36.101  -2.168  1.00  0.00     0.224 C 
ATOM     18  C   UNL     1       4.766 -36.333  -3.514  1.00  0.00     0.208 C 
ATOM     19  O   UNL     1       6.759 -35.612  -2.476  1.00  0.00    -0.337 OA
ATOM     20  C   UNL     1       5.912 -36.787  -4.400  1.00  0.00     0.180 C 
ATOM     21  C   UNL     1       7.155 -36.192  -3.704  1.00  0.00     0.179 C 
BRANCH  17  22
ATOM     22  C   UNL     1       4.693 -35.093  -1.278  1.00  0.00     0.225 C 
BRANCH  22  23
ATOM     23  O   UNL     1       5.346 -34.905  -0.052  1.00  0.00    -0.391 OA
ATOM     24  H   UNL     1       6.256 -34.570  -0.270  1.00  0.00     0.210 HD
ENDBRANCH  22  23
ENDBRANCH  17  22
BRANCH  18  25
ATOM     25  O   UNL     1       4.140 -35.172  -4.017  1.00  0.00    -0.385 OA
ATOM     26  H   UNL     1       4.343 -34.415  -3.406  1.00  0.00     0.211 HD
ENDBRANCH  18  25
BRANCH  20  27
ATOM     27  O   UNL     1       5.761 -36.358  -5.731  1.00  0.00    -0.387 OA
ATOM     28  H   UNL     1       6.127 -35.436  -5.771  1.00  0.00     0.211 HD
ENDBRANCH  20  27
BRANCH  21  29
ATOM     29  C   UNL     1       7.906 -35.138  -4.529  1.00  0.00     0.191 C 
BRANCH  29  30
ATOM     30  O   UNL     1       9.265 -35.135  -4.189  1.00  0.00    -0.394 OA
ATOM     31  H   UNL     1       9.690 -34.448  -4.765  1.00  0.00     0.210 HD
ENDBRANCH  29  30
ENDBRANCH  21  29
ENDBRANCH   1  17
TORSDOF 13
ENDMDL
MODEL 5
REMARK VINA RESULT:    -0.526     13.289     15.141
REMARK INTER + INTRA:          -2.100
REMARK INTER:                  -2.625
REMARK INTRA:                   0.525
REMARK UNBOUND:                -1.297
REMARK SMILES OC[C@@H]1O[C@H](O[C@@]2(CO)O[C@H](CO)[C@H](O)[C@@H]2O)[C@@H](O)[C@@H](O)[C@H]1O
REMARK SMILES IDX 6 1 5 2 3 3 22 4 4 5 20 6 18 7 2 8 1 9 23 11 21 13 19 15
REMARK SMILES IDX 7 17 16 18 10 19 14 20 11 21 8 22 9 23 17 25 15 27 12 29
REMARK SMILES IDX 13 30
REMARK H PARENT 1 10 23 12 21 14 19 16 9 24 17 26 15 28 13 31
REMARK Flexibility Score: inf
ROOT
ATOM      1  O   UNL     1      19.332 -40.628  -8.226  1.00  0.00    -0.313 OA
ENDROOT
BRANCH   1   2
ATOM      2  C   UNL     1      19.688 -39.371  -7.660  1.00  0.00     0.285 C 
ATOM      3  C   UNL     1      21.364 -38.849  -9.290  1.00  0.00     0.178 C 
ATOM      4  C   UNL     1      20.472 -37.773  -9.955  1.00  0.00     0.177 C 
ATOM      5  O   UNL     1      21.055 -39.069  -7.917  1.00  0.00    -0.341 OA
ATOM      6  C   UNL     1      18.982 -38.045  -9.683  1.00  0.00     0.179 C 
ATOM      7  C   UNL     1      18.743 -38.275  -8.187  1.00  0.00     0.202 C 
BRANCH   3   8
ATOM      8  C   UNL     1      21.450 -40.161 -10.097  1.00  0.00     0.191 C 
BRANCH   8   9
ATOM      9  O   UNL     1      22.070 -41.154  -9.324  1.00  0.00    -0.394 OA
ATOM     10  H   UNL     1      22.018 -40.844  -8.383  1.00  0.00     0.210 HD
ENDBRANCH   8   9
ENDBRANCH   3   8
BRANCH   4  11
ATOM     11  O   UNL     1      20.840 -36.510  -9.457  1.00  0.00    -0.387 OA
ATOM     12  H   UNL     1      21.832 -36.486  -9.426  1.00  0.00     0.211 HD
ENDBRANCH   4  11
BRANCH   6  13
ATOM     13  O   UNL     1      18.202 -36.961 -10.125  1.00  0.00    -0.387 OA
ATOM     14  H   UNL     1      17.252 -37.178  -9.940  1.00  0.00     0.211 HD
ENDBRANCH   6  13
BRANCH   7  15
ATOM     15  O   UNL     1      18.939 -37.078  -7.476  1.00  0.00    -0.385 OA
ATOM     16  H   UNL     1      18.479 -36.361  -7.985  1.00  0.00     0.211 HD
ENDBRANCH   7  15
ENDBRANCH   1   2
BRANCH   1  17
ATOM     17  C   UNL     1      18.057 -41.120  -7.821  1.00  0.00     0.224 C 
ATOM     18  C   UNL     1      18.245 -42.599  -7.452  1.00  0.00     0.208 C 
ATOM     19  O   UNL     1      17.146 -41.096  -8.904  1.00  0.00    -0.337 OA
ATOM     20  C   UNL     1      18.156 -43.281  -8.806  1.00  0.00     0.180 C 
ATOM     21  C   UNL     1      17.344 -42.280  -9.655  1.00  0.00     0.179 C 
BRANCH  17  22
ATOM     22  C   UNL     1      17.515 -40.290  -6.626  1.00  0.00     0.225 C 
BRANCH  22  23
ATOM     23  O   UNL     1      17.717 -40.968  -5.416  1.00  0.00    -0.391 OA
ATOM     24  H   UNL     1      17.739 -40.271  -4.707  1.00  0.00     0.210 HD
ENDBRANCH  22  23
ENDBRANCH  17  22
BRANCH  18  25
ATOM     25  O   UNL     1      17.262 -43.073  -6.557  1.00  0.00    -0.385 OA
ATOM     26  H   UNL     1      16.893 -43.923  -6.915  1.00  0.00     0.211 HD
ENDBRANCH  18  25
BRANCH  20  27
ATOM     27  O   UNL     1      17.560 -44.553  -8.725  1.00  0.00    -0.387 OA
ATOM     28  H   UNL     1      17.704 -44.986  -9.606  1.00  0.00     0.211 HD
ENDBRANCH  20  27
BRANCH  21  29
ATOM     29  C   UNL     1      15.979 -42.800 -10.125  1.00  0.00     0.191 C 
BRANCH  29  30
ATOM     30  O   UNL     1      15.529 -43.817  -9.273  1.00  0.00    -0.394 OA
ATOM     31  H   UNL     1      14.562 -43.648  -9.130  1.00  0.00     0.210 HD
ENDBRANCH  29  30
ENDBRANCH  21  29
ENDBRANCH   1  17
TORSDOF 13
ENDMDL
MODEL 6
REMARK VINA RESULT:    -0.433     13.273     15.888
REMARK INTER + INTRA:          -1.957
REMARK INTER:                  -1.089
REMARK INTRA:                  -0.868
REMARK UNBOUND:                -1.297
REMARK SMILES OC[C@@H]1O[C@H](O[C@@]2(CO)O[C@H](CO)[C@H](O)[C@@H]2O)[C@@H](O)[C@@H](O)[C@H]1O
REMARK SMILES IDX 6 1 5 2 3 3 22 4 4 5 20 6 18 7 2 8 1 9 23 11 21 13 19 15
REMARK SMILES IDX 7 17 16 18 10 19 14 20 11 21 8 22 9 23 17 25 15 27 12 29
REMARK SMILES IDX 13 30
REMARK H PARENT 1 10 23 12 21 14 19 16 9 24 17 26 15 28 13 31
REMARK Flexibility Score: inf
ROOT
ATOM      1  O   UNL     1      18.475 -40.876  -9.087  1.00  0.00    -0.313 OA
ENDROOT
BRANCH   1   2
ATOM      2  C   UNL     1      18.820 -42.255  -9.165  1.00  0.00     0.285 C 
ATOM      3  C   UNL     1      18.034 -42.815  -6.972  1.00  0.00     0.178 C 
ATOM      4  C   UNL     1      16.805 -43.568  -7.537  1.00  0.00     0.177 C 
ATOM      5  O   UNL     1      19.134 -42.772  -7.877  1.00  0.00    -0.341 OA
ATOM      6  C   UNL     1      16.442 -43.058  -8.942  1.00  0.00     0.179 C 
ATOM      7  C   UNL     1      17.681 -43.041  -9.844  1.00  0.00     0.202 C 
BRANCH   3   8
ATOM      8  C   UNL     1      17.692 -41.429  -6.388  1.00  0.00     0.191 C 
BRANCH   8   9
ATOM      9  O   UNL     1      17.057 -41.581  -5.146  1.00  0.00    -0.394 OA
ATOM     10  H   UNL     1      16.715 -42.511  -5.123  1.00  0.00     0.210 HD
ENDBRANCH   8   9
ENDBRANCH   3   8
BRANCH   4  11
ATOM     11  O   UNL     1      17.094 -44.944  -7.572  1.00  0.00    -0.387 OA
ATOM     12  H   UNL     1      17.434 -45.148  -8.482  1.00  0.00     0.211 HD
ENDBRANCH   4  11
BRANCH   6  13
ATOM     13  O   UNL     1      15.453 -43.879  -9.515  1.00  0.00    -0.387 OA
ATOM     14  H   UNL     1      15.195 -43.477 -10.385  1.00  0.00     0.211 HD
ENDBRANCH   6  13
BRANCH   7  15
ATOM     15  O   UNL     1      18.094 -44.354 -10.124  1.00  0.00    -0.385 OA
ATOM     16  H   UNL     1      17.333 -44.806 -10.576  1.00  0.00     0.211 HD
ENDBRANCH   7  15
ENDBRANCH   1   2
BRANCH   1  17
ATOM     17  C   UNL     1      19.547 -39.981  -9.372  1.00  0.00     0.224 C 
ATOM     18  C   UNL     1      20.025 -39.413  -8.027  1.00  0.00     0.208 C 
ATOM     19  O   UNL     1      19.086 -38.874 -10.124  1.00  0.00    -0.337 OA
ATOM     20  C   UNL     1      19.046 -38.277  -7.791  1.00  0.00     0.180 C 
ATOM     21  C   UNL     1      18.560 -37.927  -9.213  1.00  0.00     0.179 C 
BRANCH  17  22
ATOM     22  C   UNL     1      20.684 -40.724 -10.123  1.00  0.00     0.225 C 
BRANCH  22  23
ATOM     23  O   UNL     1      21.464 -41.473  -9.232  1.00  0.00    -0.391 OA
ATOM     24  H   UNL     1      20.866 -41.721  -8.479  1.00  0.00     0.210 HD
ENDBRANCH  22  23
ENDBRANCH  17  22
BRANCH  18  25
ATOM     25  O   UNL     1      21.361 -38.959  -8.063  1.00  0.00    -0.385 OA
ATOM     26  H   UNL     1      21.382 -38.079  -8.523  1.00  0.00     0.211 HD
ENDBRANCH  18  25
BRANCH  20  27
ATOM     27  O   UNL     1      19.639 -37.191  -7.122  1.00  0.00    -0.387 OA
ATOM     28  H   UNL     1      19.951 -36.566  -7.827  1.00  0.00     0.211 HD
ENDBRANCH  20  27
BRANCH  21  29
ATOM     29  C   UNL     1      18.943 -36.519  -9.690  1.00  0.00     0.191 C 
BRANCH  29  30
ATOM     30  O   UNL     1      20.336 -36.372  -9.697  1.00  0.00    -0.394 OA
ATOM     31  H   UNL     1      20.673 -36.981 -10.404  1.00  0.00     0.210 HD
ENDBRANCH  29  30
ENDBRANCH  21  29
ENDBRANCH   1  17
TORSDOF 13
ENDMDL
MODEL 7
REMARK VINA RESULT:     0.189      5.898      8.970
REMARK INTER + INTRA:          -1.009
REMARK INTER:                  -0.301
REMARK INTRA:                  -0.708
REMARK UNBOUND:                -1.297
REMARK SMILES OC[C@@H]1O[C@H](O[C@@]2(CO)O[C@H](CO)[C@H](O)[C@@H]2O)[C@@H](O)[C@@H](O)[C@H]1O
REMARK SMILES IDX 6 1 5 2 3 3 22 4 4 5 20 6 18 7 2 8 1 9 23 11 21 13 19 15
REMARK SMILES IDX 7 17 16 18 10 19 14 20 11 21 8 22 9 23 17 25 15 27 12 29
REMARK SMILES IDX 13 30
REMARK H PARENT 1 10 23 12 21 14 19 16 9 24 17 26 15 28 13 31
REMARK Flexibility Score: inf
ROOT
ATOM      1  O   UNL     1       5.676 -39.284   5.915  1.00  0.00    -0.313 OA
ENDROOT
BRANCH   1   2
ATOM      2  C   UNL     1       5.154 -40.541   5.498  1.00  0.00     0.285 C 
ATOM      3  C   UNL     1       3.892 -39.666   3.658  1.00  0.00     0.178 C 
ATOM      4  C   UNL     1       4.878 -40.256   2.621  1.00  0.00     0.177 C 
ATOM      5  O   UNL     1       3.876 -40.381   4.891  1.00  0.00    -0.341 OA
ATOM      6  C   UNL     1       6.270 -40.469   3.241  1.00  0.00     0.179 C 
ATOM      7  C   UNL     1       6.158 -41.238   4.561  1.00  0.00     0.202 C 
BRANCH   3   8
ATOM      8  C   UNL     1       4.044 -38.144   3.856  1.00  0.00     0.191 C 
BRANCH   8   9
ATOM      9  O   UNL     1       3.878 -37.487   2.628  1.00  0.00    -0.394 OA
ATOM     10  H   UNL     1       3.565 -38.175   1.987  1.00  0.00     0.210 HD
ENDBRANCH   8   9
ENDBRANCH   3   8
BRANCH   4  11
ATOM     11  O   UNL     1       4.360 -41.474   2.145  1.00  0.00    -0.387 OA
ATOM     12  H   UNL     1       3.500 -41.629   2.616  1.00  0.00     0.211 HD
ENDBRANCH   4  11
BRANCH   6  13
ATOM     13  O   UNL     1       7.094 -41.180   2.349  1.00  0.00    -0.387 OA
ATOM     14  H   UNL     1       7.998 -41.239   2.755  1.00  0.00     0.211 HD
ENDBRANCH   6  13
BRANCH   7  15
ATOM     15  O   UNL     1       5.758 -42.563   4.317  1.00  0.00    -0.385 OA
ATOM     16  H   UNL     1       5.787 -42.697   3.334  1.00  0.00     0.211 HD
ENDBRANCH   7  15
ENDBRANCH   1   2
BRANCH   1  17
ATOM     17  C   UNL     1       5.304 -38.897   7.237  1.00  0.00     0.224 C 
ATOM     18  C   UNL     1       4.761 -37.463   7.147  1.00  0.00     0.208 C 
ATOM     19  O   UNL     1       6.441 -38.836   8.077  1.00  0.00    -0.337 OA
ATOM     20  C   UNL     1       6.033 -36.635   7.187  1.00  0.00     0.180 C 
ATOM     21  C   UNL     1       7.040 -37.567   7.894  1.00  0.00     0.179 C 
BRANCH  17  22
ATOM     22  C   UNL     1       4.248 -39.881   7.808  1.00  0.00     0.225 C 
BRANCH  22  23
ATOM     23  O   UNL     1       4.085 -39.692   9.187  1.00  0.00    -0.391 OA
ATOM     24  H   UNL     1       3.461 -38.926   9.292  1.00  0.00     0.210 HD
ENDBRANCH  22  23
ENDBRANCH  17  22
BRANCH  18  25
ATOM     25  O   UNL     1       3.886 -37.138   8.205  1.00  0.00    -0.385 OA
ATOM     26  H   UNL     1       3.445 -37.971   8.517  1.00  0.00     0.211 HD
ENDBRANCH  18  25
BRANCH  20  27
ATOM     27  O   UNL     1       5.850 -35.409   7.851  1.00  0.00    -0.387 OA
ATOM     28  H   UNL     1       5.828 -34.710   7.146  1.00  0.00     0.211 HD
ENDBRANCH  20  27
BRANCH  21  29
ATOM     29  C   UNL     1       7.539 -37.057   9.253  1.00  0.00     0.191 C 
BRANCH  29  30
ATOM     30  O   UNL     1       8.676 -36.256   9.082  1.00  0.00    -0.394 OA
ATOM     31  H   UNL     1       8.350 -35.319   9.053  1.00  0.00     0.210 HD
ENDBRANCH  29  30
ENDBRANCH  21  29
ENDBRANCH   1  17
TORSDOF 13
ENDMDL
MODEL 8
REMARK VINA RESULT:     0.420      2.645      6.867
REMARK INTER + INTRA:          -0.657
REMARK INTER:                   0.498
REMARK INTRA:                  -1.154
REMARK UNBOUND:                -1.297
REMARK SMILES OC[C@@H]1O[C@H](O[C@@]2(CO)O[C@H](CO)[C@H](O)[C@@H]2O)[C@@H](O)[C@@H](O)[C@H]1O
REMARK SMILES IDX 6 1 5 2 3 3 22 4 4 5 20 6 18 7 2 8 1 9 23 11 21 13 19 15
REMARK SMILES IDX 7 17 16 18 10 19 14 20 11 21 8 22 9 23 17 25 15 27 12 29
REMARK SMILES IDX 13 30
REMARK H PARENT 1 10 23 12 21 14 19 16 9 24 17 26 15 28 13 31
REMARK Flexibility Score: inf
ROOT
ATOM      1  O   UNL     1       5.444 -38.946   1.648  1.00  0.00    -0.313 OA
ENDROOT
BRANCH   1   2
ATOM      2  C   UNL     1       4.842 -40.159   2.088  1.00  0.00     0.285 C 
ATOM      3  C   UNL     1       6.891 -41.393   2.232  1.00  0.00     0.178 C 
ATOM      4  C   UNL     1       6.872 -41.365   3.779  1.00  0.00     0.177 C 
ATOM      5  O   UNL     1       5.595 -41.285   1.650  1.00  0.00    -0.341 OA
ATOM      6  C   UNL     1       6.047 -40.175   4.301  1.00  0.00     0.179 C 
ATOM      7  C   UNL     1       4.676 -40.133   3.620  1.00  0.00     0.202 C 
BRANCH   3   8
ATOM      8  C   UNL     1       7.905 -40.410   1.611  1.00  0.00     0.191 C 
BRANCH   8   9
ATOM      9  O   UNL     1       9.014 -41.118   1.122  1.00  0.00    -0.394 OA
ATOM     10  H   UNL     1       9.481 -41.481   1.918  1.00  0.00     0.210 HD
ENDBRANCH   8   9
ENDBRANCH   3   8
BRANCH   4  11
ATOM     11  O   UNL     1       6.335 -42.578   4.247  1.00  0.00    -0.387 OA
ATOM     12  H   UNL     1       5.611 -42.350   4.886  1.00  0.00     0.211 HD
ENDBRANCH   4  11
BRANCH   6  13
ATOM     13  O   UNL     1       5.880 -40.276   5.694  1.00  0.00    -0.387 OA
ATOM     14  H   UNL     1       5.563 -41.195   5.894  1.00  0.00     0.211 HD
ENDBRANCH   6  13
BRANCH   7  15
ATOM     15  O   UNL     1       3.891 -41.220   4.043  1.00  0.00    -0.385 OA
ATOM     16  H   UNL     1       3.328 -41.487   3.270  1.00  0.00     0.211 HD
ENDBRANCH   7  15
ENDBRANCH   1   2
BRANCH   1  17
ATOM     17  C   UNL     1       4.863 -38.390   0.470  1.00  0.00     0.224 C 
ATOM     18  C   UNL     1       6.020 -37.880  -0.401  1.00  0.00     0.208 C 
ATOM     19  O   UNL     1       4.079 -37.255   0.789  1.00  0.00    -0.337 OA
ATOM     20  C   UNL     1       6.292 -36.510   0.196  1.00  0.00     0.180 C 
ATOM     21  C   UNL     1       4.949 -36.142   0.863  1.00  0.00     0.179 C 
BRANCH  17  22
ATOM     22  C   UNL     1       4.012 -39.459  -0.266  1.00  0.00     0.225 C 
BRANCH  22  23
ATOM     23  O   UNL     1       4.825 -40.289  -1.052  1.00  0.00    -0.391 OA
ATOM     24  H   UNL     1       5.398 -40.797  -0.420  1.00  0.00     0.210 HD
ENDBRANCH  22  23
ENDBRANCH  17  22
BRANCH  18  25
ATOM     25  O   UNL     1       5.687 -37.801  -1.770  1.00  0.00    -0.385 OA
ATOM     26  H   UNL     1       6.090 -36.976  -2.146  1.00  0.00     0.211 HD
ENDBRANCH  18  25
BRANCH  20  27
ATOM     27  O   UNL     1       6.705 -35.578  -0.773  1.00  0.00    -0.387 OA
ATOM     28  H   UNL     1       7.269 -36.078  -1.420  1.00  0.00     0.211 HD
ENDBRANCH  20  27
BRANCH  21  29
ATOM     29  C   UNL     1       4.245 -34.923   0.251  1.00  0.00     0.191 C 
BRANCH  29  30
ATOM     30  O   UNL     1       3.944 -35.164  -1.096  1.00  0.00    -0.394 OA
ATOM     31  H   UNL     1       3.857 -34.272  -1.522  1.00  0.00     0.210 HD
ENDBRANCH  29  30
ENDBRANCH  21  29
ENDBRANCH   1  17
TORSDOF 13
ENDMDL
