MODEL 1
REMARK VINA RESULT:    -2.908      0.000      0.000
REMARK INTER + INTRA:          -3.932
REMARK INTER:                  -4.098
REMARK INTRA:                   0.166
REMARK UNBOUND:                 0.166
REMARK SMILES CC1=CCC(=C(C)C)C(=O)CC(C)=CCC1
REMARK SMILES IDX 12 1 14 2 13 3 15 4 16 5 2 6 1 7 3 8 11 10 9 11 10 12 5 13
REMARK SMILES IDX 6 14 7 15 8 16 4 17
REMARK H PARENT
REMARK Flexibility Score: 60.00
ROOT
ATOM      1  C   UNL     1     214.501 161.236 159.245  1.00  0.00    -0.070 C 
ATOM      2  C   UNL     1     213.404 161.988 159.489  1.00  0.00    -0.027 C 
ATOM      3  C   UNL     1     215.830 161.940 159.141  1.00  0.00     0.039 C 
ENDROOT
BRANCH   2   4
ATOM      4  C   UNL     1     212.005 161.460 159.722  1.00  0.00     0.032 C 
BRANCH   4   5
ATOM      5  C   UNL     1     211.662 161.166 161.198  1.00  0.00     0.034 C 
BRANCH   5   6
ATOM      6  C   UNL     1     211.050 159.793 161.407  1.00  0.00    -0.077 C 
ATOM      7  C   UNL     1     209.596 159.612 161.050  1.00  0.00     0.039 C 
ATOM      8  C   UNL     1     211.739 158.704 161.828  1.00  0.00    -0.023 CG0
ATOM      9  G   UNL     1     213.192 158.652 162.258  1.00  0.00     0.000 G0
ENDBRANCH   5   6
ENDBRANCH   4   5
ENDBRANCH   2   4
BRANCH   1  10
ATOM     10  C   UNL     1     214.470 159.723 159.163  1.00  0.00     0.111 C 
BRANCH  10  11
ATOM     11  C   UNL     1     214.936 159.087 160.446  1.00  0.00     0.163 C 
ATOM     12  O   UNL     1     216.046 159.450 160.920  1.00  0.00    -0.294 OA
BRANCH  11  13
ATOM     13  C   UNL     1     214.106 158.099 161.197  1.00  0.00    -0.002 C 
ATOM     14  C   UNL     1     214.244 156.757 160.975  1.00  0.00    -0.069 C 
ATOM     15  C   UNL     1     215.121 156.234 159.859  1.00  0.00     0.039 C 
ATOM     16  C   UNL     1     213.538 155.727 161.828  1.00  0.00     0.039 C 
BRANCH  13  17
ATOM     17  C   UNL     1     213.182 158.643 162.276  1.00  0.00     0.066 CG0
ATOM     18  G   UNL     1     211.740 158.720 161.814  1.00  0.00     0.000 G0
ENDBRANCH  13  17
ENDBRANCH  11  13
ENDBRANCH  10  11
ENDBRANCH   1  10
TORSDOF 0
ENDMDL
MODEL 2
REMARK VINA RESULT:    -2.801     16.250     17.559
REMARK INTER + INTRA:          -3.782
REMARK INTER:                  -3.901
REMARK INTRA:                   0.119
REMARK UNBOUND:                 0.166
REMARK SMILES CC1=CCC(=C(C)C)C(=O)CC(C)=CCC1
REMARK SMILES IDX 12 1 14 2 13 3 15 4 16 5 2 6 1 7 3 8 11 10 9 11 10 12 5 13
REMARK SMILES IDX 6 14 7 15 8 16 4 17
REMARK H PARENT
REMARK Flexibility Score: 60.00
ROOT
ATOM      1  C   UNL     1     199.816 151.006 165.891  1.00  0.00    -0.070 C 
ATOM      2  C   UNL     1     200.803 150.411 166.598  1.00  0.00    -0.027 C 
ATOM      3  C   UNL     1     199.711 152.509 165.952  1.00  0.00     0.039 C 
ENDROOT
BRANCH   2   4
ATOM      4  C   UNL     1     201.129 148.934 166.588  1.00  0.00     0.032 C 
BRANCH   4   5
ATOM      5  C   UNL     1     202.104 148.495 165.475  1.00  0.00     0.034 C 
BRANCH   5   6
ATOM      6  C   UNL     1     201.635 147.263 164.721  1.00  0.00    -0.077 C 
ATOM      7  C   UNL     1     201.735 145.932 165.422  1.00  0.00     0.039 C 
ATOM      8  C   UNL     1     201.071 147.290 163.489  1.00  0.00    -0.023 CG0
ATOM      9  G   UNL     1     200.885 148.499 162.594  1.00  0.00     0.000 G0
ENDBRANCH   5   6
ENDBRANCH   4   5
ENDBRANCH   2   4
BRANCH   1  10
ATOM     10  C   UNL     1     198.876 150.248 164.975  1.00  0.00     0.111 C 
BRANCH  10  11
ATOM     11  C   UNL     1     199.327 150.313 163.540  1.00  0.00     0.163 C 
ATOM     12  O   UNL     1     199.634 151.439 163.063  1.00  0.00    -0.294 OA
BRANCH  11  13
ATOM     13  C   UNL     1     199.478 149.093 162.691  1.00  0.00    -0.002 C 
ATOM     14  C   UNL     1     198.422 148.604 161.974  1.00  0.00    -0.069 C 
ATOM     15  C   UNL     1     197.033 149.182 162.132  1.00  0.00     0.039 C 
ATOM     16  C   UNL     1     198.582 147.471 160.985  1.00  0.00     0.039 C 
BRANCH  13  17
ATOM     17  C   UNL     1     200.868 148.485 162.590  1.00  0.00     0.066 CG0
ATOM     18  G   UNL     1     201.042 147.287 163.503  1.00  0.00     0.000 G0
ENDBRANCH  13  17
ENDBRANCH  11  13
ENDBRANCH  10  11
ENDBRANCH   1  10
TORSDOF 0
ENDMDL
MODEL 3
REMARK VINA RESULT:    -2.796     13.750     16.423
REMARK INTER + INTRA:          -3.775
REMARK INTER:                  -4.274
REMARK INTRA:                   0.499
REMARK UNBOUND:                 0.166
REMARK SMILES CC1=CCC(=C(C)C)C(=O)CC(C)=CCC1
REMARK SMILES IDX 12 1 14 2 13 3 15 4 16 5 2 6 1 7 3 8 11 10 9 11 10 12 5 13
REMARK SMILES IDX 6 14 7 15 8 16 4 17
REMARK H PARENT
REMARK Flexibility Score: 60.00
ROOT
ATOM      1  C   UNL     1     200.453 151.166 165.666  1.00  0.00    -0.070 C 
ATOM      2  C   UNL     1     201.044 152.339 165.345  1.00  0.00    -0.027 C 
ATOM      3  C   UNL     1     201.123 150.300 166.703  1.00  0.00     0.039 C 
ENDROOT
BRANCH   2   4
ATOM      4  C   UNL     1     200.480 153.383 164.406  1.00  0.00     0.032 C 
BRANCH   4   5
ATOM      5  C   UNL     1     201.388 153.736 163.210  1.00  0.00     0.034 C 
BRANCH   5   6
ATOM      6  C   UNL     1     201.772 152.529 162.374  1.00  0.00    -0.077 C 
ATOM      7  C   UNL     1     203.240 152.266 162.155  1.00  0.00     0.039 C 
ATOM      8  C   UNL     1     200.886 151.635 161.870  1.00  0.00    -0.023 CG0
ATOM      9  G   UNL     1     199.374 151.704 161.947  1.00  0.00     0.000 G0
ENDBRANCH   5   6
ENDBRANCH   4   5
ENDBRANCH   2   4
BRANCH   1  10
ATOM     10  C   UNL     1     199.115 150.728 165.106  1.00  0.00     0.111 C 
BRANCH  10  11
ATOM     11  C   UNL     1     199.275 149.956 163.823  1.00  0.00     0.163 C 
ATOM     12  O   UNL     1     199.843 148.831 163.873  1.00  0.00    -0.294 OA
BRANCH  11  13
ATOM     13  C   UNL     1     198.735 150.446 162.520  1.00  0.00    -0.002 C 
ATOM     14  C   UNL     1     197.669 149.828 161.928  1.00  0.00    -0.069 C 
ATOM     15  C   UNL     1     197.099 148.542 162.485  1.00  0.00     0.039 C 
ATOM     16  C   UNL     1     196.999 150.394 160.695  1.00  0.00     0.039 C 
BRANCH  13  17
ATOM     17  C   UNL     1     199.357 151.706 161.939  1.00  0.00     0.066 CG0
ATOM     18  G   UNL     1     200.869 151.623 161.870  1.00  0.00     0.000 G0
ENDBRANCH  13  17
ENDBRANCH  11  13
ENDBRANCH  10  11
ENDBRANCH   1  10
TORSDOF 0
ENDMDL
MODEL 4
REMARK VINA RESULT:    -2.740     14.458     17.058
REMARK INTER + INTRA:          -3.696
REMARK INTER:                  -4.109
REMARK INTRA:                   0.413
REMARK UNBOUND:                 0.166
REMARK SMILES CC1=CCC(=C(C)C)C(=O)CC(C)=CCC1
REMARK SMILES IDX 12 1 14 2 13 3 15 4 16 5 2 6 1 7 3 8 11 10 9 11 10 12 5 13
REMARK SMILES IDX 6 14 7 15 8 16 4 17
REMARK H PARENT
REMARK Flexibility Score: 60.00
ROOT
ATOM      1  C   UNL     1     198.834 150.057 160.671  1.00  0.00    -0.070 C 
ATOM      2  C   UNL     1     198.059 149.098 161.226  1.00  0.00    -0.027 C 
ATOM      3  C   UNL     1     199.423 149.787 159.309  1.00  0.00     0.039 C 
ENDROOT
BRANCH   2   4
ATOM      4  C   UNL     1     197.305 149.219 162.532  1.00  0.00     0.032 C 
BRANCH   4   5
ATOM      5  C   UNL     1     197.707 148.189 163.609  1.00  0.00     0.034 C 
BRANCH   5   6
ATOM      6  C   UNL     1     199.198 148.174 163.896  1.00  0.00    -0.077 C 
ATOM      7  C   UNL     1     199.949 146.894 163.633  1.00  0.00     0.039 C 
ATOM      8  C   UNL     1     199.907 149.253 164.308  1.00  0.00    -0.023 CG0
ATOM      9  G   UNL     1     199.366 150.627 164.651  1.00  0.00     0.000 G0
ENDBRANCH   5   6
ENDBRANCH   4   5
ENDBRANCH   2   4
BRANCH   1  10
ATOM     10  C   UNL     1     199.062 151.413 161.306  1.00  0.00     0.111 C 
BRANCH  10  11
ATOM     11  C   UNL     1     200.191 151.379 162.301  1.00  0.00     0.163 C 
ATOM     12  O   UNL     1     201.347 151.103 161.879  1.00  0.00    -0.294 OA
BRANCH  11  13
ATOM     13  C   UNL     1     200.000 151.718 163.743  1.00  0.00    -0.002 C 
ATOM     14  C   UNL     1     200.299 152.966 164.214  1.00  0.00    -0.069 C 
ATOM     15  C   UNL     1     200.976 153.994 163.335  1.00  0.00     0.039 C 
ATOM     16  C   UNL     1     199.969 153.389 165.628  1.00  0.00     0.039 C 
BRANCH  13  17
ATOM     17  C   UNL     1     199.374 150.653 164.630  1.00  0.00     0.066 CG0
ATOM     18  G   UNL     1     199.899 149.265 164.322  1.00  0.00     0.000 G0
ENDBRANCH  13  17
ENDBRANCH  11  13
ENDBRANCH  10  11
ENDBRANCH   1  10
TORSDOF 0
ENDMDL
MODEL 5
REMARK VINA RESULT:    -2.624     16.359     18.697
REMARK INTER + INTRA:          -3.532
REMARK INTER:                  -3.755
REMARK INTRA:                   0.223
REMARK UNBOUND:                 0.166
REMARK SMILES CC1=CCC(=C(C)C)C(=O)CC(C)=CCC1
REMARK SMILES IDX 12 1 14 2 13 3 15 4 16 5 2 6 1 7 3 8 11 10 9 11 10 12 5 13
REMARK SMILES IDX 6 14 7 15 8 16 4 17
REMARK H PARENT
REMARK Flexibility Score: 60.00
ROOT
ATOM      1  C   UNL     1     203.130 144.856 169.714  1.00  0.00    -0.070 C 
ATOM      2  C   UNL     1     203.834 144.020 168.917  1.00  0.00    -0.027 C 
ATOM      3  C   UNL     1     202.553 144.295 170.989  1.00  0.00     0.039 C 
ENDROOT
BRANCH   2   4
ATOM      4  C   UNL     1     204.568 144.415 167.654  1.00  0.00     0.032 C 
BRANCH   4   5
ATOM      5  C   UNL     1     203.657 144.754 166.456  1.00  0.00     0.034 C 
BRANCH   5   6
ATOM      6  C   UNL     1     203.984 146.091 165.815  1.00  0.00    -0.077 C 
ATOM      7  C   UNL     1     205.365 146.271 165.237  1.00  0.00     0.039 C 
ATOM      8  C   UNL     1     203.098 147.106 165.668  1.00  0.00    -0.023 CG0
ATOM      9  G   UNL     1     201.673 147.157 166.182  1.00  0.00     0.000 G0
ENDBRANCH   5   6
ENDBRANCH   4   5
ENDBRANCH   2   4
BRANCH   1  10
ATOM     10  C   UNL     1     202.973 146.336 169.434  1.00  0.00     0.111 C 
BRANCH  10  11
ATOM     11  C   UNL     1     201.682 146.633 168.717  1.00  0.00     0.163 C 
ATOM     12  O   UNL     1     200.643 146.021 169.086  1.00  0.00    -0.294 OA
BRANCH  11  13
ATOM     13  C   UNL     1     201.582 147.660 167.638  1.00  0.00    -0.002 C 
ATOM     14  C   UNL     1     201.509 148.991 167.943  1.00  0.00    -0.069 C 
ATOM     15  C   UNL     1     201.371 149.460 169.375  1.00  0.00     0.039 C 
ATOM     16  C   UNL     1     201.568 150.062 166.877  1.00  0.00     0.039 C 
BRANCH  13  17
ATOM     17  C   UNL     1     201.660 147.169 166.201  1.00  0.00     0.066 CG0
ATOM     18  G   UNL     1     203.085 147.116 165.687  1.00  0.00     0.000 G0
ENDBRANCH  13  17
ENDBRANCH  11  13
ENDBRANCH  10  11
ENDBRANCH   1  10
TORSDOF 0
ENDMDL
MODEL 6
REMARK VINA RESULT:    -2.548     16.183     18.433
REMARK INTER + INTRA:          -3.425
REMARK INTER:                  -3.837
REMARK INTRA:                   0.411
REMARK UNBOUND:                 0.166
REMARK SMILES CC1=CCC(=C(C)C)C(=O)CC(C)=CCC1
REMARK SMILES IDX 12 1 14 2 13 3 15 4 16 5 2 6 1 7 3 8 11 10 9 11 10 12 5 13
REMARK SMILES IDX 6 14 7 15 8 16 4 17
REMARK H PARENT
REMARK Flexibility Score: 60.00
ROOT
ATOM      1  C   UNL     1     198.314 150.414 162.099  1.00  0.00    -0.070 C 
ATOM      2  C   UNL     1     199.209 150.935 162.968  1.00  0.00    -0.027 C 
ATOM      3  C   UNL     1     198.282 150.973 160.699  1.00  0.00     0.039 C 
ENDROOT
BRANCH   2   4
ATOM      4  C   UNL     1     199.459 150.446 164.377  1.00  0.00     0.032 C 
BRANCH   4   5
ATOM      5  C   UNL     1     200.880 149.897 164.629  1.00  0.00     0.034 C 
BRANCH   5   6
ATOM      6  C   UNL     1     201.327 148.893 163.582  1.00  0.00    -0.077 C 
ATOM      7  C   UNL     1     202.544 149.232 162.760  1.00  0.00     0.039 C 
ATOM      8  C   UNL     1     200.746 147.684 163.386  1.00  0.00    -0.023 CG0
ATOM      9  G   UNL     1     199.511 147.140 164.076  1.00  0.00     0.000 G0
ENDBRANCH   5   6
ENDBRANCH   4   5
ENDBRANCH   2   4
BRANCH   1  10
ATOM     10  C   UNL     1     197.414 149.242 162.435  1.00  0.00     0.111 C 
BRANCH  10  11
ATOM     11  C   UNL     1     198.068 147.926 162.104  1.00  0.00     0.163 C 
ATOM     12  O   UNL     1     198.438 147.729 160.915  1.00  0.00    -0.294 OA
BRANCH  11  13
ATOM     13  C   UNL     1     198.343 146.885 163.139  1.00  0.00    -0.002 C 
ATOM     14  C   UNL     1     197.634 145.717 163.162  1.00  0.00    -0.069 C 
ATOM     15  C   UNL     1     196.449 145.501 162.247  1.00  0.00     0.039 C 
ATOM     16  C   UNL     1     197.994 144.580 164.092  1.00  0.00     0.039 C 
BRANCH  13  17
ATOM     17  C   UNL     1     199.499 147.142 164.093  1.00  0.00     0.066 CG0
ATOM     18  G   UNL     1     200.728 147.672 163.381  1.00  0.00     0.000 G0
ENDBRANCH  13  17
ENDBRANCH  11  13
ENDBRANCH  10  11
ENDBRANCH   1  10
TORSDOF 0
ENDMDL
MODEL 7
REMARK VINA RESULT:    -2.517      8.912     11.376
REMARK INTER + INTRA:          -3.381
REMARK INTER:                  -3.864
REMARK INTRA:                   0.483
REMARK UNBOUND:                 0.166
REMARK SMILES CC1=CCC(=C(C)C)C(=O)CC(C)=CCC1
REMARK SMILES IDX 12 1 14 2 13 3 15 4 16 5 2 6 1 7 3 8 11 10 9 11 10 12 5 13
REMARK SMILES IDX 6 14 7 15 8 16 4 17
REMARK H PARENT
REMARK Flexibility Score: 60.00
ROOT
ATOM      1  C   UNL     1     211.549 154.010 170.694  1.00  0.00    -0.070 C 
ATOM      2  C   UNL     1     211.581 154.785 169.586  1.00  0.00    -0.027 C 
ATOM      3  C   UNL     1     211.973 154.632 172.001  1.00  0.00     0.039 C 
ENDROOT
BRANCH   2   4
ATOM      4  C   UNL     1     211.105 154.376 168.209  1.00  0.00     0.032 C 
BRANCH   4   5
ATOM      5  C   UNL     1     212.167 154.494 167.096  1.00  0.00     0.034 C 
BRANCH   5   6
ATOM      6  C   UNL     1     213.376 153.604 167.325  1.00  0.00    -0.077 C 
ATOM      7  C   UNL     1     214.736 154.254 167.318  1.00  0.00     0.039 C 
ATOM      8  C   UNL     1     213.307 152.279 167.604  1.00  0.00    -0.023 CG0
ATOM      9  G   UNL     1     212.061 151.417 167.646  1.00  0.00     0.000 G0
ENDBRANCH   5   6
ENDBRANCH   4   5
ENDBRANCH   2   4
BRANCH   1  10
ATOM     10  C   UNL     1     211.025 152.589 170.700  1.00  0.00     0.111 C 
BRANCH  10  11
ATOM     11  C   UNL     1     212.062 151.612 170.213  1.00  0.00     0.163 C 
ATOM     12  O   UNL     1     213.120 151.483 170.887  1.00  0.00    -0.294 OA
BRANCH  11  13
ATOM     13  C   UNL     1     211.854 150.756 169.008  1.00  0.00    -0.002 C 
ATOM     14  C   UNL     1     211.407 149.470 169.131  1.00  0.00    -0.069 C 
ATOM     15  C   UNL     1     211.258 148.819 170.488  1.00  0.00     0.039 C 
ATOM     16  C   UNL     1     211.035 148.632 167.928  1.00  0.00     0.039 C 
BRANCH  13  17
ATOM     17  C   UNL     1     212.067 151.405 167.649  1.00  0.00     0.066 CG0
ATOM     18  G   UNL     1     213.307 152.277 167.615  1.00  0.00     0.000 G0
ENDBRANCH  13  17
ENDBRANCH  11  13
ENDBRANCH  10  11
ENDBRANCH   1  10
TORSDOF 0
ENDMDL
MODEL 8
REMARK VINA RESULT:    -2.510     13.547     16.194
REMARK INTER + INTRA:          -3.371
REMARK INTER:                  -3.582
REMARK INTRA:                   0.211
REMARK UNBOUND:                 0.166
REMARK SMILES CC1=CCC(=C(C)C)C(=O)CC(C)=CCC1
REMARK SMILES IDX 12 1 14 2 13 3 15 4 16 5 2 6 1 7 3 8 11 10 9 11 10 12 5 13
REMARK SMILES IDX 6 14 7 15 8 16 4 17
REMARK H PARENT
REMARK Flexibility Score: 60.00
ROOT
ATOM      1  C   UNL     1     198.109 150.005 161.529  1.00  0.00    -0.070 C 
ATOM      2  C   UNL     1     197.730 149.466 162.710  1.00  0.00    -0.027 C 
ATOM      3  C   UNL     1     197.027 150.410 160.559  1.00  0.00     0.039 C 
ENDROOT
BRANCH   2   4
ATOM      4  C   UNL     1     198.656 149.090 163.846  1.00  0.00     0.032 C 
BRANCH   4   5
ATOM      5  C   UNL     1     198.790 150.158 164.952  1.00  0.00     0.034 C 
BRANCH   5   6
ATOM      6  C   UNL     1     200.231 150.516 165.266  1.00  0.00    -0.077 C 
ATOM      7  C   UNL     1     200.973 149.641 166.244  1.00  0.00     0.039 C 
ATOM      8  C   UNL     1     200.914 151.527 164.675  1.00  0.00    -0.023 CG0
ATOM      9  G   UNL     1     200.373 152.539 163.684  1.00  0.00     0.000 G0
ENDBRANCH   5   6
ENDBRANCH   4   5
ENDBRANCH   2   4
BRANCH   1  10
ATOM     10  C   UNL     1     199.551 150.304 161.176  1.00  0.00     0.111 C 
BRANCH  10  11
ATOM     11  C   UNL     1     199.858 151.773 161.288  1.00  0.00     0.163 C 
ATOM     12  O   UNL     1     199.206 152.574 160.565  1.00  0.00    -0.294 OA
BRANCH  11  13
ATOM     13  C   UNL     1     200.856 152.312 162.260  1.00  0.00    -0.002 C 
ATOM     14  C   UNL     1     202.115 152.654 161.854  1.00  0.00    -0.069 C 
ATOM     15  C   UNL     1     202.593 152.358 160.450  1.00  0.00     0.039 C 
ATOM     16  C   UNL     1     203.093 153.349 162.775  1.00  0.00     0.039 C 
BRANCH  13  17
ATOM     17  C   UNL     1     200.380 152.548 163.686  1.00  0.00     0.066 CG0
ATOM     18  G   UNL     1     200.924 151.516 164.653  1.00  0.00     0.000 G0
ENDBRANCH  13  17
ENDBRANCH  11  13
ENDBRANCH  10  11
ENDBRANCH   1  10
TORSDOF 0
ENDMDL
MODEL 9
REMARK VINA RESULT:    -2.463     10.366     12.851
REMARK INTER + INTRA:          -3.305
REMARK INTER:                  -3.560
REMARK INTRA:                   0.254
REMARK UNBOUND:                 0.166
REMARK SMILES CC1=CCC(=C(C)C)C(=O)CC(C)=CCC1
REMARK SMILES IDX 12 1 14 2 13 3 15 4 16 5 2 6 1 7 3 8 11 10 9 11 10 12 5 13
REMARK SMILES IDX 6 14 7 15 8 16 4 17
REMARK H PARENT
REMARK Flexibility Score: 60.00
ROOT
ATOM      1  C   UNL     1     200.372 157.491 164.588  1.00  0.00    -0.070 C 
ATOM      2  C   UNL     1     200.132 156.253 165.077  1.00  0.00    -0.027 C 
ATOM      3  C   UNL     1     199.434 158.601 164.989  1.00  0.00     0.039 C 
ENDROOT
BRANCH   2   4
ATOM      4  C   UNL     1     201.009 155.037 164.871  1.00  0.00     0.032 C 
BRANCH   4   5
ATOM      5  C   UNL     1     200.947 154.429 163.454  1.00  0.00     0.034 C 
BRANCH   5   6
ATOM      6  C   UNL     1     202.309 154.314 162.792  1.00  0.00    -0.077 C 
ATOM      7  C   UNL     1     203.320 153.394 163.426  1.00  0.00     0.039 C 
ATOM      8  C   UNL     1     202.650 154.932 161.635  1.00  0.00    -0.023 CG0
ATOM      9  G   UNL     1     201.810 155.909 160.837  1.00  0.00     0.000 G0
ENDBRANCH   5   6
ENDBRANCH   4   5
ENDBRANCH   2   4
BRANCH   1  10
ATOM     10  C   UNL     1     201.579 157.829 163.738  1.00  0.00     0.111 C 
BRANCH  10  11
ATOM     11  C   UNL     1     201.219 157.939 162.280  1.00  0.00     0.163 C 
ATOM     12  O   UNL     1     200.187 158.594 161.970  1.00  0.00    -0.294 OA
BRANCH  11  13
ATOM     13  C   UNL     1     202.069 157.357 161.198  1.00  0.00    -0.002 C 
ATOM     14  C   UNL     1     203.088 158.079 160.644  1.00  0.00    -0.069 C 
ATOM     15  C   UNL     1     203.294 159.537 160.990  1.00  0.00     0.039 C 
ATOM     16  C   UNL     1     204.064 157.466 159.664  1.00  0.00     0.039 C 
BRANCH  13  17
ATOM     17  C   UNL     1     201.811 155.907 160.816  1.00  0.00     0.066 CG0
ATOM     18  G   UNL     1     202.640 154.939 161.636  1.00  0.00     0.000 G0
ENDBRANCH  13  17
ENDBRANCH  11  13
ENDBRANCH  10  11
ENDBRANCH   1  10
TORSDOF 0
ENDMDL
