MODEL 1
REMARK VINA RESULT:    -5.210      0.000      0.000
REMARK INTER + INTRA:         -16.391
REMARK INTER:                 -13.129
REMARK INTRA:                  -3.262
REMARK UNBOUND:                -3.262
REMARK SMILES CCCCCCCCCCCCCCCCCCCCCCCCCCCC(=O)[O-]
REMARK SMILES IDX 15 1 16 2 17 3 18 4 19 5 20 6 21 7 22 8 23 9 24 10 25 11
REMARK SMILES IDX 26 12 27 13 28 14 29 15 30 16 14 17 13 18 12 19 11 20 10 21
REMARK SMILES IDX 9 22 8 23 7 24 6 25 5 26 4 27 3 28 2 29 1 30
REMARK H PARENT
REMARK Flexibility Score: inf
ROOT
ATOM      1  C   UNL     1     -17.379  35.166  12.723  1.00  0.00     0.000 C 
ENDROOT
BRANCH   1   2
ATOM      2  C   UNL     1     -18.224  36.139  13.560  1.00  0.00     0.000 C 
BRANCH   2   3
ATOM      3  C   UNL     1     -17.873  37.612  13.299  1.00  0.00     0.000 C 
BRANCH   3   4
ATOM      4  C   UNL     1     -16.603  37.725  12.445  1.00  0.00     0.000 C 
BRANCH   4   5
ATOM      5  C   UNL     1     -15.488  38.462  13.202  1.00  0.00     0.000 C 
BRANCH   5   6
ATOM      6  C   UNL     1     -14.262  37.572  13.483  1.00  0.00     0.000 C 
BRANCH   6   7
ATOM      7  C   UNL     1     -14.145  37.051  14.928  1.00  0.00     0.000 C 
BRANCH   7   8
ATOM      8  C   UNL     1     -14.909  35.746  15.229  1.00  0.00     0.000 C 
BRANCH   8   9
ATOM      9  C   UNL     1     -15.916  35.854  16.396  1.00  0.00     0.000 C 
BRANCH   9  10
ATOM     10  C   UNL     1     -16.444  37.275  16.664  1.00  0.00     0.000 C 
BRANCH  10  11
ATOM     11  C   UNL     1     -16.817  37.511  18.137  1.00  0.00     0.000 C 
BRANCH  11  12
ATOM     12  C   UNL     1     -17.346  38.936  18.346  1.00  0.00     0.006 C 
BRANCH  12  13
ATOM     13  C   UNL     1     -17.401  39.289  19.838  1.00  0.00     0.053 C 
BRANCH  13  14
ATOM     14  C   UNL     1     -18.191  40.540  20.085  1.00  0.00     0.041 C 
ATOM     15  O   UNL     1     -18.215  41.067  21.230  1.00  0.00    -0.550 OA
ATOM     16  O   UNL     1     -18.837  41.168  19.027  1.00  0.00    -0.550 OA
ENDBRANCH  13  14
ENDBRANCH  12  13
ENDBRANCH  11  12
ENDBRANCH  10  11
ENDBRANCH   9  10
ENDBRANCH   8   9
ENDBRANCH   7   8
ENDBRANCH   6   7
ENDBRANCH   5   6
ENDBRANCH   4   5
ENDBRANCH   3   4
ENDBRANCH   2   3
ENDBRANCH   1   2
BRANCH   1  17
ATOM     17  C   UNL     1     -17.438  33.719  13.253  1.00  0.00     0.000 C 
BRANCH  17  18
ATOM     18  C   UNL     1     -18.848  33.309  13.726  1.00  0.00     0.000 C 
BRANCH  18  19
ATOM     19  C   UNL     1     -19.018  31.796  13.969  1.00  0.00     0.000 C 
BRANCH  19  20
ATOM     20  C   UNL     1     -20.473  31.312  14.095  1.00  0.00     0.000 C 
BRANCH  20  21
ATOM     21  C   UNL     1     -21.463  32.458  14.371  1.00  0.00     0.000 C 
BRANCH  21  22
ATOM     22  C   UNL     1     -21.888  32.532  15.846  1.00  0.00    -0.000 C 
BRANCH  22  23
ATOM     23  C   UNL     1     -23.118  31.660  16.153  1.00  0.00    -0.000 C 
BRANCH  23  24
ATOM     24  C   UNL     1     -24.214  32.431  16.905  1.00  0.00    -0.000 C 
BRANCH  24  25
ATOM     25  C   UNL     1     -24.733  33.645  16.119  1.00  0.00    -0.000 C 
BRANCH  25  26
ATOM     26  C   UNL     1     -26.200  33.446  15.708  1.00  0.00    -0.000 C 
BRANCH  26  27
ATOM     27  C   UNL     1     -26.412  33.537  14.186  1.00  0.00    -0.000 C 
BRANCH  27  28
ATOM     28  C   UNL     1     -25.184  33.160  13.332  1.00  0.00    -0.000 C 
BRANCH  28  29
ATOM     29  C   UNL     1     -25.027  31.656  13.049  1.00  0.00    -0.003 C 
ATOM     30  C   UNL     1     -26.366  30.927  12.940  1.00  0.00     0.004 C 
ENDBRANCH  28  29
ENDBRANCH  27  28
ENDBRANCH  26  27
ENDBRANCH  25  26
ENDBRANCH  24  25
ENDBRANCH  23  24
ENDBRANCH  22  23
ENDBRANCH  21  22
ENDBRANCH  20  21
ENDBRANCH  19  20
ENDBRANCH  18  19
ENDBRANCH  17  18
ENDBRANCH   1  17
TORSDOF 26
ENDMDL
MODEL 2
REMARK VINA RESULT:    -5.110      1.478      3.234
REMARK INTER + INTRA:         -16.140
REMARK INTER:                 -14.230
REMARK INTRA:                  -1.909
REMARK UNBOUND:                -3.262
REMARK SMILES CCCCCCCCCCCCCCCCCCCCCCCCCCCC(=O)[O-]
REMARK SMILES IDX 15 1 16 2 17 3 18 4 19 5 20 6 21 7 22 8 23 9 24 10 25 11
REMARK SMILES IDX 26 12 27 13 28 14 29 15 30 16 14 17 13 18 12 19 11 20 10 21
REMARK SMILES IDX 9 22 8 23 7 24 6 25 5 26 4 27 3 28 2 29 1 30
REMARK H PARENT
REMARK Flexibility Score: inf
ROOT
ATOM      1  C   UNL     1     -18.035  36.751  13.274  1.00  0.00     0.000 C 
ENDROOT
BRANCH   1   2
ATOM      2  C   UNL     1     -17.104  37.973  13.234  1.00  0.00     0.000 C 
BRANCH   2   3
ATOM      3  C   UNL     1     -15.616  37.590  13.239  1.00  0.00     0.000 C 
BRANCH   3   4
ATOM      4  C   UNL     1     -15.020  37.741  14.645  1.00  0.00     0.000 C 
BRANCH   4   5
ATOM      5  C   UNL     1     -14.927  36.383  15.358  1.00  0.00     0.000 C 
BRANCH   5   6
ATOM      6  C   UNL     1     -15.967  36.222  16.483  1.00  0.00     0.000 C 
BRANCH   6   7
ATOM      7  C   UNL     1     -16.678  37.519  16.913  1.00  0.00     0.000 C 
BRANCH   7   8
ATOM      8  C   UNL     1     -16.759  37.761  18.434  1.00  0.00     0.000 C 
BRANCH   8   9
ATOM      9  C   UNL     1     -17.853  38.766  18.859  1.00  0.00     0.000 C 
BRANCH   9  10
ATOM     10  C   UNL     1     -17.416  40.242  18.845  1.00  0.00     0.000 C 
BRANCH  10  11
ATOM     11  C   UNL     1     -18.578  41.218  19.092  1.00  0.00     0.000 C 
BRANCH  11  12
ATOM     12  C   UNL     1     -18.538  41.765  20.524  1.00  0.00     0.006 C 
BRANCH  12  13
ATOM     13  C   UNL     1     -17.146  41.584  21.144  1.00  0.00     0.053 C 
BRANCH  13  14
ATOM     14  C   UNL     1     -16.560  42.890  21.590  1.00  0.00     0.041 C 
ATOM     15  O   UNL     1     -15.313  43.026  21.712  1.00  0.00    -0.550 OA
ATOM     16  O   UNL     1     -17.393  43.985  21.794  1.00  0.00    -0.550 OA
ENDBRANCH  13  14
ENDBRANCH  12  13
ENDBRANCH  11  12
ENDBRANCH  10  11
ENDBRANCH   9  10
ENDBRANCH   8   9
ENDBRANCH   7   8
ENDBRANCH   6   7
ENDBRANCH   5   6
ENDBRANCH   4   5
ENDBRANCH   3   4
ENDBRANCH   2   3
ENDBRANCH   1   2
BRANCH   1  17
ATOM     17  C   UNL     1     -17.370  35.477  12.716  1.00  0.00     0.000 C 
BRANCH  17  18
ATOM     18  C   UNL     1     -17.372  34.308  13.723  1.00  0.00     0.000 C 
BRANCH  18  19
ATOM     19  C   UNL     1     -18.673  33.482  13.732  1.00  0.00     0.000 C 
BRANCH  19  20
ATOM     20  C   UNL     1     -18.481  31.956  13.752  1.00  0.00     0.000 C 
BRANCH  20  21
ATOM     21  C   UNL     1     -19.769  31.196  14.119  1.00  0.00     0.000 C 
BRANCH  21  22
ATOM     22  C   UNL     1     -21.024  32.078  14.027  1.00  0.00    -0.000 C 
BRANCH  22  23
ATOM     23  C   UNL     1     -22.326  31.276  14.208  1.00  0.00    -0.000 C 
BRANCH  23  24
ATOM     24  C   UNL     1     -23.577  32.097  13.859  1.00  0.00    -0.000 C 
BRANCH  24  25
ATOM     25  C   UNL     1     -24.852  31.545  14.515  1.00  0.00    -0.000 C 
BRANCH  25  26
ATOM     26  C   UNL     1     -26.002  32.559  14.421  1.00  0.00    -0.000 C 
BRANCH  26  27
ATOM     27  C   UNL     1     -25.963  33.612  15.542  1.00  0.00    -0.000 C 
BRANCH  27  28
ATOM     28  C   UNL     1     -24.976  33.311  16.689  1.00  0.00    -0.000 C 
BRANCH  28  29
ATOM     29  C   UNL     1     -25.628  33.080  18.063  1.00  0.00    -0.003 C 
ATOM     30  C   UNL     1     -24.706  32.359  19.046  1.00  0.00     0.004 C 
ENDBRANCH  28  29
ENDBRANCH  27  28
ENDBRANCH  26  27
ENDBRANCH  25  26
ENDBRANCH  24  25
ENDBRANCH  23  24
ENDBRANCH  22  23
ENDBRANCH  21  22
ENDBRANCH  20  21
ENDBRANCH  19  20
ENDBRANCH  18  19
ENDBRANCH  17  18
ENDBRANCH   1  17
TORSDOF 26
ENDMDL
MODEL 3
REMARK VINA RESULT:    -5.093      3.674      8.129
REMARK INTER + INTRA:         -16.095
REMARK INTER:                 -13.962
REMARK INTRA:                  -2.132
REMARK UNBOUND:                -3.262
REMARK SMILES CCCCCCCCCCCCCCCCCCCCCCCCCCCC(=O)[O-]
REMARK SMILES IDX 15 1 16 2 17 3 18 4 19 5 20 6 21 7 22 8 23 9 24 10 25 11
REMARK SMILES IDX 26 12 27 13 28 14 29 15 30 16 14 17 13 18 12 19 11 20 10 21
REMARK SMILES IDX 9 22 8 23 7 24 6 25 5 26 4 27 3 28 2 29 1 30
REMARK H PARENT
REMARK Flexibility Score: inf
ROOT
ATOM      1  C   UNL     1     -17.410  38.558  18.819  1.00  0.00     0.000 C 
ENDROOT
BRANCH   1   2
ATOM      2  C   UNL     1     -17.190  40.079  18.796  1.00  0.00     0.000 C 
BRANCH   2   3
ATOM      3  C   UNL     1     -18.506  40.873  18.817  1.00  0.00     0.000 C 
BRANCH   3   4
ATOM      4  C   UNL     1     -18.552  41.816  20.027  1.00  0.00     0.000 C 
BRANCH   4   5
ATOM      5  C   UNL     1     -18.157  41.084  21.318  1.00  0.00     0.000 C 
BRANCH   5   6
ATOM      6  C   UNL     1     -16.874  41.645  21.960  1.00  0.00     0.000 C 
BRANCH   6   7
ATOM      7  C   UNL     1     -15.991  40.609  22.679  1.00  0.00     0.000 C 
BRANCH   7   8
ATOM      8  C   UNL     1     -14.551  41.065  22.994  1.00  0.00     0.000 C 
BRANCH   8   9
ATOM      9  C   UNL     1     -14.324  42.588  22.858  1.00  0.00     0.000 C 
BRANCH   9  10
ATOM     10  C   UNL     1     -13.925  43.301  24.164  1.00  0.00     0.000 C 
BRANCH  10  11
ATOM     11  C   UNL     1     -14.687  44.617  24.389  1.00  0.00     0.000 C 
BRANCH  11  12
ATOM     12  C   UNL     1     -15.897  44.717  23.451  1.00  0.00     0.006 C 
BRANCH  12  13
ATOM     13  C   UNL     1     -16.779  45.917  23.817  1.00  0.00     0.053 C 
BRANCH  13  14
ATOM     14  C   UNL     1     -16.553  47.077  22.894  1.00  0.00     0.041 C 
ATOM     15  O   UNL     1     -16.906  48.240  23.227  1.00  0.00    -0.550 OA
ATOM     16  O   UNL     1     -15.878  46.882  21.694  1.00  0.00    -0.550 OA
ENDBRANCH  13  14
ENDBRANCH  12  13
ENDBRANCH  11  12
ENDBRANCH  10  11
ENDBRANCH   9  10
ENDBRANCH   8   9
ENDBRANCH   7   8
ENDBRANCH   6   7
ENDBRANCH   5   6
ENDBRANCH   4   5
ENDBRANCH   3   4
ENDBRANCH   2   3
ENDBRANCH   1   2
BRANCH   1  17
ATOM     17  C   UNL     1     -16.915  37.865  17.534  1.00  0.00     0.000 C 
BRANCH  17  18
ATOM     18  C   UNL     1     -16.483  36.403  17.767  1.00  0.00     0.000 C 
BRANCH  18  19
ATOM     19  C   UNL     1     -15.875  35.717  16.528  1.00  0.00     0.000 C 
BRANCH  19  20
ATOM     20  C   UNL     1     -15.539  36.657  15.358  1.00  0.00     0.000 C 
BRANCH  20  21
ATOM     21  C   UNL     1     -14.246  36.258  14.623  1.00  0.00     0.000 C 
BRANCH  21  22
ATOM     22  C   UNL     1     -14.090  36.970  13.269  1.00  0.00    -0.000 C 
BRANCH  22  23
ATOM     23  C   UNL     1     -15.443  37.283  12.605  1.00  0.00    -0.000 C 
BRANCH  23  24
ATOM     24  C   UNL     1     -15.946  36.131  11.722  1.00  0.00    -0.000 C 
BRANCH  24  25
ATOM     25  C   UNL     1     -17.280  35.546  12.211  1.00  0.00    -0.000 C 
BRANCH  25  26
ATOM     26  C   UNL     1     -17.102  34.096  12.686  1.00  0.00    -0.000 C 
BRANCH  26  27
ATOM     27  C   UNL     1     -18.168  33.668  13.710  1.00  0.00    -0.000 C 
BRANCH  27  28
ATOM     28  C   UNL     1     -18.353  32.144  13.863  1.00  0.00    -0.000 C 
BRANCH  28  29
ATOM     29  C   UNL     1     -19.812  31.681  14.021  1.00  0.00    -0.003 C 
ATOM     30  C   UNL     1     -20.788  32.842  14.208  1.00  0.00     0.004 C 
ENDBRANCH  28  29
ENDBRANCH  27  28
ENDBRANCH  26  27
ENDBRANCH  25  26
ENDBRANCH  24  25
ENDBRANCH  23  24
ENDBRANCH  22  23
ENDBRANCH  21  22
ENDBRANCH  20  21
ENDBRANCH  19  20
ENDBRANCH  18  19
ENDBRANCH  17  18
ENDBRANCH   1  17
TORSDOF 26
ENDMDL
MODEL 4
REMARK VINA RESULT:    -5.086      2.924      5.731
REMARK INTER + INTRA:         -16.078
REMARK INTER:                 -14.427
REMARK INTRA:                  -1.651
REMARK UNBOUND:                -3.262
REMARK SMILES CCCCCCCCCCCCCCCCCCCCCCCCCCCC(=O)[O-]
REMARK SMILES IDX 15 1 16 2 17 3 18 4 19 5 20 6 21 7 22 8 23 9 24 10 25 11
REMARK SMILES IDX 26 12 27 13 28 14 29 15 30 16 14 17 13 18 12 19 11 20 10 21
REMARK SMILES IDX 9 22 8 23 7 24 6 25 5 26 4 27 3 28 2 29 1 30
REMARK H PARENT
REMARK Flexibility Score: inf
ROOT
ATOM      1  C   UNL     1     -14.833  36.234  15.276  1.00  0.00     0.000 C 
ENDROOT
BRANCH   1   2
ATOM      2  C   UNL     1     -16.031  35.587  15.988  1.00  0.00     0.000 C 
BRANCH   2   3
ATOM      3  C   UNL     1     -16.262  36.151  17.399  1.00  0.00     0.000 C 
BRANCH   3   4
ATOM      4  C   UNL     1     -16.700  37.620  17.333  1.00  0.00     0.000 C 
BRANCH   4   5
ATOM      5  C   UNL     1     -17.065  38.154  18.726  1.00  0.00     0.000 C 
BRANCH   5   6
ATOM      6  C   UNL     1     -17.511  39.629  18.707  1.00  0.00     0.000 C 
BRANCH   6   7
ATOM      7  C   UNL     1     -18.748  39.952  19.567  1.00  0.00     0.000 C 
BRANCH   7   8
ATOM      8  C   UNL     1     -18.500  40.902  20.757  1.00  0.00     0.000 C 
BRANCH   8   9
ATOM      9  C   UNL     1     -17.304  41.862  20.564  1.00  0.00     0.000 C 
BRANCH   9  10
ATOM     10  C   UNL     1     -16.446  42.085  21.823  1.00  0.00     0.000 C 
BRANCH  10  11
ATOM     11  C   UNL     1     -15.859  43.503  21.910  1.00  0.00     0.000 C 
BRANCH  11  12
ATOM     12  C   UNL     1     -16.968  44.541  22.126  1.00  0.00     0.006 C 
BRANCH  12  13
ATOM     13  C   UNL     1     -16.808  45.242  23.481  1.00  0.00     0.053 C 
BRANCH  13  14
ATOM     14  C   UNL     1     -16.336  46.657  23.324  1.00  0.00     0.041 C 
ATOM     15  O   UNL     1     -16.521  47.501  24.242  1.00  0.00    -0.550 OA
ATOM     16  O   UNL     1     -15.620  47.023  22.190  1.00  0.00    -0.550 OA
ENDBRANCH  13  14
ENDBRANCH  12  13
ENDBRANCH  11  12
ENDBRANCH  10  11
ENDBRANCH   9  10
ENDBRANCH   8   9
ENDBRANCH   7   8
ENDBRANCH   6   7
ENDBRANCH   5   6
ENDBRANCH   4   5
ENDBRANCH   3   4
ENDBRANCH   2   3
ENDBRANCH   1   2
BRANCH   1  17
ATOM     17  C   UNL     1     -15.216  36.871  13.925  1.00  0.00     0.000 C 
BRANCH  17  18
ATOM     18  C   UNL     1     -16.642  36.499  13.468  1.00  0.00     0.000 C 
BRANCH  18  19
ATOM     19  C   UNL     1     -16.709  35.837  12.077  1.00  0.00     0.000 C 
BRANCH  19  20
ATOM     20  C   UNL     1     -16.939  34.316  12.086  1.00  0.00     0.000 C 
BRANCH  20  21
ATOM     21  C   UNL     1     -17.671  33.829  13.350  1.00  0.00     0.000 C 
BRANCH  21  22
ATOM     22  C   UNL     1     -18.011  32.331  13.297  1.00  0.00    -0.000 C 
BRANCH  22  23
ATOM     23  C   UNL     1     -19.062  31.925  14.345  1.00  0.00    -0.000 C 
BRANCH  23  24
ATOM     24  C   UNL     1     -20.204  31.091  13.743  1.00  0.00    -0.000 C 
BRANCH  24  25
ATOM     25  C   UNL     1     -21.584  31.734  13.954  1.00  0.00    -0.000 C 
BRANCH  25  26
ATOM     26  C   UNL     1     -21.560  32.708  15.141  1.00  0.00    -0.000 C 
BRANCH  26  27
ATOM     27  C   UNL     1     -22.250  32.139  16.394  1.00  0.00    -0.000 C 
BRANCH  27  28
ATOM     28  C   UNL     1     -23.071  33.159  17.209  1.00  0.00    -0.000 C 
BRANCH  28  29
ATOM     29  C   UNL     1     -24.048  32.542  18.225  1.00  0.00    -0.003 C 
ATOM     30  C   UNL     1     -25.509  32.657  17.791  1.00  0.00     0.004 C 
ENDBRANCH  28  29
ENDBRANCH  27  28
ENDBRANCH  26  27
ENDBRANCH  25  26
ENDBRANCH  24  25
ENDBRANCH  23  24
ENDBRANCH  22  23
ENDBRANCH  21  22
ENDBRANCH  20  21
ENDBRANCH  19  20
ENDBRANCH  18  19
ENDBRANCH  17  18
ENDBRANCH   1  17
TORSDOF 26
ENDMDL
MODEL 5
REMARK VINA RESULT:    -5.056      2.935      9.528
REMARK INTER + INTRA:         -16.003
REMARK INTER:                 -13.617
REMARK INTRA:                  -2.387
REMARK UNBOUND:                -3.262
REMARK SMILES CCCCCCCCCCCCCCCCCCCCCCCCCCCC(=O)[O-]
REMARK SMILES IDX 15 1 16 2 17 3 18 4 19 5 20 6 21 7 22 8 23 9 24 10 25 11
REMARK SMILES IDX 26 12 27 13 28 14 29 15 30 16 14 17 13 18 12 19 11 20 10 21
REMARK SMILES IDX 9 22 8 23 7 24 6 25 5 26 4 27 3 28 2 29 1 30
REMARK H PARENT
REMARK Flexibility Score: inf
ROOT
ATOM      1  C   UNL     1     -15.380  38.398  12.920  1.00  0.00     0.000 C 
ENDROOT
BRANCH   1   2
ATOM      2  C   UNL     1     -16.434  37.337  12.567  1.00  0.00     0.000 C 
BRANCH   2   3
ATOM      3  C   UNL     1     -17.772  37.562  13.289  1.00  0.00     0.000 C 
BRANCH   3   4
ATOM      4  C   UNL     1     -18.509  36.232  13.495  1.00  0.00     0.000 C 
BRANCH   4   5
ATOM      5  C   UNL     1     -17.661  35.046  13.011  1.00  0.00     0.000 C 
BRANCH   5   6
ATOM      6  C   UNL     1     -17.669  33.859  13.993  1.00  0.00     0.000 C 
BRANCH   6   7
ATOM      7  C   UNL     1     -17.918  32.479  13.356  1.00  0.00     0.000 C 
BRANCH   7   8
ATOM      8  C   UNL     1     -18.571  31.429  14.277  1.00  0.00     0.000 C 
BRANCH   8   9
ATOM      9  C   UNL     1     -19.706  30.618  13.611  1.00  0.00     0.000 C 
BRANCH   9  10
ATOM     10  C   UNL     1     -21.038  30.617  14.383  1.00  0.00     0.000 C 
BRANCH  10  11
ATOM     11  C   UNL     1     -22.151  31.397  13.665  1.00  0.00     0.000 C 
BRANCH  11  12
ATOM     12  C   UNL     1     -23.255  31.805  14.648  1.00  0.00     0.006 C 
BRANCH  12  13
ATOM     13  C   UNL     1     -22.743  31.777  16.094  1.00  0.00     0.053 C 
BRANCH  13  14
ATOM     14  C   UNL     1     -23.196  32.978  16.869  1.00  0.00     0.041 C 
ATOM     15  O   UNL     1     -24.179  33.662  16.476  1.00  0.00    -0.550 OA
ATOM     16  O   UNL     1     -22.577  33.295  18.072  1.00  0.00    -0.550 OA
ENDBRANCH  13  14
ENDBRANCH  12  13
ENDBRANCH  11  12
ENDBRANCH  10  11
ENDBRANCH   9  10
ENDBRANCH   8   9
ENDBRANCH   7   8
ENDBRANCH   6   7
ENDBRANCH   5   6
ENDBRANCH   4   5
ENDBRANCH   3   4
ENDBRANCH   2   3
ENDBRANCH   1   2
BRANCH   1  17
ATOM     17  C   UNL     1     -14.132  37.795  13.596  1.00  0.00     0.000 C 
BRANCH  17  18
ATOM     18  C   UNL     1     -14.367  36.366  14.126  1.00  0.00     0.000 C 
BRANCH  18  19
ATOM     19  C   UNL     1     -14.413  36.261  15.664  1.00  0.00     0.000 C 
BRANCH  19  20
ATOM     20  C   UNL     1     -15.813  36.042  16.264  1.00  0.00     0.000 C 
BRANCH  20  21
ATOM     21  C   UNL     1     -16.546  37.361  16.567  1.00  0.00     0.000 C 
BRANCH  21  22
ATOM     22  C   UNL     1     -16.808  37.563  18.068  1.00  0.00    -0.000 C 
BRANCH  22  23
ATOM     23  C   UNL     1     -17.089  39.033  18.428  1.00  0.00    -0.000 C 
BRANCH  23  24
ATOM     24  C   UNL     1     -18.063  39.174  19.609  1.00  0.00    -0.000 C 
BRANCH  24  25
ATOM     25  C   UNL     1     -17.996  40.559  20.271  1.00  0.00    -0.000 C 
BRANCH  25  26
ATOM     26  C   UNL     1     -17.281  40.484  21.629  1.00  0.00    -0.000 C 
BRANCH  26  27
ATOM     27  C   UNL     1     -16.451  41.743  21.937  1.00  0.00    -0.000 C 
BRANCH  27  28
ATOM     28  C   UNL     1     -17.207  43.078  21.788  1.00  0.00    -0.000 C 
BRANCH  28  29
ATOM     29  C   UNL     1     -16.347  44.338  21.991  1.00  0.00    -0.003 C 
ATOM     30  C   UNL     1     -16.737  45.130  23.239  1.00  0.00     0.004 C 
ENDBRANCH  28  29
ENDBRANCH  27  28
ENDBRANCH  26  27
ENDBRANCH  25  26
ENDBRANCH  24  25
ENDBRANCH  23  24
ENDBRANCH  22  23
ENDBRANCH  21  22
ENDBRANCH  20  21
ENDBRANCH  19  20
ENDBRANCH  18  19
ENDBRANCH  17  18
ENDBRANCH   1  17
TORSDOF 26
ENDMDL
MODEL 6
REMARK VINA RESULT:    -4.941      5.898     11.065
REMARK INTER + INTRA:         -15.712
REMARK INTER:                 -14.041
REMARK INTRA:                  -1.671
REMARK UNBOUND:                -3.262
REMARK SMILES CCCCCCCCCCCCCCCCCCCCCCCCCCCC(=O)[O-]
REMARK SMILES IDX 15 1 16 2 17 3 18 4 19 5 20 6 21 7 22 8 23 9 24 10 25 11
REMARK SMILES IDX 26 12 27 13 28 14 29 15 30 16 14 17 13 18 12 19 11 20 10 21
REMARK SMILES IDX 9 22 8 23 7 24 6 25 5 26 4 27 3 28 2 29 1 30
REMARK H PARENT
REMARK Flexibility Score: inf
ROOT
ATOM      1  C   UNL     1     -15.353  35.988  14.106  1.00  0.00     0.000 C 
ENDROOT
BRANCH   1   2
ATOM      2  C   UNL     1     -16.795  35.486  13.936  1.00  0.00     0.000 C 
BRANCH   2   3
ATOM      3  C   UNL     1     -17.661  36.431  13.088  1.00  0.00     0.000 C 
BRANCH   3   4
ATOM      4  C   UNL     1     -16.955  37.778  12.884  1.00  0.00     0.000 C 
BRANCH   4   5
ATOM      5  C   UNL     1     -17.914  38.952  13.135  1.00  0.00     0.000 C 
BRANCH   5   6
ATOM      6  C   UNL     1     -17.417  40.276  12.525  1.00  0.00     0.000 C 
BRANCH   6   7
ATOM      7  C   UNL     1     -16.384  40.131  11.391  1.00  0.00     0.000 C 
BRANCH   7   8
ATOM      8  C   UNL     1     -16.838  40.644  10.009  1.00  0.00     0.000 C 
BRANCH   8   9
ATOM      9  C   UNL     1     -17.777  41.870  10.063  1.00  0.00     0.000 C 
BRANCH   9  10
ATOM     10  C   UNL     1     -17.765  42.750   8.800  1.00  0.00     0.000 C 
BRANCH  10  11
ATOM     11  C   UNL     1     -16.550  42.488   7.895  1.00  0.00     0.000 C 
BRANCH  11  12
ATOM     12  C   UNL     1     -16.040  43.793   7.271  1.00  0.00     0.006 C 
BRANCH  12  13
ATOM     13  C   UNL     1     -14.606  44.096   7.722  1.00  0.00     0.053 C 
BRANCH  13  14
ATOM     14  C   UNL     1     -14.543  44.443   9.180  1.00  0.00     0.041 C 
ATOM     15  O   UNL     1     -13.722  43.864   9.942  1.00  0.00    -0.550 OA
ATOM     16  O   UNL     1     -15.340  45.467   9.680  1.00  0.00    -0.550 OA
ENDBRANCH  13  14
ENDBRANCH  12  13
ENDBRANCH  11  12
ENDBRANCH  10  11
ENDBRANCH   9  10
ENDBRANCH   8   9
ENDBRANCH   7   8
ENDBRANCH   6   7
ENDBRANCH   5   6
ENDBRANCH   4   5
ENDBRANCH   3   4
ENDBRANCH   2   3
ENDBRANCH   1   2
BRANCH   1  17
ATOM     17  C   UNL     1     -14.938  36.116  15.585  1.00  0.00     0.000 C 
BRANCH  17  18
ATOM     18  C   UNL     1     -16.144  36.204  16.544  1.00  0.00     0.000 C 
BRANCH  18  19
ATOM     19  C   UNL     1     -16.623  37.641  16.827  1.00  0.00     0.000 C 
BRANCH  19  20
ATOM     20  C   UNL     1     -16.997  37.931  18.291  1.00  0.00     0.000 C 
BRANCH  20  21
ATOM     21  C   UNL     1     -17.379  39.403  18.531  1.00  0.00     0.000 C 
BRANCH  21  22
ATOM     22  C   UNL     1     -18.391  39.573  19.676  1.00  0.00    -0.000 C 
BRANCH  22  23
ATOM     23  C   UNL     1     -18.615  41.049  20.053  1.00  0.00    -0.000 C 
BRANCH  23  24
ATOM     24  C   UNL     1     -17.608  41.549  21.100  1.00  0.00    -0.000 C 
BRANCH  24  25
ATOM     25  C   UNL     1     -17.557  43.082  21.190  1.00  0.00    -0.000 C 
BRANCH  25  26
ATOM     26  C   UNL     1     -16.448  43.539  22.149  1.00  0.00    -0.000 C 
BRANCH  26  27
ATOM     27  C   UNL     1     -16.643  44.983  22.644  1.00  0.00    -0.000 C 
BRANCH  27  28
ATOM     28  C   UNL     1     -16.389  46.077  21.588  1.00  0.00    -0.000 C 
BRANCH  28  29
ATOM     29  C   UNL     1     -15.901  47.423  22.151  1.00  0.00    -0.003 C 
ATOM     30  C   UNL     1     -16.895  48.057  23.124  1.00  0.00     0.004 C 
ENDBRANCH  28  29
ENDBRANCH  27  28
ENDBRANCH  26  27
ENDBRANCH  25  26
ENDBRANCH  24  25
ENDBRANCH  23  24
ENDBRANCH  22  23
ENDBRANCH  21  22
ENDBRANCH  20  21
ENDBRANCH  19  20
ENDBRANCH  18  19
ENDBRANCH  17  18
ENDBRANCH   1  17
TORSDOF 26
ENDMDL
MODEL 7
REMARK VINA RESULT:    -4.924      3.014      9.537
REMARK INTER + INTRA:         -15.670
REMARK INTER:                 -12.983
REMARK INTRA:                  -2.687
REMARK UNBOUND:                -3.262
REMARK SMILES CCCCCCCCCCCCCCCCCCCCCCCCCCCC(=O)[O-]
REMARK SMILES IDX 15 1 16 2 17 3 18 4 19 5 20 6 21 7 22 8 23 9 24 10 25 11
REMARK SMILES IDX 26 12 27 13 28 14 29 15 30 16 14 17 13 18 12 19 11 20 10 21
REMARK SMILES IDX 9 22 8 23 7 24 6 25 5 26 4 27 3 28 2 29 1 30
REMARK H PARENT
REMARK Flexibility Score: inf
ROOT
ATOM      1  C   UNL     1     -17.421  34.489  13.063  1.00  0.00     0.000 C 
ENDROOT
BRANCH   1   2
ATOM      2  C   UNL     1     -17.733  33.007  13.319  1.00  0.00     0.000 C 
BRANCH   2   3
ATOM      3  C   UNL     1     -19.127  32.786  13.927  1.00  0.00     0.000 C 
BRANCH   3   4
ATOM      4  C   UNL     1     -19.447  31.289  14.025  1.00  0.00     0.000 C 
BRANCH   4   5
ATOM      5  C   UNL     1     -20.869  31.058  14.558  1.00  0.00     0.000 C 
BRANCH   5   6
ATOM      6  C   UNL     1     -21.917  31.970  13.892  1.00  0.00     0.000 C 
BRANCH   6   7
ATOM      7  C   UNL     1     -23.370  31.747  14.352  1.00  0.00     0.000 C 
BRANCH   7   8
ATOM      8  C   UNL     1     -24.390  31.480  13.227  1.00  0.00     0.000 C 
BRANCH   8   9
ATOM      9  C   UNL     1     -25.501  32.549  13.110  1.00  0.00     0.000 C 
BRANCH   9  10
ATOM     10  C   UNL     1     -25.619  33.493  14.321  1.00  0.00     0.000 C 
BRANCH  10  11
ATOM     11  C   UNL     1     -26.934  33.316  15.097  1.00  0.00     0.000 C 
BRANCH  11  12
ATOM     12  C   UNL     1     -26.744  33.652  16.581  1.00  0.00     0.006 C 
BRANCH  12  13
ATOM     13  C   UNL     1     -25.306  33.363  17.031  1.00  0.00     0.053 C 
BRANCH  13  14
ATOM     14  C   UNL     1     -25.263  32.398  18.178  1.00  0.00     0.041 C 
ATOM     15  O   UNL     1     -26.269  31.693  18.460  1.00  0.00    -0.550 OA
ATOM     16  O   UNL     1     -24.080  32.221  18.886  1.00  0.00    -0.550 OA
ENDBRANCH  13  14
ENDBRANCH  12  13
ENDBRANCH  11  12
ENDBRANCH  10  11
ENDBRANCH   9  10
ENDBRANCH   8   9
ENDBRANCH   7   8
ENDBRANCH   6   7
ENDBRANCH   5   6
ENDBRANCH   4   5
ENDBRANCH   3   4
ENDBRANCH   2   3
ENDBRANCH   1   2
BRANCH   1  17
ATOM     17  C   UNL     1     -18.425  35.436  13.750  1.00  0.00     0.000 C 
BRANCH  17  18
ATOM     18  C   UNL     1     -18.141  36.925  13.463  1.00  0.00     0.000 C 
BRANCH  18  19
ATOM     19  C   UNL     1     -16.818  37.184  12.714  1.00  0.00     0.000 C 
BRANCH  19  20
ATOM     20  C   UNL     1     -16.136  38.525  13.034  1.00  0.00     0.000 C 
BRANCH  20  21
ATOM     21  C   UNL     1     -14.618  38.387  13.252  1.00  0.00     0.000 C 
BRANCH  21  22
ATOM     22  C   UNL     1     -14.206  36.966  13.667  1.00  0.00    -0.000 C 
BRANCH  22  23
ATOM     23  C   UNL     1     -14.313  36.738  15.186  1.00  0.00    -0.000 C 
BRANCH  23  24
ATOM     24  C   UNL     1     -15.249  35.573  15.543  1.00  0.00    -0.000 C 
BRANCH  24  25
ATOM     25  C   UNL     1     -16.117  35.865  16.776  1.00  0.00    -0.000 C 
BRANCH  25  26
ATOM     26  C   UNL     1     -16.438  37.364  16.879  1.00  0.00    -0.000 C 
BRANCH  26  27
ATOM     27  C   UNL     1     -17.022  37.757  18.247  1.00  0.00    -0.000 C 
BRANCH  27  28
ATOM     28  C   UNL     1     -17.197  39.273  18.472  1.00  0.00    -0.000 C 
BRANCH  28  29
ATOM     29  C   UNL     1     -17.911  39.657  19.780  1.00  0.00    -0.003 C 
ATOM     30  C   UNL     1     -19.104  40.586  19.557  1.00  0.00     0.004 C 
ENDBRANCH  28  29
ENDBRANCH  27  28
ENDBRANCH  26  27
ENDBRANCH  25  26
ENDBRANCH  24  25
ENDBRANCH  23  24
ENDBRANCH  22  23
ENDBRANCH  21  22
ENDBRANCH  20  21
ENDBRANCH  19  20
ENDBRANCH  18  19
ENDBRANCH  17  18
ENDBRANCH   1  17
TORSDOF 26
ENDMDL
MODEL 8
REMARK VINA RESULT:    -4.853      2.852      9.448
REMARK INTER + INTRA:         -15.491
REMARK INTER:                 -13.555
REMARK INTRA:                  -1.936
REMARK UNBOUND:                -3.262
REMARK SMILES CCCCCCCCCCCCCCCCCCCCCCCCCCCC(=O)[O-]
REMARK SMILES IDX 15 1 16 2 17 3 18 4 19 5 20 6 21 7 22 8 23 9 24 10 25 11
REMARK SMILES IDX 26 12 27 13 28 14 29 15 30 16 14 17 13 18 12 19 11 20 10 21
REMARK SMILES IDX 9 22 8 23 7 24 6 25 5 26 4 27 3 28 2 29 1 30
REMARK H PARENT
REMARK Flexibility Score: inf
ROOT
ATOM      1  C   UNL     1     -17.568  36.400  13.084  1.00  0.00     0.000 C 
ENDROOT
BRANCH   1   2
ATOM      2  C   UNL     1     -17.358  34.945  12.640  1.00  0.00     0.000 C 
BRANCH   2   3
ATOM      3  C   UNL     1     -18.048  33.932  13.568  1.00  0.00     0.000 C 
BRANCH   3   4
ATOM      4  C   UNL     1     -17.711  32.494  13.151  1.00  0.00     0.000 C 
BRANCH   4   5
ATOM      5  C   UNL     1     -18.236  31.480  14.178  1.00  0.00     0.000 C 
BRANCH   5   6
ATOM      6  C   UNL     1     -19.091  30.367  13.542  1.00  0.00     0.000 C 
BRANCH   6   7
ATOM      7  C   UNL     1     -20.530  30.256  14.078  1.00  0.00     0.000 C 
BRANCH   7   8
ATOM      8  C   UNL     1     -21.399  31.520  13.916  1.00  0.00     0.000 C 
BRANCH   8   9
ATOM      9  C   UNL     1     -22.905  31.233  13.717  1.00  0.00     0.000 C 
BRANCH   9  10
ATOM     10  C   UNL     1     -23.841  32.391  14.112  1.00  0.00     0.000 C 
BRANCH  10  11
ATOM     11  C   UNL     1     -25.236  31.916  14.549  1.00  0.00     0.000 C 
BRANCH  11  12
ATOM     12  C   UNL     1     -25.608  32.496  15.919  1.00  0.00     0.006 C 
BRANCH  12  13
ATOM     13  C   UNL     1     -25.085  31.606  17.054  1.00  0.00     0.053 C 
BRANCH  13  14
ATOM     14  C   UNL     1     -24.162  32.355  17.968  1.00  0.00     0.041 C 
ATOM     15  O   UNL     1     -23.084  32.843  17.533  1.00  0.00    -0.550 OA
ATOM     16  O   UNL     1     -24.534  32.582  19.289  1.00  0.00    -0.550 OA
ENDBRANCH  13  14
ENDBRANCH  12  13
ENDBRANCH  11  12
ENDBRANCH  10  11
ENDBRANCH   9  10
ENDBRANCH   8   9
ENDBRANCH   7   8
ENDBRANCH   6   7
ENDBRANCH   5   6
ENDBRANCH   4   5
ENDBRANCH   3   4
ENDBRANCH   2   3
ENDBRANCH   1   2
BRANCH   1  17
ATOM     17  C   UNL     1     -16.461  37.344  12.573  1.00  0.00     0.000 C 
BRANCH  17  18
ATOM     18  C   UNL     1     -15.534  37.848  13.699  1.00  0.00     0.000 C 
BRANCH  18  19
ATOM     19  C   UNL     1     -14.407  36.867  14.078  1.00  0.00     0.000 C 
BRANCH  19  20
ATOM     20  C   UNL     1     -14.476  36.311  15.511  1.00  0.00     0.000 C 
BRANCH  20  21
ATOM     21  C   UNL     1     -15.913  35.983  15.956  1.00  0.00     0.000 C 
BRANCH  21  22
ATOM     22  C   UNL     1     -16.213  36.459  17.387  1.00  0.00    -0.000 C 
BRANCH  22  23
ATOM     23  C   UNL     1     -16.908  37.833  17.420  1.00  0.00    -0.000 C 
BRANCH  23  24
ATOM     24  C   UNL     1     -17.018  38.403  18.843  1.00  0.00    -0.000 C 
BRANCH  24  25
ATOM     25  C   UNL     1     -17.490  39.865  18.862  1.00  0.00    -0.000 C 
BRANCH  25  26
ATOM     26  C   UNL     1     -18.802  40.007  19.648  1.00  0.00    -0.000 C 
BRANCH  26  27
ATOM     27  C   UNL     1     -18.745  41.123  20.707  1.00  0.00    -0.000 C 
BRANCH  27  28
ATOM     28  C   UNL     1     -17.431  41.929  20.738  1.00  0.00    -0.000 C 
BRANCH  28  29
ATOM     29  C   UNL     1     -16.571  41.721  21.997  1.00  0.00    -0.003 C 
ATOM     30  C   UNL     1     -16.691  40.310  22.573  1.00  0.00     0.004 C 
ENDBRANCH  28  29
ENDBRANCH  27  28
ENDBRANCH  26  27
ENDBRANCH  25  26
ENDBRANCH  24  25
ENDBRANCH  23  24
ENDBRANCH  22  23
ENDBRANCH  21  22
ENDBRANCH  20  21
ENDBRANCH  19  20
ENDBRANCH  18  19
ENDBRANCH  17  18
ENDBRANCH   1  17
TORSDOF 26
ENDMDL
MODEL 9
REMARK VINA RESULT:    -4.802      3.271      4.293
REMARK INTER + INTRA:         -15.363
REMARK INTER:                 -12.708
REMARK INTRA:                  -2.655
REMARK UNBOUND:                -3.262
REMARK SMILES CCCCCCCCCCCCCCCCCCCCCCCCCCCC(=O)[O-]
REMARK SMILES IDX 15 1 16 2 17 3 18 4 19 5 20 6 21 7 22 8 23 9 24 10 25 11
REMARK SMILES IDX 26 12 27 13 28 14 29 15 30 16 14 17 13 18 12 19 11 20 10 21
REMARK SMILES IDX 9 22 8 23 7 24 6 25 5 26 4 27 3 28 2 29 1 30
REMARK H PARENT
REMARK Flexibility Score: inf
ROOT
ATOM      1  C   UNL     1     -17.337  33.601  12.446  1.00  0.00     0.000 C 
ENDROOT
BRANCH   1   2
ATOM      2  C   UNL     1     -17.137  35.118  12.584  1.00  0.00     0.000 C 
BRANCH   2   3
ATOM      3  C   UNL     1     -18.108  35.760  13.588  1.00  0.00     0.000 C 
BRANCH   3   4
ATOM      4  C   UNL     1     -17.340  36.459  14.717  1.00  0.00     0.000 C 
BRANCH   4   5
ATOM      5  C   UNL     1     -16.221  35.562  15.267  1.00  0.00     0.000 C 
BRANCH   5   6
ATOM      6  C   UNL     1     -15.053  36.362  15.877  1.00  0.00     0.000 C 
BRANCH   6   7
ATOM      7  C   UNL     1     -13.716  36.253  15.121  1.00  0.00     0.000 C 
BRANCH   7   8
ATOM      8  C   UNL     1     -13.784  36.531  13.605  1.00  0.00     0.000 C 
BRANCH   8   9
ATOM      9  C   UNL     1     -13.225  37.910  13.187  1.00  0.00     0.000 C 
BRANCH   9  10
ATOM     10  C   UNL     1     -14.238  39.068  13.263  1.00  0.00     0.000 C 
BRANCH  10  11
ATOM     11  C   UNL     1     -15.681  38.625  12.975  1.00  0.00     0.000 C 
BRANCH  11  12
ATOM     12  C   UNL     1     -16.268  39.406  11.792  1.00  0.00     0.006 C 
BRANCH  12  13
ATOM     13  C   UNL     1     -15.763  40.854  11.785  1.00  0.00     0.053 C 
BRANCH  13  14
ATOM     14  C   UNL     1     -16.604  41.733  10.908  1.00  0.00     0.041 C 
ATOM     15  O   UNL     1     -17.589  41.259  10.280  1.00  0.00    -0.550 OA
ATOM     16  O   UNL     1     -16.344  43.098  10.847  1.00  0.00    -0.550 OA
ENDBRANCH  13  14
ENDBRANCH  12  13
ENDBRANCH  11  12
ENDBRANCH  10  11
ENDBRANCH   9  10
ENDBRANCH   8   9
ENDBRANCH   7   8
ENDBRANCH   6   7
ENDBRANCH   5   6
ENDBRANCH   4   5
ENDBRANCH   3   4
ENDBRANCH   2   3
ENDBRANCH   1   2
BRANCH   1  17
ATOM     17  C   UNL     1     -18.121  32.994  13.626  1.00  0.00     0.000 C 
BRANCH  17  18
ATOM     18  C   UNL     1     -18.160  31.452  13.593  1.00  0.00     0.000 C 
BRANCH  18  19
ATOM     19  C   UNL     1     -19.291  30.829  14.435  1.00  0.00     0.000 C 
BRANCH  19  20
ATOM     20  C   UNL     1     -20.503  30.324  13.634  1.00  0.00     0.000 C 
BRANCH  20  21
ATOM     21  C   UNL     1     -21.778  31.144  13.897  1.00  0.00     0.000 C 
BRANCH  21  22
ATOM     22  C   UNL     1     -21.518  32.378  14.776  1.00  0.00    -0.000 C 
BRANCH  22  23
ATOM     23  C   UNL     1     -21.878  32.140  16.253  1.00  0.00    -0.000 C 
BRANCH  23  24
ATOM     24  C   UNL     1     -22.733  33.273  16.842  1.00  0.00    -0.000 C 
BRANCH  24  25
ATOM     25  C   UNL     1     -23.829  32.760  17.789  1.00  0.00    -0.000 C 
BRANCH  25  26
ATOM     26  C   UNL     1     -25.209  32.828  17.118  1.00  0.00    -0.000 C 
BRANCH  26  27
ATOM     27  C   UNL     1     -25.239  33.780  15.909  1.00  0.00    -0.000 C 
BRANCH  27  28
ATOM     28  C   UNL     1     -26.395  33.539  14.916  1.00  0.00    -0.000 C 
BRANCH  28  29
ATOM     29  C   UNL     1     -26.141  32.428  13.883  1.00  0.00    -0.003 C 
ATOM     30  C   UNL     1     -24.928  32.705  12.995  1.00  0.00     0.004 C 
ENDBRANCH  28  29
ENDBRANCH  27  28
ENDBRANCH  26  27
ENDBRANCH  25  26
ENDBRANCH  24  25
ENDBRANCH  23  24
ENDBRANCH  22  23
ENDBRANCH  21  22
ENDBRANCH  20  21
ENDBRANCH  19  20
ENDBRANCH  18  19
ENDBRANCH  17  18
ENDBRANCH   1  17
TORSDOF 26
ENDMDL
