MODEL 1
REMARK VINA RESULT:    -4.308      0.000      0.000
REMARK INTER + INTRA:          -4.927
REMARK INTER:                  -4.811
REMARK INTRA:                  -0.116
REMARK UNBOUND:                -0.116
REMARK SMILES COc1cc2ccc(=O)oc2cc1OC
REMARK SMILES IDX 3 1 13 2 12 3 11 4 5 5 4 6 6 7 7 8 8 9 9 10 10 11 2 12 1 13
REMARK SMILES IDX 14 14 15 15
REMARK H PARENT
REMARK Flexibility Score: inf
ROOT
ATOM      1  C   UNL     1       1.239   5.004 -11.290  1.00  0.00     0.161 A 
ATOM      2  C   UNL     1       1.966   6.070 -10.733  1.00  0.00     0.164 A 
ATOM      3  C   UNL     1       2.113   7.270 -11.455  1.00  0.00     0.098 A 
ATOM      4  C   UNL     1       1.541   7.407 -12.723  1.00  0.00     0.142 A 
ATOM      5  C   UNL     1       0.813   6.338 -13.282  1.00  0.00     0.022 A 
ATOM      6  C   UNL     1       0.662   5.143 -12.568  1.00  0.00     0.062 A 
ATOM      7  C   UNL     1       0.252   6.507 -14.553  1.00  0.00     0.019 A 
ATOM      8  C   UNL     1       0.429   7.716 -15.225  1.00  0.00     0.094 A 
ATOM      9  C   UNL     1       1.165   8.732 -14.607  1.00  0.00     0.336 A 
ATOM     10  O   UNL     1       1.336   9.831 -15.197  1.00  0.00    -0.246 OA
ATOM     11  O   UNL     1       1.687   8.545 -13.398  1.00  0.00    -0.423 OA
ENDROOT
BRANCH   1  12
ATOM     12  O   UNL     1       1.112   3.822 -10.541  1.00  0.00    -0.493 OA
ATOM     13  C   UNL     1      -0.124   3.286 -10.083  1.00  0.00     0.278 C 
ENDBRANCH   1  12
BRANCH   2  14
ATOM     14  O   UNL     1       2.527   5.897  -9.457  1.00  0.00    -0.493 OA
ATOM     15  C   UNL     1       2.984   6.958  -8.625  1.00  0.00     0.278 C 
ENDBRANCH   2  14
TORSDOF 2
ENDMDL
MODEL 2
REMARK VINA RESULT:    -4.273      5.751      9.492
REMARK INTER + INTRA:          -4.889
REMARK INTER:                  -4.778
REMARK INTRA:                  -0.111
REMARK UNBOUND:                -0.116
REMARK SMILES COc1cc2ccc(=O)oc2cc1OC
REMARK SMILES IDX 3 1 13 2 12 3 11 4 5 5 4 6 6 7 7 8 8 9 9 10 10 11 2 12 1 13
REMARK SMILES IDX 14 14 15 15
REMARK H PARENT
REMARK Flexibility Score: inf
ROOT
ATOM      1  C   UNL     1       1.958   9.492 -21.613  1.00  0.00     0.161 A 
ATOM      2  C   UNL     1       2.100   8.157 -21.195  1.00  0.00     0.164 A 
ATOM      3  C   UNL     1       1.872   7.819 -19.847  1.00  0.00     0.098 A 
ATOM      4  C   UNL     1       1.507   8.801 -18.923  1.00  0.00     0.142 A 
ATOM      5  C   UNL     1       1.364  10.138 -19.341  1.00  0.00     0.022 A 
ATOM      6  C   UNL     1       1.588  10.481 -20.681  1.00  0.00     0.062 A 
ATOM      7  C   UNL     1       0.996  11.098 -18.392  1.00  0.00     0.019 A 
ATOM      8  C   UNL     1       0.783  10.708 -17.070  1.00  0.00     0.094 A 
ATOM      9  C   UNL     1       0.943   9.361 -16.728  1.00  0.00     0.336 A 
ATOM     10  O   UNL     1       0.756   8.989 -15.540  1.00  0.00    -0.246 OA
ATOM     11  O   UNL     1       1.294   8.469 -17.650  1.00  0.00    -0.423 OA
ENDROOT
BRANCH   1  12
ATOM     12  O   UNL     1       2.193   9.793 -22.964  1.00  0.00    -0.493 OA
ATOM     13  C   UNL     1       2.557  11.080 -23.453  1.00  0.00     0.278 C 
ENDBRANCH   1  12
BRANCH   2  14
ATOM     14  O   UNL     1       2.470   7.197 -22.150  1.00  0.00    -0.493 OA
ATOM     15  C   UNL     1       3.506   6.237 -21.971  1.00  0.00     0.278 C 
ENDBRANCH   2  14
TORSDOF 2
ENDMDL
MODEL 3
REMARK VINA RESULT:    -3.995      2.229      3.362
REMARK INTER + INTRA:          -4.579
REMARK INTER:                  -4.442
REMARK INTRA:                  -0.137
REMARK UNBOUND:                -0.116
REMARK SMILES COc1cc2ccc(=O)oc2cc1OC
REMARK SMILES IDX 3 1 13 2 12 3 11 4 5 5 4 6 6 7 7 8 8 9 9 10 10 11 2 12 1 13
REMARK SMILES IDX 14 14 15 15
REMARK H PARENT
REMARK Flexibility Score: inf
ROOT
ATOM      1  C   UNL     1       0.744   6.280 -11.810  1.00  0.00     0.161 A 
ATOM      2  C   UNL     1       0.825   4.894 -12.031  1.00  0.00     0.164 A 
ATOM      3  C   UNL     1       0.691   4.386 -13.338  1.00  0.00     0.098 A 
ATOM      4  C   UNL     1       0.478   5.250 -14.415  1.00  0.00     0.142 A 
ATOM      5  C   UNL     1       0.397   6.639 -14.194  1.00  0.00     0.022 A 
ATOM      6  C   UNL     1       0.531   7.151 -12.897  1.00  0.00     0.062 A 
ATOM      7  C   UNL     1       0.185   7.478 -15.293  1.00  0.00     0.019 A 
ATOM      8  C   UNL     1       0.058   6.922 -16.566  1.00  0.00     0.094 A 
ATOM      9  C   UNL     1       0.150   5.534 -16.709  1.00  0.00     0.336 A 
ATOM     10  O   UNL     1       0.039   5.011 -17.849  1.00  0.00    -0.246 OA
ATOM     11  O   UNL     1       0.353   4.759 -15.647  1.00  0.00    -0.423 OA
ENDROOT
BRANCH   1  12
ATOM     12  O   UNL     1       0.882   6.752 -10.494  1.00  0.00    -0.493 OA
ATOM     13  C   UNL     1       2.072   7.324  -9.963  1.00  0.00     0.278 C 
ENDBRANCH   1  12
BRANCH   2  14
ATOM     14  O   UNL     1       1.039   4.056 -10.926  1.00  0.00    -0.493 OA
ATOM     15  C   UNL     1       0.021   3.300 -10.277  1.00  0.00     0.278 C 
ENDBRANCH   2  14
TORSDOF 2
ENDMDL
MODEL 4
REMARK VINA RESULT:    -3.773      1.773      4.990
REMARK INTER + INTRA:          -4.331
REMARK INTER:                  -4.213
REMARK INTRA:                  -0.118
REMARK UNBOUND:                -0.116
REMARK SMILES COc1cc2ccc(=O)oc2cc1OC
REMARK SMILES IDX 3 1 13 2 12 3 11 4 5 5 4 6 6 7 7 8 8 9 9 10 10 11 2 12 1 13
REMARK SMILES IDX 14 14 15 15
REMARK H PARENT
REMARK Flexibility Score: inf
ROOT
ATOM      1  C   UNL     1       0.366   6.670 -15.089  1.00  0.00     0.161 A 
ATOM      2  C   UNL     1       0.609   8.044 -14.915  1.00  0.00     0.164 A 
ATOM      3  C   UNL     1       1.102   8.517 -13.683  1.00  0.00     0.098 A 
ATOM      4  C   UNL     1       1.351   7.629 -12.633  1.00  0.00     0.142 A 
ATOM      5  C   UNL     1       1.107   6.253 -12.806  1.00  0.00     0.022 A 
ATOM      6  C   UNL     1       0.618   5.776 -14.029  1.00  0.00     0.062 A 
ATOM      7  C   UNL     1       1.367   5.390 -11.736  1.00  0.00     0.019 A 
ATOM      8  C   UNL     1       1.853   5.911 -10.538  1.00  0.00     0.094 A 
ATOM      9  C   UNL     1       2.071   7.289 -10.439  1.00  0.00     0.336 A 
ATOM     10  O   UNL     1       2.510   7.780  -9.366  1.00  0.00    -0.246 OA
ATOM     11  O   UNL     1       1.816   8.087 -11.472  1.00  0.00    -0.423 OA
ENDROOT
BRANCH   1  12
ATOM     12  O   UNL     1      -0.125   6.234 -16.330  1.00  0.00    -0.493 OA
ATOM     13  C   UNL     1      -0.040   4.895 -16.806  1.00  0.00     0.278 C 
ENDBRANCH   1  12
BRANCH   2  14
ATOM     14  O   UNL     1       0.348   8.906 -15.992  1.00  0.00    -0.493 OA
ATOM     15  C   UNL     1       1.345   9.622 -16.714  1.00  0.00     0.278 C 
ENDBRANCH   2  14
TORSDOF 2
ENDMDL
MODEL 5
REMARK VINA RESULT:    -3.676      1.559      5.675
REMARK INTER + INTRA:          -4.222
REMARK INTER:                  -4.113
REMARK INTRA:                  -0.110
REMARK UNBOUND:                -0.116
REMARK SMILES COc1cc2ccc(=O)oc2cc1OC
REMARK SMILES IDX 3 1 13 2 12 3 11 4 5 5 4 6 6 7 7 8 8 9 9 10 10 11 2 12 1 13
REMARK SMILES IDX 14 14 15 15
REMARK H PARENT
REMARK Flexibility Score: inf
ROOT
ATOM      1  C   UNL     1       1.117   7.936 -14.457  1.00  0.00     0.161 A 
ATOM      2  C   UNL     1       0.340   6.803 -14.757  1.00  0.00     0.164 A 
ATOM      3  C   UNL     1       0.051   5.866 -13.747  1.00  0.00     0.098 A 
ATOM      4  C   UNL     1       0.531   6.054 -12.448  1.00  0.00     0.142 A 
ATOM      5  C   UNL     1       1.310   7.189 -12.147  1.00  0.00     0.022 A 
ATOM      6  C   UNL     1       1.599   8.126 -13.147  1.00  0.00     0.062 A 
ATOM      7  C   UNL     1       1.775   7.350 -10.837  1.00  0.00     0.019 A 
ATOM      8  C   UNL     1       1.460   6.391  -9.875  1.00  0.00     0.094 A 
ATOM      9  C   UNL     1       0.682   5.289 -10.248  1.00  0.00     0.336 A 
ATOM     10  O   UNL     1       0.386   4.412  -9.395  1.00  0.00    -0.246 OA
ATOM     11  O   UNL     1       0.252   5.161 -11.500  1.00  0.00    -0.423 OA
ENDROOT
BRANCH   1  12
ATOM     12  O   UNL     1       1.385   8.850 -15.489  1.00  0.00    -0.493 OA
ATOM     13  C   UNL     1       2.394   9.853 -15.436  1.00  0.00     0.278 C 
ENDBRANCH   1  12
BRANCH   2  14
ATOM     14  O   UNL     1      -0.125   6.646 -16.073  1.00  0.00    -0.493 OA
ATOM     15  C   UNL     1      -0.012   5.445 -16.831  1.00  0.00     0.278 C 
ENDBRANCH   2  14
TORSDOF 2
ENDMDL
MODEL 6
REMARK VINA RESULT:    -3.647      1.685      5.238
REMARK INTER + INTRA:          -4.190
REMARK INTER:                  -4.048
REMARK INTRA:                  -0.142
REMARK UNBOUND:                -0.116
REMARK SMILES COc1cc2ccc(=O)oc2cc1OC
REMARK SMILES IDX 3 1 13 2 12 3 11 4 5 5 4 6 6 7 7 8 8 9 9 10 10 11 2 12 1 13
REMARK SMILES IDX 14 14 15 15
REMARK H PARENT
REMARK Flexibility Score: inf
ROOT
ATOM      1  C   UNL     1       0.539   7.899 -15.282  1.00  0.00     0.161 A 
ATOM      2  C   UNL     1       1.419   8.479 -14.352  1.00  0.00     0.164 A 
ATOM      3  C   UNL     1       1.774   7.769 -13.188  1.00  0.00     0.098 A 
ATOM      4  C   UNL     1       1.257   6.493 -12.952  1.00  0.00     0.142 A 
ATOM      5  C   UNL     1       0.375   5.911 -13.884  1.00  0.00     0.022 A 
ATOM      6  C   UNL     1       0.019   6.612 -15.044  1.00  0.00     0.062 A 
ATOM      7  C   UNL     1      -0.125   4.631 -13.620  1.00  0.00     0.019 A 
ATOM      8  C   UNL     1       0.259   3.973 -12.452  1.00  0.00     0.094 A 
ATOM      9  C   UNL     1       1.139   4.613 -11.573  1.00  0.00     0.336 A 
ATOM     10  O   UNL     1       1.498   4.037 -10.513  1.00  0.00    -0.246 OA
ATOM     11  O   UNL     1       1.599   5.831 -11.849  1.00  0.00    -0.423 OA
ENDROOT
BRANCH   1  12
ATOM     12  O   UNL     1       0.207   8.635 -16.431  1.00  0.00    -0.493 OA
ATOM     13  C   UNL     1       0.395   8.177 -17.765  1.00  0.00     0.278 C 
ENDBRANCH   1  12
BRANCH   2  14
ATOM     14  O   UNL     1       1.919   9.764 -14.621  1.00  0.00    -0.493 OA
ATOM     15  C   UNL     1       3.212  10.032 -15.152  1.00  0.00     0.278 C 
ENDBRANCH   2  14
TORSDOF 2
ENDMDL
MODEL 7
REMARK VINA RESULT:    -3.578      6.059      9.142
REMARK INTER + INTRA:          -4.113
REMARK INTER:                  -3.988
REMARK INTRA:                  -0.125
REMARK UNBOUND:                -0.116
REMARK SMILES COc1cc2ccc(=O)oc2cc1OC
REMARK SMILES IDX 3 1 13 2 12 3 11 4 5 5 4 6 6 7 7 8 8 9 9 10 10 11 2 12 1 13
REMARK SMILES IDX 14 14 15 15
REMARK H PARENT
REMARK Flexibility Score: inf
ROOT
ATOM      1  C   UNL     1       2.105   8.260 -21.105  1.00  0.00     0.161 A 
ATOM      2  C   UNL     1       2.239   9.653 -21.236  1.00  0.00     0.164 A 
ATOM      3  C   UNL     1       1.824  10.498 -20.188  1.00  0.00     0.098 A 
ATOM      4  C   UNL     1       1.279   9.960 -19.020  1.00  0.00     0.142 A 
ATOM      5  C   UNL     1       1.144   8.564 -18.888  1.00  0.00     0.022 A 
ATOM      6  C   UNL     1       1.556   7.719 -19.926  1.00  0.00     0.062 A 
ATOM      7  C   UNL     1       0.595   8.057 -17.705  1.00  0.00     0.019 A 
ATOM      8  C   UNL     1       0.199   8.938 -16.699  1.00  0.00     0.094 A 
ATOM      9  C   UNL     1       0.364  10.312 -16.901  1.00  0.00     0.336 A 
ATOM     10  O   UNL     1       0.014  11.125 -16.006  1.00  0.00    -0.246 OA
ATOM     11  O   UNL     1       0.889  10.768 -18.035  1.00  0.00    -0.423 OA
ENDROOT
BRANCH   1  12
ATOM     12  O   UNL     1       2.529   7.448 -22.169  1.00  0.00    -0.493 OA
ATOM     13  C   UNL     1       3.301   6.262 -22.021  1.00  0.00     0.278 C 
ENDBRANCH   1  12
BRANCH   2  14
ATOM     14  O   UNL     1       2.791  10.159 -22.425  1.00  0.00    -0.493 OA
ATOM     15  C   UNL     1       2.034  10.727 -23.488  1.00  0.00     0.278 C 
ENDBRANCH   2  14
TORSDOF 2
ENDMDL
MODEL 8
REMARK VINA RESULT:    -3.344      2.241      3.968
REMARK INTER + INTRA:          -3.851
REMARK INTER:                  -3.685
REMARK INTRA:                  -0.166
REMARK UNBOUND:                -0.116
REMARK SMILES COc1cc2ccc(=O)oc2cc1OC
REMARK SMILES IDX 3 1 13 2 12 3 11 4 5 5 4 6 6 7 7 8 8 9 9 10 10 11 2 12 1 13
REMARK SMILES IDX 14 14 15 15
REMARK H PARENT
REMARK Flexibility Score: inf
ROOT
ATOM      1  C   UNL     1       0.548   7.343 -13.213  1.00  0.00     0.161 A 
ATOM      2  C   UNL     1       0.272   6.110 -13.830  1.00  0.00     0.164 A 
ATOM      3  C   UNL     1       0.225   6.026 -15.235  1.00  0.00     0.098 A 
ATOM      4  C   UNL     1       0.451   7.160 -16.020  1.00  0.00     0.142 A 
ATOM      5  C   UNL     1       0.727   8.396 -15.403  1.00  0.00     0.022 A 
ATOM      6  C   UNL     1       0.776   8.486 -14.006  1.00  0.00     0.062 A 
ATOM      7  C   UNL     1       0.950   9.513 -16.216  1.00  0.00     0.019 A 
ATOM      8  C   UNL     1       0.891   9.374 -17.602  1.00  0.00     0.094 A 
ATOM      9  C   UNL     1       0.611   8.115 -18.144  1.00  0.00     0.336 A 
ATOM     10  O   UNL     1       0.553   7.968 -19.393  1.00  0.00    -0.246 OA
ATOM     11  O   UNL     1       0.403   7.070 -17.348  1.00  0.00    -0.423 OA
ENDROOT
BRANCH   1  12
ATOM     12  O   UNL     1       0.587   7.390 -11.810  1.00  0.00    -0.493 OA
ATOM     13  C   UNL     1       1.781   7.421 -11.037  1.00  0.00     0.278 C 
ENDBRANCH   1  12
BRANCH   2  14
ATOM     14  O   UNL     1       0.050   4.992 -13.011  1.00  0.00    -0.493 OA
ATOM     15  C   UNL     1       1.022   3.990 -12.732  1.00  0.00     0.278 C 
ENDBRANCH   2  14
TORSDOF 2
ENDMDL
