MODEL 1
REMARK VINA RESULT:    -4.226      0.000      0.000
REMARK INTER + INTRA:          -4.613
REMARK INTER:                  -4.597
REMARK INTRA:                  -0.016
REMARK UNBOUND:                -0.016
REMARK SMILES OCc1ccco1
REMARK SMILES IDX 2 1 3 2 5 3 6 4 4 5 7 6 1 7
REMARK H PARENT 1 8
REMARK Flexibility Score: inf
ROOT
ATOM      1  C   UNL     1      -2.522 -23.189  50.562  1.00  0.00     0.231 C 
ENDROOT
BRANCH   1   2
ATOM      2  C   UNL     1      -3.747 -23.448  49.746  1.00  0.00     0.129 A 
ATOM      3  C   UNL     1      -5.432 -24.440  48.744  1.00  0.00     0.042 A 
ATOM      4  C   UNL     1      -5.478 -23.072  48.560  1.00  0.00     0.195 A 
ATOM      5  C   UNL     1      -4.315 -24.685  49.514  1.00  0.00     0.048 A 
ATOM      6  O   UNL     1      -4.462 -22.509  49.172  1.00  0.00    -0.467 OA
ENDBRANCH   1   2
BRANCH   1   7
ATOM      7  O   UNL     1      -2.094 -24.373  51.176  1.00  0.00    -0.388 OA
ATOM      8  H   UNL     1      -2.257 -25.106  50.525  1.00  0.00     0.211 HD
ENDBRANCH   1   7
TORSDOF 2
ENDMDL
MODEL 2
REMARK VINA RESULT:    -3.995      9.049      9.168
REMARK INTER + INTRA:          -4.361
REMARK INTER:                  -4.340
REMARK INTRA:                  -0.021
REMARK UNBOUND:                -0.016
REMARK SMILES OCc1ccco1
REMARK SMILES IDX 2 1 3 2 5 3 6 4 4 5 7 6 1 7
REMARK H PARENT 1 8
REMARK Flexibility Score: inf
ROOT
ATOM      1  C   UNL     1      -6.675 -23.366  57.914  1.00  0.00     0.231 C 
ENDROOT
BRANCH   1   2
ATOM      2  C   UNL     1      -7.673 -22.260  57.795  1.00  0.00     0.129 A 
ATOM      3  C   UNL     1      -9.483 -21.033  58.005  1.00  0.00     0.042 A 
ATOM      4  C   UNL     1      -8.515 -20.371  57.276  1.00  0.00     0.195 A 
ATOM      5  C   UNL     1      -8.939 -22.253  58.345  1.00  0.00     0.048 A 
ATOM      6  O   UNL     1      -7.447 -21.128  57.171  1.00  0.00    -0.467 OA
ENDBRANCH   1   2
BRANCH   1   7
ATOM      7  O   UNL     1      -5.546 -23.081  57.135  1.00  0.00    -0.388 OA
ATOM      8  H   UNL     1      -5.647 -23.594  56.290  1.00  0.00     0.211 HD
ENDBRANCH   1   7
TORSDOF 2
ENDMDL
MODEL 3
REMARK VINA RESULT:    -3.789      1.555      2.440
REMARK INTER + INTRA:          -4.137
REMARK INTER:                  -4.121
REMARK INTRA:                  -0.016
REMARK UNBOUND:                -0.016
REMARK SMILES OCc1ccco1
REMARK SMILES IDX 2 1 3 2 5 3 6 4 4 5 7 6 1 7
REMARK H PARENT 1 8
REMARK Flexibility Score: inf
ROOT
ATOM      1  C   UNL     1      -4.284 -20.908  49.371  1.00  0.00     0.231 C 
ENDROOT
BRANCH   1   2
ATOM      2  C   UNL     1      -4.645 -22.357  49.299  1.00  0.00     0.129 A 
ATOM      3  C   UNL     1      -5.523 -24.274  48.684  1.00  0.00     0.042 A 
ATOM      4  C   UNL     1      -4.641 -24.444  49.732  1.00  0.00     0.195 A 
ATOM      5  C   UNL     1      -5.525 -22.925  48.400  1.00  0.00     0.048 A 
ATOM      6  O   UNL     1      -4.131 -23.283  50.074  1.00  0.00    -0.467 OA
ENDBRANCH   1   2
BRANCH   1   7
ATOM      7  O   UNL     1      -2.930 -20.734  49.057  1.00  0.00    -0.388 OA
ATOM      8  H   UNL     1      -2.590 -21.620  48.761  1.00  0.00     0.211 HD
ENDBRANCH   1   7
TORSDOF 2
ENDMDL
MODEL 4
REMARK VINA RESULT:    -3.780     12.067     12.911
REMARK INTER + INTRA:          -4.127
REMARK INTER:                  -4.115
REMARK INTRA:                  -0.013
REMARK UNBOUND:                -0.016
REMARK SMILES OCc1ccco1
REMARK SMILES IDX 2 1 3 2 5 3 6 4 4 5 7 6 1 7
REMARK H PARENT 1 8
REMARK Flexibility Score: inf
ROOT
ATOM      1  C   UNL     1      -8.608 -12.270  49.278  1.00  0.00     0.231 C 
ENDROOT
BRANCH   1   2
ATOM      2  C   UNL     1      -8.340 -11.842  50.685  1.00  0.00     0.129 A 
ATOM      3  C   UNL     1      -7.331 -11.237  52.540  1.00  0.00     0.042 A 
ATOM      4  C   UNL     1      -8.704 -11.192  52.682  1.00  0.00     0.195 A 
ATOM      5  C   UNL     1      -7.094 -11.654  51.248  1.00  0.00     0.048 A 
ATOM      6  O   UNL     1      -9.277 -11.555  51.558  1.00  0.00    -0.467 OA
ENDBRANCH   1   2
BRANCH   1   7
ATOM      7  O   UNL     1      -8.690 -13.667  49.208  1.00  0.00    -0.388 OA
ATOM      8  H   UNL     1      -8.065 -14.023  49.893  1.00  0.00     0.211 HD
ENDBRANCH   1   7
TORSDOF 2
ENDMDL
MODEL 5
REMARK VINA RESULT:    -3.750      2.700      4.575
REMARK INTER + INTRA:          -4.095
REMARK INTER:                  -4.079
REMARK INTRA:                  -0.016
REMARK UNBOUND:                -0.016
REMARK SMILES OCc1ccco1
REMARK SMILES IDX 2 1 3 2 5 3 6 4 4 5 7 6 1 7
REMARK H PARENT 1 8
REMARK Flexibility Score: inf
ROOT
ATOM      1  C   UNL     1      -2.351 -23.098  50.586  1.00  0.00     0.231 C 
ENDROOT
BRANCH   1   2
ATOM      2  C   UNL     1      -0.980 -22.594  50.270  1.00  0.00     0.129 A 
ATOM      3  C   UNL     1       0.766 -21.776  49.218  1.00  0.00     0.042 A 
ATOM      4  C   UNL     1       1.037 -21.966  50.558  1.00  0.00     0.195 A 
ATOM      5  C   UNL     1      -0.539 -22.179  49.030  1.00  0.00     0.048 A 
ATOM      6  O   UNL     1      -0.025 -22.452  51.160  1.00  0.00    -0.467 OA
ENDBRANCH   1   2
BRANCH   1   7
ATOM      7  O   UNL     1      -2.278 -24.396  51.109  1.00  0.00    -0.388 OA
ATOM      8  H   UNL     1      -2.703 -24.366  52.007  1.00  0.00     0.211 HD
ENDBRANCH   1   7
TORSDOF 2
ENDMDL
MODEL 6
REMARK VINA RESULT:    -3.734      1.922      3.606
REMARK INTER + INTRA:          -4.078
REMARK INTER:                  -4.063
REMARK INTRA:                  -0.015
REMARK UNBOUND:                -0.016
REMARK SMILES OCc1ccco1
REMARK SMILES IDX 2 1 3 2 5 3 6 4 4 5 7 6 1 7
REMARK H PARENT 1 8
REMARK Flexibility Score: inf
ROOT
ATOM      1  C   UNL     1      -3.880 -23.004  50.111  1.00  0.00     0.231 C 
ENDROOT
BRANCH   1   2
ATOM      2  C   UNL     1      -2.420 -23.019  50.431  1.00  0.00     0.129 A 
ATOM      3  C   UNL     1      -0.351 -23.674  50.770  1.00  0.00     0.042 A 
ATOM      4  C   UNL     1      -0.468 -22.305  50.905  1.00  0.00     0.195 A 
ATOM      5  C   UNL     1      -1.611 -24.137  50.459  1.00  0.00     0.048 A 
ATOM      6  O   UNL     1      -1.714 -21.944  50.694  1.00  0.00    -0.467 OA
ENDBRANCH   1   2
BRANCH   1   7
ATOM      7  O   UNL     1      -4.466 -24.220  50.485  1.00  0.00    -0.388 OA
ATOM      8  H   UNL     1      -5.188 -24.403  49.827  1.00  0.00     0.211 HD
ENDBRANCH   1   7
TORSDOF 2
ENDMDL
MODEL 7
REMARK VINA RESULT:    -3.651      9.147      9.569
REMARK INTER + INTRA:          -3.987
REMARK INTER:                  -3.968
REMARK INTRA:                  -0.019
REMARK UNBOUND:                -0.016
REMARK SMILES OCc1ccco1
REMARK SMILES IDX 2 1 3 2 5 3 6 4 4 5 7 6 1 7
REMARK H PARENT 1 8
REMARK Flexibility Score: inf
ROOT
ATOM      1  C   UNL     1       0.681 -20.851  57.662  1.00  0.00     0.231 C 
ENDROOT
BRANCH   1   2
ATOM      2  C   UNL     1       1.111 -19.881  56.609  1.00  0.00     0.129 A 
ATOM      3  C   UNL     1       1.552 -18.028  55.515  1.00  0.00     0.042 A 
ATOM      4  C   UNL     1       1.949 -19.137  54.796  1.00  0.00     0.195 A 
ATOM      5  C   UNL     1       1.012 -18.506  56.690  1.00  0.00     0.048 A 
ATOM      6  O   UNL     1       1.676 -20.227  55.476  1.00  0.00    -0.467 OA
ENDBRANCH   1   2
BRANCH   1   7
ATOM      7  O   UNL     1       0.215 -22.031  57.067  1.00  0.00    -0.388 OA
ATOM      8  H   UNL     1      -0.478 -21.762  56.407  1.00  0.00     0.211 HD
ENDBRANCH   1   7
TORSDOF 2
ENDMDL
MODEL 8
REMARK VINA RESULT:    -3.636      1.435      3.162
REMARK INTER + INTRA:          -3.971
REMARK INTER:                  -3.950
REMARK INTRA:                  -0.021
REMARK UNBOUND:                -0.016
REMARK SMILES OCc1ccco1
REMARK SMILES IDX 2 1 3 2 5 3 6 4 4 5 7 6 1 7
REMARK H PARENT 1 8
REMARK Flexibility Score: inf
ROOT
ATOM      1  C   UNL     1      -5.031 -24.317  49.203  1.00  0.00     0.231 C 
ENDROOT
BRANCH   1   2
ATOM      2  C   UNL     1      -3.569 -24.295  49.514  1.00  0.00     0.129 A 
ATOM      3  C   UNL     1      -1.397 -24.609  49.419  1.00  0.00     0.042 A 
ATOM      4  C   UNL     1      -1.737 -23.802  50.486  1.00  0.00     0.195 A 
ATOM      5  C   UNL     1      -2.580 -24.927  48.787  1.00  0.00     0.048 A 
ATOM      6  O   UNL     1      -3.039 -23.630  50.514  1.00  0.00    -0.467 OA
ENDBRANCH   1   2
BRANCH   1   7
ATOM      7  O   UNL     1      -5.658 -23.196  49.762  1.00  0.00    -0.388 OA
ATOM      8  H   UNL     1      -5.694 -23.350  50.743  1.00  0.00     0.211 HD
ENDBRANCH   1   7
TORSDOF 2
ENDMDL
MODEL 9
REMARK VINA RESULT:    -3.607      2.001      2.443
REMARK INTER + INTRA:          -3.940
REMARK INTER:                  -3.920
REMARK INTRA:                  -0.020
REMARK UNBOUND:                -0.016
REMARK SMILES OCc1ccco1
REMARK SMILES IDX 2 1 3 2 5 3 6 4 4 5 7 6 1 7
REMARK H PARENT 1 8
REMARK Flexibility Score: inf
ROOT
ATOM      1  C   UNL     1      -0.751 -24.398  50.475  1.00  0.00     0.231 C 
ENDROOT
BRANCH   1   2
ATOM      2  C   UNL     1      -1.957 -23.517  50.411  1.00  0.00     0.129 A 
ATOM      3  C   UNL     1      -4.011 -22.785  50.143  1.00  0.00     0.042 A 
ATOM      4  C   UNL     1      -3.182 -21.783  50.608  1.00  0.00     0.195 A 
ATOM      5  C   UNL     1      -3.222 -23.908  50.019  1.00  0.00     0.048 A 
ATOM      6  O   UNL     1      -1.964 -22.252  50.760  1.00  0.00    -0.467 OA
ENDBRANCH   1   2
BRANCH   1   7
ATOM      7  O   UNL     1       0.036 -24.054  51.582  1.00  0.00    -0.388 OA
ATOM      8  H   UNL     1      -0.570 -23.620  52.238  1.00  0.00     0.211 HD
ENDBRANCH   1   7
TORSDOF 2
ENDMDL
