MODEL 1
REMARK VINA RESULT:    -2.479      0.000      0.000
REMARK INTER + INTRA:          -3.997
REMARK INTER:                  -3.784
REMARK INTRA:                  -0.213
REMARK UNBOUND:                -0.213
REMARK SMILES CC1=CCC[C@H](C)C(=O)C[C@@H](C(C)C)C(=O)C1
REMARK SMILES IDX 8 1 9 2 6 3 7 4 5 5 4 6 3 7 2 8 1 9 10 11 11 12 15 13 16 14
REMARK SMILES IDX 17 15 12 17 13 18 14 19
REMARK H PARENT
REMARK Flexibility Score: 70.00
ROOT
ATOM      1  C   UNL     1     184.895 198.739 209.734  1.00  0.00     0.136 C 
ATOM      2  O   UNL     1     184.039 199.102 208.940  1.00  0.00    -0.299 OA
ENDROOT
BRANCH   1   3
ATOM      3  C   UNL     1     185.713 197.495 209.453  1.00  0.00     0.053 C 
ATOM      4  C   UNL     1     184.779 196.376 208.981  1.00  0.00     0.016 C 
BRANCH   3   5
ATOM      5  C   UNL     1     186.831 197.733 208.409  1.00  0.00     0.015 C 
BRANCH   5   6
ATOM      6  C   UNL     1     188.251 197.702 209.001  1.00  0.00     0.028 C 
BRANCH   6   7
ATOM      7  C   UNL     1     188.310 196.854 210.249  1.00  0.00    -0.028 C 
ATOM      8  C   UNL     1     188.477 197.321 211.508  1.00  0.00    -0.070 CG0
ATOM      9  C   UNL     1     188.538 196.317 212.632  1.00  0.00     0.039 C 
ATOM     10  G   UNL     1     188.596 198.797 211.832  1.00  0.00     0.000 G0
ENDBRANCH   6   7
ENDBRANCH   5   6
ENDBRANCH   3   5
ENDBRANCH   1   3
BRANCH   1  11
ATOM     11  C   UNL     1     185.063 199.495 211.030  1.00  0.00     0.087 C 
BRANCH  11  12
ATOM     12  C   UNL     1     186.457 200.162 211.151  1.00  0.00     0.066 C 
BRANCH  12  13
ATOM     13  C   UNL     1     187.283 199.424 212.193  1.00  0.00     0.140 C 
ATOM     14  O   UNL     1     186.892 199.383 213.351  1.00  0.00    -0.299 OA
BRANCH  13  15
ATOM     15  C   UNL     1     188.614 198.802 211.849  1.00  0.00     0.106 CG0
ATOM     16  G   UNL     1     188.492 197.329 211.513  1.00  0.00     0.000 G0
ENDBRANCH  13  15
ENDBRANCH  12  13
BRANCH  12  17
ATOM     17  C   UNL     1     186.356 201.678 211.512  1.00  0.00    -0.006 C 
ATOM     18  C   UNL     1     187.278 202.529 210.619  1.00  0.00     0.008 C 
ATOM     19  C   UNL     1     184.915 202.212 211.387  1.00  0.00     0.008 C 
ENDBRANCH  12  17
ENDBRANCH  11  12
ENDBRANCH   1  11
TORSDOF 1
ENDMDL
MODEL 2
REMARK VINA RESULT:    -2.443      2.210      4.156
REMARK INTER + INTRA:          -3.942
REMARK INTER:                  -4.222
REMARK INTRA:                   0.280
REMARK UNBOUND:                -0.213
REMARK SMILES CC1=CCC[C@H](C)C(=O)C[C@@H](C(C)C)C(=O)C1
REMARK SMILES IDX 8 1 9 2 6 3 7 4 5 5 4 6 3 7 2 8 1 9 10 11 11 12 15 13 16 14
REMARK SMILES IDX 17 15 12 17 13 18 14 19
REMARK H PARENT
REMARK Flexibility Score: 70.00
ROOT
ATOM      1  C   UNL     1     188.469 202.371 209.916  1.00  0.00     0.136 C 
ATOM      2  O   UNL     1     188.736 201.833 208.851  1.00  0.00    -0.299 OA
ENDROOT
BRANCH   1   3
ATOM      3  C   UNL     1     189.563 203.038 210.725  1.00  0.00     0.053 C 
ATOM      4  C   UNL     1     189.159 204.486 211.019  1.00  0.00     0.016 C 
BRANCH   3   5
ATOM      5  C   UNL     1     189.875 202.292 212.045  1.00  0.00     0.015 C 
BRANCH   5   6
ATOM      6  C   UNL     1     190.611 200.956 211.845  1.00  0.00     0.028 C 
BRANCH   6   7
ATOM      7  C   UNL     1     190.009 199.862 212.693  1.00  0.00    -0.028 C 
ATOM      8  C   UNL     1     189.004 199.038 212.315  1.00  0.00    -0.070 CG0
ATOM      9  C   UNL     1     188.513 198.017 213.310  1.00  0.00     0.039 C 
ATOM     10  G   UNL     1     188.365 199.094 210.941  1.00  0.00     0.000 G0
ENDBRANCH   6   7
ENDBRANCH   5   6
ENDBRANCH   3   5
ENDBRANCH   1   3
BRANCH   1  11
ATOM     11  C   UNL     1     187.059 202.286 210.449  1.00  0.00     0.087 C 
BRANCH  11  12
ATOM     12  C   UNL     1     186.907 201.214 211.557  1.00  0.00     0.066 C 
BRANCH  12  13
ATOM     13  C   UNL     1     187.036 199.828 210.942  1.00  0.00     0.140 C 
ATOM     14  O   UNL     1     186.042 199.276 210.491  1.00  0.00    -0.299 OA
BRANCH  13  15
ATOM     15  C   UNL     1     188.348 199.085 210.942  1.00  0.00     0.106 CG0
ATOM     16  G   UNL     1     188.990 199.047 212.315  1.00  0.00     0.000 G0
ENDBRANCH  13  15
ENDBRANCH  12  13
BRANCH  12  17
ATOM     17  C   UNL     1     185.552 201.345 212.322  1.00  0.00    -0.006 C 
ATOM     18  C   UNL     1     185.750 201.993 213.705  1.00  0.00     0.008 C 
ATOM     19  C   UNL     1     184.514 202.168 211.534  1.00  0.00     0.008 C 
ENDBRANCH  12  17
ENDBRANCH  11  12
ENDBRANCH   1  11
TORSDOF 1
ENDMDL
MODEL 3
REMARK VINA RESULT:    -2.423      3.211      5.114
REMARK INTER + INTRA:          -3.911
REMARK INTER:                  -3.610
REMARK INTRA:                  -0.301
REMARK UNBOUND:                -0.213
REMARK SMILES CC1=CCC[C@H](C)C(=O)C[C@@H](C(C)C)C(=O)C1
REMARK SMILES IDX 8 1 9 2 6 3 7 4 5 5 4 6 3 7 2 8 1 9 10 11 11 12 15 13 16 14
REMARK SMILES IDX 17 15 12 17 13 18 14 19
REMARK H PARENT
REMARK Flexibility Score: 70.00
ROOT
ATOM      1  C   UNL     1     188.403 202.170 209.185  1.00  0.00     0.136 C 
ATOM      2  O   UNL     1     187.748 202.432 208.186  1.00  0.00    -0.299 OA
ENDROOT
BRANCH   1   3
ATOM      3  C   UNL     1     189.703 202.900 209.453  1.00  0.00     0.053 C 
ATOM      4  C   UNL     1     190.572 202.858 208.192  1.00  0.00     0.016 C 
BRANCH   3   5
ATOM      5  C   UNL     1     189.489 204.365 209.905  1.00  0.00     0.015 C 
BRANCH   5   6
ATOM      6  C   UNL     1     189.676 204.583 211.417  1.00  0.00     0.028 C 
BRANCH   6   7
ATOM      7  C   UNL     1     190.554 203.515 212.023  1.00  0.00    -0.028 C 
ATOM      8  C   UNL     1     190.142 202.555 212.884  1.00  0.00    -0.070 CG0
ATOM      9  C   UNL     1     191.170 201.585 213.408  1.00  0.00     0.039 C 
ATOM     10  G   UNL     1     188.700 202.413 213.331  1.00  0.00     0.000 G0
ENDBRANCH   6   7
ENDBRANCH   5   6
ENDBRANCH   3   5
ENDBRANCH   1   3
BRANCH   1  11
ATOM     11  C   UNL     1     187.943 201.057 210.094  1.00  0.00     0.087 C 
BRANCH  11  12
ATOM     12  C   UNL     1     187.166 201.581 211.328  1.00  0.00     0.066 C 
BRANCH  12  13
ATOM     13  C   UNL     1     187.964 201.289 212.591  1.00  0.00     0.140 C 
ATOM     14  O   UNL     1     187.977 200.154 213.045  1.00  0.00    -0.299 OA
BRANCH  13  15
ATOM     15  C   UNL     1     188.681 202.384 213.341  1.00  0.00     0.106 CG0
ATOM     16  G   UNL     1     190.113 202.559 212.875  1.00  0.00     0.000 G0
ENDBRANCH  13  15
ENDBRANCH  12  13
BRANCH  12  17
ATOM     17  C   UNL     1     185.737 200.960 211.433  1.00  0.00    -0.006 C 
ATOM     18  C   UNL     1     184.664 202.051 211.610  1.00  0.00     0.008 C 
ATOM     19  C   UNL     1     185.380 200.109 210.199  1.00  0.00     0.008 C 
ENDBRANCH  12  17
ENDBRANCH  11  12
ENDBRANCH   1  11
TORSDOF 1
ENDMDL
MODEL 4
REMARK VINA RESULT:    -2.347      2.669      4.606
REMARK INTER + INTRA:          -3.795
REMARK INTER:                  -3.584
REMARK INTRA:                  -0.211
REMARK UNBOUND:                -0.213
REMARK SMILES CC1=CCC[C@H](C)C(=O)C[C@@H](C(C)C)C(=O)C1
REMARK SMILES IDX 8 1 9 2 6 3 7 4 5 5 4 6 3 7 2 8 1 9 10 11 11 12 15 13 16 14
REMARK SMILES IDX 17 15 12 17 13 18 14 19
REMARK H PARENT
REMARK Flexibility Score: 70.00
ROOT
ATOM      1  C   UNL     1     188.062 202.691 210.261  1.00  0.00     0.136 C 
ATOM      2  O   UNL     1     188.544 203.206 211.260  1.00  0.00    -0.299 OA
ENDROOT
BRANCH   1   3
ATOM      3  C   UNL     1     188.783 202.792 208.932  1.00  0.00     0.053 C 
ATOM      4  C   UNL     1     189.948 201.797 208.915  1.00  0.00     0.016 C 
BRANCH   3   5
ATOM      5  C   UNL     1     187.851 202.545 207.721  1.00  0.00     0.015 C 
BRANCH   5   6
ATOM      6  C   UNL     1     187.926 201.114 207.161  1.00  0.00     0.028 C 
BRANCH   6   7
ATOM      7  C   UNL     1     186.549 200.544 206.919  1.00  0.00    -0.028 C 
ATOM      8  C   UNL     1     185.942 199.608 207.684  1.00  0.00    -0.070 CG0
ATOM      9  C   UNL     1     184.570 199.138 207.272  1.00  0.00     0.039 C 
ATOM     10  G   UNL     1     186.576 199.024 208.931  1.00  0.00     0.000 G0
ENDBRANCH   6   7
ENDBRANCH   5   6
ENDBRANCH   3   5
ENDBRANCH   1   3
BRANCH   1  11
ATOM     11  C   UNL     1     186.707 202.032 210.354  1.00  0.00     0.087 C 
BRANCH  11  12
ATOM     12  C   UNL     1     186.768 200.645 211.042  1.00  0.00     0.066 C 
BRANCH  12  13
ATOM     13  C   UNL     1     185.988 199.634 210.215  1.00  0.00     0.140 C 
ATOM     14  O   UNL     1     184.894 199.253 210.607  1.00  0.00    -0.299 OA
BRANCH  13  15
ATOM     15  C   UNL     1     186.562 199.034 208.957  1.00  0.00     0.106 CG0
ATOM     16  G   UNL     1     185.940 199.616 207.703  1.00  0.00     0.000 G0
ENDBRANCH  13  15
ENDBRANCH  12  13
BRANCH  12  17
ATOM     17  C   UNL     1     186.222 200.687 212.505  1.00  0.00    -0.006 C 
ATOM     18  C   UNL     1     187.370 200.723 213.531  1.00  0.00     0.008 C 
ATOM     19  C   UNL     1     185.302 201.900 212.748  1.00  0.00     0.008 C 
ENDBRANCH  12  17
ENDBRANCH  11  12
ENDBRANCH   1  11
TORSDOF 1
ENDMDL
MODEL 5
REMARK VINA RESULT:    -2.317      3.179      4.354
REMARK INTER + INTRA:          -3.750
REMARK INTER:                  -3.532
REMARK INTRA:                  -0.218
REMARK UNBOUND:                -0.213
REMARK SMILES CC1=CCC[C@H](C)C(=O)C[C@@H](C(C)C)C(=O)C1
REMARK SMILES IDX 8 1 9 2 6 3 7 4 5 5 4 6 3 7 2 8 1 9 10 11 11 12 15 13 16 14
REMARK SMILES IDX 17 15 12 17 13 18 14 19
REMARK H PARENT
REMARK Flexibility Score: 70.00
ROOT
ATOM      1  C   UNL     1     186.781 200.266 208.631  1.00  0.00     0.136 C 
ATOM      2  O   UNL     1     185.669 199.810 208.406  1.00  0.00    -0.299 OA
ENDROOT
BRANCH   1   3
ATOM      3  C   UNL     1     187.716 200.585 207.482  1.00  0.00     0.053 C 
ATOM      4  C   UNL     1     187.644 199.458 206.447  1.00  0.00     0.016 C 
BRANCH   3   5
ATOM      5  C   UNL     1     187.405 201.945 206.813  1.00  0.00     0.015 C 
BRANCH   5   6
ATOM      6  C   UNL     1     188.432 203.045 207.134  1.00  0.00     0.028 C 
BRANCH   6   7
ATOM      7  C   UNL     1     189.593 202.501 207.932  1.00  0.00    -0.028 C 
ATOM      8  C   UNL     1     189.788 202.684 209.258  1.00  0.00    -0.070 CG0
ATOM      9  C   UNL     1     191.023 202.084 209.881  1.00  0.00     0.039 C 
ATOM     10  G   UNL     1     188.821 203.453 210.135  1.00  0.00     0.000 G0
ENDBRANCH   6   7
ENDBRANCH   5   6
ENDBRANCH   3   5
ENDBRANCH   1   3
BRANCH   1  11
ATOM     11  C   UNL     1     187.237 200.422 210.062  1.00  0.00     0.087 C 
BRANCH  11  12
ATOM     12  C   UNL     1     186.817 201.783 210.673  1.00  0.00     0.066 C 
BRANCH  12  13
ATOM     13  C   UNL     1     188.058 202.544 211.114  1.00  0.00     0.140 C 
ATOM     14  O   UNL     1     188.421 202.477 212.280  1.00  0.00    -0.299 OA
BRANCH  13  15
ATOM     15  C   UNL     1     188.811 203.442 210.165  1.00  0.00     0.106 CG0
ATOM     16  G   UNL     1     189.767 202.670 209.278  1.00  0.00     0.000 G0
ENDBRANCH  13  15
ENDBRANCH  12  13
BRANCH  12  17
ATOM     17  C   UNL     1     185.829 201.611 211.871  1.00  0.00    -0.006 C 
ATOM     18  C   UNL     1     184.398 202.025 211.480  1.00  0.00     0.008 C 
ATOM     19  C   UNL     1     185.799 200.164 212.399  1.00  0.00     0.008 C 
ENDBRANCH  12  17
ENDBRANCH  11  12
ENDBRANCH   1  11
TORSDOF 1
ENDMDL
MODEL 6
REMARK VINA RESULT:    -2.308      3.635      5.659
REMARK INTER + INTRA:          -3.735
REMARK INTER:                  -3.577
REMARK INTRA:                  -0.158
REMARK UNBOUND:                -0.213
REMARK SMILES CC1=CCC[C@H](C)C(=O)C[C@@H](C(C)C)C(=O)C1
REMARK SMILES IDX 8 1 9 2 6 3 7 4 5 5 4 6 3 7 2 8 1 9 10 11 11 12 15 13 16 14
REMARK SMILES IDX 17 15 12 17 13 18 14 19
REMARK H PARENT
REMARK Flexibility Score: 70.00
ROOT
ATOM      1  C   UNL     1     188.216 202.444 210.019  1.00  0.00     0.136 C 
ATOM      2  O   UNL     1     187.274 202.662 209.270  1.00  0.00    -0.299 OA
ENDROOT
BRANCH   1   3
ATOM      3  C   UNL     1     189.479 203.274 209.910  1.00  0.00     0.053 C 
ATOM      4  C   UNL     1     189.922 203.327 208.444  1.00  0.00     0.016 C 
BRANCH   3   5
ATOM      5  C   UNL     1     189.307 204.708 210.467  1.00  0.00     0.015 C 
BRANCH   5   6
ATOM      6  C   UNL     1     189.783 204.871 211.921  1.00  0.00     0.028 C 
BRANCH   6   7
ATOM      7  C   UNL     1     191.107 204.181 212.149  1.00  0.00    -0.028 C 
ATOM      8  C   UNL     1     191.322 203.160 213.010  1.00  0.00    -0.070 CG0
ATOM      9  C   UNL     1     192.722 202.611 213.122  1.00  0.00     0.039 C 
ATOM     10  G   UNL     1     190.221 202.545 213.850  1.00  0.00     0.000 G0
ENDBRANCH   6   7
ENDBRANCH   5   6
ENDBRANCH   3   5
ENDBRANCH   1   3
BRANCH   1  11
ATOM     11  C   UNL     1     188.135 201.289 210.986  1.00  0.00     0.087 C 
BRANCH  11  12
ATOM     12  C   UNL     1     188.112 201.753 212.464  1.00  0.00     0.066 C 
BRANCH  12  13
ATOM     13  C   UNL     1     189.460 201.462 213.108  1.00  0.00     0.140 C 
ATOM     14  O   UNL     1     189.910 200.326 213.071  1.00  0.00    -0.299 OA
BRANCH  13  15
ATOM     15  C   UNL     1     190.222 202.527 213.855  1.00  0.00     0.106 CG0
ATOM     16  G   UNL     1     191.320 203.148 213.014  1.00  0.00     0.000 G0
ENDBRANCH  13  15
ENDBRANCH  12  13
BRANCH  12  17
ATOM     17  C   UNL     1     186.964 201.074 213.278  1.00  0.00    -0.006 C 
ATOM     18  C   UNL     1     185.726 201.986 213.365  1.00  0.00     0.008 C 
ATOM     19  C   UNL     1     186.542 199.722 212.672  1.00  0.00     0.008 C 
ENDBRANCH  12  17
ENDBRANCH  11  12
ENDBRANCH   1  11
TORSDOF 1
ENDMDL
MODEL 7
REMARK VINA RESULT:    -2.215      1.850      4.320
REMARK INTER + INTRA:          -3.593
REMARK INTER:                  -3.613
REMARK INTRA:                   0.020
REMARK UNBOUND:                -0.213
REMARK SMILES CC1=CCC[C@H](C)C(=O)C[C@@H](C(C)C)C(=O)C1
REMARK SMILES IDX 8 1 9 2 6 3 7 4 5 5 4 6 3 7 2 8 1 9 10 11 11 12 15 13 16 14
REMARK SMILES IDX 17 15 12 17 13 18 14 19
REMARK H PARENT
REMARK Flexibility Score: 70.00
ROOT
ATOM      1  C   UNL     1     185.948 200.256 210.768  1.00  0.00     0.136 C 
ATOM      2  O   UNL     1     185.040 199.576 211.227  1.00  0.00    -0.299 OA
ENDROOT
BRANCH   1   3
ATOM      3  C   UNL     1     185.902 201.765 210.892  1.00  0.00     0.053 C 
ATOM      4  C   UNL     1     184.612 202.172 211.611  1.00  0.00     0.016 C 
BRANCH   3   5
ATOM      5  C   UNL     1     187.132 202.346 211.630  1.00  0.00     0.015 C 
BRANCH   5   6
ATOM      6  C   UNL     1     187.331 201.780 213.047  1.00  0.00     0.028 C 
BRANCH   6   7
ATOM      7  C   UNL     1     188.784 201.474 213.319  1.00  0.00    -0.028 C 
ATOM      8  C   UNL     1     189.344 200.242 213.305  1.00  0.00    -0.070 CG0
ATOM      9  C   UNL     1     190.812 200.127 213.628  1.00  0.00     0.039 C 
ATOM     10  G   UNL     1     188.563 198.986 212.973  1.00  0.00     0.000 G0
ENDBRANCH   6   7
ENDBRANCH   5   6
ENDBRANCH   3   5
ENDBRANCH   1   3
BRANCH   1  11
ATOM     11  C   UNL     1     187.061 199.578 210.007  1.00  0.00     0.087 C 
BRANCH  11  12
ATOM     12  C   UNL     1     187.516 198.255 210.674  1.00  0.00     0.066 C 
BRANCH  12  13
ATOM     13  C   UNL     1     188.723 198.523 211.561  1.00  0.00     0.140 C 
ATOM     14  O   UNL     1     189.846 198.303 211.129  1.00  0.00    -0.299 OA
BRANCH  13  15
ATOM     15  C   UNL     1     188.565 198.983 212.988  1.00  0.00     0.106 CG0
ATOM     16  G   UNL     1     189.346 200.251 213.274  1.00  0.00     0.000 G0
ENDBRANCH  13  15
ENDBRANCH  12  13
BRANCH  12  17
ATOM     17  C   UNL     1     187.849 197.149 209.622  1.00  0.00    -0.006 C 
ATOM     18  C   UNL     1     187.082 195.847 209.918  1.00  0.00     0.008 C 
ATOM     19  C   UNL     1     187.527 197.598 208.183  1.00  0.00     0.008 C 
ENDBRANCH  12  17
ENDBRANCH  11  12
ENDBRANCH   1  11
TORSDOF 1
ENDMDL
MODEL 8
REMARK VINA RESULT:    -2.197      2.841      5.175
REMARK INTER + INTRA:          -3.567
REMARK INTER:                  -3.380
REMARK INTRA:                  -0.186
REMARK UNBOUND:                -0.213
REMARK SMILES CC1=CCC[C@H](C)C(=O)C[C@@H](C(C)C)C(=O)C1
REMARK SMILES IDX 8 1 9 2 6 3 7 4 5 5 4 6 3 7 2 8 1 9 10 11 11 12 15 13 16 14
REMARK SMILES IDX 17 15 12 17 13 18 14 19
REMARK H PARENT
REMARK Flexibility Score: 70.00
ROOT
ATOM      1  C   UNL     1     188.755 202.982 211.346  1.00  0.00     0.136 C 
ATOM      2  O   UNL     1     189.240 203.223 212.443  1.00  0.00    -0.299 OA
ENDROOT
BRANCH   1   3
ATOM      3  C   UNL     1     189.501 203.369 210.085  1.00  0.00     0.053 C 
ATOM      4  C   UNL     1     189.862 204.856 210.151  1.00  0.00     0.016 C 
BRANCH   3   5
ATOM      5  C   UNL     1     190.774 202.520 209.855  1.00  0.00     0.015 C 
BRANCH   5   6
ATOM      6  C   UNL     1     190.579 201.362 208.861  1.00  0.00     0.028 C 
BRANCH   6   7
ATOM      7  C   UNL     1     189.355 201.574 208.002  1.00  0.00    -0.028 C 
ATOM      8  C   UNL     1     188.199 200.876 208.097  1.00  0.00    -0.070 CG0
ATOM      9  C   UNL     1     187.089 201.212 207.133  1.00  0.00     0.039 C 
ATOM     10  G   UNL     1     187.975 199.789 209.128  1.00  0.00     0.000 G0
ENDBRANCH   6   7
ENDBRANCH   5   6
ENDBRANCH   3   5
ENDBRANCH   1   3
BRANCH   1  11
ATOM     11  C   UNL     1     187.374 202.377 211.269  1.00  0.00     0.087 C 
BRANCH  11  12
ATOM     12  C   UNL     1     187.387 200.841 211.473  1.00  0.00     0.066 C 
BRANCH  12  13
ATOM     13  C   UNL     1     186.965 200.155 210.183  1.00  0.00     0.140 C 
ATOM     14  O   UNL     1     185.791 199.851 210.020  1.00  0.00    -0.299 OA
BRANCH  13  15
ATOM     15  C   UNL     1     187.971 199.772 209.128  1.00  0.00     0.106 CG0
ATOM     16  G   UNL     1     188.190 200.876 208.112  1.00  0.00     0.000 G0
ENDBRANCH  13  15
ENDBRANCH  12  13
BRANCH  12  17
ATOM     17  C   UNL     1     186.465 200.396 212.653  1.00  0.00    -0.006 C 
ATOM     18  C   UNL     1     187.250 199.585 213.702  1.00  0.00     0.008 C 
ATOM     19  C   UNL     1     185.795 201.594 213.353  1.00  0.00     0.008 C 
ENDBRANCH  12  17
ENDBRANCH  11  12
ENDBRANCH   1  11
TORSDOF 1
ENDMDL
MODEL 9
REMARK VINA RESULT:    -2.122      3.252      4.634
REMARK INTER + INTRA:          -3.452
REMARK INTER:                  -3.549
REMARK INTRA:                   0.097
REMARK UNBOUND:                -0.213
REMARK SMILES CC1=CCC[C@H](C)C(=O)C[C@@H](C(C)C)C(=O)C1
REMARK SMILES IDX 8 1 9 2 6 3 7 4 5 5 4 6 3 7 2 8 1 9 10 11 11 12 15 13 16 14
REMARK SMILES IDX 17 15 12 17 13 18 14 19
REMARK H PARENT
REMARK Flexibility Score: 70.00
ROOT
ATOM      1  C   UNL     1     186.457 201.105 209.875  1.00  0.00     0.136 C 
ATOM      2  O   UNL     1     186.517 200.279 208.974  1.00  0.00    -0.299 OA
ENDROOT
BRANCH   1   3
ATOM      3  C   UNL     1     185.467 200.920 211.007  1.00  0.00     0.053 C 
ATOM      4  C   UNL     1     184.413 199.890 210.591  1.00  0.00     0.016 C 
BRANCH   3   5
ATOM      5  C   UNL     1     186.142 200.490 212.332  1.00  0.00     0.015 C 
BRANCH   5   6
ATOM      6  C   UNL     1     186.597 201.668 213.210  1.00  0.00     0.028 C 
BRANCH   6   7
ATOM      7  C   UNL     1     188.027 201.499 213.662  1.00  0.00    -0.028 C 
ATOM      8  C   UNL     1     189.103 202.110 213.113  1.00  0.00    -0.070 CG0
ATOM      9  C   UNL     1     190.463 201.797 213.683  1.00  0.00     0.039 C 
ATOM     10  G   UNL     1     188.994 203.093 211.964  1.00  0.00     0.000 G0
ENDBRANCH   6   7
ENDBRANCH   5   6
ENDBRANCH   3   5
ENDBRANCH   1   3
BRANCH   1  11
ATOM     11  C   UNL     1     187.317 202.343 209.796  1.00  0.00     0.087 C 
BRANCH  11  12
ATOM     12  C   UNL     1     188.813 202.013 209.563  1.00  0.00     0.066 C 
BRANCH  12  13
ATOM     13  C   UNL     1     189.644 202.600 210.694  1.00  0.00     0.140 C 
ATOM     14  O   UNL     1     190.863 202.609 210.601  1.00  0.00    -0.299 OA
BRANCH  13  15
ATOM     15  C   UNL     1     189.004 203.106 211.962  1.00  0.00     0.106 CG0
ATOM     16  G   UNL     1     189.104 202.106 213.097  1.00  0.00     0.000 G0
ENDBRANCH  13  15
ENDBRANCH  12  13
BRANCH  12  17
ATOM     17  C   UNL     1     189.324 202.537 208.183  1.00  0.00    -0.006 C 
ATOM     18  C   UNL     1     190.263 201.519 207.510  1.00  0.00     0.008 C 
ATOM     19  C   UNL     1     188.167 202.859 207.217  1.00  0.00     0.008 C 
ENDBRANCH  12  17
ENDBRANCH  11  12
ENDBRANCH   1  11
TORSDOF 1
ENDMDL
