MODEL 1
REMARK VINA RESULT:    -2.717      0.000      0.000
REMARK INTER + INTRA:          -6.805
REMARK INTER:                  -5.100
REMARK INTRA:                  -1.705
REMARK UNBOUND:                -1.705
REMARK SMILES O=C([O-])CCCCCCCCCCCCCCC(=O)[O-]
REMARK SMILES IDX 10 1 9 2 8 3 7 4 6 5 5 6 4 7 2 8 1 9 3 10 11 11 12 12 13 13
REMARK SMILES IDX 14 14 15 15 16 16 17 17 18 18 19 19 20 20
REMARK H PARENT
REMARK Flexibility Score: inf
ROOT
ATOM      1  C   UNL     1       1.613  16.230  -3.063  1.00  0.00     0.000 C 
ENDROOT
BRANCH   1   2
ATOM      2  C   UNL     1       0.890  15.782  -4.344  1.00  0.00     0.000 C 
BRANCH   2   3
ATOM      3  C   UNL     1       1.222  14.331  -4.731  1.00  0.00     0.000 C 
BRANCH   3   4
ATOM      4  C   UNL     1       1.055  14.058  -6.237  1.00  0.00     0.000 C 
BRANCH   4   5
ATOM      5  C   UNL     1      -0.152  13.178  -6.612  1.00  0.00     0.000 C 
BRANCH   5   6
ATOM      6  C   UNL     1       0.144  12.217  -7.774  1.00  0.00     0.006 C 
BRANCH   6   7
ATOM      7  C   UNL     1      -1.076  12.065  -8.685  1.00  0.00     0.053 C 
BRANCH   7   8
ATOM      8  C   UNL     1      -1.116  13.166  -9.697  1.00  0.00     0.041 C 
ATOM      9  O   UNL     1      -2.197  13.459 -10.273  1.00  0.00    -0.550 OA
ATOM     10  O   UNL     1       0.029  13.904  -9.968  1.00  0.00    -0.550 OA
ENDBRANCH   7   8
ENDBRANCH   6   7
ENDBRANCH   5   6
ENDBRANCH   4   5
ENDBRANCH   3   4
ENDBRANCH   2   3
ENDBRANCH   1   2
BRANCH   1  11
ATOM     11  C   UNL     1       0.653  16.795  -2.006  1.00  0.00     0.000 C 
BRANCH  11  12
ATOM     12  C   UNL     1      -0.803  16.441  -2.344  1.00  0.00     0.000 C 
BRANCH  12  13
ATOM     13  C   UNL     1      -1.552  15.810  -1.158  1.00  0.00     0.000 C 
BRANCH  13  14
ATOM     14  C   UNL     1      -2.221  14.477  -1.523  1.00  0.00     0.000 C 
BRANCH  14  15
ATOM     15  C   UNL     1      -1.179  13.443  -1.965  1.00  0.00     0.000 C 
BRANCH  15  16
ATOM     16  C   UNL     1      -0.267  13.044  -0.795  1.00  0.00     0.006 C 
BRANCH  16  17
ATOM     17  C   UNL     1       1.219  13.082  -1.176  1.00  0.00     0.053 C 
BRANCH  17  18
ATOM     18  C   UNL     1       1.723  11.730  -1.579  1.00  0.00     0.041 C 
ATOM     19  O   UNL     1       1.492  10.726  -0.855  1.00  0.00    -0.550 OA
ATOM     20  O   UNL     1       2.476  11.583  -2.737  1.00  0.00    -0.550 OA
ENDBRANCH  17  18
ENDBRANCH  16  17
ENDBRANCH  15  16
ENDBRANCH  14  15
ENDBRANCH  13  14
ENDBRANCH  12  13
ENDBRANCH  11  12
ENDBRANCH   1  11
TORSDOF 15
ENDMDL
MODEL 2
REMARK VINA RESULT:    -2.714      1.341      2.429
REMARK INTER + INTRA:          -6.798
REMARK INTER:                  -4.524
REMARK INTRA:                  -2.274
REMARK UNBOUND:                -1.705
REMARK SMILES O=C([O-])CCCCCCCCCCCCCCC(=O)[O-]
REMARK SMILES IDX 10 1 9 2 8 3 7 4 6 5 5 6 4 7 2 8 1 9 3 10 11 11 12 12 13 13
REMARK SMILES IDX 14 14 15 15 16 16 17 17 18 18 19 19 20 20
REMARK H PARENT
REMARK Flexibility Score: inf
ROOT
ATOM      1  C   UNL     1      -0.140  16.992  -1.209  1.00  0.00     0.000 C 
ENDROOT
BRANCH   1   2
ATOM      2  C   UNL     1       1.243  16.368  -1.459  1.00  0.00     0.000 C 
BRANCH   2   3
ATOM      3  C   UNL     1       1.844  16.789  -2.811  1.00  0.00     0.000 C 
BRANCH   3   4
ATOM      4  C   UNL     1       2.128  15.595  -3.740  1.00  0.00     0.000 C 
BRANCH   4   5
ATOM      5  C   UNL     1       1.029  15.298  -4.778  1.00  0.00     0.000 C 
BRANCH   5   6
ATOM      6  C   UNL     1       1.240  13.964  -5.510  1.00  0.00     0.006 C 
BRANCH   6   7
ATOM      7  C   UNL     1      -0.097  13.359  -5.944  1.00  0.00     0.053 C 
BRANCH   7   8
ATOM      8  C   UNL     1      -0.064  12.999  -7.395  1.00  0.00     0.041 C 
ATOM      9  O   UNL     1      -1.132  12.951  -8.061  1.00  0.00    -0.550 OA
ATOM     10  O   UNL     1       1.151  12.766  -8.027  1.00  0.00    -0.550 OA
ENDBRANCH   7   8
ENDBRANCH   6   7
ENDBRANCH   5   6
ENDBRANCH   4   5
ENDBRANCH   3   4
ENDBRANCH   2   3
ENDBRANCH   1   2
BRANCH   1  11
ATOM     11  C   UNL     1      -1.238  16.375  -2.089  1.00  0.00     0.000 C 
BRANCH  11  12
ATOM     12  C   UNL     1      -2.303  15.680  -1.229  1.00  0.00     0.000 C 
BRANCH  12  13
ATOM     13  C   UNL     1      -2.398  14.171  -1.507  1.00  0.00     0.000 C 
BRANCH  13  14
ATOM     14  C   UNL     1      -1.192  13.636  -2.293  1.00  0.00     0.000 C 
BRANCH  14  15
ATOM     15  C   UNL     1      -0.210  12.912  -1.364  1.00  0.00     0.000 C 
BRANCH  15  16
ATOM     16  C   UNL     1       1.076  12.529  -2.111  1.00  0.00     0.006 C 
BRANCH  16  17
ATOM     17  C   UNL     1       2.320  12.631  -1.218  1.00  0.00     0.053 C 
BRANCH  17  18
ATOM     18  C   UNL     1       2.676  11.309  -0.608  1.00  0.00     0.041 C 
ATOM     19  O   UNL     1       2.092  10.260  -0.987  1.00  0.00    -0.550 OA
ATOM     20  O   UNL     1       3.628  11.241   0.400  1.00  0.00    -0.550 OA
ENDBRANCH  17  18
ENDBRANCH  16  17
ENDBRANCH  15  16
ENDBRANCH  14  15
ENDBRANCH  13  14
ENDBRANCH  12  13
ENDBRANCH  11  12
ENDBRANCH   1  11
TORSDOF 15
ENDMDL
MODEL 3
REMARK VINA RESULT:    -2.652      1.285      7.151
REMARK INTER + INTRA:          -6.683
REMARK INTER:                  -4.808
REMARK INTRA:                  -1.875
REMARK UNBOUND:                -1.705
REMARK SMILES O=C([O-])CCCCCCCCCCCCCCC(=O)[O-]
REMARK SMILES IDX 10 1 9 2 8 3 7 4 6 5 5 6 4 7 2 8 1 9 3 10 11 11 12 12 13 13
REMARK SMILES IDX 14 14 15 15 16 16 17 17 18 18 19 19 20 20
REMARK H PARENT
REMARK Flexibility Score: inf
ROOT
ATOM      1  C   UNL     1      -2.013  13.587  -1.935  1.00  0.00     0.000 C 
ENDROOT
BRANCH   1   2
ATOM      2  C   UNL     1      -1.942  14.898  -1.134  1.00  0.00     0.000 C 
BRANCH   2   3
ATOM      3  C   UNL     1      -1.584  14.668   0.344  1.00  0.00     0.000 C 
BRANCH   3   4
ATOM      4  C   UNL     1      -0.466  13.627   0.535  1.00  0.00     0.000 C 
BRANCH   4   5
ATOM      5  C   UNL     1       0.964  14.152   0.304  1.00  0.00     0.000 C 
BRANCH   5   6
ATOM      6  C   UNL     1       1.916  13.079  -0.246  1.00  0.00     0.006 C 
BRANCH   6   7
ATOM      7  C   UNL     1       1.144  11.826  -0.670  1.00  0.00     0.053 C 
BRANCH   7   8
ATOM      8  C   UNL     1       2.015  10.614  -0.569  1.00  0.00     0.041 C 
ATOM      9  O   UNL     1       1.505   9.482  -0.359  1.00  0.00    -0.550 OA
ATOM     10  O   UNL     1       3.387  10.726  -0.756  1.00  0.00    -0.550 OA
ENDBRANCH   7   8
ENDBRANCH   6   7
ENDBRANCH   5   6
ENDBRANCH   4   5
ENDBRANCH   3   4
ENDBRANCH   2   3
ENDBRANCH   1   2
BRANCH   1  11
ATOM     11  C   UNL     1      -0.988  13.534  -3.078  1.00  0.00     0.000 C 
BRANCH  11  12
ATOM     12  C   UNL     1      -0.122  14.802  -3.097  1.00  0.00     0.000 C 
BRANCH  12  13
ATOM     13  C   UNL     1       1.203  14.605  -3.850  1.00  0.00     0.000 C 
BRANCH  13  14
ATOM     14  C   UNL     1       1.226  13.313  -4.680  1.00  0.00     0.000 C 
BRANCH  14  15
ATOM     15  C   UNL     1       1.099  13.621  -6.177  1.00  0.00     0.000 C 
BRANCH  15  16
ATOM     16  C   UNL     1      -0.244  13.121  -6.730  1.00  0.00     0.006 C 
BRANCH  16  17
ATOM     17  C   UNL     1      -0.091  12.425  -8.090  1.00  0.00     0.053 C 
BRANCH  17  18
ATOM     18  C   UNL     1      -0.492  13.322  -9.221  1.00  0.00     0.041 C 
ATOM     19  O   UNL     1      -1.674  13.305  -9.654  1.00  0.00    -0.550 OA
ATOM     20  O   UNL     1       0.447  14.153  -9.819  1.00  0.00    -0.550 OA
ENDBRANCH  17  18
ENDBRANCH  16  17
ENDBRANCH  15  16
ENDBRANCH  14  15
ENDBRANCH  13  14
ENDBRANCH  12  13
ENDBRANCH  11  12
ENDBRANCH   1  11
TORSDOF 15
ENDMDL
MODEL 4
REMARK VINA RESULT:    -2.624      1.787      6.669
REMARK INTER + INTRA:          -6.631
REMARK INTER:                  -4.740
REMARK INTRA:                  -1.891
REMARK UNBOUND:                -1.705
REMARK SMILES O=C([O-])CCCCCCCCCCCCCCC(=O)[O-]
REMARK SMILES IDX 10 1 9 2 8 3 7 4 6 5 5 6 4 7 2 8 1 9 3 10 11 11 12 12 13 13
REMARK SMILES IDX 14 14 15 15 16 16 17 17 18 18 19 19 20 20
REMARK H PARENT
REMARK Flexibility Score: inf
ROOT
ATOM      1  C   UNL     1       1.583  15.677  -1.082  1.00  0.00     0.000 C 
ENDROOT
BRANCH   1   2
ATOM      2  C   UNL     1       1.965  14.757   0.089  1.00  0.00     0.000 C 
BRANCH   2   3
ATOM      3  C   UNL     1       2.994  13.686  -0.315  1.00  0.00     0.000 C 
BRANCH   3   4
ATOM      4  C   UNL     1       2.768  13.144  -1.738  1.00  0.00     0.000 C 
BRANCH   4   5
ATOM      5  C   UNL     1       2.070  11.773  -1.813  1.00  0.00     0.000 C 
BRANCH   5   6
ATOM      6  C   UNL     1       1.994  11.063  -0.452  1.00  0.00     0.006 C 
BRANCH   6   7
ATOM      7  C   UNL     1       0.547  10.973   0.040  1.00  0.00     0.053 C 
BRANCH   7   8
ATOM      8  C   UNL     1       0.176   9.551   0.318  1.00  0.00     0.041 C 
ATOM      9  O   UNL     1      -0.761   9.285   1.117  1.00  0.00    -0.550 OA
ATOM     10  O   UNL     1       0.831   8.518  -0.341  1.00  0.00    -0.550 OA
ENDBRANCH   7   8
ENDBRANCH   6   7
ENDBRANCH   5   6
ENDBRANCH   4   5
ENDBRANCH   3   4
ENDBRANCH   2   3
ENDBRANCH   1   2
BRANCH   1  11
ATOM     11  C   UNL     1       0.072  15.944  -1.159  1.00  0.00     0.000 C 
BRANCH  11  12
ATOM     12  C   UNL     1      -0.485  15.548  -2.534  1.00  0.00     0.000 C 
BRANCH  12  13
ATOM     13  C   UNL     1      -0.827  14.053  -2.629  1.00  0.00     0.000 C 
BRANCH  13  14
ATOM     14  C   UNL     1      -0.369  13.424  -3.953  1.00  0.00     0.000 C 
BRANCH  14  15
ATOM     15  C   UNL     1       0.674  14.307  -4.648  1.00  0.00     0.000 C 
BRANCH  15  16
ATOM     16  C   UNL     1       0.987  13.785  -6.058  1.00  0.00     0.006 C 
BRANCH  16  17
ATOM     17  C   UNL     1      -0.224  13.106  -6.711  1.00  0.00     0.053 C 
BRANCH  17  18
ATOM     18  C   UNL     1      -0.146  13.148  -8.206  1.00  0.00     0.041 C 
ATOM     19  O   UNL     1      -1.196  13.077  -8.897  1.00  0.00    -0.550 OA
ATOM     20  O   UNL     1       1.088  13.232  -8.838  1.00  0.00    -0.550 OA
ENDBRANCH  17  18
ENDBRANCH  16  17
ENDBRANCH  15  16
ENDBRANCH  14  15
ENDBRANCH  13  14
ENDBRANCH  12  13
ENDBRANCH  11  12
ENDBRANCH   1  11
TORSDOF 15
ENDMDL
MODEL 5
REMARK VINA RESULT:    -2.619      3.017      6.404
REMARK INTER + INTRA:          -6.621
REMARK INTER:                  -4.287
REMARK INTRA:                  -2.334
REMARK UNBOUND:                -1.705
REMARK SMILES O=C([O-])CCCCCCCCCCCCCCC(=O)[O-]
REMARK SMILES IDX 10 1 9 2 8 3 7 4 6 5 5 6 4 7 2 8 1 9 3 10 11 11 12 12 13 13
REMARK SMILES IDX 14 14 15 15 16 16 17 17 18 18 19 19 20 20
REMARK H PARENT
REMARK Flexibility Score: inf
ROOT
ATOM      1  C   UNL     1       0.435  13.745   0.757  1.00  0.00     0.000 C 
ENDROOT
BRANCH   1   2
ATOM      2  C   UNL     1      -0.448  12.511   1.004  1.00  0.00     0.000 C 
BRANCH   2   3
ATOM      3  C   UNL     1      -1.396  12.219  -0.172  1.00  0.00     0.000 C 
BRANCH   3   4
ATOM      4  C   UNL     1      -2.138  13.473  -0.670  1.00  0.00     0.000 C 
BRANCH   4   5
ATOM      5  C   UNL     1      -1.767  13.932  -2.092  1.00  0.00     0.000 C 
BRANCH   5   6
ATOM      6  C   UNL     1      -1.234  15.372  -2.138  1.00  0.00     0.006 C 
BRANCH   6   7
ATOM      7  C   UNL     1      -1.767  16.192  -0.960  1.00  0.00     0.053 C 
BRANCH   7   8
ATOM      8  C   UNL     1      -2.799  17.169  -1.425  1.00  0.00     0.041 C 
ATOM      9  O   UNL     1      -2.451  18.292  -1.877  1.00  0.00    -0.550 OA
ATOM     10  O   UNL     1      -4.144  16.823  -1.407  1.00  0.00    -0.550 OA
ENDBRANCH   7   8
ENDBRANCH   6   7
ENDBRANCH   5   6
ENDBRANCH   4   5
ENDBRANCH   3   4
ENDBRANCH   2   3
ENDBRANCH   1   2
BRANCH   1  11
ATOM     11  C   UNL     1       1.839  13.380   0.253  1.00  0.00     0.000 C 
BRANCH  11  12
ATOM     12  C   UNL     1       1.958  13.624  -1.259  1.00  0.00     0.000 C 
BRANCH  12  13
ATOM     13  C   UNL     1       1.622  12.375  -2.091  1.00  0.00     0.000 C 
BRANCH  13  14
ATOM     14  C   UNL     1       1.754  12.618  -3.602  1.00  0.00     0.000 C 
BRANCH  14  15
ATOM     15  C   UNL     1       1.877  14.115  -3.908  1.00  0.00     0.000 C 
BRANCH  15  16
ATOM     16  C   UNL     1       0.769  14.575  -4.868  1.00  0.00     0.006 C 
BRANCH  16  17
ATOM     17  C   UNL     1      -0.013  13.395  -5.462  1.00  0.00     0.053 C 
BRANCH  17  18
ATOM     18  C   UNL     1       0.170  13.298  -6.946  1.00  0.00     0.041 C 
ATOM     19  O   UNL     1       1.304  13.490  -7.457  1.00  0.00    -0.550 OA
ATOM     20  O   UNL     1      -0.918  13.028  -7.766  1.00  0.00    -0.550 OA
ENDBRANCH  17  18
ENDBRANCH  16  17
ENDBRANCH  15  16
ENDBRANCH  14  15
ENDBRANCH  13  14
ENDBRANCH  12  13
ENDBRANCH  11  12
ENDBRANCH   1  11
TORSDOF 15
ENDMDL
MODEL 6
REMARK VINA RESULT:    -2.598      5.354      8.765
REMARK INTER + INTRA:          -6.581
REMARK INTER:                  -4.430
REMARK INTRA:                  -2.152
REMARK UNBOUND:                -1.705
REMARK SMILES O=C([O-])CCCCCCCCCCCCCCC(=O)[O-]
REMARK SMILES IDX 10 1 9 2 8 3 7 4 6 5 5 6 4 7 2 8 1 9 3 10 11 11 12 12 13 13
REMARK SMILES IDX 14 14 15 15 16 16 17 17 18 18 19 19 20 20
REMARK H PARENT
REMARK Flexibility Score: inf
ROOT
ATOM      1  C   UNL     1      -2.950   6.753  -8.888  1.00  0.00     0.000 C 
ENDROOT
BRANCH   1   2
ATOM      2  C   UNL     1      -1.564   6.273  -9.351  1.00  0.00     0.000 C 
BRANCH   2   3
ATOM      3  C   UNL     1      -0.962   7.175 -10.442  1.00  0.00     0.000 C 
BRANCH   3   4
ATOM      4  C   UNL     1       0.388   7.791 -10.033  1.00  0.00     0.000 C 
BRANCH   4   5
ATOM      5  C   UNL     1       0.350   8.672  -8.770  1.00  0.00     0.000 C 
BRANCH   5   6
ATOM      6  C   UNL     1       1.461   8.331  -7.766  1.00  0.00     0.006 C 
BRANCH   6   7
ATOM      7  C   UNL     1       1.431   6.844  -7.400  1.00  0.00     0.053 C 
BRANCH   7   8
ATOM      8  C   UNL     1       0.736   6.640  -6.091  1.00  0.00     0.041 C 
ATOM      9  O   UNL     1       1.403   6.534  -5.029  1.00  0.00    -0.550 OA
ATOM     10  O   UNL     1      -0.652   6.615  -6.037  1.00  0.00    -0.550 OA
ENDBRANCH   7   8
ENDBRANCH   6   7
ENDBRANCH   5   6
ENDBRANCH   4   5
ENDBRANCH   3   4
ENDBRANCH   2   3
ENDBRANCH   1   2
BRANCH   1  11
ATOM     11  C   UNL     1      -3.468   7.947  -9.706  1.00  0.00     0.000 C 
BRANCH  11  12
ATOM     12  C   UNL     1      -3.744   9.154  -8.797  1.00  0.00     0.000 C 
BRANCH  12  13
ATOM     13  C   UNL     1      -2.815  10.343  -9.091  1.00  0.00     0.000 C 
BRANCH  13  14
ATOM     14  C   UNL     1      -2.643  10.602 -10.595  1.00  0.00     0.000 C 
BRANCH  14  15
ATOM     15  C   UNL     1      -1.291  11.265 -10.887  1.00  0.00     0.000 C 
BRANCH  15  16
ATOM     16  C   UNL     1      -1.228  12.677 -10.283  1.00  0.00     0.006 C 
BRANCH  16  17
ATOM     17  C   UNL     1       0.161  13.008  -9.723  1.00  0.00     0.053 C 
BRANCH  17  18
ATOM     18  C   UNL     1       0.130  13.201  -8.238  1.00  0.00     0.041 C 
ATOM     19  O   UNL     1      -0.944  13.042  -7.601  1.00  0.00    -0.550 OA
ATOM     20  O   UNL     1       1.280  13.586  -7.560  1.00  0.00    -0.550 OA
ENDBRANCH  17  18
ENDBRANCH  16  17
ENDBRANCH  15  16
ENDBRANCH  14  15
ENDBRANCH  13  14
ENDBRANCH  12  13
ENDBRANCH  11  12
ENDBRANCH   1  11
TORSDOF 15
ENDMDL
MODEL 7
REMARK VINA RESULT:    -2.571      4.902      7.830
REMARK INTER + INTRA:          -6.531
REMARK INTER:                  -4.686
REMARK INTRA:                  -1.845
REMARK UNBOUND:                -1.705
REMARK SMILES O=C([O-])CCCCCCCCCCCCCCC(=O)[O-]
REMARK SMILES IDX 10 1 9 2 8 3 7 4 6 5 5 6 4 7 2 8 1 9 3 10 11 11 12 12 13 13
REMARK SMILES IDX 14 14 15 15 16 16 17 17 18 18 19 19 20 20
REMARK H PARENT
REMARK Flexibility Score: inf
ROOT
ATOM      1  C   UNL     1      -2.750  11.580 -12.153  1.00  0.00     0.000 C 
ENDROOT
BRANCH   1   2
ATOM      2  C   UNL     1      -3.112  12.916 -11.484  1.00  0.00     0.000 C 
BRANCH   2   3
ATOM      3  C   UNL     1      -2.014  13.412 -10.527  1.00  0.00     0.000 C 
BRANCH   3   4
ATOM      4  C   UNL     1      -0.798  12.470 -10.469  1.00  0.00     0.000 C 
BRANCH   4   5
ATOM      5  C   UNL     1       0.574  13.168 -10.527  1.00  0.00     0.000 C 
BRANCH   5   6
ATOM      6  C   UNL     1       1.608  12.538  -9.583  1.00  0.00     0.006 C 
BRANCH   6   7
ATOM      7  C   UNL     1       0.932  11.951  -8.341  1.00  0.00     0.053 C 
BRANCH   7   8
ATOM      8  C   UNL     1       0.707  13.016  -7.314  1.00  0.00     0.041 C 
ATOM      9  O   UNL     1       1.679  13.683  -6.870  1.00  0.00    -0.550 OA
ATOM     10  O   UNL     1      -0.581  13.307  -6.884  1.00  0.00    -0.550 OA
ENDBRANCH   7   8
ENDBRANCH   6   7
ENDBRANCH   5   6
ENDBRANCH   4   5
ENDBRANCH   3   4
ENDBRANCH   2   3
ENDBRANCH   1   2
BRANCH   1  11
ATOM     11  C   UNL     1      -3.947  10.621 -12.249  1.00  0.00     0.000 C 
BRANCH  11  12
ATOM     12  C   UNL     1      -3.762   9.420 -11.309  1.00  0.00     0.000 C 
BRANCH  12  13
ATOM     13  C   UNL     1      -4.588   9.543 -10.019  1.00  0.00     0.000 C 
BRANCH  13  14
ATOM     14  C   UNL     1      -3.802   9.116  -8.770  1.00  0.00     0.000 C 
BRANCH  14  15
ATOM     15  C   UNL     1      -2.549   9.980  -8.589  1.00  0.00     0.000 C 
BRANCH  15  16
ATOM     16  C   UNL     1      -1.273   9.131  -8.697  1.00  0.00     0.006 C 
BRANCH  16  17
ATOM     17  C   UNL     1      -1.507   7.674  -8.277  1.00  0.00     0.053 C 
BRANCH  17  18
ATOM     18  C   UNL     1      -0.510   7.223  -7.253  1.00  0.00     0.041 C 
ATOM     19  O   UNL     1      -0.902   6.758  -6.151  1.00  0.00    -0.550 OA
ATOM     20  O   UNL     1       0.851   7.347  -7.503  1.00  0.00    -0.550 OA
ENDBRANCH  17  18
ENDBRANCH  16  17
ENDBRANCH  15  16
ENDBRANCH  14  15
ENDBRANCH  13  14
ENDBRANCH  12  13
ENDBRANCH  11  12
ENDBRANCH   1  11
TORSDOF 15
ENDMDL
MODEL 8
REMARK VINA RESULT:    -2.552      6.136      9.161
REMARK INTER + INTRA:          -6.494
REMARK INTER:                  -4.194
REMARK INTRA:                  -2.300
REMARK UNBOUND:                -1.705
REMARK SMILES O=C([O-])CCCCCCCCCCCCCCC(=O)[O-]
REMARK SMILES IDX 10 1 9 2 8 3 7 4 6 5 5 6 4 7 2 8 1 9 3 10 11 11 12 12 13 13
REMARK SMILES IDX 14 14 15 15 16 16 17 17 18 18 19 19 20 20
REMARK H PARENT
REMARK Flexibility Score: inf
ROOT
ATOM      1  C   UNL     1      -1.353  10.310 -13.628  1.00  0.00     0.000 C 
ENDROOT
BRANCH   1   2
ATOM      2  C   UNL     1      -2.059  11.637 -13.950  1.00  0.00     0.000 C 
BRANCH   2   3
ATOM      3  C   UNL     1      -3.526  11.651 -13.488  1.00  0.00     0.000 C 
BRANCH   3   4
ATOM      4  C   UNL     1      -3.864  12.864 -12.602  1.00  0.00     0.000 C 
BRANCH   4   5
ATOM      5  C   UNL     1      -2.648  13.625 -12.042  1.00  0.00     0.000 C 
BRANCH   5   6
ATOM      6  C   UNL     1      -2.262  13.181 -10.623  1.00  0.00     0.006 C 
BRANCH   6   7
ATOM      7  C   UNL     1      -0.824  13.589 -10.292  1.00  0.00     0.053 C 
BRANCH   7   8
ATOM      8  C   UNL     1      -0.338  12.859  -9.080  1.00  0.00     0.041 C 
ATOM      9  O   UNL     1      -1.025  12.855  -8.025  1.00  0.00    -0.550 OA
ATOM     10  O   UNL     1       0.850  12.141  -9.130  1.00  0.00    -0.550 OA
ENDBRANCH   7   8
ENDBRANCH   6   7
ENDBRANCH   5   6
ENDBRANCH   4   5
ENDBRANCH   3   4
ENDBRANCH   2   3
ENDBRANCH   1   2
BRANCH   1  11
ATOM     11  C   UNL     1      -0.865  10.235 -12.173  1.00  0.00     0.000 C 
BRANCH  11  12
ATOM     12  C   UNL     1      -1.749   9.288 -11.347  1.00  0.00     0.000 C 
BRANCH  12  13
ATOM     13  C   UNL     1      -1.664   9.561  -9.837  1.00  0.00     0.000 C 
BRANCH  13  14
ATOM     14  C   UNL     1      -3.032   9.881  -9.215  1.00  0.00     0.000 C 
BRANCH  14  15
ATOM     15  C   UNL     1      -4.149   9.765 -10.259  1.00  0.00     0.000 C 
BRANCH  15  16
ATOM     16  C   UNL     1      -5.425   9.175  -9.639  1.00  0.00     0.006 C 
BRANCH  16  17
ATOM     17  C   UNL     1      -5.148   8.456  -8.312  1.00  0.00     0.053 C 
BRANCH  17  18
ATOM     18  C   UNL     1      -5.150   6.967  -8.476  1.00  0.00     0.041 C 
ATOM     19  O   UNL     1      -4.379   6.253  -7.782  1.00  0.00    -0.550 OA
ATOM     20  O   UNL     1      -5.978   6.370  -9.418  1.00  0.00    -0.550 OA
ENDBRANCH  17  18
ENDBRANCH  16  17
ENDBRANCH  15  16
ENDBRANCH  14  15
ENDBRANCH  13  14
ENDBRANCH  12  13
ENDBRANCH  11  12
ENDBRANCH   1  11
TORSDOF 15
ENDMDL
MODEL 9
REMARK VINA RESULT:    -2.506      3.607      6.923
REMARK INTER + INTRA:          -6.408
REMARK INTER:                  -3.870
REMARK INTRA:                  -2.538
REMARK UNBOUND:                -1.705
REMARK SMILES O=C([O-])CCCCCCCCCCCCCCC(=O)[O-]
REMARK SMILES IDX 10 1 9 2 8 3 7 4 6 5 5 6 4 7 2 8 1 9 3 10 11 11 12 12 13 13
REMARK SMILES IDX 14 14 15 15 16 16 17 17 18 18 19 19 20 20
REMARK H PARENT
REMARK Flexibility Score: inf
ROOT
ATOM      1  C   UNL     1       1.138   9.929 -10.832  1.00  0.00     0.000 C 
ENDROOT
BRANCH   1   2
ATOM      2  C   UNL     1       1.694   9.953  -9.398  1.00  0.00     0.000 C 
BRANCH   2   3
ATOM      3  C   UNL     1       0.864   9.094  -8.429  1.00  0.00     0.000 C 
BRANCH   3   4
ATOM      4  C   UNL     1      -0.636   9.077  -8.776  1.00  0.00     0.000 C 
BRANCH   4   5
ATOM      5  C   UNL     1      -1.462  10.224  -8.163  1.00  0.00     0.000 C 
BRANCH   5   6
ATOM      6  C   UNL     1      -2.532  10.771  -9.120  1.00  0.00     0.006 C 
BRANCH   6   7
ATOM      7  C   UNL     1      -3.116   9.652  -9.987  1.00  0.00     0.053 C 
BRANCH   7   8
ATOM      8  C   UNL     1      -4.531   9.369  -9.593  1.00  0.00     0.041 C 
ATOM      9  O   UNL     1      -5.454   9.449 -10.446  1.00  0.00    -0.550 OA
ATOM     10  O   UNL     1      -4.826   8.968  -8.297  1.00  0.00    -0.550 OA
ENDBRANCH   7   8
ENDBRANCH   6   7
ENDBRANCH   5   6
ENDBRANCH   4   5
ENDBRANCH   3   4
ENDBRANCH   2   3
ENDBRANCH   1   2
BRANCH   1  11
ATOM     11  C   UNL     1       1.261  11.286 -11.540  1.00  0.00     0.000 C 
BRANCH  11  12
ATOM     12  C   UNL     1      -0.053  12.075 -11.444  1.00  0.00     0.000 C 
BRANCH  12  13
ATOM     13  C   UNL     1       0.144  13.490 -10.875  1.00  0.00     0.000 C 
BRANCH  13  14
ATOM     14  C   UNL     1      -0.102  13.558  -9.360  1.00  0.00     0.000 C 
BRANCH  14  15
ATOM     15  C   UNL     1       1.223  13.610  -8.591  1.00  0.00     0.000 C 
BRANCH  15  16
ATOM     16  C   UNL     1       1.114  12.867  -7.251  1.00  0.00     0.006 C 
BRANCH  16  17
ATOM     17  C   UNL     1      -0.197  13.180  -6.517  1.00  0.00     0.053 C 
BRANCH  17  18
ATOM     18  C   UNL     1       0.051  13.731  -5.146  1.00  0.00     0.041 C 
ATOM     19  O   UNL     1       0.787  14.742  -4.994  1.00  0.00    -0.550 OA
ATOM     20  O   UNL     1      -0.503  13.111  -4.034  1.00  0.00    -0.550 OA
ENDBRANCH  17  18
ENDBRANCH  16  17
ENDBRANCH  15  16
ENDBRANCH  14  15
ENDBRANCH  13  14
ENDBRANCH  12  13
ENDBRANCH  11  12
ENDBRANCH   1  11
TORSDOF 15
ENDMDL
