MODEL 1
REMARK VINA RESULT:    -7.859      0.000      0.000
REMARK INTER + INTRA:          -9.797
REMARK INTER:                  -9.467
REMARK INTRA:                  -0.330
REMARK UNBOUND:                -0.330
REMARK SMILES O=c1c(O)c(-c2ccc(O)c(O)c2)oc2cc(O)cc(O)c12
REMARK SMILES IDX 5 1 3 2 2 3 1 4 22 5 20 6 19 7 17 8 16 9 15 10 14 11 6 12
REMARK SMILES IDX 7 13 8 14 9 15 13 16 11 17 10 18 12 20 4 22 21 24 18 26
REMARK H PARENT 10 19 12 21 4 23 21 25 18 27
REMARK Flexibility Score: inf
ROOT
ATOM      1  C   UNL     1      19.083  88.583 112.939  1.00  0.00     0.180 A 
ATOM      2  C   UNL     1      19.498  88.186 114.221  1.00  0.00     0.208 A 
ATOM      3  C   UNL     1      20.642  87.379 114.348  1.00  0.00     0.238 A 
ATOM      4  O   UNL     1      20.976  86.982 115.494  1.00  0.00    -0.285 OA
ATOM      5  C   UNL     1      21.363  86.994 113.192  1.00  0.00     0.111 A 
ATOM      6  C   UNL     1      22.557  86.212 113.206  1.00  0.00     0.134 A 
ATOM      7  C   UNL     1      23.113  85.780 111.995  1.00  0.00     0.093 A 
ATOM      8  C   UNL     1      22.556  86.158 110.771  1.00  0.00     0.123 A 
ATOM      9  C   UNL     1      21.425  86.970 110.747  1.00  0.00     0.094 A 
ATOM     10  C   UNL     1      20.826  87.386 111.938  1.00  0.00     0.146 A 
ATOM     11  O   UNL     1      19.744  88.151 111.870  1.00  0.00    -0.452 OA
ENDROOT
BRANCH   1  12
ATOM     12  C   UNL     1      17.903  89.453 112.727  1.00  0.00     0.025 A 
ATOM     13  C   UNL     1      16.667  88.875 112.403  1.00  0.00     0.016 A 
ATOM     14  C   UNL     1      15.546  89.678 112.178  1.00  0.00     0.051 A 
ATOM     15  C   UNL     1      15.647  91.070 112.258  1.00  0.00     0.157 A 
ATOM     16  C   UNL     1      18.008  90.854 112.786  1.00  0.00     0.062 A 
ATOM     17  C   UNL     1      16.884  91.663 112.558  1.00  0.00     0.158 A 
BRANCH  15  18
ATOM     18  O   UNL     1      14.511  91.846 112.031  1.00  0.00    -0.504 OA
ATOM     19  H   UNL     1      14.249  92.158 111.103  1.00  0.00     0.293 HD
ENDBRANCH  15  18
BRANCH  17  20
ATOM     20  O   UNL     1      16.995  93.051 112.625  1.00  0.00    -0.504 OA
ATOM     21  H   UNL     1      17.725  93.551 112.131  1.00  0.00     0.293 HD
ENDBRANCH  17  20
ENDBRANCH   1  12
BRANCH   2  22
ATOM     22  O   UNL     1      18.759  88.559 115.346  1.00  0.00    -0.502 OA
ATOM     23  H   UNL     1      18.739  88.004 116.194  1.00  0.00     0.293 HD
ENDBRANCH   2  22
BRANCH   6  24
ATOM     24  O   UNL     1      23.245  85.859 114.371  1.00  0.00    -0.507 OA
ATOM     25  H   UNL     1      23.747  86.504 114.961  1.00  0.00     0.293 HD
ENDBRANCH   6  24
BRANCH   8  26
ATOM     26  O   UNL     1      23.127  85.738 109.572  1.00  0.00    -0.508 OA
ATOM     27  H   UNL     1      23.711  84.911 109.523  1.00  0.00     0.293 HD
ENDBRANCH   8  26
TORSDOF 6
ENDMDL
MODEL 2
REMARK VINA RESULT:    -7.654      2.782      4.598
REMARK INTER + INTRA:          -9.550
REMARK INTER:                  -9.302
REMARK INTRA:                  -0.248
REMARK UNBOUND:                -0.330
REMARK SMILES O=c1c(O)c(-c2ccc(O)c(O)c2)oc2cc(O)cc(O)c12
REMARK SMILES IDX 5 1 3 2 2 3 1 4 22 5 20 6 19 7 17 8 16 9 15 10 14 11 6 12
REMARK SMILES IDX 7 13 8 14 9 15 13 16 11 17 10 18 12 20 4 22 21 24 18 26
REMARK H PARENT 10 19 12 21 4 23 21 25 18 27
REMARK Flexibility Score: inf
ROOT
ATOM      1  C   UNL     1      16.537  89.913 113.459  1.00  0.00     0.180 A 
ATOM      2  C   UNL     1      16.423  90.812 114.533  1.00  0.00     0.208 A 
ATOM      3  C   UNL     1      17.427  90.830 115.516  1.00  0.00     0.238 A 
ATOM      4  O   UNL     1      17.291  91.598 116.503  1.00  0.00    -0.285 OA
ATOM      5  C   UNL     1      18.539  89.962 115.402  1.00  0.00     0.111 A 
ATOM      6  C   UNL     1      19.634  89.925 116.317  1.00  0.00     0.134 A 
ATOM      7  C   UNL     1      20.615  88.935 116.179  1.00  0.00     0.093 A 
ATOM      8  C   UNL     1      20.576  88.024 115.119  1.00  0.00     0.123 A 
ATOM      9  C   UNL     1      19.544  88.091 114.188  1.00  0.00     0.094 A 
ATOM     10  C   UNL     1      18.530  89.043 114.320  1.00  0.00     0.146 A 
ATOM     11  O   UNL     1      17.559  89.066 113.416  1.00  0.00    -0.452 OA
ENDROOT
BRANCH   1  12
ATOM     12  C   UNL     1      15.532  89.852 112.373  1.00  0.00     0.025 A 
ATOM     13  C   UNL     1      15.472  90.888 111.428  1.00  0.00     0.016 A 
ATOM     14  C   UNL     1      14.519  90.860 110.407  1.00  0.00     0.051 A 
ATOM     15  C   UNL     1      13.602  89.807 110.324  1.00  0.00     0.157 A 
ATOM     16  C   UNL     1      14.597  88.804 112.300  1.00  0.00     0.062 A 
ATOM     17  C   UNL     1      13.637  88.776 111.277  1.00  0.00     0.158 A 
BRANCH  15  18
ATOM     18  O   UNL     1      12.664  89.805 109.292  1.00  0.00    -0.504 OA
ATOM     19  H   UNL     1      12.259  88.948 108.934  1.00  0.00     0.293 HD
ENDBRANCH  15  18
BRANCH  17  20
ATOM     20  O   UNL     1      12.718  87.731 111.208  1.00  0.00    -0.504 OA
ATOM     21  H   UNL     1      12.956  86.840 110.787  1.00  0.00     0.293 HD
ENDBRANCH  17  20
ENDBRANCH   1  12
BRANCH   2  22
ATOM     22  O   UNL     1      15.306  91.644 114.638  1.00  0.00    -0.502 OA
ATOM     23  H   UNL     1      14.438  91.341 115.064  1.00  0.00     0.293 HD
ENDBRANCH   2  22
BRANCH   6  24
ATOM     24  O   UNL     1      19.817  90.844 117.354  1.00  0.00    -0.507 OA
ATOM     25  H   UNL     1      19.427  90.752 118.280  1.00  0.00     0.293 HD
ENDBRANCH   6  24
BRANCH   8  26
ATOM     26  O   UNL     1      21.566  87.054 114.980  1.00  0.00    -0.508 OA
ATOM     27  H   UNL     1      22.371  87.024 115.596  1.00  0.00     0.293 HD
ENDBRANCH   8  26
TORSDOF 6
ENDMDL
MODEL 3
REMARK VINA RESULT:    -7.565      1.517      6.968
REMARK INTER + INTRA:          -9.443
REMARK INTER:                  -9.536
REMARK INTRA:                   0.093
REMARK UNBOUND:                -0.330
REMARK SMILES O=c1c(O)c(-c2ccc(O)c(O)c2)oc2cc(O)cc(O)c12
REMARK SMILES IDX 5 1 3 2 2 3 1 4 22 5 20 6 19 7 17 8 16 9 15 10 14 11 6 12
REMARK SMILES IDX 7 13 8 14 9 15 13 16 11 17 10 18 12 20 4 22 21 24 18 26
REMARK H PARENT 10 19 12 21 4 23 21 25 18 27
REMARK Flexibility Score: inf
ROOT
ATOM      1  C   UNL     1      18.498  89.326 113.010  1.00  0.00     0.180 A 
ATOM      2  C   UNL     1      18.418  90.441 113.862  1.00  0.00     0.208 A 
ATOM      3  C   UNL     1      17.333  91.324 113.728  1.00  0.00     0.238 A 
ATOM      4  O   UNL     1      17.296  92.350 114.456  1.00  0.00    -0.285 OA
ATOM      5  C   UNL     1      16.336  91.071 112.756  1.00  0.00     0.111 A 
ATOM      6  C   UNL     1      15.173  91.877 112.561  1.00  0.00     0.134 A 
ATOM      7  C   UNL     1      14.320  91.607 111.483  1.00  0.00     0.093 A 
ATOM      8  C   UNL     1      14.552  90.521 110.635  1.00  0.00     0.123 A 
ATOM      9  C   UNL     1      15.651  89.694 110.854  1.00  0.00     0.094 A 
ATOM     10  C   UNL     1      16.541  89.959 111.898  1.00  0.00     0.146 A 
ATOM     11  O   UNL     1      17.581  89.153 112.065  1.00  0.00    -0.452 OA
ENDROOT
BRANCH   1  12
ATOM     12  C   UNL     1      19.597  88.338 113.107  1.00  0.00     0.025 A 
ATOM     13  C   UNL     1      19.999  87.872 114.368  1.00  0.00     0.016 A 
ATOM     14  C   UNL     1      21.047  86.955 114.483  1.00  0.00     0.051 A 
ATOM     15  C   UNL     1      21.719  86.503 113.343  1.00  0.00     0.157 A 
ATOM     16  C   UNL     1      20.288  87.899 111.963  1.00  0.00     0.062 A 
ATOM     17  C   UNL     1      21.342  86.980 112.077  1.00  0.00     0.158 A 
BRANCH  15  18
ATOM     18  O   UNL     1      22.760  85.586 113.489  1.00  0.00    -0.504 OA
ATOM     19  H   UNL     1      23.338  85.299 112.708  1.00  0.00     0.293 HD
ENDBRANCH  15  18
BRANCH  17  20
ATOM     20  O   UNL     1      22.017  86.545 110.938  1.00  0.00    -0.504 OA
ATOM     21  H   UNL     1      22.270  85.572 110.809  1.00  0.00     0.293 HD
ENDBRANCH  17  20
ENDBRANCH   1  12
BRANCH   2  22
ATOM     22  O   UNL     1      19.425  90.684 114.799  1.00  0.00    -0.502 OA
ATOM     23  H   UNL     1      20.046  91.482 114.738  1.00  0.00     0.293 HD
ENDBRANCH   2  22
BRANCH   6  24
ATOM     24  O   UNL     1      14.800  92.927 113.404  1.00  0.00    -0.507 OA
ATOM     25  H   UNL     1      15.170  93.079 114.330  1.00  0.00     0.293 HD
ENDBRANCH   6  24
BRANCH   8  26
ATOM     26  O   UNL     1      13.689  90.251 109.575  1.00  0.00    -0.508 OA
ATOM     27  H   UNL     1      13.778  89.408 109.020  1.00  0.00     0.293 HD
ENDBRANCH   8  26
TORSDOF 6
ENDMDL
MODEL 4
REMARK VINA RESULT:    -7.524      3.376      4.846
REMARK INTER + INTRA:          -9.393
REMARK INTER:                  -9.295
REMARK INTRA:                  -0.099
REMARK UNBOUND:                -0.330
REMARK SMILES O=c1c(O)c(-c2ccc(O)c(O)c2)oc2cc(O)cc(O)c12
REMARK SMILES IDX 5 1 3 2 2 3 1 4 22 5 20 6 19 7 17 8 16 9 15 10 14 11 6 12
REMARK SMILES IDX 7 13 8 14 9 15 13 16 11 17 10 18 12 20 4 22 21 24 18 26
REMARK H PARENT 10 19 12 21 4 23 21 25 18 27
REMARK Flexibility Score: inf
ROOT
ATOM      1  C   UNL     1      16.792  90.338 114.115  1.00  0.00     0.180 A 
ATOM      2  C   UNL     1      16.738  91.475 114.939  1.00  0.00     0.208 A 
ATOM      3  C   UNL     1      17.726  91.650 115.923  1.00  0.00     0.238 A 
ATOM      4  O   UNL     1      17.641  92.641 116.694  1.00  0.00    -0.285 OA
ATOM      5  C   UNL     1      18.762  90.696 116.058  1.00  0.00     0.111 A 
ATOM      6  C   UNL     1      19.836  90.794 116.994  1.00  0.00     0.134 A 
ATOM      7  C   UNL     1      20.732  89.726 117.129  1.00  0.00     0.093 A 
ATOM      8  C   UNL     1      20.632  88.594 116.317  1.00  0.00     0.123 A 
ATOM      9  C   UNL     1      19.623  88.515 115.361  1.00  0.00     0.094 A 
ATOM     10  C   UNL     1      18.692  89.547 115.227  1.00  0.00     0.146 A 
ATOM     11  O   UNL     1      17.740  89.428 114.310  1.00  0.00    -0.452 OA
ENDROOT
BRANCH   1  12
ATOM     12  C   UNL     1      15.802  90.096 113.040  1.00  0.00     0.025 A 
ATOM     13  C   UNL     1      15.109  88.877 113.000  1.00  0.00     0.016 A 
ATOM     14  C   UNL     1      14.186  88.621 111.984  1.00  0.00     0.051 A 
ATOM     15  C   UNL     1      13.954  89.569 110.983  1.00  0.00     0.157 A 
ATOM     16  C   UNL     1      15.583  91.041 112.021  1.00  0.00     0.062 A 
ATOM     17  C   UNL     1      14.659  90.784 110.998  1.00  0.00     0.158 A 
BRANCH  15  18
ATOM     18  O   UNL     1      13.025  89.286 109.982  1.00  0.00    -0.504 OA
ATOM     19  H   UNL     1      12.141  89.776 109.914  1.00  0.00     0.293 HD
ENDBRANCH  15  18
BRANCH  17  20
ATOM     20  O   UNL     1      14.443  91.729 109.996  1.00  0.00    -0.504 OA
ATOM     21  H   UNL     1      14.999  91.743 109.150  1.00  0.00     0.293 HD
ENDBRANCH  17  20
ENDBRANCH   1  12
BRANCH   2  22
ATOM     22  O   UNL     1      15.694  92.393 114.803  1.00  0.00    -0.502 OA
ATOM     23  H   UNL     1      14.786  92.135 114.435  1.00  0.00     0.293 HD
ENDBRANCH   2  22
BRANCH   6  24
ATOM     24  O   UNL     1      20.080  91.919 117.787  1.00  0.00    -0.507 OA
ATOM     25  H   UNL     1      19.369  92.447 118.269  1.00  0.00     0.293 HD
ENDBRANCH   6  24
BRANCH   8  26
ATOM     26  O   UNL     1      21.539  87.544 116.448  1.00  0.00    -0.508 OA
ATOM     27  H   UNL     1      21.355  86.630 116.050  1.00  0.00     0.293 HD
ENDBRANCH   8  26
TORSDOF 6
ENDMDL
MODEL 5
REMARK VINA RESULT:    -7.523      3.248      7.158
REMARK INTER + INTRA:          -9.392
REMARK INTER:                  -9.276
REMARK INTRA:                  -0.116
REMARK UNBOUND:                -0.330
REMARK SMILES O=c1c(O)c(-c2ccc(O)c(O)c2)oc2cc(O)cc(O)c12
REMARK SMILES IDX 5 1 3 2 2 3 1 4 22 5 20 6 19 7 17 8 16 9 15 10 14 11 6 12
REMARK SMILES IDX 7 13 8 14 9 15 13 16 11 17 10 18 12 20 4 22 21 24 18 26
REMARK H PARENT 10 19 12 21 4 23 21 25 18 27
REMARK Flexibility Score: inf
ROOT
ATOM      1  C   UNL     1      18.798  89.592 115.267  1.00  0.00     0.180 A 
ATOM      2  C   UNL     1      18.978  88.880 114.069  1.00  0.00     0.208 A 
ATOM      3  C   UNL     1      17.915  88.809 113.153  1.00  0.00     0.238 A 
ATOM      4  O   UNL     1      18.064  88.124 112.108  1.00  0.00    -0.285 OA
ATOM      5  C   UNL     1      16.694  89.463 113.440  1.00  0.00     0.111 A 
ATOM      6  C   UNL     1      15.565  89.490 112.566  1.00  0.00     0.134 A 
ATOM      7  C   UNL     1      14.363  90.057 113.009  1.00  0.00     0.093 A 
ATOM      8  C   UNL     1      14.269  90.656 114.268  1.00  0.00     0.123 A 
ATOM      9  C   UNL     1      15.382  90.686 115.104  1.00  0.00     0.094 A 
ATOM     10  C   UNL     1      16.585  90.097 114.706  1.00  0.00     0.146 A 
ATOM     11  O   UNL     1      17.618  90.140 115.536  1.00  0.00    -0.452 OA
ENDROOT
BRANCH   1  12
ATOM     12  C   UNL     1      19.879  89.732 116.271  1.00  0.00     0.025 A 
ATOM     13  C   UNL     1      20.385  88.589 116.907  1.00  0.00     0.016 A 
ATOM     14  C   UNL     1      21.390  88.701 117.871  1.00  0.00     0.051 A 
ATOM     15  C   UNL     1      21.893  89.957 118.225  1.00  0.00     0.157 A 
ATOM     16  C   UNL     1      20.371  90.997 116.642  1.00  0.00     0.062 A 
ATOM     17  C   UNL     1      21.378  91.112 117.612  1.00  0.00     0.158 A 
BRANCH  15  18
ATOM     18  O   UNL     1      22.897  90.038 119.189  1.00  0.00    -0.504 OA
ATOM     19  H   UNL     1      23.658  90.703 119.119  1.00  0.00     0.293 HD
ENDBRANCH  15  18
BRANCH  17  20
ATOM     20  O   UNL     1      21.865  92.367 117.970  1.00  0.00    -0.504 OA
ATOM     21  H   UNL     1      22.163  92.573 118.917  1.00  0.00     0.293 HD
ENDBRANCH  17  20
ENDBRANCH   1  12
BRANCH   2  22
ATOM     22  O   UNL     1      20.185  88.223 113.816  1.00  0.00    -0.502 OA
ATOM     23  H   UNL     1      20.494  87.994 112.879  1.00  0.00     0.293 HD
ENDBRANCH   2  22
BRANCH   6  24
ATOM     24  O   UNL     1      15.580  89.003 111.256  1.00  0.00    -0.507 OA
ATOM     25  H   UNL     1      15.693  89.573 110.432  1.00  0.00     0.293 HD
ENDBRANCH   6  24
BRANCH   8  26
ATOM     26  O   UNL     1      13.074  91.232 114.693  1.00  0.00    -0.508 OA
ATOM     27  H   UNL     1      12.283  90.665 114.976  1.00  0.00     0.293 HD
ENDBRANCH   8  26
TORSDOF 6
ENDMDL
MODEL 6
REMARK VINA RESULT:    -7.520      2.941      5.095
REMARK INTER + INTRA:          -9.389
REMARK INTER:                  -9.147
REMARK INTRA:                  -0.242
REMARK UNBOUND:                -0.330
REMARK SMILES O=c1c(O)c(-c2ccc(O)c(O)c2)oc2cc(O)cc(O)c12
REMARK SMILES IDX 5 1 3 2 2 3 1 4 22 5 20 6 19 7 17 8 16 9 15 10 14 11 6 12
REMARK SMILES IDX 7 13 8 14 9 15 13 16 11 17 10 18 12 20 4 22 21 24 18 26
REMARK H PARENT 10 19 12 21 4 23 21 25 18 27
REMARK Flexibility Score: inf
ROOT
ATOM      1  C   UNL     1      17.279  89.538 113.233  1.00  0.00     0.180 A 
ATOM      2  C   UNL     1      18.368  88.668 113.053  1.00  0.00     0.208 A 
ATOM      3  C   UNL     1      19.395  88.654 114.011  1.00  0.00     0.238 A 
ATOM      4  O   UNL     1      20.392  87.912 113.816  1.00  0.00    -0.285 OA
ATOM      5  C   UNL     1      19.311  89.497 115.145  1.00  0.00     0.111 A 
ATOM      6  C   UNL     1      20.274  89.535 116.199  1.00  0.00     0.134 A 
ATOM      7  C   UNL     1      20.157  90.502 117.206  1.00  0.00     0.093 A 
ATOM      8  C   UNL     1      19.076  91.387 117.233  1.00  0.00     0.123 A 
ATOM      9  C   UNL     1      18.101  91.318 116.241  1.00  0.00     0.094 A 
ATOM     10  C   UNL     1      18.209  90.389 115.203  1.00  0.00     0.146 A 
ATOM     11  O   UNL     1      17.263  90.364 114.274  1.00  0.00    -0.452 OA
ENDROOT
BRANCH   1  12
ATOM     12  C   UNL     1      16.147  89.593 112.280  1.00  0.00     0.025 A 
ATOM     13  C   UNL     1      15.948  90.749 111.509  1.00  0.00     0.016 A 
ATOM     14  C   UNL     1      14.875  90.829 110.618  1.00  0.00     0.051 A 
ATOM     15  C   UNL     1      13.976  89.765 110.496  1.00  0.00     0.157 A 
ATOM     16  C   UNL     1      15.231  88.532 112.171  1.00  0.00     0.062 A 
ATOM     17  C   UNL     1      14.150  88.612 111.279  1.00  0.00     0.158 A 
BRANCH  15  18
ATOM     18  O   UNL     1      12.915  89.874 109.597  1.00  0.00    -0.504 OA
ATOM     19  H   UNL     1      12.474  90.762 109.390  1.00  0.00     0.293 HD
ENDBRANCH  15  18
BRANCH  17  20
ATOM     20  O   UNL     1      13.251  87.554 111.173  1.00  0.00    -0.504 OA
ATOM     21  H   UNL     1      12.626  87.308 111.932  1.00  0.00     0.293 HD
ENDBRANCH  17  20
ENDBRANCH   1  12
BRANCH   2  22
ATOM     22  O   UNL     1      18.441  87.861 111.915  1.00  0.00    -0.502 OA
ATOM     23  H   UNL     1      19.065  87.065 111.851  1.00  0.00     0.293 HD
ENDBRANCH   2  22
BRANCH   6  24
ATOM     24  O   UNL     1      21.339  88.637 116.316  1.00  0.00    -0.507 OA
ATOM     25  H   UNL     1      22.035  88.475 115.604  1.00  0.00     0.293 HD
ENDBRANCH   6  24
BRANCH   8  26
ATOM     26  O   UNL     1      18.960  92.334 118.248  1.00  0.00    -0.508 OA
ATOM     27  H   UNL     1      19.253  93.295 118.114  1.00  0.00     0.293 HD
ENDBRANCH   8  26
TORSDOF 6
ENDMDL
MODEL 7
REMARK VINA RESULT:    -7.493      3.792      8.203
REMARK INTER + INTRA:          -9.356
REMARK INTER:                  -9.066
REMARK INTRA:                  -0.290
REMARK UNBOUND:                -0.330
REMARK SMILES O=c1c(O)c(-c2ccc(O)c(O)c2)oc2cc(O)cc(O)c12
REMARK SMILES IDX 5 1 3 2 2 3 1 4 22 5 20 6 19 7 17 8 16 9 15 10 14 11 6 12
REMARK SMILES IDX 7 13 8 14 9 15 13 16 11 17 10 18 12 20 4 22 21 24 18 26
REMARK H PARENT 10 19 12 21 4 23 21 25 18 27
REMARK Flexibility Score: inf
ROOT
ATOM      1  C   UNL     1      18.297  91.524 115.502  1.00  0.00     0.180 A 
ATOM      2  C   UNL     1      16.942  91.493 115.871  1.00  0.00     0.208 A 
ATOM      3  C   UNL     1      16.288  92.702 116.162  1.00  0.00     0.238 A 
ATOM      4  O   UNL     1      15.090  92.664 116.545  1.00  0.00    -0.285 OA
ATOM      5  C   UNL     1      16.993  93.925 116.063  1.00  0.00     0.111 A 
ATOM      6  C   UNL     1      16.419  95.212 116.294  1.00  0.00     0.134 A 
ATOM      7  C   UNL     1      17.244  96.345 116.297  1.00  0.00     0.093 A 
ATOM      8  C   UNL     1      18.607  96.245 116.010  1.00  0.00     0.123 A 
ATOM      9  C   UNL     1      19.164  95.001 115.724  1.00  0.00     0.094 A 
ATOM     10  C   UNL     1      18.376  93.848 115.751  1.00  0.00     0.146 A 
ATOM     11  O   UNL     1      18.949  92.682 115.482  1.00  0.00    -0.452 OA
ENDROOT
BRANCH   1  12
ATOM     12  C   UNL     1      19.048  90.294 115.158  1.00  0.00     0.025 A 
ATOM     13  C   UNL     1      18.879  89.712 113.892  1.00  0.00     0.016 A 
ATOM     14  C   UNL     1      19.562  88.542 113.554  1.00  0.00     0.051 A 
ATOM     15  C   UNL     1      20.411  87.926 114.479  1.00  0.00     0.157 A 
ATOM     16  C   UNL     1      19.886  89.662 116.094  1.00  0.00     0.062 A 
ATOM     17  C   UNL     1      20.571  88.485 115.758  1.00  0.00     0.158 A 
BRANCH  15  18
ATOM     18  O   UNL     1      21.081  86.759 114.112  1.00  0.00    -0.504 OA
ATOM     19  H   UNL     1      20.716  85.839 114.328  1.00  0.00     0.293 HD
ENDBRANCH  15  18
BRANCH  17  20
ATOM     20  O   UNL     1      21.404  87.869 116.689  1.00  0.00    -0.504 OA
ATOM     21  H   UNL     1      21.427  88.163 117.659  1.00  0.00     0.293 HD
ENDBRANCH  17  20
ENDBRANCH   1  12
BRANCH   2  22
ATOM     22  O   UNL     1      16.271  90.273 115.984  1.00  0.00    -0.502 OA
ATOM     23  H   UNL     1      15.796  89.838 115.202  1.00  0.00     0.293 HD
ENDBRANCH   2  22
BRANCH   6  24
ATOM     24  O   UNL     1      15.054  95.432 116.499  1.00  0.00    -0.507 OA
ATOM     25  H   UNL     1      14.318  94.838 116.151  1.00  0.00     0.293 HD
ENDBRANCH   6  24
BRANCH   8  26
ATOM     26  O   UNL     1      19.415  97.379 115.998  1.00  0.00    -0.508 OA
ATOM     27  H   UNL     1      19.354  98.082 116.725  1.00  0.00     0.293 HD
ENDBRANCH   8  26
TORSDOF 6
ENDMDL
MODEL 8
REMARK VINA RESULT:    -7.476      4.033      6.090
REMARK INTER + INTRA:          -9.336
REMARK INTER:                  -9.085
REMARK INTRA:                  -0.251
REMARK UNBOUND:                -0.330
REMARK SMILES O=c1c(O)c(-c2ccc(O)c(O)c2)oc2cc(O)cc(O)c12
REMARK SMILES IDX 5 1 3 2 2 3 1 4 22 5 20 6 19 7 17 8 16 9 15 10 14 11 6 12
REMARK SMILES IDX 7 13 8 14 9 15 13 16 11 17 10 18 12 20 4 22 21 24 18 26
REMARK H PARENT 10 19 12 21 4 23 21 25 18 27
REMARK Flexibility Score: inf
ROOT
ATOM      1  C   UNL     1      18.763  92.851 115.344  1.00  0.00     0.180 A 
ATOM      2  C   UNL     1      18.178  92.203 114.243  1.00  0.00     0.208 A 
ATOM      3  C   UNL     1      18.383  90.823 114.076  1.00  0.00     0.238 A 
ATOM      4  O   UNL     1      17.901  90.260 113.059  1.00  0.00    -0.285 OA
ATOM      5  C   UNL     1      19.156  90.108 115.021  1.00  0.00     0.111 A 
ATOM      6  C   UNL     1      19.395  88.701 114.973  1.00  0.00     0.134 A 
ATOM      7  C   UNL     1      20.283  88.120 115.887  1.00  0.00     0.093 A 
ATOM      8  C   UNL     1      20.889  88.884 116.888  1.00  0.00     0.123 A 
ATOM      9  C   UNL     1      20.616  90.247 116.979  1.00  0.00     0.094 A 
ATOM     10  C   UNL     1      19.763  90.862 116.060  1.00  0.00     0.146 A 
ATOM     11  O   UNL     1      19.537  92.164 116.176  1.00  0.00    -0.452 OA
ENDROOT
BRANCH   1  12
ATOM     12  C   UNL     1      18.573  94.298 115.600  1.00  0.00     0.025 A 
ATOM     13  C   UNL     1      17.332  94.760 116.064  1.00  0.00     0.016 A 
ATOM     14  C   UNL     1      17.124  96.122 116.293  1.00  0.00     0.051 A 
ATOM     15  C   UNL     1      18.146  97.044 116.047  1.00  0.00     0.157 A 
ATOM     16  C   UNL     1      19.593  95.228 115.333  1.00  0.00     0.062 A 
ATOM     17  C   UNL     1      19.386  96.597 115.559  1.00  0.00     0.158 A 
BRANCH  15  18
ATOM     18  O   UNL     1      17.911  98.397 116.287  1.00  0.00    -0.504 OA
ATOM     19  H   UNL     1      18.484  99.125 115.876  1.00  0.00     0.293 HD
ENDBRANCH  15  18
BRANCH  17  20
ATOM     20  O   UNL     1      20.404  97.512 115.299  1.00  0.00    -0.504 OA
ATOM     21  H   UNL     1      21.235  97.250 114.782  1.00  0.00     0.293 HD
ENDBRANCH  17  20
ENDBRANCH   1  12
BRANCH   2  22
ATOM     22  O   UNL     1      17.436  92.933 113.310  1.00  0.00    -0.502 OA
ATOM     23  H   UNL     1      17.099  93.871 113.495  1.00  0.00     0.293 HD
ENDBRANCH   2  22
BRANCH   6  24
ATOM     24  O   UNL     1      18.769  87.834 114.073  1.00  0.00    -0.507 OA
ATOM     25  H   UNL     1      19.251  87.271 113.388  1.00  0.00     0.293 HD
ENDBRANCH   6  24
BRANCH   8  26
ATOM     26  O   UNL     1      21.758  88.294 117.803  1.00  0.00    -0.508 OA
ATOM     27  H   UNL     1      21.640  87.334 118.104  1.00  0.00     0.293 HD
ENDBRANCH   8  26
TORSDOF 6
ENDMDL
MODEL 9
REMARK VINA RESULT:    -7.404      4.191      5.650
REMARK INTER + INTRA:          -9.249
REMARK INTER:                  -8.944
REMARK INTRA:                  -0.306
REMARK UNBOUND:                -0.330
REMARK SMILES O=c1c(O)c(-c2ccc(O)c(O)c2)oc2cc(O)cc(O)c12
REMARK SMILES IDX 5 1 3 2 2 3 1 4 22 5 20 6 19 7 17 8 16 9 15 10 14 11 6 12
REMARK SMILES IDX 7 13 8 14 9 15 13 16 11 17 10 18 12 20 4 22 21 24 18 26
REMARK H PARENT 10 19 12 21 4 23 21 25 18 27
REMARK Flexibility Score: inf
ROOT
ATOM      1  C   UNL     1      17.231  90.375 114.276  1.00  0.00     0.180 A 
ATOM      2  C   UNL     1      17.924  89.491 115.120  1.00  0.00     0.208 A 
ATOM      3  C   UNL     1      18.921  90.000 115.970  1.00  0.00     0.238 A 
ATOM      4  O   UNL     1      19.575  89.196 116.683  1.00  0.00    -0.285 OA
ATOM      5  C   UNL     1      19.199  91.388 115.975  1.00  0.00     0.111 A 
ATOM      6  C   UNL     1      20.159  92.018 116.824  1.00  0.00     0.134 A 
ATOM      7  C   UNL     1      20.444  93.379 116.651  1.00  0.00     0.093 A 
ATOM      8  C   UNL     1      19.756  94.145 115.707  1.00  0.00     0.123 A 
ATOM      9  C   UNL     1      18.776  93.552 114.915  1.00  0.00     0.094 A 
ATOM     10  C   UNL     1      18.495  92.189 115.038  1.00  0.00     0.146 A 
ATOM     11  O   UNL     1      17.561  91.662 114.258  1.00  0.00    -0.452 OA
ENDROOT
BRANCH   1  12
ATOM     12  C   UNL     1      16.152  89.917 113.371  1.00  0.00     0.025 A 
ATOM     13  C   UNL     1      14.817  89.989 113.796  1.00  0.00     0.016 A 
ATOM     14  C   UNL     1      13.784  89.544 112.966  1.00  0.00     0.051 A 
ATOM     15  C   UNL     1      14.071  89.006 111.708  1.00  0.00     0.157 A 
ATOM     16  C   UNL     1      16.440  89.356 112.114  1.00  0.00     0.062 A 
ATOM     17  C   UNL     1      15.405  88.906 111.280  1.00  0.00     0.158 A 
BRANCH  15  18
ATOM     18  O   UNL     1      13.020  88.572 110.901  1.00  0.00    -0.504 OA
ATOM     19  H   UNL     1      12.063  88.543 111.233  1.00  0.00     0.293 HD
ENDBRANCH  15  18
BRANCH  17  20
ATOM     20  O   UNL     1      15.699  88.358 110.033  1.00  0.00    -0.504 OA
ATOM     21  H   UNL     1      14.969  88.120 109.371  1.00  0.00     0.293 HD
ENDBRANCH  17  20
ENDBRANCH   1  12
BRANCH   2  22
ATOM     22  O   UNL     1      17.650  88.122 115.083  1.00  0.00    -0.502 OA
ATOM     23  H   UNL     1      16.763  87.752 114.759  1.00  0.00     0.293 HD
ENDBRANCH   2  22
BRANCH   6  24
ATOM     24  O   UNL     1      20.834  91.365 117.859  1.00  0.00    -0.507 OA
ATOM     25  H   UNL     1      20.531  90.505 118.290  1.00  0.00     0.293 HD
ENDBRANCH   6  24
BRANCH   8  26
ATOM     26  O   UNL     1      20.036  95.502 115.554  1.00  0.00    -0.508 OA
ATOM     27  H   UNL     1      20.314  95.889 114.660  1.00  0.00     0.293 HD
ENDBRANCH   8  26
TORSDOF 6
ENDMDL
