MODEL 1
REMARK VINA RESULT:    -4.870      0.000      0.000
REMARK INTER + INTRA:         -11.661
REMARK INTER:                  -9.426
REMARK INTRA:                  -2.235
REMARK UNBOUND:                -2.235
REMARK SMILES CCCCCCCCCCCCCCCCCC(=O)[O-]
REMARK SMILES IDX 10 1 11 2 12 3 13 4 14 5 15 6 16 7 17 8 18 9 19 10 20 11
REMARK SMILES IDX 9 12 8 13 7 14 6 15 5 16 4 17 3 18 2 19 1 20
REMARK H PARENT
REMARK Flexibility Score: inf
ROOT
ATOM      1  C   UNL     1     160.561 162.020 158.922  1.00  0.00     0.000 C 
ENDROOT
BRANCH   1   2
ATOM      2  C   UNL     1     162.009 162.521 158.756  1.00  0.00     0.000 C 
BRANCH   2   3
ATOM      3  C   UNL     1     162.149 163.943 158.176  1.00  0.00     0.000 C 
BRANCH   3   4
ATOM      4  C   UNL     1     163.594 164.460 158.066  1.00  0.00     0.000 C 
BRANCH   4   5
ATOM      5  C   UNL     1     163.684 165.995 158.097  1.00  0.00     0.000 C 
BRANCH   5   6
ATOM      6  C   UNL     1     162.356 166.666 157.679  1.00  0.00     0.000 C 
BRANCH   6   7
ATOM      7  C   UNL     1     162.222 166.861 156.157  1.00  0.00     0.006 C 
BRANCH   7   8
ATOM      8  C   UNL     1     160.848 166.467 155.597  1.00  0.00     0.053 C 
BRANCH   8   9
ATOM      9  C   UNL     1     160.706 166.830 154.150  1.00  0.00     0.041 C 
ATOM     10  O   UNL     1     161.646 166.598 153.344  1.00  0.00    -0.550 OA
ATOM     11  O   UNL     1     159.535 167.417 153.688  1.00  0.00    -0.550 OA
ENDBRANCH   8   9
ENDBRANCH   7   8
ENDBRANCH   6   7
ENDBRANCH   5   6
ENDBRANCH   4   5
ENDBRANCH   3   4
ENDBRANCH   2   3
ENDBRANCH   1   2
BRANCH   1  12
ATOM     12  C   UNL     1     159.492 162.892 158.239  1.00  0.00     0.000 C 
BRANCH  12  13
ATOM     13  C   UNL     1     158.202 163.009 159.064  1.00  0.00    -0.000 C 
BRANCH  13  14
ATOM     14  C   UNL     1     158.309 164.144 160.093  1.00  0.00    -0.000 C 
BRANCH  14  15
ATOM     15  C   UNL     1     159.256 165.271 159.646  1.00  0.00    -0.000 C 
BRANCH  15  16
ATOM     16  C   UNL     1     159.549 166.308 160.751  1.00  0.00    -0.000 C 
BRANCH  16  17
ATOM     17  C   UNL     1     161.050 166.402 161.079  1.00  0.00    -0.000 C 
BRANCH  17  18
ATOM     18  C   UNL     1     161.600 165.094 161.688  1.00  0.00    -0.000 C 
BRANCH  18  19
ATOM     19  C   UNL     1     160.941 164.711 163.025  1.00  0.00    -0.003 C 
ATOM     20  C   UNL     1     161.747 163.683 163.815  1.00  0.00     0.004 C 
ENDBRANCH  18  19
ENDBRANCH  17  18
ENDBRANCH  16  17
ENDBRANCH  15  16
ENDBRANCH  14  15
ENDBRANCH  13  14
ENDBRANCH  12  13
ENDBRANCH   1  12
TORSDOF 16
ENDMDL
MODEL 2
REMARK VINA RESULT:    -4.846      3.076      4.607
REMARK INTER + INTRA:         -11.613
REMARK INTER:                 -10.011
REMARK INTRA:                  -1.602
REMARK UNBOUND:                -2.235
REMARK SMILES CCCCCCCCCCCCCCCCCC(=O)[O-]
REMARK SMILES IDX 10 1 11 2 12 3 13 4 14 5 15 6 16 7 17 8 18 9 19 10 20 11
REMARK SMILES IDX 9 12 8 13 7 14 6 15 5 16 4 17 3 18 2 19 1 20
REMARK H PARENT
REMARK Flexibility Score: inf
ROOT
ATOM      1  C   UNL     1     163.618 166.444 158.579  1.00  0.00     0.000 C 
ENDROOT
BRANCH   1   2
ATOM      2  C   UNL     1     164.295 165.063 158.467  1.00  0.00     0.000 C 
BRANCH   2   3
ATOM      3  C   UNL     1     163.442 163.967 157.799  1.00  0.00     0.000 C 
BRANCH   3   4
ATOM      4  C   UNL     1     163.812 162.526 158.190  1.00  0.00     0.000 C 
BRANCH   4   5
ATOM      5  C   UNL     1     162.636 161.754 158.812  1.00  0.00     0.000 C 
BRANCH   5   6
ATOM      6  C   UNL     1     161.304 162.031 158.080  1.00  0.00     0.000 C 
BRANCH   6   7
ATOM      7  C   UNL     1     160.142 162.373 159.031  1.00  0.00     0.006 C 
BRANCH   7   8
ATOM      8  C   UNL     1     159.137 163.379 158.452  1.00  0.00     0.053 C 
BRANCH   8   9
ATOM      9  C   UNL     1     157.719 162.962 158.700  1.00  0.00     0.041 C 
ATOM     10  O   UNL     1     156.981 163.648 159.455  1.00  0.00    -0.550 OA
ATOM     11  O   UNL     1     157.211 161.821 158.093  1.00  0.00    -0.550 OA
ENDBRANCH   8   9
ENDBRANCH   7   8
ENDBRANCH   6   7
ENDBRANCH   5   6
ENDBRANCH   4   5
ENDBRANCH   3   4
ENDBRANCH   2   3
ENDBRANCH   1   2
BRANCH   1  12
ATOM     12  C   UNL     1     163.219 166.855 160.008  1.00  0.00     0.000 C 
BRANCH  12  13
ATOM     13  C   UNL     1     162.486 168.203 160.058  1.00  0.00    -0.000 C 
BRANCH  13  14
ATOM     14  C   UNL     1     161.040 168.025 160.542  1.00  0.00    -0.000 C 
BRANCH  14  15
ATOM     15  C   UNL     1     160.305 166.880 159.825  1.00  0.00    -0.000 C 
BRANCH  15  16
ATOM     16  C   UNL     1     159.044 166.391 160.570  1.00  0.00    -0.000 C 
BRANCH  16  17
ATOM     17  C   UNL     1     159.317 165.134 161.416  1.00  0.00    -0.000 C 
BRANCH  17  18
ATOM     18  C   UNL     1     160.225 165.429 162.628  1.00  0.00    -0.000 C 
BRANCH  18  19
ATOM     19  C   UNL     1     161.491 164.555 162.678  1.00  0.00    -0.003 C 
ATOM     20  C   UNL     1     161.616 163.757 163.974  1.00  0.00     0.004 C 
ENDBRANCH  18  19
ENDBRANCH  17  18
ENDBRANCH  16  17
ENDBRANCH  15  16
ENDBRANCH  14  15
ENDBRANCH  13  14
ENDBRANCH  12  13
ENDBRANCH   1  12
TORSDOF 16
ENDMDL
MODEL 3
REMARK VINA RESULT:    -4.695      2.393      6.119
REMARK INTER + INTRA:         -11.322
REMARK INTER:                  -9.557
REMARK INTRA:                  -1.764
REMARK UNBOUND:                -2.235
REMARK SMILES CCCCCCCCCCCCCCCCCC(=O)[O-]
REMARK SMILES IDX 10 1 11 2 12 3 13 4 14 5 15 6 16 7 17 8 18 9 19 10 20 11
REMARK SMILES IDX 9 12 8 13 7 14 6 15 5 16 4 17 3 18 2 19 1 20
REMARK H PARENT
REMARK Flexibility Score: inf
ROOT
ATOM      1  C   UNL     1     162.744 162.568 158.549  1.00  0.00     0.000 C 
ENDROOT
BRANCH   1   2
ATOM      2  C   UNL     1     161.378 161.972 158.153  1.00  0.00     0.000 C 
BRANCH   2   3
ATOM      3  C   UNL     1     160.228 162.992 158.032  1.00  0.00     0.000 C 
BRANCH   3   4
ATOM      4  C   UNL     1     159.223 162.978 159.198  1.00  0.00     0.000 C 
BRANCH   4   5
ATOM      5  C   UNL     1     158.934 164.382 159.755  1.00  0.00     0.000 C 
BRANCH   5   6
ATOM      6  C   UNL     1     159.502 164.573 161.179  1.00  0.00     0.000 C 
BRANCH   6   7
ATOM      7  C   UNL     1     159.456 166.034 161.666  1.00  0.00     0.006 C 
BRANCH   7   8
ATOM      8  C   UNL     1     160.808 166.757 161.593  1.00  0.00     0.053 C 
BRANCH   8   9
ATOM      9  C   UNL     1     160.810 167.841 160.558  1.00  0.00     0.041 C 
ATOM     10  O   UNL     1     159.870 167.921 159.724  1.00  0.00    -0.550 OA
ATOM     11  O   UNL     1     161.845 168.767 160.518  1.00  0.00    -0.550 OA
ENDBRANCH   8   9
ENDBRANCH   7   8
ENDBRANCH   6   7
ENDBRANCH   5   6
ENDBRANCH   4   5
ENDBRANCH   3   4
ENDBRANCH   2   3
ENDBRANCH   1   2
BRANCH   1  12
ATOM     12  C   UNL     1     162.703 164.042 158.992  1.00  0.00     0.000 C 
BRANCH  12  13
ATOM     13  C   UNL     1     163.628 164.940 158.157  1.00  0.00    -0.000 C 
BRANCH  13  14
ATOM     14  C   UNL     1     163.483 166.412 158.570  1.00  0.00    -0.000 C 
BRANCH  14  15
ATOM     15  C   UNL     1     163.155 167.337 157.386  1.00  0.00    -0.000 C 
BRANCH  15  16
ATOM     16  C   UNL     1     162.617 166.589 156.147  1.00  0.00    -0.000 C 
BRANCH  16  17
ATOM     17  C   UNL     1     161.091 166.399 156.197  1.00  0.00    -0.000 C 
BRANCH  17  18
ATOM     18  C   UNL     1     160.422 166.659 154.831  1.00  0.00    -0.000 C 
BRANCH  18  19
ATOM     19  C   UNL     1     161.420 166.738 153.662  1.00  0.00    -0.003 C 
ATOM     20  C   UNL     1     160.889 167.542 152.477  1.00  0.00     0.004 C 
ENDBRANCH  18  19
ENDBRANCH  17  18
ENDBRANCH  16  17
ENDBRANCH  15  16
ENDBRANCH  14  15
ENDBRANCH  13  14
ENDBRANCH  12  13
ENDBRANCH   1  12
TORSDOF 16
ENDMDL
MODEL 4
REMARK VINA RESULT:    -4.619      1.896      3.726
REMARK INTER + INTRA:         -11.174
REMARK INTER:                  -8.958
REMARK INTRA:                  -2.217
REMARK UNBOUND:                -2.235
REMARK SMILES CCCCCCCCCCCCCCCCCC(=O)[O-]
REMARK SMILES IDX 10 1 11 2 12 3 13 4 14 5 15 6 16 7 17 8 18 9 19 10 20 11
REMARK SMILES IDX 9 12 8 13 7 14 6 15 5 16 4 17 3 18 2 19 1 20
REMARK H PARENT
REMARK Flexibility Score: inf
ROOT
ATOM      1  C   UNL     1     163.799 164.625 158.539  1.00  0.00     0.000 C 
ENDROOT
BRANCH   1   2
ATOM      2  C   UNL     1     162.377 164.057 158.722  1.00  0.00     0.000 C 
BRANCH   2   3
ATOM      3  C   UNL     1     161.455 164.191 157.495  1.00  0.00     0.000 C 
BRANCH   3   4
ATOM      4  C   UNL     1     160.674 165.515 157.410  1.00  0.00     0.000 C 
BRANCH   4   5
ATOM      5  C   UNL     1     161.324 166.533 156.459  1.00  0.00     0.000 C 
BRANCH   5   6
ATOM      6  C   UNL     1     160.651 166.545 155.068  1.00  0.00     0.000 C 
BRANCH   6   7
ATOM      7  C   UNL     1     161.621 166.887 153.921  1.00  0.00     0.006 C 
BRANCH   7   8
ATOM      8  C   UNL     1     161.165 166.376 152.547  1.00  0.00     0.053 C 
BRANCH   8   9
ATOM      9  C   UNL     1     162.320 165.932 151.702  1.00  0.00     0.041 C 
ATOM     10  O   UNL     1     162.152 165.067 150.802  1.00  0.00    -0.550 OA
ATOM     11  O   UNL     1     163.582 166.478 151.901  1.00  0.00    -0.550 OA
ENDBRANCH   8   9
ENDBRANCH   7   8
ENDBRANCH   6   7
ENDBRANCH   5   6
ENDBRANCH   4   5
ENDBRANCH   3   4
ENDBRANCH   2   3
ENDBRANCH   1   2
BRANCH   1  12
ATOM     12  C   UNL     1     163.927 166.139 158.782  1.00  0.00     0.000 C 
BRANCH  12  13
ATOM     13  C   UNL     1     163.274 166.589 160.097  1.00  0.00    -0.000 C 
BRANCH  13  14
ATOM     14  C   UNL     1     162.427 167.852 159.886  1.00  0.00    -0.000 C 
BRANCH  14  15
ATOM     15  C   UNL     1     160.983 167.697 160.392  1.00  0.00    -0.000 C 
BRANCH  15  16
ATOM     16  C   UNL     1     160.706 166.336 161.067  1.00  0.00    -0.000 C 
BRANCH  16  17
ATOM     17  C   UNL     1     159.230 166.177 161.474  1.00  0.00    -0.000 C 
BRANCH  17  18
ATOM     18  C   UNL     1     158.417 165.379 160.434  1.00  0.00    -0.000 C 
BRANCH  18  19
ATOM     19  C   UNL     1     158.959 163.960 160.185  1.00  0.00    -0.003 C 
ATOM     20  C   UNL     1     158.200 163.214 159.090  1.00  0.00     0.004 C 
ENDBRANCH  18  19
ENDBRANCH  17  18
ENDBRANCH  16  17
ENDBRANCH  15  16
ENDBRANCH  14  15
ENDBRANCH  13  14
ENDBRANCH  12  13
ENDBRANCH   1  12
TORSDOF 16
ENDMDL
MODEL 5
REMARK VINA RESULT:    -4.583      3.337      6.028
REMARK INTER + INTRA:         -11.105
REMARK INTER:                  -9.058
REMARK INTRA:                  -2.047
REMARK UNBOUND:                -2.235
REMARK SMILES CCCCCCCCCCCCCCCCCC(=O)[O-]
REMARK SMILES IDX 10 1 11 2 12 3 13 4 14 5 15 6 16 7 17 8 18 9 19 10 20 11
REMARK SMILES IDX 9 12 8 13 7 14 6 15 5 16 4 17 3 18 2 19 1 20
REMARK H PARENT
REMARK Flexibility Score: inf
ROOT
ATOM      1  C   UNL     1     159.114 162.476 157.880  1.00  0.00     0.000 C 
ENDROOT
BRANCH   1   2
ATOM      2  C   UNL     1     158.123 162.880 158.991  1.00  0.00     0.000 C 
BRANCH   2   3
ATOM      3  C   UNL     1     158.667 163.893 160.017  1.00  0.00     0.000 C 
BRANCH   3   4
ATOM      4  C   UNL     1     157.841 165.185 160.155  1.00  0.00     0.000 C 
BRANCH   4   5
ATOM      5  C   UNL     1     158.690 166.396 160.574  1.00  0.00     0.000 C 
BRANCH   5   6
ATOM      6  C   UNL     1     160.084 166.391 159.908  1.00  0.00     0.000 C 
BRANCH   6   7
ATOM      7  C   UNL     1     161.245 166.331 160.919  1.00  0.00     0.006 C 
BRANCH   7   8
ATOM      8  C   UNL     1     161.627 164.906 161.345  1.00  0.00     0.053 C 
BRANCH   8   9
ATOM      9  C   UNL     1     161.247 164.625 162.767  1.00  0.00     0.041 C 
ATOM     10  O   UNL     1     160.289 165.244 163.301  1.00  0.00    -0.550 OA
ATOM     11  O   UNL     1     161.946 163.676 163.503  1.00  0.00    -0.550 OA
ENDBRANCH   8   9
ENDBRANCH   7   8
ENDBRANCH   6   7
ENDBRANCH   5   6
ENDBRANCH   4   5
ENDBRANCH   3   4
ENDBRANCH   2   3
ENDBRANCH   1   2
BRANCH   1  12
ATOM     12  C   UNL     1     160.586 162.822 158.169  1.00  0.00     0.000 C 
BRANCH  12  13
ATOM     13  C   UNL     1     161.253 161.831 159.133  1.00  0.00    -0.000 C 
BRANCH  13  14
ATOM     14  C   UNL     1     162.783 161.908 159.029  1.00  0.00    -0.000 C 
BRANCH  14  15
ATOM     15  C   UNL     1     163.260 162.807 157.876  1.00  0.00    -0.000 C 
BRANCH  15  16
ATOM     16  C   UNL     1     164.315 163.852 158.302  1.00  0.00    -0.000 C 
BRANCH  16  17
ATOM     17  C   UNL     1     163.821 165.295 158.099  1.00  0.00    -0.000 C 
BRANCH  17  18
ATOM     18  C   UNL     1     162.399 165.349 157.501  1.00  0.00    -0.000 C 
BRANCH  18  19
ATOM     19  C   UNL     1     162.073 166.683 156.805  1.00  0.00    -0.003 C 
ATOM     20  C   UNL     1     161.252 166.507 155.530  1.00  0.00     0.004 C 
ENDBRANCH  18  19
ENDBRANCH  17  18
ENDBRANCH  16  17
ENDBRANCH  15  16
ENDBRANCH  14  15
ENDBRANCH  13  14
ENDBRANCH  12  13
ENDBRANCH   1  12
TORSDOF 16
ENDMDL
MODEL 6
REMARK VINA RESULT:    -4.475      2.954      6.838
REMARK INTER + INTRA:         -10.895
REMARK INTER:                  -8.954
REMARK INTRA:                  -1.941
REMARK UNBOUND:                -2.235
REMARK SMILES CCCCCCCCCCCCCCCCCC(=O)[O-]
REMARK SMILES IDX 10 1 11 2 12 3 13 4 14 5 15 6 16 7 17 8 18 9 19 10 20 11
REMARK SMILES IDX 9 12 8 13 7 14 6 15 5 16 4 17 3 18 2 19 1 20
REMARK H PARENT
REMARK Flexibility Score: inf
ROOT
ATOM      1  C   UNL     1     163.138 166.255 158.967  1.00  0.00     0.000 C 
ENDROOT
BRANCH   1   2
ATOM      2  C   UNL     1     162.687 167.690 159.305  1.00  0.00     0.000 C 
BRANCH   2   3
ATOM      3  C   UNL     1     161.605 167.796 160.398  1.00  0.00     0.000 C 
BRANCH   3   4
ATOM      4  C   UNL     1     160.156 167.704 159.889  1.00  0.00     0.000 C 
BRANCH   4   5
ATOM      5  C   UNL     1     159.377 166.532 160.510  1.00  0.00     0.000 C 
BRANCH   5   6
ATOM      6  C   UNL     1     160.301 165.556 161.272  1.00  0.00     0.000 C 
BRANCH   6   7
ATOM      7  C   UNL     1     160.552 164.236 160.518  1.00  0.00     0.006 C 
BRANCH   7   8
ATOM      8  C   UNL     1     159.936 164.195 159.112  1.00  0.00     0.053 C 
BRANCH   8   9
ATOM      9  C   UNL     1     159.197 162.915 158.860  1.00  0.00     0.041 C 
ATOM     10  O   UNL     1     159.829 161.833 158.742  1.00  0.00    -0.550 OA
ATOM     11  O   UNL     1     157.811 162.916 158.763  1.00  0.00    -0.550 OA
ENDBRANCH   8   9
ENDBRANCH   7   8
ENDBRANCH   6   7
ENDBRANCH   5   6
ENDBRANCH   4   5
ENDBRANCH   3   4
ENDBRANCH   2   3
ENDBRANCH   1   2
BRANCH   1  12
ATOM     12  C   UNL     1     163.160 165.920 157.464  1.00  0.00     0.000 C 
BRANCH  12  13
ATOM     13  C   UNL     1     162.274 166.859 156.632  1.00  0.00    -0.000 C 
BRANCH  13  14
ATOM     14  C   UNL     1     161.041 166.118 156.097  1.00  0.00    -0.000 C 
BRANCH  14  15
ATOM     15  C   UNL     1     160.379 166.836 154.908  1.00  0.00    -0.000 C 
BRANCH  15  16
ATOM     16  C   UNL     1     160.917 166.383 153.534  1.00  0.00    -0.000 C 
BRANCH  16  17
ATOM     17  C   UNL     1     161.648 167.516 152.792  1.00  0.00    -0.000 C 
BRANCH  17  18
ATOM     18  C   UNL     1     163.038 167.081 152.281  1.00  0.00    -0.000 C 
BRANCH  18  19
ATOM     19  C   UNL     1     164.206 167.714 153.058  1.00  0.00    -0.003 C 
ATOM     20  C   UNL     1     165.569 167.163 152.643  1.00  0.00     0.004 C 
ENDBRANCH  18  19
ENDBRANCH  17  18
ENDBRANCH  16  17
ENDBRANCH  15  16
ENDBRANCH  14  15
ENDBRANCH  13  14
ENDBRANCH  12  13
ENDBRANCH   1  12
TORSDOF 16
ENDMDL
MODEL 7
REMARK VINA RESULT:    -4.471      3.583      6.556
REMARK INTER + INTRA:         -10.888
REMARK INTER:                  -9.048
REMARK INTRA:                  -1.840
REMARK UNBOUND:                -2.235
REMARK SMILES CCCCCCCCCCCCCCCCCC(=O)[O-]
REMARK SMILES IDX 10 1 11 2 12 3 13 4 14 5 15 6 16 7 17 8 18 9 19 10 20 11
REMARK SMILES IDX 9 12 8 13 7 14 6 15 5 16 4 17 3 18 2 19 1 20
REMARK H PARENT
REMARK Flexibility Score: inf
ROOT
ATOM      1  C   UNL     1     161.439 162.138 158.552  1.00  0.00     0.000 C 
ENDROOT
BRANCH   1   2
ATOM      2  C   UNL     1     159.950 162.102 158.153  1.00  0.00     0.000 C 
BRANCH   2   3
ATOM      3  C   UNL     1     159.193 163.434 158.325  1.00  0.00     0.000 C 
BRANCH   3   4
ATOM      4  C   UNL     1     159.137 163.968 159.768  1.00  0.00     0.000 C 
BRANCH   4   5
ATOM      5  C   UNL     1     159.736 165.377 159.908  1.00  0.00     0.000 C 
BRANCH   5   6
ATOM      6  C   UNL     1     159.230 166.102 161.175  1.00  0.00     0.000 C 
BRANCH   6   7
ATOM      7  C   UNL     1     160.270 166.146 162.312  1.00  0.00     0.006 C 
BRANCH   7   8
ATOM      8  C   UNL     1     161.303 165.011 162.255  1.00  0.00     0.053 C 
BRANCH   8   9
ATOM      9  C   UNL     1     161.304 164.191 163.509  1.00  0.00     0.041 C 
ATOM     10  O   UNL     1     162.142 163.262 163.657  1.00  0.00    -0.550 OA
ATOM     11  O   UNL     1     160.386 164.455 164.518  1.00  0.00    -0.550 OA
ENDBRANCH   8   9
ENDBRANCH   7   8
ENDBRANCH   6   7
ENDBRANCH   5   6
ENDBRANCH   4   5
ENDBRANCH   3   4
ENDBRANCH   2   3
ENDBRANCH   1   2
BRANCH   1  12
ATOM     12  C   UNL     1     162.268 163.234 157.859  1.00  0.00     0.000 C 
BRANCH  12  13
ATOM     13  C   UNL     1     163.607 163.502 158.562  1.00  0.00    -0.000 C 
BRANCH  13  14
ATOM     14  C   UNL     1     164.126 164.910 158.237  1.00  0.00    -0.000 C 
BRANCH  14  15
ATOM     15  C   UNL     1     163.146 166.020 158.654  1.00  0.00    -0.000 C 
BRANCH  15  16
ATOM     16  C   UNL     1     163.138 167.231 157.697  1.00  0.00    -0.000 C 
BRANCH  16  17
ATOM     17  C   UNL     1     162.634 166.860 156.290  1.00  0.00    -0.000 C 
BRANCH  17  18
ATOM     18  C   UNL     1     161.151 166.435 156.293  1.00  0.00    -0.000 C 
BRANCH  18  19
ATOM     19  C   UNL     1     160.495 166.478 154.901  1.00  0.00    -0.003 C 
ATOM     20  C   UNL     1     161.461 166.902 153.797  1.00  0.00     0.004 C 
ENDBRANCH  18  19
ENDBRANCH  17  18
ENDBRANCH  16  17
ENDBRANCH  15  16
ENDBRANCH  14  15
ENDBRANCH  13  14
ENDBRANCH  12  13
ENDBRANCH   1  12
TORSDOF 16
ENDMDL
MODEL 8
REMARK VINA RESULT:    -4.467      1.170      2.379
REMARK INTER + INTRA:         -10.880
REMARK INTER:                  -9.222
REMARK INTRA:                  -1.658
REMARK UNBOUND:                -2.235
REMARK SMILES CCCCCCCCCCCCCCCCCC(=O)[O-]
REMARK SMILES IDX 10 1 11 2 12 3 13 4 14 5 15 6 16 7 17 8 18 9 19 10 20 11
REMARK SMILES IDX 9 12 8 13 7 14 6 15 5 16 4 17 3 18 2 19 1 20
REMARK H PARENT
REMARK Flexibility Score: inf
ROOT
ATOM      1  C   UNL     1     162.448 164.204 158.296  1.00  0.00     0.000 C 
ENDROOT
BRANCH   1   2
ATOM      2  C   UNL     1     163.096 165.440 158.953  1.00  0.00     0.000 C 
BRANCH   2   3
ATOM      3  C   UNL     1     163.470 166.578 157.982  1.00  0.00     0.000 C 
BRANCH   3   4
ATOM      4  C   UNL     1     162.744 166.540 156.626  1.00  0.00     0.000 C 
BRANCH   4   5
ATOM      5  C   UNL     1     161.213 166.514 156.768  1.00  0.00     0.000 C 
BRANCH   5   6
ATOM      6  C   UNL     1     160.517 165.993 155.491  1.00  0.00     0.000 C 
BRANCH   6   7
ATOM      7  C   UNL     1     160.610 166.967 154.302  1.00  0.00     0.006 C 
BRANCH   7   8
ATOM      8  C   UNL     1     160.911 166.286 152.960  1.00  0.00     0.053 C 
BRANCH   8   9
ATOM      9  C   UNL     1     162.233 166.714 152.397  1.00  0.00     0.041 C 
ATOM     10  O   UNL     1     162.732 167.822 152.726  1.00  0.00    -0.550 OA
ATOM     11  O   UNL     1     162.918 165.887 151.515  1.00  0.00    -0.550 OA
ENDBRANCH   8   9
ENDBRANCH   7   8
ENDBRANCH   6   7
ENDBRANCH   5   6
ENDBRANCH   4   5
ENDBRANCH   3   4
ENDBRANCH   2   3
ENDBRANCH   1   2
BRANCH   1  12
ATOM     12  C   UNL     1     161.934 163.141 159.284  1.00  0.00     0.000 C 
BRANCH  12  13
ATOM     13  C   UNL     1     160.564 162.573 158.887  1.00  0.00    -0.000 C 
BRANCH  13  14
ATOM     14  C   UNL     1     159.517 163.690 158.773  1.00  0.00    -0.000 C 
BRANCH  14  15
ATOM     15  C   UNL     1     159.061 164.225 160.141  1.00  0.00    -0.000 C 
BRANCH  15  16
ATOM     16  C   UNL     1     159.173 165.758 160.276  1.00  0.00    -0.000 C 
BRANCH  16  17
ATOM     17  C   UNL     1     160.288 166.178 161.251  1.00  0.00    -0.000 C 
BRANCH  17  18
ATOM     18  C   UNL     1     160.312 165.307 162.524  1.00  0.00    -0.000 C 
BRANCH  18  19
ATOM     19  C   UNL     1     161.576 164.438 162.653  1.00  0.00    -0.003 C 
ATOM     20  C   UNL     1     161.648 163.680 163.976  1.00  0.00     0.004 C 
ENDBRANCH  18  19
ENDBRANCH  17  18
ENDBRANCH  16  17
ENDBRANCH  15  16
ENDBRANCH  14  15
ENDBRANCH  13  14
ENDBRANCH  12  13
ENDBRANCH   1  12
TORSDOF 16
ENDMDL
MODEL 9
REMARK VINA RESULT:    -4.446      1.536      3.626
REMARK INTER + INTRA:         -10.838
REMARK INTER:                  -9.034
REMARK INTRA:                  -1.805
REMARK UNBOUND:                -2.235
REMARK SMILES CCCCCCCCCCCCCCCCCC(=O)[O-]
REMARK SMILES IDX 10 1 11 2 12 3 13 4 14 5 15 6 16 7 17 8 18 9 19 10 20 11
REMARK SMILES IDX 9 12 8 13 7 14 6 15 5 16 4 17 3 18 2 19 1 20
REMARK H PARENT
REMARK Flexibility Score: inf
ROOT
ATOM      1  C   UNL     1     160.604 167.639 160.469  1.00  0.00     0.000 C 
ENDROOT
BRANCH   1   2
ATOM      2  C   UNL     1     161.973 167.887 159.804  1.00  0.00     0.000 C 
BRANCH   2   3
ATOM      3  C   UNL     1     162.982 166.729 159.930  1.00  0.00     0.000 C 
BRANCH   3   4
ATOM      4  C   UNL     1     162.710 165.528 159.006  1.00  0.00     0.000 C 
BRANCH   4   5
ATOM      5  C   UNL     1     161.706 165.849 157.886  1.00  0.00     0.000 C 
BRANCH   5   6
ATOM      6  C   UNL     1     162.393 166.465 156.647  1.00  0.00     0.000 C 
BRANCH   6   7
ATOM      7  C   UNL     1     161.426 166.717 155.474  1.00  0.00     0.006 C 
BRANCH   7   8
ATOM      8  C   UNL     1     162.128 167.022 154.143  1.00  0.00     0.053 C 
BRANCH   8   9
ATOM      9  C   UNL     1     161.206 166.858 152.972  1.00  0.00     0.041 C 
ATOM     10  O   UNL     1     160.803 165.712 152.639  1.00  0.00    -0.550 OA
ATOM     11  O   UNL     1     160.786 167.970 152.253  1.00  0.00    -0.550 OA
ENDBRANCH   8   9
ENDBRANCH   7   8
ENDBRANCH   6   7
ENDBRANCH   5   6
ENDBRANCH   4   5
ENDBRANCH   3   4
ENDBRANCH   2   3
ENDBRANCH   1   2
BRANCH   1  12
ATOM     12  C   UNL     1     160.664 166.904 161.820  1.00  0.00     0.000 C 
BRANCH  12  13
ATOM     13  C   UNL     1     159.525 165.890 161.997  1.00  0.00    -0.000 C 
BRANCH  13  14
ATOM     14  C   UNL     1     158.688 165.774 160.716  1.00  0.00    -0.000 C 
BRANCH  14  15
ATOM     15  C   UNL     1     158.465 164.317 160.275  1.00  0.00    -0.000 C 
BRANCH  15  16
ATOM     16  C   UNL     1     159.755 163.607 159.809  1.00  0.00    -0.000 C 
BRANCH  16  17
ATOM     17  C   UNL     1     159.518 162.720 158.575  1.00  0.00    -0.000 C 
BRANCH  17  18
ATOM     18  C   UNL     1     160.839 162.219 157.951  1.00  0.00    -0.000 C 
BRANCH  18  19
ATOM     19  C   UNL     1     161.894 161.805 158.991  1.00  0.00    -0.003 C 
ATOM     20  C   UNL     1     163.326 161.937 158.476  1.00  0.00     0.004 C 
ENDBRANCH  18  19
ENDBRANCH  17  18
ENDBRANCH  16  17
ENDBRANCH  15  16
ENDBRANCH  14  15
ENDBRANCH  13  14
ENDBRANCH  12  13
ENDBRANCH   1  12
TORSDOF 16
ENDMDL
