MODEL 1
REMARK VINA RESULT:    -4.665      0.000      0.000
REMARK INTER + INTRA:          -6.358
REMARK INTER:                  -6.028
REMARK INTRA:                  -0.330
REMARK UNBOUND:                -0.330
REMARK SMILES CCO[C@H]1O[C@H](CO)[C@H](O)[C@H](O)[C@H]1O
REMARK SMILES IDX 4 1 13 2 11 3 9 4 6 5 5 6 3 7 2 8 1 9 14 10 12 12 7 14 8 15
REMARK SMILES IDX 10 17
REMARK H PARENT 14 11 12 13 8 16 10 18
REMARK Flexibility Score: inf
ROOT
ATOM      1  C   UNL     1      -4.455  -2.445  -6.801  1.00  0.00     0.281 C 
ATOM      2  C   UNL     1      -3.720  -2.201  -8.137  1.00  0.00     0.202 C 
ATOM      3  C   UNL     1      -3.594  -0.692  -8.416  1.00  0.00     0.179 C 
ATOM      4  C   UNL     1      -4.964  -0.014  -8.278  1.00  0.00     0.177 C 
ATOM      5  C   UNL     1      -5.573  -0.381  -6.906  1.00  0.00     0.178 C 
ATOM      6  O   UNL     1      -5.717  -1.788  -6.783  1.00  0.00    -0.341 OA
ENDROOT
BRANCH   1   7
ATOM      7  O   UNL     1      -3.641  -2.035  -5.712  1.00  0.00    -0.350 OA
BRANCH   7   8
ATOM      8  C   UNL     1      -3.315  -3.132  -4.878  1.00  0.00     0.160 C 
ATOM      9  C   UNL     1      -4.400  -4.199  -4.966  1.00  0.00     0.035 C 
ENDBRANCH   7   8
ENDBRANCH   1   7
BRANCH   2  10
ATOM     10  O   UNL     1      -2.441  -2.779  -8.098  1.00  0.00    -0.385 OA
ATOM     11  H   UNL     1      -2.559  -3.715  -7.788  1.00  0.00     0.211 HD
ENDBRANCH   2  10
BRANCH   3  12
ATOM     12  O   UNL     1      -3.095  -0.476  -9.711  1.00  0.00    -0.387 OA
ATOM     13  H   UNL     1      -3.868  -0.536 -10.331  1.00  0.00     0.211 HD
ENDBRANCH   3  12
BRANCH   5  14
ATOM     14  C   UNL     1      -6.943   0.278  -6.710  1.00  0.00     0.191 C 
BRANCH  14  15
ATOM     15  O   UNL     1      -7.927  -0.484  -7.354  1.00  0.00    -0.394 OA
ATOM     16  H   UNL     1      -8.010  -1.324  -6.831  1.00  0.00     0.210 HD
ENDBRANCH  14  15
ENDBRANCH   5  14
BRANCH   4  17
ATOM     17  O   UNL     1      -5.808  -0.439  -9.322  1.00  0.00    -0.387 OA
ATOM     18  H   UNL     1      -6.597  -0.871  -8.903  1.00  0.00     0.211 HD
ENDBRANCH   4  17
TORSDOF 7
ENDMDL
MODEL 2
REMARK VINA RESULT:    -4.407      1.956      2.388
REMARK INTER + INTRA:          -6.026
REMARK INTER:                  -5.592
REMARK INTRA:                  -0.434
REMARK UNBOUND:                -0.330
REMARK SMILES CCO[C@H]1O[C@H](CO)[C@H](O)[C@H](O)[C@H]1O
REMARK SMILES IDX 4 1 13 2 11 3 9 4 6 5 5 6 3 7 2 8 1 9 14 10 12 12 7 14 8 15
REMARK SMILES IDX 10 17
REMARK H PARENT 14 11 12 13 8 16 10 18
REMARK Flexibility Score: inf
ROOT
ATOM      1  C   UNL     1      -4.310  -1.262  -5.732  1.00  0.00     0.281 C 
ATOM      2  C   UNL     1      -5.105  -1.837  -6.925  1.00  0.00     0.202 C 
ATOM      3  C   UNL     1      -4.986  -0.911  -8.150  1.00  0.00     0.179 C 
ATOM      4  C   UNL     1      -5.330   0.532  -7.755  1.00  0.00     0.177 C 
ATOM      5  C   UNL     1      -4.474   0.939  -6.535  1.00  0.00     0.178 C 
ATOM      6  O   UNL     1      -4.716   0.069  -5.441  1.00  0.00    -0.341 OA
ENDROOT
BRANCH   1   7
ATOM      7  O   UNL     1      -2.916  -1.335  -5.992  1.00  0.00    -0.350 OA
BRANCH   7   8
ATOM      8  C   UNL     1      -2.226  -1.934  -4.910  1.00  0.00     0.160 C 
ATOM      9  C   UNL     1      -1.581  -3.240  -5.358  1.00  0.00     0.035 C 
ENDBRANCH   7   8
ENDBRANCH   1   7
BRANCH   2  10
ATOM     10  O   UNL     1      -4.625  -3.115  -7.255  1.00  0.00    -0.385 OA
ATOM     11  H   UNL     1      -5.066  -3.755  -6.637  1.00  0.00     0.211 HD
ENDBRANCH   2  10
BRANCH   3  12
ATOM     12  O   UNL     1      -5.854  -1.336  -9.168  1.00  0.00    -0.387 OA
ATOM     13  H   UNL     1      -6.162  -0.520  -9.643  1.00  0.00     0.211 HD
ENDBRANCH   3  12
BRANCH   5  14
ATOM     14  C   UNL     1      -4.771   2.379  -6.101  1.00  0.00     0.191 C 
BRANCH  14  15
ATOM     15  O   UNL     1      -5.306   3.093  -7.181  1.00  0.00    -0.394 OA
ATOM     16  H   UNL     1      -5.517   2.420  -7.879  1.00  0.00     0.210 HD
ENDBRANCH  14  15
ENDBRANCH   5  14
BRANCH   4  17
ATOM     17  O   UNL     1      -6.701   0.622  -7.447  1.00  0.00    -0.387 OA
ATOM     18  H   UNL     1      -7.164  -0.090  -7.961  1.00  0.00     0.211 HD
ENDBRANCH   4  17
TORSDOF 7
ENDMDL
MODEL 3
REMARK VINA RESULT:    -4.351      2.209      4.296
REMARK INTER + INTRA:          -5.953
REMARK INTER:                  -5.567
REMARK INTRA:                  -0.386
REMARK UNBOUND:                -0.330
REMARK SMILES CCO[C@H]1O[C@H](CO)[C@H](O)[C@H](O)[C@H]1O
REMARK SMILES IDX 4 1 13 2 11 3 9 4 6 5 5 6 3 7 2 8 1 9 14 10 12 12 7 14 8 15
REMARK SMILES IDX 10 17
REMARK H PARENT 14 11 12 13 8 16 10 18
REMARK Flexibility Score: inf
ROOT
ATOM      1  C   UNL     1      -2.579   0.235  -8.039  1.00  0.00     0.281 C 
ATOM      2  C   UNL     1      -3.632  -0.227  -9.070  1.00  0.00     0.202 C 
ATOM      3  C   UNL     1      -4.959  -0.570  -8.368  1.00  0.00     0.179 C 
ATOM      4  C   UNL     1      -4.705  -1.534  -7.200  1.00  0.00     0.177 C 
ATOM      5  C   UNL     1      -3.611  -0.939  -6.285  1.00  0.00     0.178 C 
ATOM      6  O   UNL     1      -2.409  -0.733  -7.011  1.00  0.00    -0.341 OA
ENDROOT
BRANCH   1   7
ATOM      7  O   UNL     1      -2.938   1.501  -7.506  1.00  0.00    -0.350 OA
BRANCH   7   8
ATOM      8  C   UNL     1      -1.791   2.247  -7.145  1.00  0.00     0.160 C 
ATOM      9  C   UNL     1      -2.184   3.676  -6.790  1.00  0.00     0.035 C 
ENDBRANCH   7   8
ENDBRANCH   1   7
BRANCH   2  10
ATOM     10  O   UNL     1      -3.852   0.781 -10.022  1.00  0.00    -0.385 OA
ATOM     11  H   UNL     1      -3.284   1.552  -9.759  1.00  0.00     0.211 HD
ENDBRANCH   2  10
BRANCH   3  12
ATOM     12  O   UNL     1      -5.851  -1.164  -9.277  1.00  0.00    -0.387 OA
ATOM     13  H   UNL     1      -5.973  -0.520 -10.023  1.00  0.00     0.211 HD
ENDBRANCH   3  12
BRANCH   5  14
ATOM     14  C   UNL     1      -3.321  -1.858  -5.093  1.00  0.00     0.191 C 
BRANCH  14  15
ATOM     15  O   UNL     1      -2.462  -2.889  -5.493  1.00  0.00    -0.394 OA
ATOM     16  H   UNL     1      -1.733  -2.917  -4.820  1.00  0.00     0.210 HD
ENDBRANCH  14  15
ENDBRANCH   5  14
BRANCH   4  17
ATOM     17  O   UNL     1      -4.301  -2.786  -7.701  1.00  0.00    -0.387 OA
ATOM     18  H   UNL     1      -3.573  -3.116  -7.113  1.00  0.00     0.211 HD
ENDBRANCH   4  17
TORSDOF 7
ENDMDL
MODEL 4
REMARK VINA RESULT:    -4.277      2.131      4.335
REMARK INTER + INTRA:          -5.857
REMARK INTER:                  -5.382
REMARK INTRA:                  -0.475
REMARK UNBOUND:                -0.330
REMARK SMILES CCO[C@H]1O[C@H](CO)[C@H](O)[C@H](O)[C@H]1O
REMARK SMILES IDX 4 1 13 2 11 3 9 4 6 5 5 6 3 7 2 8 1 9 14 10 12 12 7 14 8 15
REMARK SMILES IDX 10 17
REMARK H PARENT 14 11 12 13 8 16 10 18
REMARK Flexibility Score: inf
ROOT
ATOM      1  C   UNL     1      -4.615   1.200  -6.737  1.00  0.00     0.281 C 
ATOM      2  C   UNL     1      -6.143   1.154  -6.958  1.00  0.00     0.202 C 
ATOM      3  C   UNL     1      -6.634  -0.304  -7.021  1.00  0.00     0.179 C 
ATOM      4  C   UNL     1      -5.793  -1.101  -8.027  1.00  0.00     0.177 C 
ATOM      5  C   UNL     1      -4.296  -0.925  -7.685  1.00  0.00     0.178 C 
ATOM      6  O   UNL     1      -3.931   0.445  -7.729  1.00  0.00    -0.341 OA
ENDROOT
BRANCH   1   7
ATOM      7  O   UNL     1      -4.295   0.750  -5.429  1.00  0.00    -0.350 OA
BRANCH   7   8
ATOM      8  C   UNL     1      -3.232   1.504  -4.876  1.00  0.00     0.160 C 
ATOM      9  C   UNL     1      -3.354   2.965  -5.290  1.00  0.00     0.035 C 
ENDBRANCH   7   8
ENDBRANCH   1   7
BRANCH   2  10
ATOM     10  O   UNL     1      -6.802   1.827  -5.916  1.00  0.00    -0.385 OA
ATOM     11  H   UNL     1      -6.870   2.779  -6.189  1.00  0.00     0.211 HD
ENDBRANCH   2  10
BRANCH   3  12
ATOM     12  O   UNL     1      -7.985  -0.346  -7.405  1.00  0.00    -0.387 OA
ATOM     13  H   UNL     1      -8.121  -1.207  -7.882  1.00  0.00     0.211 HD
ENDBRANCH   3  12
BRANCH   5  14
ATOM     14  C   UNL     1      -3.406  -1.710  -8.656  1.00  0.00     0.191 C 
BRANCH  14  15
ATOM     15  O   UNL     1      -3.058  -0.892  -9.738  1.00  0.00    -0.394 OA
ATOM     16  H   UNL     1      -2.805  -0.014  -9.349  1.00  0.00     0.210 HD
ENDBRANCH  14  15
ENDBRANCH   5  14
BRANCH   4  17
ATOM     17  O   UNL     1      -6.057  -0.642  -9.331  1.00  0.00    -0.387 OA
ATOM     18  H   UNL     1      -5.853   0.329  -9.347  1.00  0.00     0.211 HD
ENDBRANCH   4  17
TORSDOF 7
ENDMDL
MODEL 5
REMARK VINA RESULT:    -4.273      1.764      2.267
REMARK INTER + INTRA:          -5.852
REMARK INTER:                  -5.426
REMARK INTRA:                  -0.426
REMARK UNBOUND:                -0.330
REMARK SMILES CCO[C@H]1O[C@H](CO)[C@H](O)[C@H](O)[C@H]1O
REMARK SMILES IDX 4 1 13 2 11 3 9 4 6 5 5 6 3 7 2 8 1 9 14 10 12 12 7 14 8 15
REMARK SMILES IDX 10 17
REMARK H PARENT 14 11 12 13 8 16 10 18
REMARK Flexibility Score: inf
ROOT
ATOM      1  C   UNL     1      -2.680  -1.962  -8.185  1.00  0.00     0.281 C 
ATOM      2  C   UNL     1      -2.743  -0.975  -9.371  1.00  0.00     0.202 C 
ATOM      3  C   UNL     1      -3.544   0.281  -8.985  1.00  0.00     0.179 C 
ATOM      4  C   UNL     1      -4.898  -0.121  -8.382  1.00  0.00     0.177 C 
ATOM      5  C   UNL     1      -4.660  -1.129  -7.235  1.00  0.00     0.178 C 
ATOM      6  O   UNL     1      -3.983  -2.280  -7.713  1.00  0.00    -0.341 OA
ENDROOT
BRANCH   1   7
ATOM      7  O   UNL     1      -1.868  -1.431  -7.148  1.00  0.00    -0.350 OA
BRANCH   7   8
ATOM      8  C   UNL     1      -1.172  -2.459  -6.467  1.00  0.00     0.160 C 
ATOM      9  C   UNL     1      -0.088  -3.042  -7.365  1.00  0.00     0.035 C 
ENDBRANCH   7   8
ENDBRANCH   1   7
BRANCH   2  10
ATOM     10  O   UNL     1      -1.445  -0.603  -9.760  1.00  0.00    -0.385 OA
ATOM     11  H   UNL     1      -0.932  -1.444  -9.885  1.00  0.00     0.211 HD
ENDBRANCH   2  10
BRANCH   3  12
ATOM     12  O   UNL     1      -3.758   1.088 -10.115  1.00  0.00    -0.387 OA
ATOM     13  H   UNL     1      -4.163   1.935  -9.790  1.00  0.00     0.211 HD
ENDBRANCH   3  12
BRANCH   5  14
ATOM     14  C   UNL     1      -5.981  -1.560  -6.589  1.00  0.00     0.191 C 
BRANCH  14  15
ATOM     15  O   UNL     1      -7.009  -0.708  -7.011  1.00  0.00    -0.394 OA
ATOM     16  H   UNL     1      -6.956  -0.682  -8.002  1.00  0.00     0.210 HD
ENDBRANCH  14  15
ENDBRANCH   5  14
BRANCH   4  17
ATOM     17  O   UNL     1      -5.707  -0.695  -9.381  1.00  0.00    -0.387 OA
ATOM     18  H   UNL     1      -6.150   0.051  -9.863  1.00  0.00     0.211 HD
ENDBRANCH   4  17
TORSDOF 7
ENDMDL
MODEL 6
REMARK VINA RESULT:    -4.255      1.280      3.399
REMARK INTER + INTRA:          -5.829
REMARK INTER:                  -5.445
REMARK INTRA:                  -0.384
REMARK UNBOUND:                -0.330
REMARK SMILES CCO[C@H]1O[C@H](CO)[C@H](O)[C@H](O)[C@H]1O
REMARK SMILES IDX 4 1 13 2 11 3 9 4 6 5 5 6 3 7 2 8 1 9 14 10 12 12 7 14 8 15
REMARK SMILES IDX 10 17
REMARK H PARENT 14 11 12 13 8 16 10 18
REMARK Flexibility Score: inf
ROOT
ATOM      1  C   UNL     1      -4.513  -1.575  -6.178  1.00  0.00     0.281 C 
ATOM      2  C   UNL     1      -5.480  -0.845  -7.136  1.00  0.00     0.202 C 
ATOM      3  C   UNL     1      -5.206  -1.256  -8.595  1.00  0.00     0.179 C 
ATOM      4  C   UNL     1      -3.712  -1.103  -8.914  1.00  0.00     0.177 C 
ATOM      5  C   UNL     1      -2.888  -1.863  -7.850  1.00  0.00     0.178 C 
ATOM      6  O   UNL     1      -3.159  -1.357  -6.553  1.00  0.00    -0.341 OA
ENDROOT
BRANCH   1   7
ATOM      7  O   UNL     1      -4.822  -2.960  -6.132  1.00  0.00    -0.350 OA
BRANCH   7   8
ATOM      8  C   UNL     1      -4.461  -3.523  -4.884  1.00  0.00     0.160 C 
ATOM      9  C   UNL     1      -4.475  -5.044  -4.971  1.00  0.00     0.035 C 
ENDBRANCH   7   8
ENDBRANCH   1   7
BRANCH   2  10
ATOM     10  O   UNL     1      -6.811  -1.150  -6.806  1.00  0.00    -0.385 OA
ATOM     11  H   UNL     1      -6.861  -2.136  -6.703  1.00  0.00     0.211 HD
ENDBRANCH   2  10
BRANCH   3  12
ATOM     12  O   UNL     1      -5.955  -0.457  -9.475  1.00  0.00    -0.387 OA
ATOM     13  H   UNL     1      -5.950   0.464  -9.102  1.00  0.00     0.211 HD
ENDBRANCH   3  12
BRANCH   5  14
ATOM     14  C   UNL     1      -1.385  -1.752  -8.125  1.00  0.00     0.191 C 
BRANCH  14  15
ATOM     15  O   UNL     1      -1.168  -1.629  -9.503  1.00  0.00    -0.394 OA
ATOM     16  H   UNL     1      -0.194  -1.470  -9.615  1.00  0.00     0.210 HD
ENDBRANCH  14  15
ENDBRANCH   5  14
BRANCH   4  17
ATOM     17  O   UNL     1      -3.368   0.262  -8.920  1.00  0.00    -0.387 OA
ATOM     18  H   UNL     1      -4.212   0.777  -8.826  1.00  0.00     0.211 HD
ENDBRANCH   4  17
TORSDOF 7
ENDMDL
MODEL 7
REMARK VINA RESULT:    -4.212      1.881      1.928
REMARK INTER + INTRA:          -5.774
REMARK INTER:                  -5.307
REMARK INTRA:                  -0.467
REMARK UNBOUND:                -0.330
REMARK SMILES CCO[C@H]1O[C@H](CO)[C@H](O)[C@H](O)[C@H]1O
REMARK SMILES IDX 4 1 13 2 11 3 9 4 6 5 5 6 3 7 2 8 1 9 14 10 12 12 7 14 8 15
REMARK SMILES IDX 10 17
REMARK H PARENT 14 11 12 13 8 16 10 18
REMARK Flexibility Score: inf
ROOT
ATOM      1  C   UNL     1      -3.629  -1.627  -7.274  1.00  0.00     0.281 C 
ATOM      2  C   UNL     1      -3.121  -1.848  -8.716  1.00  0.00     0.202 C 
ATOM      3  C   UNL     1      -2.251  -0.662  -9.169  1.00  0.00     0.179 C 
ATOM      4  C   UNL     1      -2.990   0.660  -8.920  1.00  0.00     0.177 C 
ATOM      5  C   UNL     1      -3.455   0.709  -7.447  1.00  0.00     0.178 C 
ATOM      6  O   UNL     1      -4.311  -0.384  -7.156  1.00  0.00    -0.341 OA
ENDROOT
BRANCH   1   7
ATOM      7  O   UNL     1      -2.550  -1.716  -6.355  1.00  0.00    -0.350 OA
BRANCH   7   8
ATOM      8  C   UNL     1      -2.929  -2.427  -5.191  1.00  0.00     0.160 C 
ATOM      9  C   UNL     1      -3.932  -3.518  -5.545  1.00  0.00     0.035 C 
ENDBRANCH   7   8
ENDBRANCH   1   7
BRANCH   2  10
ATOM     10  O   UNL     1      -2.372  -3.034  -8.788  1.00  0.00    -0.385 OA
ATOM     11  H   UNL     1      -3.001  -3.753  -9.059  1.00  0.00     0.211 HD
ENDBRANCH   2  10
BRANCH   3  12
ATOM     12  O   UNL     1      -1.945  -0.776 -10.535  1.00  0.00    -0.387 OA
ATOM     13  H   UNL     1      -2.808  -0.884 -11.015  1.00  0.00     0.211 HD
ENDBRANCH   3  12
BRANCH   5  14
ATOM     14  C   UNL     1      -4.194   2.016  -7.139  1.00  0.00     0.191 C 
BRANCH  14  15
ATOM     15  O   UNL     1      -5.564   1.846  -7.371  1.00  0.00    -0.394 OA
ATOM     16  H   UNL     1      -5.862   2.652  -7.868  1.00  0.00     0.210 HD
ENDBRANCH  14  15
ENDBRANCH   5  14
BRANCH   4  17
ATOM     17  O   UNL     1      -4.094   0.753  -9.789  1.00  0.00    -0.387 OA
ATOM     18  H   UNL     1      -4.456   1.673  -9.705  1.00  0.00     0.211 HD
ENDBRANCH   4  17
TORSDOF 7
ENDMDL
MODEL 8
REMARK VINA RESULT:    -4.187      1.834      3.964
REMARK INTER + INTRA:          -5.742
REMARK INTER:                  -5.257
REMARK INTRA:                  -0.484
REMARK UNBOUND:                -0.330
REMARK SMILES CCO[C@H]1O[C@H](CO)[C@H](O)[C@H](O)[C@H]1O
REMARK SMILES IDX 4 1 13 2 11 3 9 4 6 5 5 6 3 7 2 8 1 9 14 10 12 12 7 14 8 15
REMARK SMILES IDX 10 17
REMARK H PARENT 14 11 12 13 8 16 10 18
REMARK Flexibility Score: inf
ROOT
ATOM      1  C   UNL     1      -3.043  -1.220  -9.023  1.00  0.00     0.281 C 
ATOM      2  C   UNL     1      -4.115  -0.110  -8.964  1.00  0.00     0.202 C 
ATOM      3  C   UNL     1      -4.313   0.373  -7.515  1.00  0.00     0.179 C 
ATOM      4  C   UNL     1      -4.546  -0.828  -6.587  1.00  0.00     0.177 C 
ATOM      5  C   UNL     1      -3.407  -1.852  -6.791  1.00  0.00     0.178 C 
ATOM      6  O   UNL     1      -3.361  -2.288  -8.140  1.00  0.00    -0.341 OA
ENDROOT
BRANCH   1   7
ATOM      7  O   UNL     1      -1.761  -0.678  -8.742  1.00  0.00    -0.350 OA
BRANCH   7   8
ATOM      8  C   UNL     1      -0.760  -1.299  -9.527  1.00  0.00     0.160 C 
ATOM      9  C   UNL     1      -1.284  -1.558 -10.935  1.00  0.00     0.035 C 
ENDBRANCH   7   8
ENDBRANCH   1   7
BRANCH   2  10
ATOM     10  O   UNL     1      -3.735   0.974  -9.772  1.00  0.00    -0.385 OA
ATOM     11  H   UNL     1      -4.536   1.233 -10.298  1.00  0.00     0.211 HD
ENDBRANCH   2  10
BRANCH   3  12
ATOM     12  O   UNL     1      -5.412   1.243  -7.437  1.00  0.00    -0.387 OA
ATOM     13  H   UNL     1      -5.903   1.165  -8.298  1.00  0.00     0.211 HD
ENDBRANCH   3  12
BRANCH   5  14
ATOM     14  C   UNL     1      -3.584  -3.071  -5.879  1.00  0.00     0.191 C 
BRANCH  14  15
ATOM     15  O   UNL     1      -4.455  -3.986  -6.484  1.00  0.00    -0.394 OA
ATOM     16  H   UNL     1      -4.409  -3.807  -7.459  1.00  0.00     0.210 HD
ENDBRANCH  14  15
ENDBRANCH   5  14
BRANCH   4  17
ATOM     17  O   UNL     1      -5.793  -1.413  -6.877  1.00  0.00    -0.387 OA
ATOM     18  H   UNL     1      -6.203  -0.881  -7.607  1.00  0.00     0.211 HD
ENDBRANCH   4  17
TORSDOF 7
ENDMDL
MODEL 9
REMARK VINA RESULT:    -4.161      1.631      4.102
REMARK INTER + INTRA:          -5.708
REMARK INTER:                  -5.330
REMARK INTRA:                  -0.378
REMARK UNBOUND:                -0.330
REMARK SMILES CCO[C@H]1O[C@H](CO)[C@H](O)[C@H](O)[C@H]1O
REMARK SMILES IDX 4 1 13 2 11 3 9 4 6 5 5 6 3 7 2 8 1 9 14 10 12 12 7 14 8 15
REMARK SMILES IDX 10 17
REMARK H PARENT 14 11 12 13 8 16 10 18
REMARK Flexibility Score: inf
ROOT
ATOM      1  C   UNL     1      -3.812   0.155  -7.537  1.00  0.00     0.281 C 
ATOM      2  C   UNL     1      -3.044   0.148  -8.876  1.00  0.00     0.202 C 
ATOM      3  C   UNL     1      -2.902  -1.289  -9.409  1.00  0.00     0.179 C 
ATOM      4  C   UNL     1      -2.337  -2.204  -8.314  1.00  0.00     0.177 C 
ATOM      5  C   UNL     1      -3.197  -2.056  -7.039  1.00  0.00     0.178 C 
ATOM      6  O   UNL     1      -3.199  -0.710  -6.590  1.00  0.00    -0.341 OA
ENDROOT
BRANCH   1   7
ATOM      7  O   UNL     1      -5.173  -0.189  -7.750  1.00  0.00    -0.350 OA
BRANCH   7   8
ATOM      8  C   UNL     1      -6.012   0.420  -6.786  1.00  0.00     0.160 C 
ATOM      9  C   UNL     1      -7.475   0.215  -7.159  1.00  0.00     0.035 C 
ENDBRANCH   7   8
ENDBRANCH   1   7
BRANCH   2  10
ATOM     10  O   UNL     1      -3.718   0.935  -9.825  1.00  0.00    -0.385 OA
ATOM     11  H   UNL     1      -3.179   0.903 -10.658  1.00  0.00     0.211 HD
ENDBRANCH   2  10
BRANCH   3  12
ATOM     12  O   UNL     1      -2.048  -1.313 -10.524  1.00  0.00    -0.387 OA
ATOM     13  H   UNL     1      -1.160  -0.996 -10.213  1.00  0.00     0.211 HD
ENDBRANCH   3  12
BRANCH   5  14
ATOM     14  C   UNL     1      -2.682  -2.957  -5.911  1.00  0.00     0.191 C 
BRANCH  14  15
ATOM     15  O   UNL     1      -2.115  -4.115  -6.457  1.00  0.00    -0.394 OA
ATOM     16  H   UNL     1      -2.838  -4.794  -6.476  1.00  0.00     0.210 HD
ENDBRANCH  14  15
ENDBRANCH   5  14
BRANCH   4  17
ATOM     17  O   UNL     1      -1.000  -1.852  -8.049  1.00  0.00    -0.387 OA
ATOM     18  H   UNL     1      -0.512  -1.885  -8.913  1.00  0.00     0.211 HD
ENDBRANCH   4  17
TORSDOF 7
ENDMDL
