MODEL 1
REMARK VINA RESULT:    -3.387      0.000      0.000
REMARK INTER + INTRA:          -5.818
REMARK INTER:                  -4.773
REMARK INTRA:                  -1.045
REMARK UNBOUND:                -1.045
REMARK SMILES OC[C@H]1O[C@@H](O[C@H]2OC=C[C@H]3[C@H](O)[C@@H]4O[C@]4(CO)[C@@H]23)[C@H](O)[C@@H](O)[C@H]1O
REMARK SMILES IDX 6 1 7 2 10 3 9 4 11 5 8 6 19 7 12 8 16 9 14 10 15 11 13 12
REMARK SMILES IDX 17 14 18 15 5 17 20 18 4 19 22 20 3 21 24 22 21 23 23 25
REMARK SMILES IDX 2 27 1 28 25 30
REMARK H PARENT 13 13 18 16 21 24 23 26 1 29 25 31
REMARK Flexibility Score: inf
ROOT
ATOM      1  O   UNL     1     -22.073 -15.374 -10.123  1.00  0.00    -0.310 OA
ENDROOT
BRANCH   1   2
ATOM      2  C   UNL     1     -22.044 -14.564 -11.285  1.00  0.00     0.315 C 
ATOM      3  C   UNL     1     -21.644 -13.875 -13.999  1.00  0.00     0.018 C 
ATOM      4  C   UNL     1     -20.596 -14.157 -13.220  1.00  0.00     0.186 C 
ATOM      5  C   UNL     1     -23.077 -14.143 -13.563  1.00  0.00     0.059 C 
ATOM      6  O   UNL     1     -20.777 -14.657 -11.928  1.00  0.00    -0.472 OA
ATOM      7  C   UNL     1     -23.153 -14.978 -12.268  1.00  0.00     0.105 C 
ATOM      8  C   UNL     1     -23.789 -15.011 -14.616  1.00  0.00     0.154 C 
ATOM      9  C   UNL     1     -23.154 -16.440 -12.751  1.00  0.00     0.130 C 
ATOM     10  C   UNL     1     -23.571 -16.458 -14.174  1.00  0.00     0.183 C 
ATOM     11  O   UNL     1     -24.425 -16.911 -13.142  1.00  0.00    -0.360 OA
BRANCH   8  12
ATOM     12  O   UNL     1     -25.157 -14.706 -14.721  1.00  0.00    -0.390 OA
ATOM     13  H   UNL     1     -25.414 -14.127 -13.956  1.00  0.00     0.211 HD
ENDBRANCH   8  12
BRANCH   9  14
ATOM     14  C   UNL     1     -22.103 -17.505 -12.394  1.00  0.00     0.195 C 
BRANCH  14  15
ATOM     15  O   UNL     1     -22.408 -18.119 -11.168  1.00  0.00    -0.393 OA
ATOM     16  H   UNL     1     -21.568 -18.558 -10.862  1.00  0.00     0.210 HD
ENDBRANCH  14  15
ENDBRANCH   9  14
ENDBRANCH   1   2
BRANCH   1  17
ATOM     17  C   UNL     1     -23.197 -15.078  -9.305  1.00  0.00     0.286 C 
ATOM     18  C   UNL     1     -23.558 -16.273  -8.398  1.00  0.00     0.202 C 
ATOM     19  O   UNL     1     -22.970 -13.889  -8.558  1.00  0.00    -0.341 OA
ATOM     20  C   UNL     1     -22.459 -16.508  -7.348  1.00  0.00     0.179 C 
ATOM     21  C   UNL     1     -21.956 -13.999  -7.562  1.00  0.00     0.178 C 
ATOM     22  C   UNL     1     -22.162 -15.200  -6.600  1.00  0.00     0.177 C 
BRANCH  18  23
ATOM     23  O   UNL     1     -24.782 -16.008  -7.762  1.00  0.00    -0.385 OA
ATOM     24  H   UNL     1     -25.193 -16.885  -7.549  1.00  0.00     0.211 HD
ENDBRANCH  18  23
BRANCH  20  25
ATOM     25  O   UNL     1     -21.292 -17.004  -7.954  1.00  0.00    -0.387 OA
ATOM     26  H   UNL     1     -21.302 -16.689  -8.895  1.00  0.00     0.211 HD
ENDBRANCH  20  25
BRANCH  21  27
ATOM     27  C   UNL     1     -20.541 -13.879  -8.161  1.00  0.00     0.191 C 
BRANCH  27  28
ATOM     28  O   UNL     1     -19.582 -13.875  -7.144  1.00  0.00    -0.394 OA
ATOM     29  H   UNL     1     -19.564 -14.798  -6.773  1.00  0.00     0.210 HD
ENDBRANCH  27  28
ENDBRANCH  21  27
BRANCH  22  30
ATOM     30  O   UNL     1     -21.046 -15.357  -5.760  1.00  0.00    -0.387 OA
ATOM     31  H   UNL     1     -20.931 -16.333  -5.610  1.00  0.00     0.211 HD
ENDBRANCH  22  30
ENDBRANCH   1  17
TORSDOF 10
ENDMDL
MODEL 2
REMARK VINA RESULT:    -2.460      1.422      2.716
REMARK INTER + INTRA:          -4.511
REMARK INTER:                  -4.424
REMARK INTRA:                  -0.087
REMARK UNBOUND:                -1.045
REMARK SMILES OC[C@H]1O[C@@H](O[C@H]2OC=C[C@H]3[C@H](O)[C@@H]4O[C@]4(CO)[C@@H]23)[C@H](O)[C@@H](O)[C@H]1O
REMARK SMILES IDX 6 1 7 2 10 3 9 4 11 5 8 6 19 7 12 8 16 9 14 10 15 11 13 12
REMARK SMILES IDX 17 14 18 15 5 17 20 18 4 19 22 20 3 21 24 22 21 23 23 25
REMARK SMILES IDX 2 27 1 28 25 30
REMARK H PARENT 13 13 18 16 21 24 23 26 1 29 25 31
REMARK Flexibility Score: inf
ROOT
ATOM      1  O   UNL     1     -21.981 -16.342  -9.510  1.00  0.00    -0.310 OA
ENDROOT
BRANCH   1   2
ATOM      2  C   UNL     1     -22.369 -16.960 -10.725  1.00  0.00     0.315 C 
ATOM      3  C   UNL     1     -23.609 -17.239 -13.252  1.00  0.00     0.018 C 
ATOM      4  C   UNL     1     -24.356 -17.157 -12.147  1.00  0.00     0.186 C 
ATOM      5  C   UNL     1     -22.117 -16.944 -13.248  1.00  0.00     0.059 C 
ATOM      6  O   UNL     1     -23.777 -16.855 -10.912  1.00  0.00    -0.472 OA
ATOM      7  C   UNL     1     -21.642 -16.321 -11.921  1.00  0.00     0.105 C 
ATOM      8  C   UNL     1     -21.794 -15.874 -14.307  1.00  0.00     0.154 C 
ATOM      9  C   UNL     1     -21.818 -14.804 -12.121  1.00  0.00     0.130 C 
ATOM     10  C   UNL     1     -21.881 -14.533 -13.578  1.00  0.00     0.183 C 
ATOM     11  O   UNL     1     -20.748 -14.190 -12.805  1.00  0.00    -0.360 OA
BRANCH   8  12
ATOM     12  O   UNL     1     -20.528 -16.063 -14.887  1.00  0.00    -0.390 OA
ATOM     13  H   UNL     1     -20.324 -17.035 -14.897  1.00  0.00     0.211 HD
ENDBRANCH   8  12
BRANCH   9  14
ATOM     14  C   UNL     1     -22.715 -13.884 -11.275  1.00  0.00     0.195 C 
BRANCH  14  15
ATOM     15  O   UNL     1     -24.031 -13.875 -11.768  1.00  0.00    -0.393 OA
ATOM     16  H   UNL     1     -24.204 -12.945 -12.077  1.00  0.00     0.210 HD
ENDBRANCH  14  15
ENDBRANCH   9  14
ENDBRANCH   1   2
BRANCH   1  17
ATOM     17  C   UNL     1     -23.095 -16.120  -8.656  1.00  0.00     0.286 C 
ATOM     18  C   UNL     1     -22.991 -16.970  -7.372  1.00  0.00     0.202 C 
ATOM     19  O   UNL     1     -23.235 -14.734  -8.369  1.00  0.00    -0.341 OA
ATOM     20  C   UNL     1     -21.823 -16.489  -6.496  1.00  0.00     0.179 C 
ATOM     21  C   UNL     1     -22.191 -14.185  -7.570  1.00  0.00     0.178 C 
ATOM     22  C   UNL     1     -21.937 -14.975  -6.258  1.00  0.00     0.177 C 
BRANCH  18  23
ATOM     23  O   UNL     1     -24.199 -16.869  -6.661  1.00  0.00    -0.385 OA
ATOM     24  H   UNL     1     -24.550 -15.955  -6.815  1.00  0.00     0.211 HD
ENDBRANCH  18  23
BRANCH  20  25
ATOM     25  O   UNL     1     -20.592 -16.801  -7.095  1.00  0.00    -0.387 OA
ATOM     26  H   UNL     1     -20.567 -17.788  -7.200  1.00  0.00     0.211 HD
ENDBRANCH  20  25
BRANCH  21  27
ATOM     27  C   UNL     1     -20.930 -13.875  -8.398  1.00  0.00     0.191 C 
BRANCH  27  28
ATOM     28  O   UNL     1     -19.940 -14.831  -8.152  1.00  0.00    -0.394 OA
ATOM     29  H   UNL     1     -19.692 -15.211  -9.037  1.00  0.00     0.210 HD
ENDBRANCH  27  28
ENDBRANCH  21  27
BRANCH  22  30
ATOM     30  O   UNL     1     -20.789 -14.493  -5.605  1.00  0.00    -0.387 OA
ATOM     31  H   UNL     1     -20.408 -13.777  -6.179  1.00  0.00     0.211 HD
ENDBRANCH  22  30
ENDBRANCH   1  17
TORSDOF 10
ENDMDL
MODEL 3
REMARK VINA RESULT:    -1.492      1.661      6.325
REMARK INTER + INTRA:          -3.147
REMARK INTER:                  -2.332
REMARK INTRA:                  -0.815
REMARK UNBOUND:                -1.045
REMARK SMILES OC[C@H]1O[C@@H](O[C@H]2OC=C[C@H]3[C@H](O)[C@@H]4O[C@]4(CO)[C@@H]23)[C@H](O)[C@@H](O)[C@H]1O
REMARK SMILES IDX 6 1 7 2 10 3 9 4 11 5 8 6 19 7 12 8 16 9 14 10 15 11 13 12
REMARK SMILES IDX 17 14 18 15 5 17 20 18 4 19 22 20 3 21 24 22 21 23 23 25
REMARK SMILES IDX 2 27 1 28 25 30
REMARK H PARENT 13 13 18 16 21 24 23 26 1 29 25 31
REMARK Flexibility Score: inf
ROOT
ATOM      1  O   UNL     1     -22.426 -16.049 -10.817  1.00  0.00    -0.310 OA
ENDROOT
BRANCH   1   2
ATOM      2  C   UNL     1     -21.464 -15.771  -9.815  1.00  0.00     0.315 C 
ATOM      3  C   UNL     1     -20.385 -14.677  -7.440  1.00  0.00     0.018 C 
ATOM      4  C   UNL     1     -20.699 -13.875  -8.462  1.00  0.00     0.186 C 
ATOM      5  C   UNL     1     -20.807 -16.138  -7.393  1.00  0.00     0.059 C 
ATOM      6  O   UNL     1     -21.382 -14.369  -9.576  1.00  0.00    -0.472 OA
ATOM      7  C   UNL     1     -21.813 -16.497  -8.504  1.00  0.00     0.105 C 
ATOM      8  C   UNL     1     -21.569 -16.419  -6.085  1.00  0.00     0.154 C 
ATOM      9  C   UNL     1     -23.193 -16.205  -7.885  1.00  0.00     0.130 C 
ATOM     10  C   UNL     1     -23.045 -16.187  -6.410  1.00  0.00     0.183 C 
ATOM     11  O   UNL     1     -23.691 -17.251  -7.081  1.00  0.00    -0.360 OA
BRANCH   8  12
ATOM     12  O   UNL     1     -21.345 -17.723  -5.608  1.00  0.00    -0.390 OA
ATOM     13  H   UNL     1     -20.492 -18.059  -5.988  1.00  0.00     0.211 HD
ENDBRANCH   8  12
BRANCH   9  14
ATOM     14  C   UNL     1     -24.223 -15.196  -8.422  1.00  0.00     0.195 C 
BRANCH  14  15
ATOM     15  O   UNL     1     -23.788 -13.876  -8.212  1.00  0.00    -0.393 OA
ATOM     16  H   UNL     1     -23.038 -13.729  -8.850  1.00  0.00     0.210 HD
ENDBRANCH  14  15
ENDBRANCH   9  14
ENDBRANCH   1   2
BRANCH   1  17
ATOM     17  C   UNL     1     -22.541 -14.978 -11.745  1.00  0.00     0.286 C 
ATOM     18  C   UNL     1     -21.438 -15.053 -12.822  1.00  0.00     0.202 C 
ATOM     19  O   UNL     1     -23.843 -14.950 -12.315  1.00  0.00    -0.341 OA
ATOM     20  C   UNL     1     -21.647 -16.277 -13.729  1.00  0.00     0.179 C 
ATOM     21  C   UNL     1     -24.143 -16.054 -13.166  1.00  0.00     0.178 C 
ATOM     22  C   UNL     1     -23.082 -16.283 -14.276  1.00  0.00     0.177 C 
BRANCH  18  23
ATOM     23  O   UNL     1     -21.470 -13.875 -13.589  1.00  0.00    -0.385 OA
ATOM     24  H   UNL     1     -21.315 -13.120 -12.965  1.00  0.00     0.211 HD
ENDBRANCH  18  23
BRANCH  20  25
ATOM     25  O   UNL     1     -21.383 -17.465 -13.027  1.00  0.00    -0.387 OA
ATOM     26  H   UNL     1     -22.059 -17.525 -12.302  1.00  0.00     0.211 HD
ENDBRANCH  20  25
BRANCH  21  27
ATOM     27  C   UNL     1     -24.532 -17.312 -12.367  1.00  0.00     0.191 C 
BRANCH  27  28
ATOM     28  O   UNL     1     -25.398 -18.114 -13.115  1.00  0.00    -0.394 OA
ATOM     29  H   UNL     1     -25.033 -18.133 -14.040  1.00  0.00     0.210 HD
ENDBRANCH  27  28
ENDBRANCH  21  27
BRANCH  22  30
ATOM     30  O   UNL     1     -23.340 -17.481 -14.965  1.00  0.00    -0.387 OA
ATOM     31  H   UNL     1     -23.732 -17.232 -15.843  1.00  0.00     0.211 HD
ENDBRANCH  22  30
ENDBRANCH   1  17
TORSDOF 10
ENDMDL
MODEL 4
REMARK VINA RESULT:    -1.226      1.689      6.156
REMARK INTER + INTRA:          -2.772
REMARK INTER:                  -2.752
REMARK INTRA:                  -0.020
REMARK UNBOUND:                -1.045
REMARK SMILES OC[C@H]1O[C@@H](O[C@H]2OC=C[C@H]3[C@H](O)[C@@H]4O[C@]4(CO)[C@@H]23)[C@H](O)[C@@H](O)[C@H]1O
REMARK SMILES IDX 6 1 7 2 10 3 9 4 11 5 8 6 19 7 12 8 16 9 14 10 15 11 13 12
REMARK SMILES IDX 17 14 18 15 5 17 20 18 4 19 22 20 3 21 24 22 21 23 23 25
REMARK SMILES IDX 2 27 1 28 25 30
REMARK H PARENT 13 13 18 16 21 24 23 26 1 29 25 31
REMARK Flexibility Score: inf
ROOT
ATOM      1  O   UNL     1     -22.455 -16.476 -10.949  1.00  0.00    -0.310 OA
ENDROOT
BRANCH   1   2
ATOM      2  C   UNL     1     -22.120 -15.675  -9.829  1.00  0.00     0.315 C 
ATOM      3  C   UNL     1     -22.470 -14.300  -7.382  1.00  0.00     0.018 C 
ATOM      4  C   UNL     1     -23.098 -13.875  -8.483  1.00  0.00     0.186 C 
ATOM      5  C   UNL     1     -21.759 -15.642  -7.319  1.00  0.00     0.059 C 
ATOM      6  O   UNL     1     -23.071 -14.629  -9.658  1.00  0.00    -0.472 OA
ATOM      7  C   UNL     1     -22.054 -16.525  -8.548  1.00  0.00     0.105 C 
ATOM      8  C   UNL     1     -22.292 -16.459  -6.128  1.00  0.00     0.154 C 
ATOM      9  C   UNL     1     -23.319 -17.314  -8.163  1.00  0.00     0.130 C 
ATOM     10  C   UNL     1     -23.444 -17.296  -6.685  1.00  0.00     0.183 C 
ATOM     11  O   UNL     1     -23.061 -18.463  -7.386  1.00  0.00    -0.360 OA
BRANCH   8  12
ATOM     12  O   UNL     1     -21.299 -17.270  -5.551  1.00  0.00    -0.390 OA
ATOM     13  H   UNL     1     -21.227 -18.109  -6.077  1.00  0.00     0.211 HD
ENDBRANCH   8  12
BRANCH   9  14
ATOM     14  C   UNL     1     -24.666 -17.271  -8.904  1.00  0.00     0.195 C 
BRANCH  14  15
ATOM     15  O   UNL     1     -24.758 -18.316  -9.838  1.00  0.00    -0.393 OA
ATOM     16  H   UNL     1     -24.759 -19.159  -9.309  1.00  0.00     0.210 HD
ENDBRANCH  14  15
ENDBRANCH   9  14
ENDBRANCH   1   2
BRANCH   1  17
ATOM     17  C   UNL     1     -23.493 -15.887 -11.721  1.00  0.00     0.286 C 
ATOM     18  C   UNL     1     -23.079 -14.494 -12.242  1.00  0.00     0.202 C 
ATOM     19  O   UNL     1     -23.884 -16.757 -12.777  1.00  0.00    -0.341 OA
ATOM     20  C   UNL     1     -21.948 -14.616 -13.276  1.00  0.00     0.179 C 
ATOM     21  C   UNL     1     -22.895 -16.948 -13.785  1.00  0.00     0.178 C 
ATOM     22  C   UNL     1     -22.345 -15.619 -14.370  1.00  0.00     0.177 C 
BRANCH  18  23
ATOM     23  O   UNL     1     -24.199 -13.875 -12.824  1.00  0.00    -0.385 OA
ATOM     24  H   UNL     1     -24.945 -14.527 -12.782  1.00  0.00     0.211 HD
ENDBRANCH  18  23
BRANCH  20  25
ATOM     25  O   UNL     1     -20.750 -15.011 -12.657  1.00  0.00    -0.387 OA
ATOM     26  H   UNL     1     -20.581 -15.949 -12.935  1.00  0.00     0.211 HD
ENDBRANCH  20  25
BRANCH  21  27
ATOM     27  C   UNL     1     -21.821 -17.966 -13.358  1.00  0.00     0.191 C 
BRANCH  27  28
ATOM     28  O   UNL     1     -21.737 -19.004 -14.291  1.00  0.00    -0.394 OA
ATOM     29  H   UNL     1     -22.595 -18.997 -14.794  1.00  0.00     0.210 HD
ENDBRANCH  27  28
ENDBRANCH  21  27
BRANCH  22  30
ATOM     30  O   UNL     1     -21.257 -15.869 -15.224  1.00  0.00    -0.387 OA
ATOM     31  H   UNL     1     -20.786 -16.668 -14.868  1.00  0.00     0.211 HD
ENDBRANCH  22  30
ENDBRANCH   1  17
TORSDOF 10
ENDMDL
MODEL 5
REMARK VINA RESULT:    -1.068      1.635      6.184
REMARK INTER + INTRA:          -2.550
REMARK INTER:                  -2.609
REMARK INTRA:                   0.059
REMARK UNBOUND:                -1.045
REMARK SMILES OC[C@H]1O[C@@H](O[C@H]2OC=C[C@H]3[C@H](O)[C@@H]4O[C@]4(CO)[C@@H]23)[C@H](O)[C@@H](O)[C@H]1O
REMARK SMILES IDX 6 1 7 2 10 3 9 4 11 5 8 6 19 7 12 8 16 9 14 10 15 11 13 12
REMARK SMILES IDX 17 14 18 15 5 17 20 18 4 19 22 20 3 21 24 22 21 23 23 25
REMARK SMILES IDX 2 27 1 28 25 30
REMARK H PARENT 13 13 18 16 21 24 23 26 1 29 25 31
REMARK Flexibility Score: inf
ROOT
ATOM      1  O   UNL     1     -23.038 -16.633 -11.258  1.00  0.00    -0.310 OA
ENDROOT
BRANCH   1   2
ATOM      2  C   UNL     1     -22.498 -15.798 -10.249  1.00  0.00     0.315 C 
ATOM      3  C   UNL     1     -22.409 -14.280  -7.864  1.00  0.00     0.018 C 
ATOM      4  C   UNL     1     -23.170 -13.875  -8.885  1.00  0.00     0.186 C 
ATOM      5  C   UNL     1     -21.768 -15.659  -7.824  1.00  0.00     0.059 C 
ATOM      6  O   UNL     1     -23.358 -14.689 -10.005  1.00  0.00    -0.472 OA
ATOM      7  C   UNL     1     -22.288 -16.584  -8.942  1.00  0.00     0.105 C 
ATOM      8  C   UNL     1     -22.162 -16.380  -6.522  1.00  0.00     0.154 C 
ATOM      9  C   UNL     1     -23.522 -17.273  -8.331  1.00  0.00     0.130 C 
ATOM     10  C   UNL     1     -23.426 -17.172  -6.855  1.00  0.00     0.183 C 
ATOM     11  O   UNL     1     -23.213 -18.394  -7.533  1.00  0.00    -0.360 OA
BRANCH   8  12
ATOM     12  O   UNL     1     -21.138 -17.219  -6.047  1.00  0.00    -0.390 OA
ATOM     13  H   UNL     1     -21.503 -17.787  -5.319  1.00  0.00     0.211 HD
ENDBRANCH   8  12
BRANCH   9  14
ATOM     14  C   UNL     1     -24.960 -17.186  -8.871  1.00  0.00     0.195 C 
BRANCH  14  15
ATOM     15  O   UNL     1     -25.202 -18.194  -9.819  1.00  0.00    -0.393 OA
ATOM     16  H   UNL     1     -24.645 -18.971  -9.543  1.00  0.00     0.210 HD
ENDBRANCH  14  15
ENDBRANCH   9  14
ENDBRANCH   1   2
BRANCH   1  17
ATOM     17  C   UNL     1     -22.069 -16.951 -12.248  1.00  0.00     0.286 C 
ATOM     18  C   UNL     1     -22.636 -17.944 -13.284  1.00  0.00     0.202 C 
ATOM     19  O   UNL     1     -21.573 -15.767 -12.859  1.00  0.00    -0.341 OA
ATOM     20  C   UNL     1     -23.739 -17.280 -14.125  1.00  0.00     0.179 C 
ATOM     21  C   UNL     1     -22.527 -15.065 -13.655  1.00  0.00     0.178 C 
ATOM     22  C   UNL     1     -23.222 -15.959 -14.716  1.00  0.00     0.177 C 
BRANCH  18  23
ATOM     23  O   UNL     1     -21.591 -18.379 -14.118  1.00  0.00    -0.385 OA
ATOM     24  H   UNL     1     -21.049 -19.022 -13.591  1.00  0.00     0.211 HD
ENDBRANCH  18  23
BRANCH  20  25
ATOM     25  O   UNL     1     -24.887 -17.055 -13.349  1.00  0.00    -0.387 OA
ATOM     26  H   UNL     1     -25.667 -17.292 -13.917  1.00  0.00     0.211 HD
ENDBRANCH  20  25
BRANCH  21  27
ATOM     27  C   UNL     1     -23.480 -14.211 -12.797  1.00  0.00     0.191 C 
BRANCH  27  28
ATOM     28  O   UNL     1     -24.622 -13.875 -13.530  1.00  0.00    -0.394 OA
ATOM     29  H   UNL     1     -24.460 -12.966 -13.899  1.00  0.00     0.210 HD
ENDBRANCH  27  28
ENDBRANCH  21  27
BRANCH  22  30
ATOM     30  O   UNL     1     -24.267 -15.260 -15.343  1.00  0.00    -0.387 OA
ATOM     31  H   UNL     1     -24.010 -15.147 -16.296  1.00  0.00     0.211 HD
ENDBRANCH  22  30
ENDBRANCH   1  17
TORSDOF 10
ENDMDL
MODEL 6
REMARK VINA RESULT:    -0.516      1.077      2.474
REMARK INTER + INTRA:          -1.772
REMARK INTER:                  -1.227
REMARK INTRA:                  -0.545
REMARK UNBOUND:                -1.045
REMARK SMILES OC[C@H]1O[C@@H](O[C@H]2OC=C[C@H]3[C@H](O)[C@@H]4O[C@]4(CO)[C@@H]23)[C@H](O)[C@@H](O)[C@H]1O
REMARK SMILES IDX 6 1 7 2 10 3 9 4 11 5 8 6 19 7 12 8 16 9 14 10 15 11 13 12
REMARK SMILES IDX 17 14 18 15 5 17 20 18 4 19 22 20 3 21 24 22 21 23 23 25
REMARK SMILES IDX 2 27 1 28 25 30
REMARK H PARENT 13 13 18 16 21 24 23 26 1 29 25 31
REMARK Flexibility Score: inf
ROOT
ATOM      1  O   UNL     1     -22.735 -14.719 -10.609  1.00  0.00    -0.310 OA
ENDROOT
BRANCH   1   2
ATOM      2  C   UNL     1     -22.512 -14.116 -11.871  1.00  0.00     0.315 C 
ATOM      3  C   UNL     1     -21.638 -13.875 -14.551  1.00  0.00     0.018 C 
ATOM      4  C   UNL     1     -20.744 -13.966 -13.562  1.00  0.00     0.186 C 
ATOM      5  C   UNL     1     -23.120 -14.140 -14.333  1.00  0.00     0.059 C 
ATOM      6  O   UNL     1     -21.147 -14.249 -12.255  1.00  0.00    -0.472 OA
ATOM      7  C   UNL     1     -23.414 -14.747 -12.947  1.00  0.00     0.105 C 
ATOM      8  C   UNL     1     -23.610 -15.210 -15.326  1.00  0.00     0.154 C 
ATOM      9  C   UNL     1     -23.296 -16.268 -13.157  1.00  0.00     0.130 C 
ATOM     10  C   UNL     1     -23.445 -16.548 -14.606  1.00  0.00     0.183 C 
ATOM     11  O   UNL     1     -24.464 -16.864 -13.678  1.00  0.00    -0.360 OA
BRANCH   8  12
ATOM     12  O   UNL     1     -24.942 -14.999 -15.723  1.00  0.00    -0.390 OA
ATOM     13  H   UNL     1     -25.169 -15.650 -16.437  1.00  0.00     0.211 HD
ENDBRANCH   8  12
BRANCH   9  14
ATOM     14  C   UNL     1     -22.305 -17.201 -12.440  1.00  0.00     0.195 C 
BRANCH  14  15
ATOM     15  O   UNL     1     -22.913 -17.825 -11.337  1.00  0.00    -0.393 OA
ATOM     16  H   UNL     1     -23.114 -18.757 -11.623  1.00  0.00     0.210 HD
ENDBRANCH  14  15
ENDBRANCH   9  14
ENDBRANCH   1   2
BRANCH   1  17
ATOM     17  C   UNL     1     -21.523 -14.888  -9.887  1.00  0.00     0.286 C 
ATOM     18  C   UNL     1     -21.418 -13.876  -8.727  1.00  0.00     0.202 C 
ATOM     19  O   UNL     1     -21.393 -16.231  -9.438  1.00  0.00    -0.341 OA
ATOM     20  C   UNL     1     -22.470 -14.178  -7.647  1.00  0.00     0.179 C 
ATOM     21  C   UNL     1     -22.336 -16.617  -8.441  1.00  0.00     0.178 C 
ATOM     22  C   UNL     1     -22.378 -15.653  -7.225  1.00  0.00     0.177 C 
BRANCH  18  23
ATOM     23  O   UNL     1     -20.128 -13.949  -8.174  1.00  0.00    -0.385 OA
ATOM     24  H   UNL     1     -19.538 -14.343  -8.868  1.00  0.00     0.211 HD
ENDBRANCH  18  23
BRANCH  20  25
ATOM     25  O   UNL     1     -23.761 -13.880  -8.115  1.00  0.00    -0.387 OA
ATOM     26  H   UNL     1     -24.383 -14.503  -7.655  1.00  0.00     0.211 HD
ENDBRANCH  20  25
BRANCH  21  27
ATOM     27  C   UNL     1     -23.710 -16.963  -9.046  1.00  0.00     0.191 C 
BRANCH  27  28
ATOM     28  O   UNL     1     -24.262 -18.069  -8.394  1.00  0.00    -0.394 OA
ATOM     29  H   UNL     1     -23.954 -18.872  -8.894  1.00  0.00     0.210 HD
ENDBRANCH  27  28
ENDBRANCH  21  27
BRANCH  22  30
ATOM     30  O   UNL     1     -23.441 -15.985  -6.368  1.00  0.00    -0.387 OA
ATOM     31  H   UNL     1     -23.484 -16.977  -6.329  1.00  0.00     0.211 HD
ENDBRANCH  22  30
ENDBRANCH   1  17
TORSDOF 10
ENDMDL
MODEL 7
REMARK VINA RESULT:    -0.389      1.678      6.367
REMARK INTER + INTRA:          -1.593
REMARK INTER:                  -0.570
REMARK INTRA:                  -1.022
REMARK UNBOUND:                -1.045
REMARK SMILES OC[C@H]1O[C@@H](O[C@H]2OC=C[C@H]3[C@H](O)[C@@H]4O[C@]4(CO)[C@@H]23)[C@H](O)[C@@H](O)[C@H]1O
REMARK SMILES IDX 6 1 7 2 10 3 9 4 11 5 8 6 19 7 12 8 16 9 14 10 15 11 13 12
REMARK SMILES IDX 17 14 18 15 5 17 20 18 4 19 22 20 3 21 24 22 21 23 23 25
REMARK SMILES IDX 2 27 1 28 25 30
REMARK H PARENT 13 13 18 16 21 24 23 26 1 29 25 31
REMARK Flexibility Score: inf
ROOT
ATOM      1  O   UNL     1     -23.134 -15.876 -12.626  1.00  0.00    -0.310 OA
ENDROOT
BRANCH   1   2
ATOM      2  C   UNL     1     -23.497 -16.531 -11.424  1.00  0.00     0.315 C 
ATOM      3  C   UNL     1     -23.160 -17.821  -8.930  1.00  0.00     0.018 C 
ATOM      4  C   UNL     1     -22.755 -18.422 -10.053  1.00  0.00     0.186 C 
ATOM      5  C   UNL     1     -23.578 -16.359  -8.895  1.00  0.00     0.059 C 
ATOM      6  O   UNL     1     -22.761 -17.740 -11.272  1.00  0.00    -0.472 OA
ATOM      7  C   UNL     1     -23.251 -15.621 -10.208  1.00  0.00     0.105 C 
ATOM      8  C   UNL     1     -22.765 -15.609  -7.825  1.00  0.00     0.154 C 
ATOM      9  C   UNL     1     -21.819 -15.091 -10.007  1.00  0.00     0.130 C 
ATOM     10  C   UNL     1     -21.538 -15.058  -8.551  1.00  0.00     0.183 C 
ATOM     11  O   UNL     1     -21.755 -13.875  -9.294  1.00  0.00    -0.360 OA
BRANCH   8  12
ATOM     12  O   UNL     1     -23.506 -14.583  -7.214  1.00  0.00    -0.390 OA
ATOM     13  H   UNL     1     -24.372 -14.488  -7.692  1.00  0.00     0.211 HD
ENDBRANCH   8  12
BRANCH   9  14
ATOM     14  C   UNL     1     -20.598 -15.449 -10.871  1.00  0.00     0.195 C 
BRANCH  14  15
ATOM     15  O   UNL     1     -19.883 -14.295 -11.233  1.00  0.00    -0.393 OA
ATOM     16  H   UNL     1     -20.056 -13.627 -10.514  1.00  0.00     0.210 HD
ENDBRANCH  14  15
ENDBRANCH   9  14
ENDBRANCH   1   2
BRANCH   1  17
ATOM     17  C   UNL     1     -22.859 -16.804 -13.667  1.00  0.00     0.286 C 
ATOM     18  C   UNL     1     -24.135 -17.138 -14.469  1.00  0.00     0.202 C 
ATOM     19  O   UNL     1     -21.815 -16.321 -14.503  1.00  0.00    -0.341 OA
ATOM     20  C   UNL     1     -24.614 -15.911 -15.261  1.00  0.00     0.179 C 
ATOM     21  C   UNL     1     -22.155 -15.172 -15.274  1.00  0.00     0.178 C 
ATOM     22  C   UNL     1     -23.457 -15.345 -16.100  1.00  0.00     0.177 C 
BRANCH  18  23
ATOM     23  O   UNL     1     -23.857 -18.199 -15.347  1.00  0.00    -0.385 OA
ATOM     24  H   UNL     1     -22.884 -18.381 -15.281  1.00  0.00     0.211 HD
ENDBRANCH  18  23
BRANCH  20  25
ATOM     25  O   UNL     1     -25.120 -14.927 -14.395  1.00  0.00    -0.387 OA
ATOM     26  H   UNL     1     -26.017 -15.237 -14.102  1.00  0.00     0.211 HD
ENDBRANCH  20  25
BRANCH  21  27
ATOM     27  C   UNL     1     -22.076 -13.875 -14.446  1.00  0.00     0.191 C 
BRANCH  27  28
ATOM     28  O   UNL     1     -20.926 -13.875 -13.651  1.00  0.00    -0.394 OA
ATOM     29  H   UNL     1     -20.173 -14.125 -14.250  1.00  0.00     0.210 HD
ENDBRANCH  27  28
ENDBRANCH  21  27
BRANCH  22  30
ATOM     30  O   UNL     1     -23.831 -14.128 -16.694  1.00  0.00    -0.387 OA
ATOM     31  H   UNL     1     -23.873 -14.284 -17.674  1.00  0.00     0.211 HD
ENDBRANCH  22  30
ENDBRANCH   1  17
TORSDOF 10
ENDMDL
