MODEL 1
REMARK VINA RESULT:    -3.182      0.000      0.000
REMARK INTER + INTRA:          -3.770
REMARK INTER:                  -3.740
REMARK INTRA:                  -0.030
REMARK UNBOUND:                -0.030
REMARK SMILES O=C([O-])CCC(=O)[O-]
REMARK SMILES IDX 4 1 2 2 1 3 3 4 5 5 6 6 7 7 8 8
REMARK H PARENT
REMARK Flexibility Score: inf
ROOT
ATOM      1  C   UNL     1     -15.569   7.406  30.008  1.00  0.00     0.059 C 
ENDROOT
BRANCH   1   2
ATOM      2  C   UNL     1     -16.184   6.102  30.418  1.00  0.00     0.042 C 
ATOM      3  O   UNL     1     -16.563   5.925  31.606  1.00  0.00    -0.550 OA
ATOM      4  O   UNL     1     -16.301   5.067  29.497  1.00  0.00    -0.550 OA
ENDBRANCH   1   2
BRANCH   1   5
ATOM      5  C   UNL     1     -14.355   7.196  29.098  1.00  0.00     0.059 C 
BRANCH   5   6
ATOM      6  C   UNL     1     -13.928   8.473  28.441  1.00  0.00     0.042 C 
ATOM      7  O   UNL     1     -12.949   9.122  28.894  1.00  0.00    -0.550 OA
ATOM      8  O   UNL     1     -14.639   8.968  27.354  1.00  0.00    -0.550 OA
ENDBRANCH   5   6
ENDBRANCH   1   5
TORSDOF 3
ENDMDL
MODEL 2
REMARK VINA RESULT:    -3.176      0.081      4.279
REMARK INTER + INTRA:          -3.763
REMARK INTER:                  -3.731
REMARK INTRA:                  -0.032
REMARK UNBOUND:                -0.030
REMARK SMILES O=C([O-])CCC(=O)[O-]
REMARK SMILES IDX 4 1 2 2 1 3 3 4 5 5 6 6 7 7 8 8
REMARK H PARENT
REMARK Flexibility Score: inf
ROOT
ATOM      1  C   UNL     1     -14.401   7.169  29.110  1.00  0.00     0.059 C 
ENDROOT
BRANCH   1   2
ATOM      2  C   UNL     1     -13.988   8.454  28.459  1.00  0.00     0.042 C 
ATOM      3  O   UNL     1     -14.644   8.913  27.487  1.00  0.00    -0.550 OA
ATOM      4  O   UNL     1     -12.853   9.124  28.900  1.00  0.00    -0.550 OA
ENDBRANCH   1   2
BRANCH   1   5
ATOM      5  C   UNL     1     -15.606   7.366  30.035  1.00  0.00     0.059 C 
BRANCH   5   6
ATOM      6  C   UNL     1     -16.223   6.058  30.426  1.00  0.00     0.042 C 
ATOM      7  O   UNL     1     -16.614   5.870  31.607  1.00  0.00    -0.550 OA
ATOM      8  O   UNL     1     -16.329   5.033  29.493  1.00  0.00    -0.550 OA
ENDBRANCH   5   6
ENDBRANCH   1   5
TORSDOF 3
ENDMDL
MODEL 3
REMARK VINA RESULT:    -3.161      4.653      7.340
REMARK INTER + INTRA:          -3.746
REMARK INTER:                  -3.647
REMARK INTRA:                  -0.098
REMARK UNBOUND:                -0.030
REMARK SMILES O=C([O-])CCC(=O)[O-]
REMARK SMILES IDX 4 1 2 2 1 3 3 4 5 5 6 6 7 7 8 8
REMARK H PARENT
REMARK Flexibility Score: inf
ROOT
ATOM      1  C   UNL     1     -17.125   3.421  33.427  1.00  0.00     0.059 C 
ENDROOT
BRANCH   1   2
ATOM      2  C   UNL     1     -16.673   4.007  32.124  1.00  0.00     0.042 C 
ATOM      3  O   UNL     1     -16.141   3.274  31.249  1.00  0.00    -0.550 OA
ATOM      4  O   UNL     1     -16.801   5.372  31.893  1.00  0.00    -0.550 OA
ENDBRANCH   1   2
BRANCH   1   5
ATOM      5  C   UNL     1     -15.962   2.780  34.191  1.00  0.00     0.059 C 
BRANCH   5   6
ATOM      6  C   UNL     1     -16.263   1.361  34.568  1.00  0.00     0.042 C 
ATOM      7  O   UNL     1     -15.851   0.895  35.663  1.00  0.00    -0.550 OA
ATOM      8  O   UNL     1     -16.963   0.542  33.691  1.00  0.00    -0.550 OA
ENDBRANCH   5   6
ENDBRANCH   1   5
TORSDOF 3
ENDMDL
MODEL 4
REMARK VINA RESULT:    -3.102      4.674      6.427
REMARK INTER + INTRA:          -3.677
REMARK INTER:                  -3.589
REMARK INTRA:                  -0.088
REMARK UNBOUND:                -0.030
REMARK SMILES O=C([O-])CCC(=O)[O-]
REMARK SMILES IDX 4 1 2 2 1 3 3 4 5 5 6 6 7 7 8 8
REMARK H PARENT
REMARK Flexibility Score: inf
ROOT
ATOM      1  C   UNL     1     -16.024   2.741  34.241  1.00  0.00     0.059 C 
ENDROOT
BRANCH   1   2
ATOM      2  C   UNL     1     -16.373   1.335  34.620  1.00  0.00     0.042 C 
ATOM      3  O   UNL     1     -15.970   0.854  35.712  1.00  0.00    -0.550 OA
ATOM      4  O   UNL     1     -17.108   0.541  33.748  1.00  0.00    -0.550 OA
ENDBRANCH   1   2
BRANCH   1   5
ATOM      5  C   UNL     1     -17.125   3.388  33.394  1.00  0.00     0.059 C 
BRANCH   5   6
ATOM      6  C   UNL     1     -16.572   4.009  32.148  1.00  0.00     0.042 C 
ATOM      7  O   UNL     1     -15.929   3.309  31.322  1.00  0.00    -0.550 OA
ATOM      8  O   UNL     1     -16.731   5.370  31.919  1.00  0.00    -0.550 OA
ENDBRANCH   5   6
ENDBRANCH   1   5
TORSDOF 3
ENDMDL
MODEL 5
REMARK VINA RESULT:    -3.096      1.760      2.358
REMARK INTER + INTRA:          -3.669
REMARK INTER:                  -3.567
REMARK INTRA:                  -0.102
REMARK UNBOUND:                -0.030
REMARK SMILES O=C([O-])CCC(=O)[O-]
REMARK SMILES IDX 4 1 2 2 1 3 3 4 5 5 6 6 7 7 8 8
REMARK H PARENT
REMARK Flexibility Score: inf
ROOT
ATOM      1  C   UNL     1     -16.394   5.404  30.405  1.00  0.00     0.059 C 
ENDROOT
BRANCH   1   2
ATOM      2  C   UNL     1     -16.156   4.715  31.714  1.00  0.00     0.042 C 
ATOM      3  O   UNL     1     -17.123   4.460  32.481  1.00  0.00    -0.550 OA
ATOM      4  O   UNL     1     -14.863   4.392  32.107  1.00  0.00    -0.550 OA
ENDBRANCH   1   2
BRANCH   1   5
ATOM      5  C   UNL     1     -16.181   6.917  30.517  1.00  0.00     0.059 C 
BRANCH   5   6
ATOM      6  C   UNL     1     -15.062   7.385  29.637  1.00  0.00     0.042 C 
ATOM      7  O   UNL     1     -14.967   8.600  29.324  1.00  0.00    -0.550 OA
ATOM      8  O   UNL     1     -14.147   6.469  29.129  1.00  0.00    -0.550 OA
ENDBRANCH   5   6
ENDBRANCH   1   5
TORSDOF 3
ENDMDL
MODEL 6
REMARK VINA RESULT:    -3.066      1.743      4.536
REMARK INTER + INTRA:          -3.634
REMARK INTER:                  -3.518
REMARK INTRA:                  -0.116
REMARK UNBOUND:                -0.030
REMARK SMILES O=C([O-])CCC(=O)[O-]
REMARK SMILES IDX 4 1 2 2 1 3 3 4 5 5 6 6 7 7 8 8
REMARK H PARENT
REMARK Flexibility Score: inf
ROOT
ATOM      1  C   UNL     1     -16.044   6.905  30.486  1.00  0.00     0.059 C 
ENDROOT
BRANCH   1   2
ATOM      2  C   UNL     1     -14.908   7.270  29.580  1.00  0.00     0.042 C 
ATOM      3  O   UNL     1     -13.974   6.450  29.373  1.00  0.00    -0.550 OA
ATOM      4  O   UNL     1     -14.860   8.530  28.996  1.00  0.00    -0.550 OA
ENDBRANCH   1   2
BRANCH   1   5
ATOM      5  C   UNL     1     -16.403   5.420  30.374  1.00  0.00     0.059 C 
BRANCH   5   6
ATOM      6  C   UNL     1     -16.165   4.694  31.663  1.00  0.00     0.042 C 
ATOM      7  O   UNL     1     -17.124   4.460  32.444  1.00  0.00    -0.550 OA
ATOM      8  O   UNL     1     -14.877   4.314  32.020  1.00  0.00    -0.550 OA
ENDBRANCH   5   6
ENDBRANCH   1   5
TORSDOF 3
ENDMDL
MODEL 7
REMARK VINA RESULT:    -3.036     25.307     26.000
REMARK INTER + INTRA:          -3.599
REMARK INTER:                  -3.487
REMARK INTRA:                  -0.112
REMARK UNBOUND:                -0.030
REMARK SMILES O=C([O-])CCC(=O)[O-]
REMARK SMILES IDX 4 1 2 2 1 3 3 4 5 5 6 6 7 7 8 8
REMARK H PARENT
REMARK Flexibility Score: inf
ROOT
ATOM      1  C   UNL     1       2.441 -10.380  18.968  1.00  0.00     0.059 C 
ENDROOT
BRANCH   1   2
ATOM      2  C   UNL     1       1.386 -10.660  17.942  1.00  0.00     0.042 C 
ATOM      3  O   UNL     1       1.702 -10.812  16.732  1.00  0.00    -0.550 OA
ATOM      4  O   UNL     1       0.048 -10.713  18.316  1.00  0.00    -0.550 OA
ENDBRANCH   1   2
BRANCH   1   5
ATOM      5  C   UNL     1       2.346  -8.945  19.498  1.00  0.00     0.059 C 
BRANCH   5   6
ATOM      6  C   UNL     1       1.667  -8.893  20.832  1.00  0.00     0.042 C 
ATOM      7  O   UNL     1       2.310  -9.161  21.881  1.00  0.00    -0.550 OA
ATOM      8  O   UNL     1       0.313  -8.588  20.913  1.00  0.00    -0.550 OA
ENDBRANCH   5   6
ENDBRANCH   1   5
TORSDOF 3
ENDMDL
MODEL 8
REMARK VINA RESULT:    -1.557      0.566      4.221
REMARK INTER + INTRA:          -1.860
REMARK INTER:                  -1.834
REMARK INTRA:                  -0.026
REMARK UNBOUND:                -0.030
REMARK SMILES O=C([O-])CCC(=O)[O-]
REMARK SMILES IDX 4 1 2 2 1 3 3 4 5 5 6 6 7 7 8 8
REMARK H PARENT
REMARK Flexibility Score: inf
ROOT
ATOM      1  C   UNL     1     -15.038   8.113  29.395  1.00  0.00     0.059 C 
ENDROOT
BRANCH   1   2
ATOM      2  C   UNL     1     -14.103   8.771  28.426  1.00  0.00     0.042 C 
ATOM      3  O   UNL     1     -12.953   9.125  28.795  1.00  0.00    -0.550 OA
ATOM      4  O   UNL     1     -14.519   9.030  27.125  1.00  0.00    -0.550 OA
ENDBRANCH   1   2
BRANCH   1   5
ATOM      5  C   UNL     1     -14.745   6.616  29.534  1.00  0.00     0.059 C 
BRANCH   5   6
ATOM      6  C   UNL     1     -15.920   5.872  30.091  1.00  0.00     0.042 C 
ATOM      7  O   UNL     1     -16.393   4.881  29.474  1.00  0.00    -0.550 OA
ATOM      8  O   UNL     1     -16.519   6.299  31.270  1.00  0.00    -0.550 OA
ENDBRANCH   5   6
ENDBRANCH   1   5
TORSDOF 3
ENDMDL
