MODEL 1
REMARK VINA RESULT:    -3.169      0.000      0.000
REMARK INTER + INTRA:          -6.383
REMARK INTER:                  -5.392
REMARK INTRA:                  -0.991
REMARK UNBOUND:                -0.991
REMARK SMILES CCCCCCCCCCCCCC(=O)[O-]
REMARK SMILES IDX 8 1 9 2 10 3 11 4 12 5 13 6 14 7 15 8 16 9 7 10 6 11 5 12
REMARK SMILES IDX 4 13 3 14 2 15 1 16
REMARK H PARENT
REMARK Flexibility Score: inf
ROOT
ATOM      1  C   UNL     1       3.836   4.998   3.815  1.00  0.00     0.000 C 
ENDROOT
BRANCH   1   2
ATOM      2  C   UNL     1       4.815   5.885   3.025  1.00  0.00     0.000 C 
BRANCH   2   3
ATOM      3  C   UNL     1       5.231   5.259   1.685  1.00  0.00     0.000 C 
BRANCH   3   4
ATOM      4  C   UNL     1       6.609   5.742   1.209  1.00  0.00     0.000 C 
BRANCH   4   5
ATOM      5  C   UNL     1       7.195   4.784   0.161  1.00  0.00     0.006 C 
BRANCH   5   6
ATOM      6  C   UNL     1       8.595   5.211  -0.297  1.00  0.00     0.053 C 
BRANCH   6   7
ATOM      7  C   UNL     1       9.541   5.347   0.857  1.00  0.00     0.041 C 
ATOM      8  O   UNL     1      10.058   6.463   1.125  1.00  0.00    -0.550 OA
ATOM      9  O   UNL     1       9.822   4.247   1.658  1.00  0.00    -0.550 OA
ENDBRANCH   6   7
ENDBRANCH   5   6
ENDBRANCH   4   5
ENDBRANCH   3   4
ENDBRANCH   2   3
ENDBRANCH   1   2
BRANCH   1  10
ATOM     10  C   UNL     1       3.659   3.606   3.187  1.00  0.00     0.000 C 
BRANCH  10  11
ATOM     11  C   UNL     1       2.345   2.929   3.612  1.00  0.00    -0.000 C 
BRANCH  11  12
ATOM     12  C   UNL     1       1.685   3.625   4.814  1.00  0.00    -0.000 C 
BRANCH  12  13
ATOM     13  C   UNL     1       1.299   2.636   5.928  1.00  0.00    -0.000 C 
BRANCH  13  14
ATOM     14  C   UNL     1       2.099   1.322   5.863  1.00  0.00    -0.000 C 
BRANCH  14  15
ATOM     15  C   UNL     1       3.222   1.194   6.907  1.00  0.00    -0.003 C 
ATOM     16  C   UNL     1       4.544   1.804   6.442  1.00  0.00     0.004 C 
ENDBRANCH  14  15
ENDBRANCH  13  14
ENDBRANCH  12  13
ENDBRANCH  11  12
ENDBRANCH  10  11
ENDBRANCH   1  10
TORSDOF 12
ENDMDL
MODEL 2
REMARK VINA RESULT:    -3.158      6.393      9.747
REMARK INTER + INTRA:          -6.364
REMARK INTER:                  -5.503
REMARK INTRA:                  -0.861
REMARK UNBOUND:                -0.991
REMARK SMILES CCCCCCCCCCCCCC(=O)[O-]
REMARK SMILES IDX 8 1 9 2 10 3 11 4 12 5 13 6 14 7 15 8 16 9 7 10 6 11 5 12
REMARK SMILES IDX 4 13 3 14 2 15 1 16
REMARK H PARENT
REMARK Flexibility Score: inf
ROOT
ATOM      1  C   UNL     1       1.773  -0.930   7.086  1.00  0.00     0.000 C 
ENDROOT
BRANCH   1   2
ATOM      2  C   UNL     1       0.951  -0.226   5.991  1.00  0.00     0.000 C 
BRANCH   2   3
ATOM      3  C   UNL     1       0.217  -1.218   5.075  1.00  0.00     0.000 C 
BRANCH   3   4
ATOM      4  C   UNL     1       0.620  -2.676   5.339  1.00  0.00     0.000 C 
BRANCH   4   5
ATOM      5  C   UNL     1      -0.134  -3.632   4.403  1.00  0.00     0.006 C 
BRANCH   5   6
ATOM      6  C   UNL     1      -1.340  -2.960   3.735  1.00  0.00     0.053 C 
BRANCH   6   7
ATOM      7  C   UNL     1      -2.451  -3.933   3.483  1.00  0.00     0.041 C 
ATOM      8  O   UNL     1      -2.211  -5.168   3.419  1.00  0.00    -0.550 OA
ATOM      9  O   UNL     1      -3.757  -3.478   3.353  1.00  0.00    -0.550 OA
ENDBRANCH   6   7
ENDBRANCH   5   6
ENDBRANCH   4   5
ENDBRANCH   3   4
ENDBRANCH   2   3
ENDBRANCH   1   2
BRANCH   1  10
ATOM     10  C   UNL     1       3.239  -0.471   7.113  1.00  0.00     0.000 C 
BRANCH  10  11
ATOM     11  C   UNL     1       3.379   1.048   7.310  1.00  0.00    -0.000 C 
BRANCH  11  12
ATOM     12  C   UNL     1       4.311   1.694   6.271  1.00  0.00    -0.000 C 
BRANCH  12  13
ATOM     13  C   UNL     1       3.746   3.012   5.713  1.00  0.00    -0.000 C 
BRANCH  13  14
ATOM     14  C   UNL     1       2.537   2.798   4.783  1.00  0.00    -0.000 C 
BRANCH  14  15
ATOM     15  C   UNL     1       2.800   3.092   3.296  1.00  0.00    -0.003 C 
ATOM     16  C   UNL     1       3.840   4.190   3.078  1.00  0.00     0.004 C 
ENDBRANCH  14  15
ENDBRANCH  13  14
ENDBRANCH  12  13
ENDBRANCH  11  12
ENDBRANCH  10  11
ENDBRANCH   1  10
TORSDOF 12
ENDMDL
MODEL 3
REMARK VINA RESULT:    -3.129      5.850      7.832
REMARK INTER + INTRA:          -6.315
REMARK INTER:                  -5.167
REMARK INTRA:                  -1.148
REMARK UNBOUND:                -0.991
REMARK SMILES CCCCCCCCCCCCCC(=O)[O-]
REMARK SMILES IDX 8 1 9 2 10 3 11 4 12 5 13 6 14 7 15 8 16 9 7 10 6 11 5 12
REMARK SMILES IDX 4 13 3 14 2 15 1 16
REMARK H PARENT
REMARK Flexibility Score: inf
ROOT
ATOM      1  C   UNL     1       1.138   6.694   3.841  1.00  0.00     0.000 C 
ENDROOT
BRANCH   1   2
ATOM      2  C   UNL     1      -0.061   5.760   3.594  1.00  0.00     0.000 C 
BRANCH   2   3
ATOM      3  C   UNL     1      -1.333   6.524   3.196  1.00  0.00     0.000 C 
BRANCH   3   4
ATOM      4  C   UNL     1      -2.436   5.597   2.661  1.00  0.00     0.000 C 
BRANCH   4   5
ATOM      5  C   UNL     1      -2.761   5.921   1.195  1.00  0.00     0.006 C 
BRANCH   5   6
ATOM      6  C   UNL     1      -2.552   4.712   0.274  1.00  0.00     0.053 C 
BRANCH   6   7
ATOM      7  C   UNL     1      -2.467   5.118  -1.166  1.00  0.00     0.041 C 
ATOM      8  O   UNL     1      -1.417   5.648  -1.616  1.00  0.00    -0.550 OA
ATOM      9  O   UNL     1      -3.538   4.878  -2.019  1.00  0.00    -0.550 OA
ENDBRANCH   6   7
ENDBRANCH   5   6
ENDBRANCH   4   5
ENDBRANCH   3   4
ENDBRANCH   2   3
ENDBRANCH   1   2
BRANCH   1  10
ATOM     10  C   UNL     1       1.599   7.417   2.566  1.00  0.00     0.000 C 
BRANCH  10  11
ATOM     11  C   UNL     1       2.937   6.877   2.032  1.00  0.00    -0.000 C 
BRANCH  11  12
ATOM     12  C   UNL     1       3.710   6.070   3.088  1.00  0.00    -0.000 C 
BRANCH  12  13
ATOM     13  C   UNL     1       4.205   4.717   2.548  1.00  0.00    -0.000 C 
BRANCH  13  14
ATOM     14  C   UNL     1       3.451   3.519   3.154  1.00  0.00    -0.000 C 
BRANCH  14  15
ATOM     15  C   UNL     1       3.293   3.558   4.684  1.00  0.00    -0.003 C 
ATOM     16  C   UNL     1       1.947   3.013   5.161  1.00  0.00     0.004 C 
ENDBRANCH  14  15
ENDBRANCH  13  14
ENDBRANCH  12  13
ENDBRANCH  11  12
ENDBRANCH  10  11
ENDBRANCH   1  10
TORSDOF 12
ENDMDL
MODEL 4
REMARK VINA RESULT:    -3.105      5.482      9.177
REMARK INTER + INTRA:          -6.273
REMARK INTER:                  -5.840
REMARK INTRA:                  -0.434
REMARK UNBOUND:                -0.991
REMARK SMILES CCCCCCCCCCCCCC(=O)[O-]
REMARK SMILES IDX 8 1 9 2 10 3 11 4 12 5 13 6 14 7 15 8 16 9 7 10 6 11 5 12
REMARK SMILES IDX 4 13 3 14 2 15 1 16
REMARK H PARENT
REMARK Flexibility Score: inf
ROOT
ATOM      1  C   UNL     1       1.815   2.807   5.247  1.00  0.00     0.000 C 
ENDROOT
BRANCH   1   2
ATOM      2  C   UNL     1       2.262   1.478   5.882  1.00  0.00     0.000 C 
BRANCH   2   3
ATOM      3  C   UNL     1       1.076   0.604   6.320  1.00  0.00     0.000 C 
BRANCH   3   4
ATOM      4  C   UNL     1       0.600  -0.345   5.210  1.00  0.00     0.000 C 
BRANCH   4   5
ATOM      5  C   UNL     1       0.192  -1.707   5.790  1.00  0.00     0.006 C 
BRANCH   5   6
ATOM      6  C   UNL     1       0.314  -2.837   4.760  1.00  0.00     0.053 C 
BRANCH   6   7
ATOM      7  C   UNL     1      -1.024  -3.402   4.392  1.00  0.00     0.041 C 
ATOM      8  O   UNL     1      -1.552  -4.298   5.103  1.00  0.00    -0.550 OA
ATOM      9  O   UNL     1      -1.704  -2.913   3.284  1.00  0.00    -0.550 OA
ENDBRANCH   6   7
ENDBRANCH   5   6
ENDBRANCH   4   5
ENDBRANCH   3   4
ENDBRANCH   2   3
ENDBRANCH   1   2
BRANCH   1  10
ATOM     10  C   UNL     1       2.205   2.916   3.764  1.00  0.00     0.000 C 
BRANCH  10  11
ATOM     11  C   UNL     1       3.644   3.424   3.568  1.00  0.00    -0.000 C 
BRANCH  11  12
ATOM     12  C   UNL     1       3.693   4.873   3.056  1.00  0.00    -0.000 C 
BRANCH  12  13
ATOM     13  C   UNL     1       4.730   5.065   1.935  1.00  0.00    -0.000 C 
BRANCH  13  14
ATOM     14  C   UNL     1       5.926   5.932   2.369  1.00  0.00    -0.000 C 
BRANCH  14  15
ATOM     15  C   UNL     1       7.148   5.867   1.436  1.00  0.00    -0.003 C 
ATOM     16  C   UNL     1       6.917   4.990   0.206  1.00  0.00     0.004 C 
ENDBRANCH  14  15
ENDBRANCH  13  14
ENDBRANCH  12  13
ENDBRANCH  11  12
ENDBRANCH  10  11
ENDBRANCH   1  10
TORSDOF 12
ENDMDL
MODEL 5
REMARK VINA RESULT:    -3.080      1.380      3.221
REMARK INTER + INTRA:          -6.232
REMARK INTER:                  -4.956
REMARK INTRA:                  -1.276
REMARK UNBOUND:                -0.991
REMARK SMILES CCCCCCCCCCCCCC(=O)[O-]
REMARK SMILES IDX 8 1 9 2 10 3 11 4 12 5 13 6 14 7 15 8 16 9 7 10 6 11 5 12
REMARK SMILES IDX 4 13 3 14 2 15 1 16
REMARK H PARENT
REMARK Flexibility Score: inf
ROOT
ATOM      1  C   UNL     1       1.746   3.353   5.362  1.00  0.00     0.000 C 
ENDROOT
BRANCH   1   2
ATOM      2  C   UNL     1       2.465   2.958   4.060  1.00  0.00     0.000 C 
BRANCH   2   3
ATOM      3  C   UNL     1       3.812   3.676   3.887  1.00  0.00     0.000 C 
BRANCH   3   4
ATOM      4  C   UNL     1       3.937   4.380   2.527  1.00  0.00     0.000 C 
BRANCH   4   5
ATOM      5  C   UNL     1       5.127   5.351   2.519  1.00  0.00     0.006 C 
BRANCH   5   6
ATOM      6  C   UNL     1       5.674   5.586   1.105  1.00  0.00     0.053 C 
BRANCH   6   7
ATOM      7  C   UNL     1       7.132   5.258   1.011  1.00  0.00     0.041 C 
ATOM      8  O   UNL     1       7.552   4.487   0.107  1.00  0.00    -0.550 OA
ATOM      9  O   UNL     1       8.033   5.832   1.900  1.00  0.00    -0.550 OA
ENDBRANCH   6   7
ENDBRANCH   5   6
ENDBRANCH   4   5
ENDBRANCH   3   4
ENDBRANCH   2   3
ENDBRANCH   1   2
BRANCH   1  10
ATOM     10  C   UNL     1       0.945   2.192   5.972  1.00  0.00     0.000 C 
BRANCH  10  11
ATOM     11  C   UNL     1       1.721   0.864   5.951  1.00  0.00    -0.000 C 
BRANCH  11  12
ATOM     12  C   UNL     1       2.631   0.694   7.179  1.00  0.00    -0.000 C 
BRANCH  12  13
ATOM     13  C   UNL     1       4.101   0.453   6.793  1.00  0.00    -0.000 C 
BRANCH  13  14
ATOM     14  C   UNL     1       4.964   1.724   6.905  1.00  0.00    -0.000 C 
BRANCH  14  15
ATOM     15  C   UNL     1       4.367   2.840   7.780  1.00  0.00    -0.003 C 
ATOM     16  C   UNL     1       5.266   4.073   7.874  1.00  0.00     0.004 C 
ENDBRANCH  14  15
ENDBRANCH  13  14
ENDBRANCH  12  13
ENDBRANCH  11  12
ENDBRANCH  10  11
ENDBRANCH   1  10
TORSDOF 12
ENDMDL
MODEL 6
REMARK VINA RESULT:    -3.058      3.997      5.870
REMARK INTER + INTRA:          -6.193
REMARK INTER:                  -5.287
REMARK INTRA:                  -0.907
REMARK UNBOUND:                -0.991
REMARK SMILES CCCCCCCCCCCCCC(=O)[O-]
REMARK SMILES IDX 8 1 9 2 10 3 11 4 12 5 13 6 14 7 15 8 16 9 7 10 6 11 5 12
REMARK SMILES IDX 4 13 3 14 2 15 1 16
REMARK H PARENT
REMARK Flexibility Score: inf
ROOT
ATOM      1  C   UNL     1       0.341   5.494   3.644  1.00  0.00     0.000 C 
ENDROOT
BRANCH   1   2
ATOM      2  C   UNL     1       1.451   5.013   4.596  1.00  0.00     0.000 C 
BRANCH   2   3
ATOM      3  C   UNL     1       1.988   3.622   4.223  1.00  0.00     0.000 C 
BRANCH   3   4
ATOM      4  C   UNL     1       3.523   3.567   4.208  1.00  0.00     0.000 C 
BRANCH   4   5
ATOM      5  C   UNL     1       4.113   4.859   3.624  1.00  0.00     0.006 C 
BRANCH   5   6
ATOM      6  C   UNL     1       4.246   4.797   2.096  1.00  0.00     0.053 C 
BRANCH   6   7
ATOM      7  C   UNL     1       5.500   5.464   1.620  1.00  0.00     0.041 C 
ATOM      8  O   UNL     1       6.030   6.380   2.302  1.00  0.00    -0.550 OA
ATOM      9  O   UNL     1       6.103   5.047   0.439  1.00  0.00    -0.550 OA
ENDBRANCH   6   7
ENDBRANCH   5   6
ENDBRANCH   4   5
ENDBRANCH   3   4
ENDBRANCH   2   3
ENDBRANCH   1   2
BRANCH   1  10
ATOM     10  C   UNL     1      -0.834   6.150   4.386  1.00  0.00     0.000 C 
BRANCH  10  11
ATOM     11  C   UNL     1      -1.982   5.165   4.664  1.00  0.00    -0.000 C 
BRANCH  11  12
ATOM     12  C   UNL     1      -3.067   5.202   3.574  1.00  0.00    -0.000 C 
BRANCH  12  13
ATOM     13  C   UNL     1      -3.024   6.497   2.746  1.00  0.00    -0.000 C 
BRANCH  13  14
ATOM     14  C   UNL     1      -2.874   6.236   1.235  1.00  0.00    -0.000 C 
BRANCH  14  15
ATOM     15  C   UNL     1      -2.430   4.810   0.863  1.00  0.00    -0.003 C 
ATOM     16  C   UNL     1      -2.749   4.442  -0.585  1.00  0.00     0.004 C 
ENDBRANCH  14  15
ENDBRANCH  13  14
ENDBRANCH  12  13
ENDBRANCH  11  12
ENDBRANCH  10  11
ENDBRANCH   1  10
TORSDOF 12
ENDMDL
MODEL 7
REMARK VINA RESULT:    -3.051      2.744      4.489
REMARK INTER + INTRA:          -6.181
REMARK INTER:                  -4.471
REMARK INTRA:                  -1.711
REMARK UNBOUND:                -0.991
REMARK SMILES CCCCCCCCCCCCCC(=O)[O-]
REMARK SMILES IDX 8 1 9 2 10 3 11 4 12 5 13 6 14 7 15 8 16 9 7 10 6 11 5 12
REMARK SMILES IDX 4 13 3 14 2 15 1 16
REMARK H PARENT
REMARK Flexibility Score: inf
ROOT
ATOM      1  C   UNL     1       2.020   4.989   6.674  1.00  0.00     0.000 C 
ENDROOT
BRANCH   1   2
ATOM      2  C   UNL     1       1.093   4.347   5.626  1.00  0.00     0.000 C 
BRANCH   2   3
ATOM      3  C   UNL     1       1.605   4.538   4.189  1.00  0.00     0.000 C 
BRANCH   3   4
ATOM      4  C   UNL     1       2.238   3.262   3.614  1.00  0.00     0.000 C 
BRANCH   4   5
ATOM      5  C   UNL     1       3.668   3.533   3.122  1.00  0.00     0.006 C 
BRANCH   5   6
ATOM      6  C   UNL     1       4.052   5.013   3.240  1.00  0.00     0.053 C 
BRANCH   6   7
ATOM      7  C   UNL     1       4.438   5.595   1.915  1.00  0.00     0.041 C 
ATOM      8  O   UNL     1       5.271   5.002   1.179  1.00  0.00    -0.550 OA
ATOM      9  O   UNL     1       3.851   6.776   1.477  1.00  0.00    -0.550 OA
ENDBRANCH   6   7
ENDBRANCH   5   6
ENDBRANCH   4   5
ENDBRANCH   3   4
ENDBRANCH   2   3
ENDBRANCH   1   2
BRANCH   1  10
ATOM     10  C   UNL     1       2.782   3.947   7.508  1.00  0.00     0.000 C 
BRANCH  10  11
ATOM     11  C   UNL     1       4.086   3.489   6.832  1.00  0.00    -0.000 C 
BRANCH  11  12
ATOM     12  C   UNL     1       4.110   1.975   6.561  1.00  0.00    -0.000 C 
BRANCH  12  13
ATOM     13  C   UNL     1       2.846   1.266   7.077  1.00  0.00    -0.000 C 
BRANCH  13  14
ATOM     14  C   UNL     1       1.952   0.735   5.940  1.00  0.00    -0.000 C 
BRANCH  14  15
ATOM     15  C   UNL     1       0.718  -0.060   6.402  1.00  0.00    -0.003 C 
ATOM     16  C   UNL     1       0.325  -1.173   5.431  1.00  0.00     0.004 C 
ENDBRANCH  14  15
ENDBRANCH  13  14
ENDBRANCH  12  13
ENDBRANCH  11  12
ENDBRANCH  10  11
ENDBRANCH   1  10
TORSDOF 12
ENDMDL
MODEL 8
REMARK VINA RESULT:    -3.031      3.098      6.967
REMARK INTER + INTRA:          -6.147
REMARK INTER:                  -4.706
REMARK INTRA:                  -1.441
REMARK UNBOUND:                -0.991
REMARK SMILES CCCCCCCCCCCCCC(=O)[O-]
REMARK SMILES IDX 8 1 9 2 10 3 11 4 12 5 13 6 14 7 15 8 16 9 7 10 6 11 5 12
REMARK SMILES IDX 4 13 3 14 2 15 1 16
REMARK H PARENT
REMARK Flexibility Score: inf
ROOT
ATOM      1  C   UNL     1       5.205   6.410   0.974  1.00  0.00     0.000 C 
ENDROOT
BRANCH   1   2
ATOM      2  C   UNL     1       5.258   5.402   2.136  1.00  0.00     0.000 C 
BRANCH   2   3
ATOM      3  C   UNL     1       3.871   5.109   2.729  1.00  0.00     0.000 C 
BRANCH   3   4
ATOM      4  C   UNL     1       3.655   3.615   3.015  1.00  0.00     0.000 C 
BRANCH   4   5
ATOM      5  C   UNL     1       2.880   3.414   4.325  1.00  0.00     0.006 C 
BRANCH   5   6
ATOM      6  C   UNL     1       3.783   2.927   5.466  1.00  0.00     0.053 C 
BRANCH   6   7
ATOM      7  C   UNL     1       4.143   4.039   6.404  1.00  0.00     0.041 C 
ATOM      8  O   UNL     1       3.569   5.156   6.313  1.00  0.00    -0.550 OA
ATOM      9  O   UNL     1       5.087   3.828   7.401  1.00  0.00    -0.550 OA
ENDBRANCH   6   7
ENDBRANCH   5   6
ENDBRANCH   4   5
ENDBRANCH   3   4
ENDBRANCH   2   3
ENDBRANCH   1   2
BRANCH   1  10
ATOM     10  C   UNL     1       6.279   6.142  -0.092  1.00  0.00     0.000 C 
BRANCH  10  11
ATOM     11  C   UNL     1       7.006   4.804   0.125  1.00  0.00    -0.000 C 
BRANCH  11  12
ATOM     12  C   UNL     1       8.486   4.862  -0.290  1.00  0.00    -0.000 C 
BRANCH  12  13
ATOM     13  C   UNL     1       9.327   5.737   0.656  1.00  0.00    -0.000 C 
BRANCH  13  14
ATOM     14  C   UNL     1       9.218   5.301   2.129  1.00  0.00    -0.000 C 
BRANCH  14  15
ATOM     15  C   UNL     1       8.732   6.395   3.096  1.00  0.00    -0.003 C 
ATOM     16  C   UNL     1       8.499   7.740   2.410  1.00  0.00     0.004 C 
ENDBRANCH  14  15
ENDBRANCH  13  14
ENDBRANCH  12  13
ENDBRANCH  11  12
ENDBRANCH  10  11
ENDBRANCH   1  10
TORSDOF 12
ENDMDL
MODEL 9
REMARK VINA RESULT:    -3.009      7.514     10.853
REMARK INTER + INTRA:          -6.111
REMARK INTER:                  -5.183
REMARK INTRA:                  -0.928
REMARK UNBOUND:                -0.991
REMARK SMILES CCCCCCCCCCCCCC(=O)[O-]
REMARK SMILES IDX 8 1 9 2 10 3 11 4 12 5 13 6 14 7 15 8 16 9 7 10 6 11 5 12
REMARK SMILES IDX 4 13 3 14 2 15 1 16
REMARK H PARENT
REMARK Flexibility Score: inf
ROOT
ATOM      1  C   UNL     1       0.254  -2.112   6.152  1.00  0.00     0.000 C 
ENDROOT
BRANCH   1   2
ATOM      2  C   UNL     1       0.896  -3.386   5.575  1.00  0.00     0.000 C 
BRANCH   2   3
ATOM      3  C   UNL     1       0.388  -3.717   4.163  1.00  0.00     0.000 C 
BRANCH   3   4
ATOM      4  C   UNL     1      -1.042  -4.279   4.167  1.00  0.00     0.000 C 
BRANCH   4   5
ATOM      5  C   UNL     1      -1.997  -3.355   3.397  1.00  0.00     0.006 C 
BRANCH   5   6
ATOM      6  C   UNL     1      -3.412  -3.360   3.990  1.00  0.00     0.053 C 
BRANCH   6   7
ATOM      7  C   UNL     1      -4.267  -4.429   3.382  1.00  0.00     0.041 C 
ATOM      8  O   UNL     1      -5.420  -4.654   3.835  1.00  0.00    -0.550 OA
ATOM      9  O   UNL     1      -3.802  -5.153   2.291  1.00  0.00    -0.550 OA
ENDBRANCH   6   7
ENDBRANCH   5   6
ENDBRANCH   4   5
ENDBRANCH   3   4
ENDBRANCH   2   3
ENDBRANCH   1   2
BRANCH   1  10
ATOM     10  C   UNL     1       0.332  -0.920   5.185  1.00  0.00     0.000 C 
BRANCH  10  11
ATOM     11  C   UNL     1       0.882   0.350   5.855  1.00  0.00    -0.000 C 
BRANCH  11  12
ATOM     12  C   UNL     1       2.111   0.067   6.736  1.00  0.00    -0.000 C 
BRANCH  12  13
ATOM     13  C   UNL     1       3.226   1.109   6.541  1.00  0.00    -0.000 C 
BRANCH  13  14
ATOM     14  C   UNL     1       2.690   2.482   6.095  1.00  0.00    -0.000 C 
BRANCH  14  15
ATOM     15  C   UNL     1       3.390   3.084   4.864  1.00  0.00    -0.003 C 
ATOM     16  C   UNL     1       2.555   2.978   3.588  1.00  0.00     0.004 C 
ENDBRANCH  14  15
ENDBRANCH  13  14
ENDBRANCH  12  13
ENDBRANCH  11  12
ENDBRANCH  10  11
ENDBRANCH   1  10
TORSDOF 12
ENDMDL
