MODEL 1
REMARK VINA RESULT:    -6.968      0.000      0.000
REMARK INTER + INTRA:         -16.625
REMARK INTER:                 -15.114
REMARK INTRA:                  -1.511
REMARK UNBOUND:                -1.511
REMARK SMILES CCCCCCCCCCCCCCCCCCCCCC(=O)[O-]
REMARK SMILES IDX 12 1 11 2 10 3 9 4 8 5 7 6 6 7 5 8 4 9 3 10 2 11 1 12 13 13
REMARK SMILES IDX 14 14 15 15 16 16 17 17 18 18 19 19 20 20 21 21 22 22 23 23
REMARK SMILES IDX 24 24
REMARK H PARENT
REMARK Flexibility Score: inf
ROOT
ATOM      1  C   UNL     1     -21.758 -23.331  28.755  1.00  0.00     0.000 C 
ENDROOT
BRANCH   1   2
ATOM      2  C   UNL     1     -23.050 -24.163  28.605  1.00  0.00     0.000 C 
BRANCH   2   3
ATOM      3  C   UNL     1     -23.132 -25.366  29.566  1.00  0.00     0.000 C 
BRANCH   3   4
ATOM      4  C   UNL     1     -23.773 -25.068  30.932  1.00  0.00    -0.000 C 
BRANCH   4   5
ATOM      5  C   UNL     1     -24.849 -26.096  31.323  1.00  0.00    -0.000 C 
BRANCH   5   6
ATOM      6  C   UNL     1     -25.128 -27.124  30.210  1.00  0.00    -0.000 C 
BRANCH   6   7
ATOM      7  C   UNL     1     -26.149 -28.221  30.567  1.00  0.00    -0.000 C 
BRANCH   7   8
ATOM      8  C   UNL     1     -26.502 -29.125  29.374  1.00  0.00    -0.000 C 
BRANCH   8   9
ATOM      9  C   UNL     1     -26.306 -28.429  28.013  1.00  0.00    -0.000 C 
BRANCH   9  10
ATOM     10  C   UNL     1     -27.352 -28.780  26.939  1.00  0.00    -0.000 C 
BRANCH  10  11
ATOM     11  C   UNL     1     -26.769 -28.802  25.518  1.00  0.00    -0.003 C 
ATOM     12  C   UNL     1     -27.846 -28.511  24.477  1.00  0.00     0.004 C 
ENDBRANCH  10  11
ENDBRANCH   9  10
ENDBRANCH   8   9
ENDBRANCH   7   8
ENDBRANCH   6   7
ENDBRANCH   5   6
ENDBRANCH   4   5
ENDBRANCH   3   4
ENDBRANCH   2   3
ENDBRANCH   1   2
BRANCH   1  13
ATOM     13  C   UNL     1     -22.005 -21.829  28.532  1.00  0.00     0.000 C 
BRANCH  13  14
ATOM     14  C   UNL     1     -22.741 -21.164  29.709  1.00  0.00     0.000 C 
BRANCH  14  15
ATOM     15  C   UNL     1     -22.225 -21.563  31.106  1.00  0.00     0.000 C 
BRANCH  15  16
ATOM     16  C   UNL     1     -20.924 -20.862  31.549  1.00  0.00     0.000 C 
BRANCH  16  17
ATOM     17  C   UNL     1     -20.902 -19.339  31.335  1.00  0.00     0.000 C 
BRANCH  17  18
ATOM     18  C   UNL     1     -19.831 -18.894  30.328  1.00  0.00     0.000 C 
BRANCH  18  19
ATOM     19  C   UNL     1     -20.471 -18.433  29.013  1.00  0.00     0.000 C 
BRANCH  19  20
ATOM     20  C   UNL     1     -19.875 -17.100  28.548  1.00  0.00     0.006 C 
BRANCH  20  21
ATOM     21  C   UNL     1     -18.366 -17.221  28.325  1.00  0.00     0.053 C 
BRANCH  21  22
ATOM     22  C   UNL     1     -17.774 -15.886  27.999  1.00  0.00     0.041 C 
ATOM     23  O   UNL     1     -17.578 -15.039  28.910  1.00  0.00    -0.550 OA
ATOM     24  O   UNL     1     -17.391 -15.596  26.694  1.00  0.00    -0.550 OA
ENDBRANCH  21  22
ENDBRANCH  20  21
ENDBRANCH  19  20
ENDBRANCH  18  19
ENDBRANCH  17  18
ENDBRANCH  16  17
ENDBRANCH  15  16
ENDBRANCH  14  15
ENDBRANCH  13  14
ENDBRANCH   1  13
TORSDOF 20
ENDMDL
MODEL 2
REMARK VINA RESULT:    -6.956      4.770     11.259
REMARK INTER + INTRA:         -16.599
REMARK INTER:                 -14.951
REMARK INTRA:                  -1.648
REMARK UNBOUND:                -1.511
REMARK SMILES CCCCCCCCCCCCCCCCCCCCCC(=O)[O-]
REMARK SMILES IDX 12 1 11 2 10 3 9 4 8 5 7 6 6 7 5 8 4 9 3 10 2 11 1 12 13 13
REMARK SMILES IDX 14 14 15 15 16 16 17 17 18 18 19 19 20 20 21 21 22 22 23 23
REMARK SMILES IDX 24 24
REMARK H PARENT
REMARK Flexibility Score: inf
ROOT
ATOM      1  C   UNL     1     -22.218 -20.850  29.427  1.00  0.00     0.000 C 
ENDROOT
BRANCH   1   2
ATOM      2  C   UNL     1     -22.001 -21.491  30.815  1.00  0.00     0.000 C 
BRANCH   2   3
ATOM      3  C   UNL     1     -20.909 -20.802  31.657  1.00  0.00     0.000 C 
BRANCH   3   4
ATOM      4  C   UNL     1     -20.888 -19.266  31.569  1.00  0.00    -0.000 C 
BRANCH   4   5
ATOM      5  C   UNL     1     -19.474 -18.701  31.352  1.00  0.00    -0.000 C 
BRANCH   5   6
ATOM      6  C   UNL     1     -19.460 -17.451  30.451  1.00  0.00    -0.000 C 
BRANCH   6   7
ATOM      7  C   UNL     1     -20.209 -17.595  29.113  1.00  0.00    -0.000 C 
BRANCH   7   8
ATOM      8  C   UNL     1     -19.445 -16.979  27.928  1.00  0.00    -0.000 C 
BRANCH   8   9
ATOM      9  C   UNL     1     -18.067 -16.419  28.326  1.00  0.00    -0.000 C 
BRANCH   9  10
ATOM     10  C   UNL     1     -17.488 -15.360  27.370  1.00  0.00    -0.000 C 
BRANCH  10  11
ATOM     11  C   UNL     1     -17.496 -15.808  25.901  1.00  0.00    -0.003 C 
ATOM     12  C   UNL     1     -16.546 -14.960  25.061  1.00  0.00     0.004 C 
ENDBRANCH  10  11
ENDBRANCH   9  10
ENDBRANCH   8   9
ENDBRANCH   7   8
ENDBRANCH   6   7
ENDBRANCH   5   6
ENDBRANCH   4   5
ENDBRANCH   3   4
ENDBRANCH   2   3
ENDBRANCH   1   2
BRANCH   1  13
ATOM     13  C   UNL     1     -22.241 -21.897  28.300  1.00  0.00     0.000 C 
BRANCH  13  14
ATOM     14  C   UNL     1     -21.818 -23.298  28.778  1.00  0.00     0.000 C 
BRANCH  14  15
ATOM     15  C   UNL     1     -22.940 -24.356  28.762  1.00  0.00     0.000 C 
BRANCH  15  16
ATOM     16  C   UNL     1     -23.036 -25.230  30.029  1.00  0.00     0.000 C 
BRANCH  16  17
ATOM     17  C   UNL     1     -24.080 -24.766  31.060  1.00  0.00     0.000 C 
BRANCH  17  18
ATOM     18  C   UNL     1     -25.288 -25.710  31.148  1.00  0.00     0.000 C 
BRANCH  18  19
ATOM     19  C   UNL     1     -24.854 -27.174  31.001  1.00  0.00     0.000 C 
BRANCH  19  20
ATOM     20  C   UNL     1     -25.805 -27.940  30.073  1.00  0.00     0.006 C 
BRANCH  20  21
ATOM     21  C   UNL     1     -25.757 -27.375  28.652  1.00  0.00     0.053 C 
BRANCH  21  22
ATOM     22  C   UNL     1     -26.457 -28.292  27.699  1.00  0.00     0.041 C 
ATOM     23  O   UNL     1     -27.405 -29.019  28.098  1.00  0.00    -0.550 OA
ATOM     24  O   UNL     1     -26.095 -28.308  26.357  1.00  0.00    -0.550 OA
ENDBRANCH  21  22
ENDBRANCH  20  21
ENDBRANCH  19  20
ENDBRANCH  18  19
ENDBRANCH  17  18
ENDBRANCH  16  17
ENDBRANCH  15  16
ENDBRANCH  14  15
ENDBRANCH  13  14
ENDBRANCH   1  13
TORSDOF 20
ENDMDL
MODEL 3
REMARK VINA RESULT:    -6.917      1.498      2.426
REMARK INTER + INTRA:         -16.515
REMARK INTER:                 -14.991
REMARK INTRA:                  -1.524
REMARK UNBOUND:                -1.511
REMARK SMILES CCCCCCCCCCCCCCCCCCCCCC(=O)[O-]
REMARK SMILES IDX 12 1 11 2 10 3 9 4 8 5 7 6 6 7 5 8 4 9 3 10 2 11 1 12 13 13
REMARK SMILES IDX 14 14 15 15 16 16 17 17 18 18 19 19 20 20 21 21 22 22 23 23
REMARK SMILES IDX 24 24
REMARK H PARENT
REMARK Flexibility Score: inf
ROOT
ATOM      1  C   UNL     1     -22.013 -21.755  28.227  1.00  0.00     0.000 C 
ENDROOT
BRANCH   1   2
ATOM      2  C   UNL     1     -22.340 -23.093  28.922  1.00  0.00     0.000 C 
BRANCH   2   3
ATOM      3  C   UNL     1     -22.009 -23.111  30.427  1.00  0.00     0.000 C 
BRANCH   3   4
ATOM      4  C   UNL     1     -23.131 -23.639  31.337  1.00  0.00    -0.000 C 
BRANCH   4   5
ATOM      5  C   UNL     1     -23.221 -25.175  31.344  1.00  0.00    -0.000 C 
BRANCH   5   6
ATOM      6  C   UNL     1     -24.671 -25.691  31.284  1.00  0.00    -0.000 C 
BRANCH   6   7
ATOM      7  C   UNL     1     -25.297 -25.737  29.876  1.00  0.00    -0.000 C 
BRANCH   7   8
ATOM      8  C   UNL     1     -24.366 -26.365  28.826  1.00  0.00    -0.000 C 
BRANCH   8   9
ATOM      9  C   UNL     1     -25.079 -27.392  27.925  1.00  0.00    -0.000 C 
BRANCH   9  10
ATOM     10  C   UNL     1     -26.227 -28.168  28.596  1.00  0.00    -0.000 C 
BRANCH  10  11
ATOM     11  C   UNL     1     -27.123 -28.904  27.589  1.00  0.00    -0.003 C 
ATOM     12  C   UNL     1     -26.765 -28.525  26.154  1.00  0.00     0.004 C 
ENDBRANCH  10  11
ENDBRANCH   9  10
ENDBRANCH   8   9
ENDBRANCH   7   8
ENDBRANCH   6   7
ENDBRANCH   5   6
ENDBRANCH   4   5
ENDBRANCH   3   4
ENDBRANCH   2   3
ENDBRANCH   1   2
BRANCH   1  13
ATOM     13  C   UNL     1     -22.259 -20.546  29.147  1.00  0.00     0.000 C 
BRANCH  13  14
ATOM     14  C   UNL     1     -21.043 -19.604  29.231  1.00  0.00     0.000 C 
BRANCH  14  15
ATOM     15  C   UNL     1     -20.519 -19.347  30.657  1.00  0.00     0.000 C 
BRANCH  15  16
ATOM     16  C   UNL     1     -19.130 -18.679  30.734  1.00  0.00     0.000 C 
BRANCH  16  17
ATOM     17  C   UNL     1     -19.147 -17.185  31.101  1.00  0.00     0.000 C 
BRANCH  17  18
ATOM     18  C   UNL     1     -18.657 -16.286  29.958  1.00  0.00     0.000 C 
BRANCH  18  19
ATOM     19  C   UNL     1     -18.395 -17.105  28.688  1.00  0.00     0.000 C 
BRANCH  19  20
ATOM     20  C   UNL     1     -18.591 -16.249  27.430  1.00  0.00     0.006 C 
BRANCH  20  21
ATOM     21  C   UNL     1     -17.268 -15.625  26.980  1.00  0.00     0.053 C 
BRANCH  21  22
ATOM     22  C   UNL     1     -17.258 -15.429  25.497  1.00  0.00     0.041 C 
ATOM     23  O   UNL     1     -18.339 -15.270  24.870  1.00  0.00    -0.550 OA
ATOM     24  O   UNL     1     -16.050 -15.373  24.811  1.00  0.00    -0.550 OA
ENDBRANCH  21  22
ENDBRANCH  20  21
ENDBRANCH  19  20
ENDBRANCH  18  19
ENDBRANCH  17  18
ENDBRANCH  16  17
ENDBRANCH  15  16
ENDBRANCH  14  15
ENDBRANCH  13  14
ENDBRANCH   1  13
TORSDOF 20
ENDMDL
MODEL 4
REMARK VINA RESULT:    -6.861      1.501      2.199
REMARK INTER + INTRA:         -16.394
REMARK INTER:                 -15.350
REMARK INTRA:                  -1.044
REMARK UNBOUND:                -1.511
REMARK SMILES CCCCCCCCCCCCCCCCCCCCCC(=O)[O-]
REMARK SMILES IDX 12 1 11 2 10 3 9 4 8 5 7 6 6 7 5 8 4 9 3 10 2 11 1 12 13 13
REMARK SMILES IDX 14 14 15 15 16 16 17 17 18 18 19 19 20 20 21 21 22 22 23 23
REMARK SMILES IDX 24 24
REMARK H PARENT
REMARK Flexibility Score: inf
ROOT
ATOM      1  C   UNL     1     -22.563 -22.408  31.389  1.00  0.00     0.000 C 
ENDROOT
BRANCH   1   2
ATOM      2  C   UNL     1     -22.013 -23.499  30.447  1.00  0.00     0.000 C 
BRANCH   2   3
ATOM      3  C   UNL     1     -23.027 -24.614  30.123  1.00  0.00     0.000 C 
BRANCH   3   4
ATOM      4  C   UNL     1     -23.873 -25.094  31.315  1.00  0.00    -0.000 C 
BRANCH   4   5
ATOM      5  C   UNL     1     -25.095 -25.923  30.883  1.00  0.00    -0.000 C 
BRANCH   5   6
ATOM      6  C   UNL     1     -25.369 -25.844  29.370  1.00  0.00    -0.000 C 
BRANCH   6   7
ATOM      7  C   UNL     1     -25.194 -27.165  28.598  1.00  0.00    -0.000 C 
BRANCH   7   8
ATOM      8  C   UNL     1     -26.147 -28.272  29.078  1.00  0.00    -0.000 C 
BRANCH   8   9
ATOM      9  C   UNL     1     -26.977 -28.891  27.937  1.00  0.00    -0.000 C 
BRANCH   9  10
ATOM     10  C   UNL     1     -26.517 -28.520  26.515  1.00  0.00    -0.000 C 
BRANCH  10  11
ATOM     11  C   UNL     1     -27.329 -29.226  25.419  1.00  0.00    -0.003 C 
ATOM     12  C   UNL     1     -28.107 -28.220  24.575  1.00  0.00     0.004 C 
ENDBRANCH  10  11
ENDBRANCH   9  10
ENDBRANCH   8   9
ENDBRANCH   7   8
ENDBRANCH   6   7
ENDBRANCH   5   6
ENDBRANCH   4   5
ENDBRANCH   3   4
ENDBRANCH   2   3
ENDBRANCH   1   2
BRANCH   1  13
ATOM     13  C   UNL     1     -21.442 -21.671  32.143  1.00  0.00     0.000 C 
BRANCH  13  14
ATOM     14  C   UNL     1     -20.861 -20.491  31.343  1.00  0.00     0.000 C 
BRANCH  14  15
ATOM     15  C   UNL     1     -21.805 -19.900  30.278  1.00  0.00     0.000 C 
BRANCH  15  16
ATOM     16  C   UNL     1     -21.147 -19.589  28.918  1.00  0.00     0.000 C 
BRANCH  16  17
ATOM     17  C   UNL     1     -20.648 -18.143  28.754  1.00  0.00     0.000 C 
BRANCH  17  18
ATOM     18  C   UNL     1     -19.206 -17.951  29.246  1.00  0.00     0.000 C 
BRANCH  18  19
ATOM     19  C   UNL     1     -18.641 -16.603  28.782  1.00  0.00     0.000 C 
BRANCH  19  20
ATOM     20  C   UNL     1     -18.198 -16.667  27.315  1.00  0.00     0.006 C 
BRANCH  20  21
ATOM     21  C   UNL     1     -17.240 -15.520  26.982  1.00  0.00     0.053 C 
BRANCH  21  22
ATOM     22  C   UNL     1     -17.214 -15.271  25.507  1.00  0.00     0.041 C 
ATOM     23  O   UNL     1     -16.119 -15.080  24.915  1.00  0.00    -0.550 OA
ATOM     24  O   UNL     1     -18.397 -15.298  24.777  1.00  0.00    -0.550 OA
ENDBRANCH  21  22
ENDBRANCH  20  21
ENDBRANCH  19  20
ENDBRANCH  18  19
ENDBRANCH  17  18
ENDBRANCH  16  17
ENDBRANCH  15  16
ENDBRANCH  14  15
ENDBRANCH  13  14
ENDBRANCH   1  13
TORSDOF 20
ENDMDL
MODEL 5
REMARK VINA RESULT:    -6.858      4.979     11.215
REMARK INTER + INTRA:         -16.387
REMARK INTER:                 -14.940
REMARK INTRA:                  -1.447
REMARK UNBOUND:                -1.511
REMARK SMILES CCCCCCCCCCCCCCCCCCCCCC(=O)[O-]
REMARK SMILES IDX 12 1 11 2 10 3 9 4 8 5 7 6 6 7 5 8 4 9 3 10 2 11 1 12 13 13
REMARK SMILES IDX 14 14 15 15 16 16 17 17 18 18 19 19 20 20 21 21 22 22 23 23
REMARK SMILES IDX 24 24
REMARK H PARENT
REMARK Flexibility Score: inf
ROOT
ATOM      1  C   UNL     1     -21.984 -21.718  28.178  1.00  0.00     0.000 C 
ENDROOT
BRANCH   1   2
ATOM      2  C   UNL     1     -22.454 -20.513  29.020  1.00  0.00     0.000 C 
BRANCH   2   3
ATOM      3  C   UNL     1     -21.338 -19.496  29.331  1.00  0.00     0.000 C 
BRANCH   3   4
ATOM      4  C   UNL     1     -20.988 -19.344  30.821  1.00  0.00    -0.000 C 
BRANCH   4   5
ATOM      5  C   UNL     1     -19.522 -18.936  31.050  1.00  0.00    -0.000 C 
BRANCH   5   6
ATOM      6  C   UNL     1     -19.349 -17.420  31.263  1.00  0.00    -0.000 C 
BRANCH   6   7
ATOM      7  C   UNL     1     -18.593 -16.679  30.144  1.00  0.00    -0.000 C 
BRANCH   7   8
ATOM      8  C   UNL     1     -18.600 -17.442  28.808  1.00  0.00    -0.000 C 
BRANCH   8   9
ATOM      9  C   UNL     1     -18.839 -16.525  27.593  1.00  0.00    -0.000 C 
BRANCH   9  10
ATOM     10  C   UNL     1     -17.607 -15.736  27.113  1.00  0.00    -0.000 C 
BRANCH  10  11
ATOM     11  C   UNL     1     -17.537 -15.606  25.584  1.00  0.00    -0.003 C 
ATOM     12  C   UNL     1     -16.214 -14.984  25.144  1.00  0.00     0.004 C 
ENDBRANCH  10  11
ENDBRANCH   9  10
ENDBRANCH   8   9
ENDBRANCH   7   8
ENDBRANCH   6   7
ENDBRANCH   5   6
ENDBRANCH   4   5
ENDBRANCH   3   4
ENDBRANCH   2   3
ENDBRANCH   1   2
BRANCH   1  13
ATOM     13  C   UNL     1     -22.404 -23.061  28.799  1.00  0.00     0.000 C 
BRANCH  13  14
ATOM     14  C   UNL     1     -21.738 -23.322  30.163  1.00  0.00     0.000 C 
BRANCH  14  15
ATOM     15  C   UNL     1     -22.583 -22.918  31.387  1.00  0.00     0.000 C 
BRANCH  15  16
ATOM     16  C   UNL     1     -23.778 -23.844  31.693  1.00  0.00     0.000 C 
BRANCH  16  17
ATOM     17  C   UNL     1     -23.525 -25.339  31.429  1.00  0.00     0.000 C 
BRANCH  17  18
ATOM     18  C   UNL     1     -24.467 -25.923  30.366  1.00  0.00     0.000 C 
BRANCH  18  19
ATOM     19  C   UNL     1     -23.674 -26.515  29.195  1.00  0.00     0.000 C 
BRANCH  19  20
ATOM     20  C   UNL     1     -24.613 -26.993  28.080  1.00  0.00     0.006 C 
BRANCH  20  21
ATOM     21  C   UNL     1     -26.045 -27.148  28.597  1.00  0.00     0.053 C 
BRANCH  21  22
ATOM     22  C   UNL     1     -26.603 -28.480  28.205  1.00  0.00     0.041 C 
ATOM     23  O   UNL     1     -26.867 -29.341  29.085  1.00  0.00    -0.550 OA
ATOM     24  O   UNL     1     -26.879 -28.751  26.870  1.00  0.00    -0.550 OA
ENDBRANCH  21  22
ENDBRANCH  20  21
ENDBRANCH  19  20
ENDBRANCH  18  19
ENDBRANCH  17  18
ENDBRANCH  16  17
ENDBRANCH  15  16
ENDBRANCH  14  15
ENDBRANCH  13  14
ENDBRANCH   1  13
TORSDOF 20
ENDMDL
MODEL 6
REMARK VINA RESULT:    -6.817      5.013     11.506
REMARK INTER + INTRA:         -16.297
REMARK INTER:                 -15.140
REMARK INTRA:                  -1.158
REMARK UNBOUND:                -1.511
REMARK SMILES CCCCCCCCCCCCCCCCCCCCCC(=O)[O-]
REMARK SMILES IDX 12 1 11 2 10 3 9 4 8 5 7 6 6 7 5 8 4 9 3 10 2 11 1 12 13 13
REMARK SMILES IDX 14 14 15 15 16 16 17 17 18 18 19 19 20 20 21 21 22 22 23 23
REMARK SMILES IDX 24 24
REMARK H PARENT
REMARK Flexibility Score: inf
ROOT
ATOM      1  C   UNL     1     -22.047 -23.505  29.101  1.00  0.00     0.000 C 
ENDROOT
BRANCH   1   2
ATOM      2  C   UNL     1     -22.293 -22.201  28.312  1.00  0.00     0.000 C 
BRANCH   2   3
ATOM      3  C   UNL     1     -22.475 -20.957  29.203  1.00  0.00     0.000 C 
BRANCH   3   4
ATOM      4  C   UNL     1     -21.296 -19.969  29.195  1.00  0.00    -0.000 C 
BRANCH   4   5
ATOM      5  C   UNL     1     -20.751 -19.679  30.604  1.00  0.00    -0.000 C 
BRANCH   5   6
ATOM      6  C   UNL     1     -19.723 -18.533  30.625  1.00  0.00    -0.000 C 
BRANCH   6   7
ATOM      7  C   UNL     1     -19.057 -18.220  29.271  1.00  0.00    -0.000 C 
BRANCH   7   8
ATOM      8  C   UNL     1     -19.092 -16.723  28.917  1.00  0.00    -0.000 C 
BRANCH   8   9
ATOM      9  C   UNL     1     -18.624 -16.434  27.478  1.00  0.00    -0.000 C 
BRANCH   9  10
ATOM     10  C   UNL     1     -17.280 -15.692  27.361  1.00  0.00    -0.000 C 
BRANCH  10  11
ATOM     11  C   UNL     1     -16.844 -15.467  25.905  1.00  0.00    -0.003 C 
ATOM     12  C   UNL     1     -18.050 -15.254  24.995  1.00  0.00     0.004 C 
ENDBRANCH  10  11
ENDBRANCH   9  10
ENDBRANCH   8   9
ENDBRANCH   7   8
ENDBRANCH   6   7
ENDBRANCH   5   6
ENDBRANCH   4   5
ENDBRANCH   3   4
ENDBRANCH   2   3
ENDBRANCH   1   2
BRANCH   1  13
ATOM     13  C   UNL     1     -22.016 -23.268  30.621  1.00  0.00     0.000 C 
BRANCH  13  14
ATOM     14  C   UNL     1     -23.328 -23.678  31.315  1.00  0.00     0.000 C 
BRANCH  14  15
ATOM     15  C   UNL     1     -23.517 -25.197  31.501  1.00  0.00     0.000 C 
BRANCH  15  16
ATOM     16  C   UNL     1     -24.736 -25.799  30.773  1.00  0.00     0.000 C 
BRANCH  16  17
ATOM     17  C   UNL     1     -24.590 -25.913  29.245  1.00  0.00     0.000 C 
BRANCH  17  18
ATOM     18  C   UNL     1     -25.828 -26.524  28.573  1.00  0.00     0.000 C 
BRANCH  18  19
ATOM     19  C   UNL     1     -25.952 -28.017  28.902  1.00  0.00     0.000 C 
BRANCH  19  20
ATOM     20  C   UNL     1     -26.749 -28.755  27.820  1.00  0.00     0.006 C 
BRANCH  20  21
ATOM     21  C   UNL     1     -26.907 -27.889  26.568  1.00  0.00     0.053 C 
BRANCH  21  22
ATOM     22  C   UNL     1     -26.967 -28.745  25.342  1.00  0.00     0.041 C 
ATOM     23  O   UNL     1     -25.907 -29.080  24.750  1.00  0.00    -0.550 OA
ATOM     24  O   UNL     1     -28.191 -29.215  24.882  1.00  0.00    -0.550 OA
ENDBRANCH  21  22
ENDBRANCH  20  21
ENDBRANCH  19  20
ENDBRANCH  18  19
ENDBRANCH  17  18
ENDBRANCH  16  17
ENDBRANCH  15  16
ENDBRANCH  14  15
ENDBRANCH  13  14
ENDBRANCH   1  13
TORSDOF 20
ENDMDL
MODEL 7
REMARK VINA RESULT:    -6.551      5.030     11.592
REMARK INTER + INTRA:         -15.720
REMARK INTER:                 -14.350
REMARK INTRA:                  -1.370
REMARK UNBOUND:                -1.511
REMARK SMILES CCCCCCCCCCCCCCCCCCCCCC(=O)[O-]
REMARK SMILES IDX 12 1 11 2 10 3 9 4 8 5 7 6 6 7 5 8 4 9 3 10 2 11 1 12 13 13
REMARK SMILES IDX 14 14 15 15 16 16 17 17 18 18 19 19 20 20 21 21 22 22 23 23
REMARK SMILES IDX 24 24
REMARK H PARENT
REMARK Flexibility Score: inf
ROOT
ATOM      1  C   UNL     1     -21.040 -20.127  28.840  1.00  0.00     0.000 C 
ENDROOT
BRANCH   1   2
ATOM      2  C   UNL     1     -20.948 -18.590  28.945  1.00  0.00     0.000 C 
BRANCH   2   3
ATOM      3  C   UNL     1     -20.688 -18.077  30.375  1.00  0.00     0.000 C 
BRANCH   3   4
ATOM      4  C   UNL     1     -19.489 -18.719  31.092  1.00  0.00    -0.000 C 
BRANCH   4   5
ATOM      5  C   UNL     1     -18.296 -17.758  31.237  1.00  0.00    -0.000 C 
BRANCH   5   6
ATOM      6  C   UNL     1     -18.614 -16.331  30.752  1.00  0.00    -0.000 C 
BRANCH   6   7
ATOM      7  C   UNL     1     -17.855 -15.880  29.489  1.00  0.00    -0.000 C 
BRANCH   7   8
ATOM      8  C   UNL     1     -18.102 -16.799  28.281  1.00  0.00    -0.000 C 
BRANCH   8   9
ATOM      9  C   UNL     1     -18.225 -16.027  26.953  1.00  0.00    -0.000 C 
BRANCH   9  10
ATOM     10  C   UNL     1     -16.935 -15.340  26.470  1.00  0.00    -0.000 C 
BRANCH  10  11
ATOM     11  C   UNL     1     -16.921 -15.089  24.955  1.00  0.00    -0.003 C 
ATOM     12  C   UNL     1     -15.976 -16.055  24.246  1.00  0.00     0.004 C 
ENDBRANCH  10  11
ENDBRANCH   9  10
ENDBRANCH   8   9
ENDBRANCH   7   8
ENDBRANCH   6   7
ENDBRANCH   5   6
ENDBRANCH   4   5
ENDBRANCH   3   4
ENDBRANCH   2   3
ENDBRANCH   1   2
BRANCH   1  13
ATOM     13  C   UNL     1     -22.417 -20.658  29.276  1.00  0.00     0.000 C 
BRANCH  13  14
ATOM     14  C   UNL     1     -22.395 -21.295  30.678  1.00  0.00     0.000 C 
BRANCH  14  15
ATOM     15  C   UNL     1     -21.675 -22.656  30.761  1.00  0.00     0.000 C 
BRANCH  15  16
ATOM     16  C   UNL     1     -22.564 -23.885  30.480  1.00  0.00     0.000 C 
BRANCH  16  17
ATOM     17  C   UNL     1     -22.768 -24.213  28.990  1.00  0.00     0.000 C 
BRANCH  17  18
ATOM     18  C   UNL     1     -23.580 -25.497  28.769  1.00  0.00     0.000 C 
BRANCH  18  19
ATOM     19  C   UNL     1     -24.418 -25.838  30.007  1.00  0.00     0.000 C 
BRANCH  19  20
ATOM     20  C   UNL     1     -25.248 -27.107  29.778  1.00  0.00     0.006 C 
BRANCH  20  21
ATOM     21  C   UNL     1     -25.749 -27.183  28.334  1.00  0.00     0.053 C 
BRANCH  21  22
ATOM     22  C   UNL     1     -26.526 -28.443  28.113  1.00  0.00     0.041 C 
ATOM     23  O   UNL     1     -26.866 -29.158  29.092  1.00  0.00    -0.550 OA
ATOM     24  O   UNL     1     -26.917 -28.801  26.829  1.00  0.00    -0.550 OA
ENDBRANCH  21  22
ENDBRANCH  20  21
ENDBRANCH  19  20
ENDBRANCH  18  19
ENDBRANCH  17  18
ENDBRANCH  16  17
ENDBRANCH  15  16
ENDBRANCH  14  15
ENDBRANCH  13  14
ENDBRANCH   1  13
TORSDOF 20
ENDMDL
MODEL 8
REMARK VINA RESULT:    -6.384      1.688      3.027
REMARK INTER + INTRA:         -15.359
REMARK INTER:                 -13.954
REMARK INTRA:                  -1.404
REMARK UNBOUND:                -1.511
REMARK SMILES CCCCCCCCCCCCCCCCCCCCCC(=O)[O-]
REMARK SMILES IDX 12 1 11 2 10 3 9 4 8 5 7 6 6 7 5 8 4 9 3 10 2 11 1 12 13 13
REMARK SMILES IDX 14 14 15 15 16 16 17 17 18 18 19 19 20 20 21 21 22 22 23 23
REMARK SMILES IDX 24 24
REMARK H PARENT
REMARK Flexibility Score: inf
ROOT
ATOM      1  C   UNL     1     -21.460 -20.892  31.287  1.00  0.00     0.000 C 
ENDROOT
BRANCH   1   2
ATOM      2  C   UNL     1     -21.638 -22.362  31.724  1.00  0.00     0.000 C 
BRANCH   2   3
ATOM      3  C   UNL     1     -23.093 -22.740  32.061  1.00  0.00     0.000 C 
BRANCH   3   4
ATOM      4  C   UNL     1     -23.604 -24.031  31.398  1.00  0.00    -0.000 C 
BRANCH   4   5
ATOM      5  C   UNL     1     -22.801 -24.416  30.144  1.00  0.00    -0.000 C 
BRANCH   5   6
ATOM      6  C   UNL     1     -23.443 -25.569  29.351  1.00  0.00    -0.000 C 
BRANCH   6   7
ATOM      7  C   UNL     1     -24.805 -26.056  29.882  1.00  0.00    -0.000 C 
BRANCH   7   8
ATOM      8  C   UNL     1     -25.809 -26.369  28.760  1.00  0.00    -0.000 C 
BRANCH   8   9
ATOM      9  C   UNL     1     -25.390 -27.573  27.896  1.00  0.00    -0.000 C 
BRANCH   9  10
ATOM     10  C   UNL     1     -26.527 -28.543  27.525  1.00  0.00    -0.000 C 
BRANCH  10  11
ATOM     11  C   UNL     1     -27.297 -29.060  28.749  1.00  0.00    -0.003 C 
ATOM     12  C   UNL     1     -26.485 -30.104  29.511  1.00  0.00     0.004 C 
ENDBRANCH  10  11
ENDBRANCH   9  10
ENDBRANCH   8   9
ENDBRANCH   7   8
ENDBRANCH   6   7
ENDBRANCH   5   6
ENDBRANCH   4   5
ENDBRANCH   3   4
ENDBRANCH   2   3
ENDBRANCH   1   2
BRANCH   1  13
ATOM     13  C   UNL     1     -22.354 -20.528  30.089  1.00  0.00     0.000 C 
BRANCH  13  14
ATOM     14  C   UNL     1     -21.587 -20.517  28.754  1.00  0.00     0.000 C 
BRANCH  14  15
ATOM     15  C   UNL     1     -21.237 -19.115  28.218  1.00  0.00     0.000 C 
BRANCH  15  16
ATOM     16  C   UNL     1     -20.733 -18.115  29.279  1.00  0.00     0.000 C 
BRANCH  16  17
ATOM     17  C   UNL     1     -19.260 -18.291  29.689  1.00  0.00     0.000 C 
BRANCH  17  18
ATOM     18  C   UNL     1     -18.284 -17.653  28.690  1.00  0.00     0.000 C 
BRANCH  18  19
ATOM     19  C   UNL     1     -18.214 -16.133  28.883  1.00  0.00     0.000 C 
BRANCH  19  20
ATOM     20  C   UNL     1     -17.387 -15.474  27.773  1.00  0.00     0.006 C 
BRANCH  20  21
ATOM     21  C   UNL     1     -17.415 -16.315  26.495  1.00  0.00     0.053 C 
BRANCH  21  22
ATOM     22  C   UNL     1     -17.335 -15.436  25.286  1.00  0.00     0.041 C 
ATOM     23  O   UNL     1     -18.373 -15.176  24.621  1.00  0.00    -0.550 OA
ATOM     24  O   UNL     1     -16.122 -14.864  24.923  1.00  0.00    -0.550 OA
ENDBRANCH  21  22
ENDBRANCH  20  21
ENDBRANCH  19  20
ENDBRANCH  18  19
ENDBRANCH  17  18
ENDBRANCH  16  17
ENDBRANCH  15  16
ENDBRANCH  14  15
ENDBRANCH  13  14
ENDBRANCH   1  13
TORSDOF 20
ENDMDL
MODEL 9
REMARK VINA RESULT:    -6.300      4.923     10.975
REMARK INTER + INTRA:         -15.177
REMARK INTER:                 -13.590
REMARK INTRA:                  -1.587
REMARK UNBOUND:                -1.511
REMARK SMILES CCCCCCCCCCCCCCCCCCCCCC(=O)[O-]
REMARK SMILES IDX 12 1 11 2 10 3 9 4 8 5 7 6 6 7 5 8 4 9 3 10 2 11 1 12 13 13
REMARK SMILES IDX 14 14 15 15 16 16 17 17 18 18 19 19 20 20 21 21 22 22 23 23
REMARK SMILES IDX 24 24
REMARK H PARENT
REMARK Flexibility Score: inf
ROOT
ATOM      1  C   UNL     1     -22.767 -24.059  28.366  1.00  0.00     0.000 C 
ENDROOT
BRANCH   1   2
ATOM      2  C   UNL     1     -21.635 -23.081  28.744  1.00  0.00     0.000 C 
BRANCH   2   3
ATOM      3  C   UNL     1     -22.087 -21.611  28.845  1.00  0.00     0.000 C 
BRANCH   3   4
ATOM      4  C   UNL     1     -22.674 -21.199  30.206  1.00  0.00    -0.000 C 
BRANCH   4   5
ATOM      5  C   UNL     1     -21.802 -21.647  31.391  1.00  0.00    -0.000 C 
BRANCH   5   6
ATOM      6  C   UNL     1     -20.715 -20.620  31.758  1.00  0.00    -0.000 C 
BRANCH   6   7
ATOM      7  C   UNL     1     -20.855 -19.242  31.084  1.00  0.00    -0.000 C 
BRANCH   7   8
ATOM      8  C   UNL     1     -19.500 -18.597  30.749  1.00  0.00    -0.000 C 
BRANCH   8   9
ATOM      9  C   UNL     1     -19.217 -18.540  29.236  1.00  0.00    -0.000 C 
BRANCH   9  10
ATOM     10  C   UNL     1     -19.425 -17.163  28.579  1.00  0.00    -0.000 C 
BRANCH  10  11
ATOM     11  C   UNL     1     -18.144 -16.317  28.541  1.00  0.00    -0.003 C 
ATOM     12  C   UNL     1     -17.767 -15.953  27.107  1.00  0.00     0.004 C 
ENDBRANCH  10  11
ENDBRANCH   9  10
ENDBRANCH   8   9
ENDBRANCH   7   8
ENDBRANCH   6   7
ENDBRANCH   5   6
ENDBRANCH   4   5
ENDBRANCH   3   4
ENDBRANCH   2   3
ENDBRANCH   1   2
BRANCH   1  13
ATOM     13  C   UNL     1     -22.800 -25.294  29.283  1.00  0.00     0.000 C 
BRANCH  13  14
ATOM     14  C   UNL     1     -23.223 -24.956  30.725  1.00  0.00     0.000 C 
BRANCH  14  15
ATOM     15  C   UNL     1     -24.723 -25.146  31.023  1.00  0.00     0.000 C 
BRANCH  15  16
ATOM     16  C   UNL     1     -25.079 -26.425  31.808  1.00  0.00     0.000 C 
BRANCH  16  17
ATOM     17  C   UNL     1     -25.903 -27.461  31.023  1.00  0.00     0.000 C 
BRANCH  17  18
ATOM     18  C   UNL     1     -25.241 -27.867  29.698  1.00  0.00     0.000 C 
BRANCH  18  19
ATOM     19  C   UNL     1     -26.042 -27.342  28.500  1.00  0.00     0.000 C 
BRANCH  19  20
ATOM     20  C   UNL     1     -26.407 -28.481  27.539  1.00  0.00     0.006 C 
BRANCH  20  21
ATOM     21  C   UNL     1     -27.080 -27.939  26.276  1.00  0.00     0.053 C 
BRANCH  21  22
ATOM     22  C   UNL     1     -26.917 -28.900  25.141  1.00  0.00     0.041 C 
ATOM     23  O   UNL     1     -25.770 -29.165  24.694  1.00  0.00    -0.550 OA
ATOM     24  O   UNL     1     -28.030 -29.541  24.608  1.00  0.00    -0.550 OA
ENDBRANCH  21  22
ENDBRANCH  20  21
ENDBRANCH  19  20
ENDBRANCH  18  19
ENDBRANCH  17  18
ENDBRANCH  16  17
ENDBRANCH  15  16
ENDBRANCH  14  15
ENDBRANCH  13  14
ENDBRANCH   1  13
TORSDOF 20
ENDMDL
