MODEL 1
REMARK VINA RESULT:    -3.311      0.000      0.000
REMARK INTER + INTRA:          -3.971
REMARK INTER:                  -3.892
REMARK INTRA:                  -0.078
REMARK UNBOUND:                -0.078
REMARK SMILES O=C([O-])CCC(=O)[O-]
REMARK SMILES IDX 4 1 2 2 1 3 3 4 5 5 6 6 7 7 8 8
REMARK H PARENT
REMARK Flexibility Score: inf
ROOT
ATOM      1  C   UNL     1      98.298 -68.546  -2.079  1.00  0.00     0.059 C 
ENDROOT
BRANCH   1   2
ATOM      2  C   UNL     1      97.579 -67.275  -2.402  1.00  0.00     0.042 C 
ATOM      3  O   UNL     1      97.598 -66.313  -1.590  1.00  0.00    -0.550 OA
ATOM      4  O   UNL     1      96.927 -67.135  -3.621  1.00  0.00    -0.550 OA
ENDBRANCH   1   2
BRANCH   1   5
ATOM      5  C   UNL     1      99.382 -68.297  -1.029  1.00  0.00     0.059 C 
BRANCH   5   6
ATOM      6  C   UNL     1      99.094 -69.074   0.216  1.00  0.00     0.042 C 
ATOM      7  O   UNL     1      99.613 -68.732   1.311  1.00  0.00    -0.550 OA
ATOM      8  O   UNL     1      98.291 -70.206   0.158  1.00  0.00    -0.550 OA
ENDBRANCH   5   6
ENDBRANCH   1   5
TORSDOF 3
ENDMDL
MODEL 2
REMARK VINA RESULT:    -3.304      0.081      3.977
REMARK INTER + INTRA:          -3.961
REMARK INTER:                  -3.880
REMARK INTRA:                  -0.082
REMARK UNBOUND:                -0.078
REMARK SMILES O=C([O-])CCC(=O)[O-]
REMARK SMILES IDX 4 1 2 2 1 3 3 4 5 5 6 6 7 7 8 8
REMARK H PARENT
REMARK Flexibility Score: inf
ROOT
ATOM      1  C   UNL     1      99.413 -68.291  -1.001  1.00  0.00     0.059 C 
ENDROOT
BRANCH   1   2
ATOM      2  C   UNL     1      99.108 -69.077   0.234  1.00  0.00     0.042 C 
ATOM      3  O   UNL     1      98.377 -70.100   0.170  1.00  0.00    -0.550 OA
ATOM      4  O   UNL     1      99.671 -68.708   1.450  1.00  0.00    -0.550 OA
ENDBRANCH   1   2
BRANCH   1   5
ATOM      5  C   UNL     1      98.350 -68.542  -2.071  1.00  0.00     0.059 C 
BRANCH   5   6
ATOM      6  C   UNL     1      97.627 -67.275  -2.398  1.00  0.00     0.042 C 
ATOM      7  O   UNL     1      97.617 -66.321  -1.577  1.00  0.00    -0.550 OA
ATOM      8  O   UNL     1      96.922 -67.165  -3.590  1.00  0.00    -0.550 OA
ENDBRANCH   5   6
ENDBRANCH   1   5
TORSDOF 3
ENDMDL
MODEL 3
REMARK VINA RESULT:    -3.088      4.919      7.204
REMARK INTER + INTRA:          -3.709
REMARK INTER:                  -3.648
REMARK INTRA:                  -0.060
REMARK UNBOUND:                -0.078
REMARK SMILES O=C([O-])CCC(=O)[O-]
REMARK SMILES IDX 4 1 2 2 1 3 3 4 5 5 6 6 7 7 8 8
REMARK H PARENT
REMARK Flexibility Score: inf
ROOT
ATOM      1  C   UNL     1      99.875 -69.444   5.357  1.00  0.00     0.059 C 
ENDROOT
BRANCH   1   2
ATOM      2  C   UNL     1     101.357 -69.594   5.482  1.00  0.00     0.042 C 
ATOM      3  O   UNL     1     102.068 -69.749   4.455  1.00  0.00    -0.550 OA
ATOM      4  O   UNL     1     101.960 -69.515   6.731  1.00  0.00    -0.550 OA
ENDBRANCH   1   2
BRANCH   1   5
ATOM      5  C   UNL     1      99.525 -68.093   4.731  1.00  0.00     0.059 C 
BRANCH   5   6
ATOM      6  C   UNL     1      98.392 -68.240   3.766  1.00  0.00     0.042 C 
ATOM      7  O   UNL     1      97.284 -67.690   4.000  1.00  0.00    -0.550 OA
ATOM      8  O   UNL     1      98.544 -69.027   2.631  1.00  0.00    -0.550 OA
ENDBRANCH   5   6
ENDBRANCH   1   5
TORSDOF 3
ENDMDL
MODEL 4
REMARK VINA RESULT:    -3.079      3.484      5.005
REMARK INTER + INTRA:          -3.698
REMARK INTER:                  -3.536
REMARK INTRA:                  -0.162
REMARK UNBOUND:                -0.078
REMARK SMILES O=C([O-])CCC(=O)[O-]
REMARK SMILES IDX 4 1 2 2 1 3 3 4 5 5 6 6 7 7 8 8
REMARK H PARENT
REMARK Flexibility Score: inf
ROOT
ATOM      1  C   UNL     1      98.880 -67.440   2.519  1.00  0.00     0.059 C 
ENDROOT
BRANCH   1   2
ATOM      2  C   UNL     1      99.732 -68.280   1.621  1.00  0.00     0.042 C 
ATOM      3  O   UNL     1      99.205 -69.152   0.882  1.00  0.00    -0.550 OA
ATOM      4  O   UNL     1     101.103 -68.067   1.566  1.00  0.00    -0.550 OA
ENDBRANCH   1   2
BRANCH   1   5
ATOM      5  C   UNL     1      98.351 -68.272   3.688  1.00  0.00     0.059 C 
BRANCH   5   6
ATOM      6  C   UNL     1      99.456 -68.597   4.642  1.00  0.00     0.042 C 
ATOM      7  O   UNL     1      99.791 -69.794   4.840  1.00  0.00    -0.550 OA
ATOM      8  O   UNL     1     100.086 -67.580   5.348  1.00  0.00    -0.550 OA
ENDBRANCH   5   6
ENDBRANCH   1   5
TORSDOF 3
ENDMDL
MODEL 5
REMARK VINA RESULT:    -3.077      3.088      4.285
REMARK INTER + INTRA:          -3.695
REMARK INTER:                  -3.619
REMARK INTRA:                  -0.076
REMARK UNBOUND:                -0.078
REMARK SMILES O=C([O-])CCC(=O)[O-]
REMARK SMILES IDX 4 1 2 2 1 3 3 4 5 5 6 6 7 7 8 8
REMARK H PARENT
REMARK Flexibility Score: inf
ROOT
ATOM      1  C   UNL     1      98.950 -67.646   1.886  1.00  0.00     0.059 C 
ENDROOT
BRANCH   1   2
ATOM      2  C   UNL     1      99.485 -68.557   0.828  1.00  0.00     0.042 C 
ATOM      3  O   UNL     1     100.564 -68.283   0.241  1.00  0.00    -0.550 OA
ATOM      4  O   UNL     1      98.815 -69.736   0.523  1.00  0.00    -0.550 OA
ENDBRANCH   1   2
BRANCH   1   5
ATOM      5  C   UNL     1      98.308 -68.455   3.015  1.00  0.00     0.059 C 
BRANCH   5   6
ATOM      6  C   UNL     1      99.193 -68.465   4.221  1.00  0.00     0.042 C 
ATOM      7  O   UNL     1      99.516 -67.384   4.779  1.00  0.00    -0.550 OA
ATOM      8  O   UNL     1      99.701 -69.666   4.699  1.00  0.00    -0.550 OA
ENDBRANCH   5   6
ENDBRANCH   1   5
TORSDOF 3
ENDMDL
MODEL 6
REMARK VINA RESULT:    -3.065      3.534      5.812
REMARK INTER + INTRA:          -3.680
REMARK INTER:                  -3.522
REMARK INTRA:                  -0.158
REMARK UNBOUND:                -0.078
REMARK SMILES O=C([O-])CCC(=O)[O-]
REMARK SMILES IDX 4 1 2 2 1 3 3 4 5 5 6 6 7 7 8 8
REMARK H PARENT
REMARK Flexibility Score: inf
ROOT
ATOM      1  C   UNL     1      98.384 -68.267   3.842  1.00  0.00     0.059 C 
ENDROOT
BRANCH   1   2
ATOM      2  C   UNL     1      99.548 -68.561   4.734  1.00  0.00     0.042 C 
ATOM      3  O   UNL     1     100.150 -67.624   5.320  1.00  0.00    -0.550 OA
ATOM      4  O   UNL     1      99.937 -69.876   4.957  1.00  0.00    -0.550 OA
ENDBRANCH   1   2
BRANCH   1   5
ATOM      5  C   UNL     1      98.830 -67.438   2.636  1.00  0.00     0.059 C 
BRANCH   5   6
ATOM      6  C   UNL     1      99.662 -68.266   1.710  1.00  0.00     0.042 C 
ATOM      7  O   UNL     1      99.127 -69.162   1.006  1.00  0.00    -0.550 OA
ATOM      8  O   UNL     1     101.038 -68.082   1.660  1.00  0.00    -0.550 OA
ENDBRANCH   5   6
ENDBRANCH   1   5
TORSDOF 3
ENDMDL
MODEL 7
REMARK VINA RESULT:    -3.060      2.379      4.483
REMARK INTER + INTRA:          -3.675
REMARK INTER:                  -3.545
REMARK INTRA:                  -0.130
REMARK UNBOUND:                -0.078
REMARK SMILES O=C([O-])CCC(=O)[O-]
REMARK SMILES IDX 4 1 2 2 1 3 3 4 5 5 6 6 7 7 8 8
REMARK H PARENT
REMARK Flexibility Score: inf
ROOT
ATOM      1  C   UNL     1      98.817 -67.310   2.130  1.00  0.00     0.059 C 
ENDROOT
BRANCH   1   2
ATOM      2  C   UNL     1      98.357 -68.078   3.327  1.00  0.00     0.042 C 
ATOM      3  O   UNL     1      97.300 -67.745   3.926  1.00  0.00    -0.550 OA
ATOM      4  O   UNL     1      99.069 -69.192   3.754  1.00  0.00    -0.550 OA
ENDBRANCH   1   2
BRANCH   1   5
ATOM      5  C   UNL     1      99.777 -68.153   1.289  1.00  0.00     0.059 C 
BRANCH   5   6
ATOM      6  C   UNL     1      99.031 -68.882   0.216  1.00  0.00     0.042 C 
ATOM      7  O   UNL     1      98.728 -68.295  -0.855  1.00  0.00    -0.550 OA
ATOM      8  O   UNL     1      98.627 -70.195   0.420  1.00  0.00    -0.550 OA
ENDBRANCH   5   6
ENDBRANCH   1   5
TORSDOF 3
ENDMDL
MODEL 8
REMARK VINA RESULT:    -3.017     19.718     21.053
REMARK INTER + INTRA:          -3.625
REMARK INTER:                  -3.526
REMARK INTRA:                  -0.099
REMARK UNBOUND:                -0.078
REMARK SMILES O=C([O-])CCC(=O)[O-]
REMARK SMILES IDX 4 1 2 2 1 3 3 4 5 5 6 6 7 7 8 8
REMARK H PARENT
REMARK Flexibility Score: inf
ROOT
ATOM      1  C   UNL     1     100.858 -81.937  14.963  1.00  0.00     0.059 C 
ENDROOT
BRANCH   1   2
ATOM      2  C   UNL     1     101.047 -80.575  14.378  1.00  0.00     0.042 C 
ATOM      3  O   UNL     1     101.587 -80.440  13.248  1.00  0.00    -0.550 OA
ATOM      4  O   UNL     1     100.584 -79.455  15.057  1.00  0.00    -0.550 OA
ENDBRANCH   1   2
BRANCH   1   5
ATOM      5  C   UNL     1     101.935 -82.895  14.451  1.00  0.00     0.059 C 
BRANCH   5   6
ATOM      6  C   UNL     1     101.320 -83.988  13.636  1.00  0.00     0.042 C 
ATOM      7  O   UNL     1     100.071 -84.038  13.484  1.00  0.00    -0.550 OA
ATOM      8  O   UNL     1     102.122 -84.978  13.084  1.00  0.00    -0.550 OA
ENDBRANCH   5   6
ENDBRANCH   1   5
TORSDOF 3
ENDMDL
MODEL 9
REMARK VINA RESULT:    -2.968      2.231      4.301
REMARK INTER + INTRA:          -3.567
REMARK INTER:                  -3.484
REMARK INTRA:                  -0.083
REMARK UNBOUND:                -0.078
REMARK SMILES O=C([O-])CCC(=O)[O-]
REMARK SMILES IDX 4 1 2 2 1 3 3 4 5 5 6 6 7 7 8 8
REMARK H PARENT
REMARK Flexibility Score: inf
ROOT
ATOM      1  C   UNL     1      99.107 -67.953   1.633  1.00  0.00     0.059 C 
ENDROOT
BRANCH   1   2
ATOM      2  C   UNL     1     100.421 -68.180   2.311  1.00  0.00     0.042 C 
ATOM      3  O   UNL     1     100.459 -68.534   3.518  1.00  0.00    -0.550 OA
ATOM      4  O   UNL     1     101.604 -68.046   1.595  1.00  0.00    -0.550 OA
ENDBRANCH   1   2
BRANCH   1   5
ATOM      5  C   UNL     1      99.261 -68.066   0.115  1.00  0.00     0.059 C 
BRANCH   5   6
ATOM      6  C   UNL     1      98.609 -69.315  -0.385  1.00  0.00     0.042 C 
ATOM      7  O   UNL     1      98.132 -69.358  -1.550  1.00  0.00    -0.550 OA
ATOM      8  O   UNL     1      98.485 -70.417   0.451  1.00  0.00    -0.550 OA
ENDBRANCH   5   6
ENDBRANCH   1   5
TORSDOF 3
ENDMDL
