MODEL 1
REMARK VINA RESULT:    -6.308      0.000      0.000
REMARK INTER + INTRA:         -13.047
REMARK INTER:                 -12.208
REMARK INTRA:                  -0.839
REMARK UNBOUND:                -0.839
REMARK SMILES CCCCCCCCCCCCCCCCCC(=O)[O-]
REMARK SMILES IDX 10 1 11 2 12 3 13 4 14 5 15 6 16 7 17 8 18 9 19 10 20 11
REMARK SMILES IDX 9 12 8 13 7 14 6 15 5 16 4 17 3 18 2 19 1 20
REMARK H PARENT
REMARK Flexibility Score: inf
ROOT
ATOM      1  C   UNL     1      94.403 123.743 124.076  1.00  0.00     0.000 C 
ENDROOT
BRANCH   1   2
ATOM      2  C   UNL     1      95.895 123.726 123.705  1.00  0.00     0.000 C 
BRANCH   2   3
ATOM      3  C   UNL     1      96.769 123.091 124.800  1.00  0.00     0.000 C 
BRANCH   3   4
ATOM      4  C   UNL     1      97.138 124.087 125.914  1.00  0.00     0.000 C 
BRANCH   4   5
ATOM      5  C   UNL     1      97.520 125.471 125.365  1.00  0.00     0.000 C 
BRANCH   5   6
ATOM      6  C   UNL     1      98.727 126.084 126.099  1.00  0.00     0.000 C 
BRANCH   6   7
ATOM      7  C   UNL     1      99.182 127.420 125.483  1.00  0.00     0.006 C 
BRANCH   7   8
ATOM      8  C   UNL     1     100.663 127.757 125.717  1.00  0.00     0.053 C 
BRANCH   8   9
ATOM      9  C   UNL     1     101.081 128.997 124.989  1.00  0.00     0.041 C 
ATOM     10  O   UNL     1     101.304 128.958 123.750  1.00  0.00    -0.550 OA
ATOM     11  O   UNL     1     101.260 130.186 125.683  1.00  0.00    -0.550 OA
ENDBRANCH   8   9
ENDBRANCH   7   8
ENDBRANCH   6   7
ENDBRANCH   5   6
ENDBRANCH   4   5
ENDBRANCH   3   4
ENDBRANCH   2   3
ENDBRANCH   1   2
BRANCH   1  12
ATOM     12  C   UNL     1      93.558 122.790 123.209  1.00  0.00     0.000 C 
BRANCH  12  13
ATOM     13  C   UNL     1      94.306 121.560 122.665  1.00  0.00    -0.000 C 
BRANCH  13  14
ATOM     14  C   UNL     1      93.937 121.229 121.208  1.00  0.00    -0.000 C 
BRANCH  14  15
ATOM     15  C   UNL     1      95.161 121.219 120.277  1.00  0.00    -0.000 C 
BRANCH  15  16
ATOM     16  C   UNL     1      94.790 120.899 118.818  1.00  0.00    -0.000 C 
BRANCH  16  17
ATOM     17  C   UNL     1      93.277 120.986 118.560  1.00  0.00    -0.000 C 
BRANCH  17  18
ATOM     18  C   UNL     1      92.936 121.085 117.062  1.00  0.00    -0.000 C 
BRANCH  18  19
ATOM     19  C   UNL     1      92.050 122.298 116.740  1.00  0.00    -0.003 C 
ATOM     20  C   UNL     1      92.733 123.631 117.043  1.00  0.00     0.004 C 
ENDBRANCH  18  19
ENDBRANCH  17  18
ENDBRANCH  16  17
ENDBRANCH  15  16
ENDBRANCH  14  15
ENDBRANCH  13  14
ENDBRANCH  12  13
ENDBRANCH   1  12
TORSDOF 16
ENDMDL
MODEL 2
REMARK VINA RESULT:    -6.288      1.142      1.870
REMARK INTER + INTRA:         -13.009
REMARK INTER:                 -12.065
REMARK INTRA:                  -0.944
REMARK UNBOUND:                -0.839
REMARK SMILES CCCCCCCCCCCCCCCCCC(=O)[O-]
REMARK SMILES IDX 10 1 11 2 12 3 13 4 14 5 15 6 16 7 17 8 18 9 19 10 20 11
REMARK SMILES IDX 9 12 8 13 7 14 6 15 5 16 4 17 3 18 2 19 1 20
REMARK H PARENT
REMARK Flexibility Score: inf
ROOT
ATOM      1  C   UNL     1      95.830 123.887 124.415  1.00  0.00     0.000 C 
ENDROOT
BRANCH   1   2
ATOM      2  C   UNL     1      96.852 124.651 125.275  1.00  0.00     0.000 C 
BRANCH   2   3
ATOM      3  C   UNL     1      97.768 123.711 126.077  1.00  0.00     0.000 C 
BRANCH   3   4
ATOM      4  C   UNL     1      98.525 124.441 127.201  1.00  0.00     0.000 C 
BRANCH   4   5
ATOM      5  C   UNL     1     100.046 124.444 126.983  1.00  0.00     0.000 C 
BRANCH   5   6
ATOM      6  C   UNL     1     100.623 125.867 126.873  1.00  0.00     0.000 C 
BRANCH   6   7
ATOM      7  C   UNL     1      99.865 126.739 125.854  1.00  0.00     0.006 C 
BRANCH   7   8
ATOM      8  C   UNL     1     100.728 127.250 124.689  1.00  0.00     0.053 C 
BRANCH   8   9
ATOM      9  C   UNL     1     100.961 128.728 124.767  1.00  0.00     0.041 C 
ATOM     10  O   UNL     1     100.555 129.381 125.764  1.00  0.00    -0.550 OA
ATOM     11  O   UNL     1     101.593 129.389 123.722  1.00  0.00    -0.550 OA
ENDBRANCH   8   9
ENDBRANCH   7   8
ENDBRANCH   6   7
ENDBRANCH   5   6
ENDBRANCH   4   5
ENDBRANCH   3   4
ENDBRANCH   2   3
ENDBRANCH   1   2
BRANCH   1  12
ATOM     12  C   UNL     1      96.440 122.664 123.704  1.00  0.00     0.000 C 
BRANCH  12  13
ATOM     13  C   UNL     1      95.822 122.325 122.335  1.00  0.00    -0.000 C 
BRANCH  13  14
ATOM     14  C   UNL     1      94.311 122.046 122.410  1.00  0.00    -0.000 C 
BRANCH  14  15
ATOM     15  C   UNL     1      93.780 121.326 121.160  1.00  0.00    -0.000 C 
BRANCH  15  16
ATOM     16  C   UNL     1      94.880 121.074 120.112  1.00  0.00    -0.000 C 
BRANCH  16  17
ATOM     17  C   UNL     1      94.357 121.182 118.670  1.00  0.00    -0.000 C 
BRANCH  17  18
ATOM     18  C   UNL     1      92.888 121.638 118.605  1.00  0.00    -0.000 C 
BRANCH  18  19
ATOM     19  C   UNL     1      92.458 122.037 117.186  1.00  0.00    -0.003 C 
ATOM     20  C   UNL     1      92.727 120.943 116.153  1.00  0.00     0.004 C 
ENDBRANCH  18  19
ENDBRANCH  17  18
ENDBRANCH  16  17
ENDBRANCH  15  16
ENDBRANCH  14  15
ENDBRANCH  13  14
ENDBRANCH  12  13
ENDBRANCH   1  12
TORSDOF 16
ENDMDL
MODEL 3
REMARK VINA RESULT:    -6.141      1.221      2.374
REMARK INTER + INTRA:         -12.724
REMARK INTER:                 -11.779
REMARK INTRA:                  -0.944
REMARK UNBOUND:                -0.839
REMARK SMILES CCCCCCCCCCCCCCCCCC(=O)[O-]
REMARK SMILES IDX 10 1 11 2 12 3 13 4 14 5 15 6 16 7 17 8 18 9 19 10 20 11
REMARK SMILES IDX 9 12 8 13 7 14 6 15 5 16 4 17 3 18 2 19 1 20
REMARK H PARENT
REMARK Flexibility Score: inf
ROOT
ATOM      1  C   UNL     1      96.702 124.852 124.722  1.00  0.00     0.000 C 
ENDROOT
BRANCH   1   2
ATOM      2  C   UNL     1      97.384 124.242 125.957  1.00  0.00     0.000 C 
BRANCH   2   3
ATOM      3  C   UNL     1      98.439 125.178 126.572  1.00  0.00     0.000 C 
BRANCH   3   4
ATOM      4  C   UNL     1      97.816 126.426 127.221  1.00  0.00     0.000 C 
BRANCH   4   5
ATOM      5  C   UNL     1      98.124 127.714 126.439  1.00  0.00     0.000 C 
BRANCH   5   6
ATOM      6  C   UNL     1      99.034 128.676 127.224  1.00  0.00     0.000 C 
BRANCH   6   7
ATOM      7  C   UNL     1     100.369 128.948 126.507  1.00  0.00     0.006 C 
BRANCH   7   8
ATOM      8  C   UNL     1     101.191 127.688 126.193  1.00  0.00     0.053 C 
BRANCH   8   9
ATOM      9  C   UNL     1     101.467 127.546 124.728  1.00  0.00     0.041 C 
ATOM     10  O   UNL     1     102.117 126.557 124.299  1.00  0.00    -0.550 OA
ATOM     11  O   UNL     1     101.037 128.524 123.840  1.00  0.00    -0.550 OA
ENDBRANCH   8   9
ENDBRANCH   7   8
ENDBRANCH   6   7
ENDBRANCH   5   6
ENDBRANCH   4   5
ENDBRANCH   3   4
ENDBRANCH   2   3
ENDBRANCH   1   2
BRANCH   1  12
ATOM     12  C   UNL     1      95.798 123.850 123.979  1.00  0.00     0.000 C 
BRANCH  12  13
ATOM     13  C   UNL     1      96.490 122.552 123.524  1.00  0.00    -0.000 C 
BRANCH  13  14
ATOM     14  C   UNL     1      95.934 122.009 122.197  1.00  0.00    -0.000 C 
BRANCH  14  15
ATOM     15  C   UNL     1      94.455 121.601 122.299  1.00  0.00    -0.000 C 
BRANCH  15  16
ATOM     16  C   UNL     1      93.872 121.149 120.948  1.00  0.00    -0.000 C 
BRANCH  16  17
ATOM     17  C   UNL     1      94.916 121.167 119.819  1.00  0.00    -0.000 C 
BRANCH  17  18
ATOM     18  C   UNL     1      94.300 120.880 118.438  1.00  0.00    -0.000 C 
BRANCH  18  19
ATOM     19  C   UNL     1      92.912 121.515 118.270  1.00  0.00    -0.003 C 
ATOM     20  C   UNL     1      92.454 121.568 116.812  1.00  0.00     0.004 C 
ENDBRANCH  18  19
ENDBRANCH  17  18
ENDBRANCH  16  17
ENDBRANCH  15  16
ENDBRANCH  14  15
ENDBRANCH  13  14
ENDBRANCH  12  13
ENDBRANCH   1  12
TORSDOF 16
ENDMDL
MODEL 4
REMARK VINA RESULT:    -6.089      2.426      3.136
REMARK INTER + INTRA:         -12.624
REMARK INTER:                 -11.755
REMARK INTRA:                  -0.869
REMARK UNBOUND:                -0.839
REMARK SMILES CCCCCCCCCCCCCCCCCC(=O)[O-]
REMARK SMILES IDX 10 1 11 2 12 3 13 4 14 5 15 6 16 7 17 8 18 9 19 10 20 11
REMARK SMILES IDX 9 12 8 13 7 14 6 15 5 16 4 17 3 18 2 19 1 20
REMARK H PARENT
REMARK Flexibility Score: inf
ROOT
ATOM      1  C   UNL     1      96.349 124.543 124.289  1.00  0.00     0.000 C 
ENDROOT
BRANCH   1   2
ATOM      2  C   UNL     1      96.858 124.160 125.689  1.00  0.00     0.000 C 
BRANCH   2   3
ATOM      3  C   UNL     1      97.873 125.173 126.246  1.00  0.00     0.000 C 
BRANCH   3   4
ATOM      4  C   UNL     1      98.036 126.406 125.339  1.00  0.00     0.000 C 
BRANCH   4   5
ATOM      5  C   UNL     1      99.406 127.084 125.507  1.00  0.00     0.000 C 
BRANCH   5   6
ATOM      6  C   UNL     1      99.332 128.355 126.373  1.00  0.00     0.000 C 
BRANCH   6   7
ATOM      7  C   UNL     1      99.884 128.138 127.794  1.00  0.00     0.006 C 
BRANCH   7   8
ATOM      8  C   UNL     1      99.032 128.764 128.909  1.00  0.00     0.053 C 
BRANCH   8   9
ATOM      9  C   UNL     1      97.733 128.044 129.097  1.00  0.00     0.041 C 
ATOM     10  O   UNL     1      96.680 128.489 128.569  1.00  0.00    -0.550 OA
ATOM     11  O   UNL     1      97.677 126.902 129.886  1.00  0.00    -0.550 OA
ENDBRANCH   8   9
ENDBRANCH   7   8
ENDBRANCH   6   7
ENDBRANCH   5   6
ENDBRANCH   4   5
ENDBRANCH   3   4
ENDBRANCH   2   3
ENDBRANCH   1   2
BRANCH   1  12
ATOM     12  C   UNL     1      95.207 123.633 123.797  1.00  0.00     0.000 C 
BRANCH  12  13
ATOM     13  C   UNL     1      95.611 122.583 122.747  1.00  0.00    -0.000 C 
BRANCH  13  14
ATOM     14  C   UNL     1      94.558 121.474 122.571  1.00  0.00    -0.000 C 
BRANCH  14  15
ATOM     15  C   UNL     1      93.851 121.542 121.207  1.00  0.00    -0.000 C 
BRANCH  15  16
ATOM     16  C   UNL     1      94.791 121.197 120.038  1.00  0.00    -0.000 C 
BRANCH  16  17
ATOM     17  C   UNL     1      94.038 121.019 118.709  1.00  0.00    -0.000 C 
BRANCH  17  18
ATOM     18  C   UNL     1      92.805 121.933 118.599  1.00  0.00    -0.000 C 
BRANCH  18  19
ATOM     19  C   UNL     1      91.935 121.603 117.377  1.00  0.00    -0.003 C 
ATOM     20  C   UNL     1      92.707 120.876 116.276  1.00  0.00     0.004 C 
ENDBRANCH  18  19
ENDBRANCH  17  18
ENDBRANCH  16  17
ENDBRANCH  15  16
ENDBRANCH  14  15
ENDBRANCH  13  14
ENDBRANCH  12  13
ENDBRANCH   1  12
TORSDOF 16
ENDMDL
MODEL 5
REMARK VINA RESULT:    -5.992      4.468     10.339
REMARK INTER + INTRA:         -12.436
REMARK INTER:                 -11.526
REMARK INTRA:                  -0.910
REMARK UNBOUND:                -0.839
REMARK SMILES CCCCCCCCCCCCCCCCCC(=O)[O-]
REMARK SMILES IDX 10 1 11 2 12 3 13 4 14 5 15 6 16 7 17 8 18 9 19 10 20 11
REMARK SMILES IDX 9 12 8 13 7 14 6 15 5 16 4 17 3 18 2 19 1 20
REMARK H PARENT
REMARK Flexibility Score: inf
ROOT
ATOM      1  C   UNL     1      96.121 124.393 124.206  1.00  0.00     0.000 C 
ENDROOT
BRANCH   1   2
ATOM      2  C   UNL     1      95.915 123.309 123.135  1.00  0.00     0.000 C 
BRANCH   2   3
ATOM      3  C   UNL     1      94.489 122.732 123.145  1.00  0.00     0.000 C 
BRANCH   3   4
ATOM      4  C   UNL     1      94.412 121.333 122.508  1.00  0.00     0.000 C 
BRANCH   4   5
ATOM      5  C   UNL     1      93.819 121.362 121.090  1.00  0.00     0.000 C 
BRANCH   5   6
ATOM      6  C   UNL     1      94.888 121.164 120.000  1.00  0.00     0.000 C 
BRANCH   6   7
ATOM      7  C   UNL     1      94.279 120.952 118.602  1.00  0.00     0.006 C 
BRANCH   7   8
ATOM      8  C   UNL     1      92.865 121.529 118.430  1.00  0.00     0.053 C 
BRANCH   8   9
ATOM      9  C   UNL     1      92.643 122.075 117.053  1.00  0.00     0.041 C 
ATOM     10  O   UNL     1      92.508 123.315 116.878  1.00  0.00    -0.550 OA
ATOM     11  O   UNL     1      92.548 121.213 115.969  1.00  0.00    -0.550 OA
ENDBRANCH   8   9
ENDBRANCH   7   8
ENDBRANCH   6   7
ENDBRANCH   5   6
ENDBRANCH   4   5
ENDBRANCH   3   4
ENDBRANCH   2   3
ENDBRANCH   1   2
BRANCH   1  12
ATOM     12  C   UNL     1      96.617 123.825 125.548  1.00  0.00     0.000 C 
BRANCH  12  13
ATOM     13  C   UNL     1      97.490 124.779 126.384  1.00  0.00    -0.000 C 
BRANCH  13  14
ATOM     14  C   UNL     1      98.045 125.957 125.564  1.00  0.00    -0.000 C 
BRANCH  14  15
ATOM     15  C   UNL     1      99.183 126.695 126.288  1.00  0.00    -0.000 C 
BRANCH  15  16
ATOM     16  C   UNL     1      99.635 127.963 125.540  1.00  0.00    -0.000 C 
BRANCH  16  17
ATOM     17  C   UNL     1     100.103 129.075 126.492  1.00  0.00    -0.000 C 
BRANCH  17  18
ATOM     18  C   UNL     1      99.695 128.815 127.953  1.00  0.00    -0.000 C 
BRANCH  18  19
ATOM     19  C   UNL     1      98.536 129.714 128.408  1.00  0.00    -0.003 C 
ATOM     20  C   UNL     1      97.186 128.995 128.397  1.00  0.00     0.004 C 
ENDBRANCH  18  19
ENDBRANCH  17  18
ENDBRANCH  16  17
ENDBRANCH  15  16
ENDBRANCH  14  15
ENDBRANCH  13  14
ENDBRANCH  12  13
ENDBRANCH   1  12
TORSDOF 16
ENDMDL
MODEL 6
REMARK VINA RESULT:    -5.806      4.326     10.018
REMARK INTER + INTRA:         -12.075
REMARK INTER:                 -11.104
REMARK INTRA:                  -0.972
REMARK UNBOUND:                -0.839
REMARK SMILES CCCCCCCCCCCCCCCCCC(=O)[O-]
REMARK SMILES IDX 10 1 11 2 12 3 13 4 14 5 15 6 16 7 17 8 18 9 19 10 20 11
REMARK SMILES IDX 9 12 8 13 7 14 6 15 5 16 4 17 3 18 2 19 1 20
REMARK H PARENT
REMARK Flexibility Score: inf
ROOT
ATOM      1  C   UNL     1      96.127 124.462 124.224  1.00  0.00     0.000 C 
ENDROOT
BRANCH   1   2
ATOM      2  C   UNL     1      95.015 123.504 123.765  1.00  0.00     0.000 C 
BRANCH   2   3
ATOM      3  C   UNL     1      95.530 122.416 122.808  1.00  0.00     0.000 C 
BRANCH   3   4
ATOM      4  C   UNL     1      94.491 121.308 122.558  1.00  0.00     0.000 C 
BRANCH   4   5
ATOM      5  C   UNL     1      93.836 121.415 121.171  1.00  0.00     0.000 C 
BRANCH   5   6
ATOM      6  C   UNL     1      94.829 121.138 120.027  1.00  0.00     0.000 C 
BRANCH   6   7
ATOM      7  C   UNL     1      94.130 120.923 118.672  1.00  0.00     0.006 C 
BRANCH   7   8
ATOM      8  C   UNL     1      92.824 121.713 118.498  1.00  0.00     0.053 C 
BRANCH   8   9
ATOM      9  C   UNL     1      92.644 122.202 117.094  1.00  0.00     0.041 C 
ATOM     10  O   UNL     1      92.487 123.431 116.866  1.00  0.00    -0.550 OA
ATOM     11  O   UNL     1      92.614 121.299 116.040  1.00  0.00    -0.550 OA
ENDBRANCH   8   9
ENDBRANCH   7   8
ENDBRANCH   6   7
ENDBRANCH   5   6
ENDBRANCH   4   5
ENDBRANCH   3   4
ENDBRANCH   2   3
ENDBRANCH   1   2
BRANCH   1  12
ATOM     12  C   UNL     1      96.623 124.165 125.652  1.00  0.00     0.000 C 
BRANCH  12  13
ATOM     13  C   UNL     1      98.121 124.424 125.895  1.00  0.00    -0.000 C 
BRANCH  13  14
ATOM     14  C   UNL     1      98.384 125.325 127.114  1.00  0.00    -0.000 C 
BRANCH  14  15
ATOM     15  C   UNL     1      97.692 126.693 126.998  1.00  0.00    -0.000 C 
BRANCH  15  16
ATOM     16  C   UNL     1      98.541 127.722 126.230  1.00  0.00    -0.000 C 
BRANCH  16  17
ATOM     17  C   UNL     1      99.788 128.162 127.015  1.00  0.00    -0.000 C 
BRANCH  17  18
ATOM     18  C   UNL     1     101.099 127.800 126.296  1.00  0.00    -0.000 C 
BRANCH  18  19
ATOM     19  C   UNL     1     100.899 127.556 124.793  1.00  0.00    -0.003 C 
ATOM     20  C   UNL     1     101.392 128.718 123.931  1.00  0.00     0.004 C 
ENDBRANCH  18  19
ENDBRANCH  17  18
ENDBRANCH  16  17
ENDBRANCH  15  16
ENDBRANCH  14  15
ENDBRANCH  13  14
ENDBRANCH  12  13
ENDBRANCH   1  12
TORSDOF 16
ENDMDL
MODEL 7
REMARK VINA RESULT:    -5.616      4.281     10.197
REMARK INTER + INTRA:         -11.707
REMARK INTER:                 -10.081
REMARK INTRA:                  -1.626
REMARK UNBOUND:                -0.839
REMARK SMILES CCCCCCCCCCCCCCCCCC(=O)[O-]
REMARK SMILES IDX 10 1 11 2 12 3 13 4 14 5 15 6 16 7 17 8 18 9 19 10 20 11
REMARK SMILES IDX 9 12 8 13 7 14 6 15 5 16 4 17 3 18 2 19 1 20
REMARK H PARENT
REMARK Flexibility Score: inf
ROOT
ATOM      1  C   UNL     1      98.257 126.482 125.464  1.00  0.00     0.000 C 
ENDROOT
BRANCH   1   2
ATOM      2  C   UNL     1      98.114 125.308 126.449  1.00  0.00     0.000 C 
BRANCH   2   3
ATOM      3  C   UNL     1      97.177 124.207 125.923  1.00  0.00     0.000 C 
BRANCH   3   4
ATOM      4  C   UNL     1      96.507 124.587 124.590  1.00  0.00     0.000 C 
BRANCH   4   5
ATOM      5  C   UNL     1      95.780 123.401 123.936  1.00  0.00     0.000 C 
BRANCH   5   6
ATOM      6  C   UNL     1      94.249 123.517 124.043  1.00  0.00     0.000 C 
BRANCH   6   7
ATOM      7  C   UNL     1      93.514 122.375 123.316  1.00  0.00     0.006 C 
BRANCH   7   8
ATOM      8  C   UNL     1      94.395 121.565 122.351  1.00  0.00     0.053 C 
BRANCH   8   9
ATOM      9  C   UNL     1      93.794 121.474 120.982  1.00  0.00     0.041 C 
ATOM     10  O   UNL     1      92.574 121.736 120.807  1.00  0.00    -0.550 OA
ATOM     11  O   UNL     1      94.570 121.065 119.906  1.00  0.00    -0.550 OA
ENDBRANCH   8   9
ENDBRANCH   7   8
ENDBRANCH   6   7
ENDBRANCH   5   6
ENDBRANCH   4   5
ENDBRANCH   3   4
ENDBRANCH   2   3
ENDBRANCH   1   2
BRANCH   1  12
ATOM     12  C   UNL     1      99.709 126.977 125.328  1.00  0.00     0.000 C 
BRANCH  12  13
ATOM     13  C   UNL     1     100.011 128.323 126.012  1.00  0.00    -0.000 C 
BRANCH  13  14
ATOM     14  C   UNL     1     100.801 128.166 127.323  1.00  0.00    -0.000 C 
BRANCH  14  15
ATOM     15  C   UNL     1     100.028 128.691 128.544  1.00  0.00    -0.000 C 
BRANCH  15  16
ATOM     16  C   UNL     1      99.091 129.861 128.192  1.00  0.00    -0.000 C 
BRANCH  16  17
ATOM     17  C   UNL     1      97.686 129.694 128.793  1.00  0.00    -0.000 C 
BRANCH  17  18
ATOM     18  C   UNL     1      97.034 128.354 128.412  1.00  0.00    -0.000 C 
BRANCH  18  19
ATOM     19  C   UNL     1      96.505 127.588 129.634  1.00  0.00    -0.003 C 
ATOM     20  C   UNL     1      97.208 126.247 129.847  1.00  0.00     0.004 C 
ENDBRANCH  18  19
ENDBRANCH  17  18
ENDBRANCH  16  17
ENDBRANCH  15  16
ENDBRANCH  14  15
ENDBRANCH  13  14
ENDBRANCH  12  13
ENDBRANCH   1  12
TORSDOF 16
ENDMDL
MODEL 8
REMARK VINA RESULT:    -5.580      1.780      4.180
REMARK INTER + INTRA:         -11.638
REMARK INTER:                 -10.611
REMARK INTRA:                  -1.027
REMARK UNBOUND:                -0.839
REMARK SMILES CCCCCCCCCCCCCCCCCC(=O)[O-]
REMARK SMILES IDX 10 1 11 2 12 3 13 4 14 5 15 6 16 7 17 8 18 9 19 10 20 11
REMARK SMILES IDX 9 12 8 13 7 14 6 15 5 16 4 17 3 18 2 19 1 20
REMARK H PARENT
REMARK Flexibility Score: inf
ROOT
ATOM      1  C   UNL     1      97.869 126.164 125.178  1.00  0.00     0.000 C 
ENDROOT
BRANCH   1   2
ATOM      2  C   UNL     1      98.961 127.030 125.830  1.00  0.00     0.000 C 
BRANCH   2   3
ATOM      3  C   UNL     1     100.259 126.247 126.090  1.00  0.00     0.000 C 
BRANCH   3   4
ATOM      4  C   UNL     1     101.462 126.827 125.325  1.00  0.00     0.000 C 
BRANCH   4   5
ATOM      5  C   UNL     1     101.046 127.864 124.269  1.00  0.00     0.000 C 
BRANCH   5   6
ATOM      6  C   UNL     1     101.958 129.104 124.269  1.00  0.00     0.000 C 
BRANCH   6   7
ATOM      7  C   UNL     1     102.124 129.721 125.670  1.00  0.00     0.006 C 
BRANCH   7   8
ATOM      8  C   UNL     1     100.818 130.234 126.297  1.00  0.00     0.053 C 
BRANCH   8   9
ATOM      9  C   UNL     1     100.754 129.962 127.768  1.00  0.00     0.041 C 
ATOM     10  O   UNL     1      99.850 129.219 128.236  1.00  0.00    -0.550 OA
ATOM     11  O   UNL     1     101.668 130.556 128.627  1.00  0.00    -0.550 OA
ENDBRANCH   8   9
ENDBRANCH   7   8
ENDBRANCH   6   7
ENDBRANCH   5   6
ENDBRANCH   4   5
ENDBRANCH   3   4
ENDBRANCH   2   3
ENDBRANCH   1   2
BRANCH   1  12
ATOM     12  C   UNL     1      97.394 125.014 126.086  1.00  0.00     0.000 C 
BRANCH  12  13
ATOM     13  C   UNL     1      96.753 123.821 125.353  1.00  0.00    -0.000 C 
BRANCH  13  14
ATOM     14  C   UNL     1      95.940 124.242 124.117  1.00  0.00    -0.000 C 
BRANCH  14  15
ATOM     15  C   UNL     1      94.654 123.417 123.947  1.00  0.00    -0.000 C 
BRANCH  15  16
ATOM     16  C   UNL     1      94.813 122.279 122.923  1.00  0.00    -0.000 C 
BRANCH  16  17
ATOM     17  C   UNL     1      93.577 122.117 122.023  1.00  0.00    -0.000 C 
BRANCH  17  18
ATOM     18  C   UNL     1      93.809 121.126 120.869  1.00  0.00    -0.000 C 
BRANCH  18  19
ATOM     19  C   UNL     1      93.092 121.548 119.578  1.00  0.00    -0.003 C 
ATOM     20  C   UNL     1      93.866 121.166 118.316  1.00  0.00     0.004 C 
ENDBRANCH  18  19
ENDBRANCH  17  18
ENDBRANCH  16  17
ENDBRANCH  15  16
ENDBRANCH  14  15
ENDBRANCH  13  14
ENDBRANCH  12  13
ENDBRANCH   1  12
TORSDOF 16
ENDMDL
MODEL 9
REMARK VINA RESULT:    -5.561      2.562      5.776
REMARK INTER + INTRA:         -11.601
REMARK INTER:                 -10.087
REMARK INTRA:                  -1.514
REMARK UNBOUND:                -0.839
REMARK SMILES CCCCCCCCCCCCCCCCCC(=O)[O-]
REMARK SMILES IDX 10 1 11 2 12 3 13 4 14 5 15 6 16 7 17 8 18 9 19 10 20 11
REMARK SMILES IDX 9 12 8 13 7 14 6 15 5 16 4 17 3 18 2 19 1 20
REMARK H PARENT
REMARK Flexibility Score: inf
ROOT
ATOM      1  C   UNL     1      97.652 127.609 127.705  1.00  0.00     0.000 C 
ENDROOT
BRANCH   1   2
ATOM      2  C   UNL     1      97.360 129.004 128.283  1.00  0.00     0.000 C 
BRANCH   2   3
ATOM      3  C   UNL     1      98.642 129.768 128.657  1.00  0.00     0.000 C 
BRANCH   3   4
ATOM      4  C   UNL     1      99.488 129.026 129.707  1.00  0.00     0.000 C 
BRANCH   4   5
ATOM      5  C   UNL     1     100.889 128.665 129.188  1.00  0.00     0.000 C 
BRANCH   5   6
ATOM      6  C   UNL     1     101.405 129.666 128.138  1.00  0.00     0.000 C 
BRANCH   6   7
ATOM      7  C   UNL     1     101.726 128.999 126.787  1.00  0.00     0.006 C 
BRANCH   7   8
ATOM      8  C   UNL     1     101.140 129.723 125.565  1.00  0.00     0.053 C 
BRANCH   8   9
ATOM      9  C   UNL     1     101.311 128.931 124.305  1.00  0.00     0.041 C 
ATOM     10  O   UNL     1     101.288 127.673 124.341  1.00  0.00    -0.550 OA
ATOM     11  O   UNL     1     101.530 129.581 123.098  1.00  0.00    -0.550 OA
ENDBRANCH   8   9
ENDBRANCH   7   8
ENDBRANCH   6   7
ENDBRANCH   5   6
ENDBRANCH   4   5
ENDBRANCH   3   4
ENDBRANCH   2   3
ENDBRANCH   1   2
BRANCH   1  12
ATOM     12  C   UNL     1      98.131 127.653 126.242  1.00  0.00     0.000 C 
BRANCH  12  13
ATOM     13  C   UNL     1      98.075 126.311 125.491  1.00  0.00    -0.000 C 
BRANCH  13  14
ATOM     14  C   UNL     1      97.641 125.138 126.388  1.00  0.00    -0.000 C 
BRANCH  14  15
ATOM     15  C   UNL     1      97.027 123.978 125.589  1.00  0.00    -0.000 C 
BRANCH  15  16
ATOM     16  C   UNL     1      96.216 124.463 124.373  1.00  0.00    -0.000 C 
BRANCH  16  17
ATOM     17  C   UNL     1      95.120 123.467 123.958  1.00  0.00    -0.000 C 
BRANCH  17  18
ATOM     18  C   UNL     1      95.534 122.598 122.757  1.00  0.00    -0.000 C 
BRANCH  18  19
ATOM     19  C   UNL     1      94.535 121.465 122.479  1.00  0.00    -0.003 C 
ATOM     20  C   UNL     1      93.224 121.963 121.870  1.00  0.00     0.004 C 
ENDBRANCH  18  19
ENDBRANCH  17  18
ENDBRANCH  16  17
ENDBRANCH  15  16
ENDBRANCH  14  15
ENDBRANCH  13  14
ENDBRANCH  12  13
ENDBRANCH   1  12
TORSDOF 16
ENDMDL
