MODEL 1
REMARK VINA RESULT:    -3.396      0.000      0.000
REMARK INTER + INTRA:          -5.214
REMARK INTER:                  -4.587
REMARK INTRA:                  -0.626
REMARK UNBOUND:                -0.626
REMARK SMILES CCCCCCC=CC(=O)[O-]
REMARK SMILES IDX 5 1 6 2 7 3 8 4 9 5 10 6 11 7 4 8 3 9 2 10 1 11
REMARK H PARENT
REMARK Flexibility Score: inf
ROOT
ATOM      1  C   UNL     1       0.055 -15.410  -7.866  1.00  0.00     0.004 C 
ENDROOT
BRANCH   1   2
ATOM      2  C   UNL     1       0.613 -15.686  -6.460  1.00  0.00     0.027 C 
BRANCH   2   3
ATOM      3  C   UNL     1       0.371 -14.521  -5.543  1.00  0.00    -0.025 C 
ATOM      4  C   UNL     1      -0.725 -13.763  -5.649  1.00  0.00     0.020 C 
BRANCH   4   5
ATOM      5  C   UNL     1      -0.966 -12.612  -4.768  1.00  0.00     0.064 C 
ATOM      6  O   UNL     1       0.008 -11.928  -4.356  1.00  0.00    -0.545 OA
ATOM      7  O   UNL     1      -2.255 -12.264  -4.380  1.00  0.00    -0.545 OA
ENDBRANCH   4   5
ENDBRANCH   2   3
ENDBRANCH   1   2
BRANCH   1   8
ATOM      8  C   UNL     1      -0.303 -16.697  -8.630  1.00  0.00     0.000 C 
BRANCH   8   9
ATOM      9  C   UNL     1      -1.780 -17.120  -8.535  1.00  0.00    -0.000 C 
BRANCH   9  10
ATOM     10  C   UNL     1      -2.693 -15.997  -8.024  1.00  0.00    -0.003 C 
ATOM     11  C   UNL     1      -3.332 -16.372  -6.690  1.00  0.00     0.004 C 
ENDBRANCH   9  10
ENDBRANCH   8   9
ENDBRANCH   1   8
TORSDOF 6
ENDMDL
MODEL 2
REMARK VINA RESULT:    -3.391      1.449      2.509
REMARK INTER + INTRA:          -5.206
REMARK INTER:                  -4.715
REMARK INTRA:                  -0.491
REMARK UNBOUND:                -0.626
REMARK SMILES CCCCCCC=CC(=O)[O-]
REMARK SMILES IDX 5 1 6 2 7 3 8 4 9 5 10 6 11 7 4 8 3 9 2 10 1 11
REMARK H PARENT
REMARK Flexibility Score: inf
ROOT
ATOM      1  C   UNL     1      -1.734 -15.650  -8.055  1.00  0.00     0.004 C 
ENDROOT
BRANCH   1   2
ATOM      2  C   UNL     1      -0.275 -15.170  -7.992  1.00  0.00     0.027 C 
BRANCH   2   3
ATOM      3  C   UNL     1       0.081 -14.696  -6.613  1.00  0.00    -0.025 C 
ATOM      4  C   UNL     1      -0.687 -13.822  -5.954  1.00  0.00     0.020 C 
BRANCH   4   5
ATOM      5  C   UNL     1      -0.343 -13.338  -4.609  1.00  0.00     0.064 C 
ATOM      6  O   UNL     1      -0.399 -14.128  -3.630  1.00  0.00    -0.545 OA
ATOM      7  O   UNL     1       0.046 -12.020  -4.399  1.00  0.00    -0.545 OA
ENDBRANCH   4   5
ENDBRANCH   2   3
ENDBRANCH   1   2
BRANCH   1   8
ATOM      8  C   UNL     1      -1.856 -17.158  -8.339  1.00  0.00     0.000 C 
BRANCH   8   9
ATOM      9  C   UNL     1      -0.603 -17.808  -8.953  1.00  0.00    -0.000 C 
BRANCH   9  10
ATOM     10  C   UNL     1       0.029 -18.871  -8.043  1.00  0.00    -0.003 C 
ATOM     11  C   UNL     1       1.485 -18.535  -7.733  1.00  0.00     0.004 C 
ENDBRANCH   9  10
ENDBRANCH   8   9
ENDBRANCH   1   8
TORSDOF 6
ENDMDL
MODEL 3
REMARK VINA RESULT:    -3.361      3.192      4.000
REMARK INTER + INTRA:          -5.166
REMARK INTER:                  -4.433
REMARK INTRA:                  -0.734
REMARK UNBOUND:                -0.626
REMARK SMILES CCCCCCC=CC(=O)[O-]
REMARK SMILES IDX 5 1 6 2 7 3 8 4 9 5 10 6 11 7 4 8 3 9 2 10 1 11
REMARK H PARENT
REMARK Flexibility Score: inf
ROOT
ATOM      1  C   UNL     1      -0.357 -14.554  -7.360  1.00  0.00     0.004 C 
ENDROOT
BRANCH   1   2
ATOM      2  C   UNL     1      -0.345 -14.594  -5.823  1.00  0.00     0.027 C 
BRANCH   2   3
ATOM      3  C   UNL     1       0.628 -15.619  -5.315  1.00  0.00    -0.025 C 
ATOM      4  C   UNL     1       1.771 -15.878  -5.958  1.00  0.00     0.020 C 
BRANCH   4   5
ATOM      5  C   UNL     1       2.725 -16.889  -5.479  1.00  0.00     0.064 C 
ATOM      6  O   UNL     1       3.922 -16.564  -5.267  1.00  0.00    -0.545 OA
ATOM      7  O   UNL     1       2.325 -18.202  -5.256  1.00  0.00    -0.545 OA
ENDBRANCH   4   5
ENDBRANCH   2   3
ENDBRANCH   1   2
BRANCH   1   8
ATOM      8  C   UNL     1      -1.590 -15.247  -7.967  1.00  0.00     0.000 C 
BRANCH   8   9
ATOM      9  C   UNL     1      -1.485 -16.779  -8.079  1.00  0.00    -0.000 C 
BRANCH   9  10
ATOM     10  C   UNL     1      -0.193 -17.242  -8.766  1.00  0.00    -0.003 C 
ATOM     11  C   UNL     1       0.303 -18.558  -8.173  1.00  0.00     0.004 C 
ENDBRANCH   9  10
ENDBRANCH   8   9
ENDBRANCH   1   8
TORSDOF 6
ENDMDL
MODEL 4
REMARK VINA RESULT:    -3.357      1.255      2.250
REMARK INTER + INTRA:          -5.161
REMARK INTER:                  -4.747
REMARK INTRA:                  -0.414
REMARK UNBOUND:                -0.626
REMARK SMILES CCCCCCC=CC(=O)[O-]
REMARK SMILES IDX 5 1 6 2 7 3 8 4 9 5 10 6 11 7 4 8 3 9 2 10 1 11
REMARK H PARENT
REMARK Flexibility Score: inf
ROOT
ATOM      1  C   UNL     1      -0.075 -15.523  -8.092  1.00  0.00     0.004 C 
ENDROOT
BRANCH   1   2
ATOM      2  C   UNL     1      -1.556 -15.177  -7.870  1.00  0.00     0.027 C 
BRANCH   2   3
ATOM      3  C   UNL     1      -1.736 -14.321  -6.650  1.00  0.00    -0.025 C 
ATOM      4  C   UNL     1      -0.698 -13.728  -6.051  1.00  0.00     0.020 C 
BRANCH   4   5
ATOM      5  C   UNL     1      -0.858 -12.900  -4.847  1.00  0.00     0.064 C 
ATOM      6  O   UNL     1      -1.947 -12.927  -4.215  1.00  0.00    -0.545 OA
ATOM      7  O   UNL     1       0.174 -12.086  -4.394  1.00  0.00    -0.545 OA
ENDBRANCH   4   5
ENDBRANCH   2   3
ENDBRANCH   1   2
BRANCH   1   8
ATOM      8  C   UNL     1       0.124 -16.857  -8.834  1.00  0.00     0.000 C 
BRANCH   8   9
ATOM      9  C   UNL     1      -0.099 -18.116  -7.976  1.00  0.00    -0.000 C 
BRANCH   9  10
ATOM     10  C   UNL     1      -0.989 -19.161  -8.664  1.00  0.00    -0.003 C 
ATOM     11  C   UNL     1      -2.053 -18.492  -9.530  1.00  0.00     0.004 C 
ENDBRANCH   9  10
ENDBRANCH   8   9
ENDBRANCH   1   8
TORSDOF 6
ENDMDL
MODEL 5
REMARK VINA RESULT:    -3.337      1.577      2.919
REMARK INTER + INTRA:          -5.134
REMARK INTER:                  -4.583
REMARK INTRA:                  -0.551
REMARK UNBOUND:                -0.626
REMARK SMILES CCCCCCC=CC(=O)[O-]
REMARK SMILES IDX 5 1 6 2 7 3 8 4 9 5 10 6 11 7 4 8 3 9 2 10 1 11
REMARK H PARENT
REMARK Flexibility Score: inf
ROOT
ATOM      1  C   UNL     1      -0.419 -16.726  -7.395  1.00  0.00     0.004 C 
ENDROOT
BRANCH   1   2
ATOM      2  C   UNL     1      -0.096 -15.331  -7.954  1.00  0.00     0.027 C 
BRANCH   2   3
ATOM      3  C   UNL     1      -0.653 -14.251  -7.072  1.00  0.00    -0.025 C 
ATOM      4  C   UNL     1      -0.216 -14.075  -5.821  1.00  0.00     0.020 C 
BRANCH   4   5
ATOM      5  C   UNL     1      -0.763 -13.031  -4.942  1.00  0.00     0.064 C 
ATOM      6  O   UNL     1      -0.004 -12.127  -4.503  1.00  0.00    -0.545 OA
ATOM      7  O   UNL     1      -2.107 -13.026  -4.586  1.00  0.00    -0.545 OA
ENDBRANCH   4   5
ENDBRANCH   2   3
ENDBRANCH   1   2
BRANCH   1   8
ATOM      8  C   UNL     1       0.449 -17.835  -8.016  1.00  0.00     0.000 C 
BRANCH   8   9
ATOM      9  C   UNL     1       1.715 -18.194  -7.217  1.00  0.00    -0.000 C 
BRANCH   9  10
ATOM     10  C   UNL     1       1.726 -17.587  -5.806  1.00  0.00    -0.003 C 
ATOM     11  C   UNL     1       2.869 -16.590  -5.646  1.00  0.00     0.004 C 
ENDBRANCH   9  10
ENDBRANCH   8   9
ENDBRANCH   1   8
TORSDOF 6
ENDMDL
MODEL 6
REMARK VINA RESULT:    -3.313      3.855      5.483
REMARK INTER + INTRA:          -5.101
REMARK INTER:                  -4.577
REMARK INTRA:                  -0.524
REMARK UNBOUND:                -0.626
REMARK SMILES CCCCCCC=CC(=O)[O-]
REMARK SMILES IDX 5 1 6 2 7 3 8 4 9 5 10 6 11 7 4 8 3 9 2 10 1 11
REMARK H PARENT
REMARK Flexibility Score: inf
ROOT
ATOM      1  C   UNL     1       0.531 -17.557  -8.102  1.00  0.00     0.004 C 
ENDROOT
BRANCH   1   2
ATOM      2  C   UNL     1      -0.364 -18.720  -8.559  1.00  0.00     0.027 C 
BRANCH   2   3
ATOM      3  C   UNL     1      -1.806 -18.304  -8.617  1.00  0.00    -0.025 C 
ATOM      4  C   UNL     1      -2.533 -18.454  -9.729  1.00  0.00     0.020 C 
BRANCH   4   5
ATOM      5  C   UNL     1      -3.941 -18.037  -9.803  1.00  0.00     0.064 C 
ATOM      6  O   UNL     1      -4.839 -18.798  -9.356  1.00  0.00    -0.545 OA
ATOM      7  O   UNL     1      -4.299 -16.814 -10.360  1.00  0.00    -0.545 OA
ENDBRANCH   4   5
ENDBRANCH   2   3
ENDBRANCH   1   2
BRANCH   1   8
ATOM      8  C   UNL     1       0.024 -16.185  -8.583  1.00  0.00     0.000 C 
BRANCH   8   9
ATOM      9  C   UNL     1       0.277 -15.021  -7.608  1.00  0.00    -0.000 C 
BRANCH   9  10
ATOM     10  C   UNL     1      -0.979 -14.606  -6.830  1.00  0.00    -0.003 C 
ATOM     11  C   UNL     1      -2.234 -14.773  -7.682  1.00  0.00     0.004 C 
ENDBRANCH   9  10
ENDBRANCH   8   9
ENDBRANCH   1   8
TORSDOF 6
ENDMDL
MODEL 7
REMARK VINA RESULT:    -3.296      2.976      5.318
REMARK INTER + INTRA:          -5.078
REMARK INTER:                  -4.765
REMARK INTRA:                  -0.313
REMARK UNBOUND:                -0.626
REMARK SMILES CCCCCCC=CC(=O)[O-]
REMARK SMILES IDX 5 1 6 2 7 3 8 4 9 5 10 6 11 7 4 8 3 9 2 10 1 11
REMARK H PARENT
REMARK Flexibility Score: inf
ROOT
ATOM      1  C   UNL     1      -0.646 -12.992  -5.080  1.00  0.00     0.004 C 
ENDROOT
BRANCH   1   2
ATOM      2  C   UNL     1       0.124 -14.321  -5.125  1.00  0.00     0.027 C 
BRANCH   2   3
ATOM      3  C   UNL     1      -0.373 -15.199  -6.238  1.00  0.00    -0.025 C 
ATOM      4  C   UNL     1      -1.465 -14.884  -6.942  1.00  0.00     0.020 C 
BRANCH   4   5
ATOM      5  C   UNL     1      -1.971 -15.741  -8.024  1.00  0.00     0.064 C 
ATOM      6  O   UNL     1      -3.099 -15.503  -8.530  1.00  0.00    -0.545 OA
ATOM      7  O   UNL     1      -1.223 -16.813  -8.498  1.00  0.00    -0.545 OA
ENDBRANCH   4   5
ENDBRANCH   2   3
ENDBRANCH   1   2
BRANCH   1   8
ATOM      8  C   UNL     1      -0.259 -12.117  -3.874  1.00  0.00     0.000 C 
BRANCH   8   9
ATOM      9  C   UNL     1      -1.442 -11.450  -3.149  1.00  0.00    -0.000 C 
BRANCH   9  10
ATOM     10  C   UNL     1      -2.743 -11.491  -3.962  1.00  0.00    -0.003 C 
ATOM     11  C   UNL     1      -3.584 -10.241  -3.717  1.00  0.00     0.004 C 
ENDBRANCH   9  10
ENDBRANCH   8   9
ENDBRANCH   1   8
TORSDOF 6
ENDMDL
MODEL 8
REMARK VINA RESULT:    -3.252      2.820      4.500
REMARK INTER + INTRA:          -5.019
REMARK INTER:                  -4.316
REMARK INTRA:                  -0.703
REMARK UNBOUND:                -0.626
REMARK SMILES CCCCCCC=CC(=O)[O-]
REMARK SMILES IDX 5 1 6 2 7 3 8 4 9 5 10 6 11 7 4 8 3 9 2 10 1 11
REMARK H PARENT
REMARK Flexibility Score: inf
ROOT
ATOM      1  C   UNL     1       0.801 -15.309  -6.428  1.00  0.00     0.004 C 
ENDROOT
BRANCH   1   2
ATOM      2  C   UNL     1       0.042 -14.819  -7.672  1.00  0.00     0.027 C 
BRANCH   2   3
ATOM      3  C   UNL     1      -1.126 -15.711  -7.981  1.00  0.00    -0.025 C 
ATOM      4  C   UNL     1      -2.385 -15.310  -7.779  1.00  0.00     0.020 C 
BRANCH   4   5
ATOM      5  C   UNL     1      -3.536 -16.178  -8.063  1.00  0.00     0.064 C 
ATOM      6  O   UNL     1      -4.281 -16.553  -7.119  1.00  0.00    -0.545 OA
ATOM      7  O   UNL     1      -3.818 -16.594  -9.360  1.00  0.00    -0.545 OA
ENDBRANCH   4   5
ENDBRANCH   2   3
ENDBRANCH   1   2
BRANCH   1   8
ATOM      8  C   UNL     1       0.123 -14.890  -5.111  1.00  0.00     0.000 C 
BRANCH   8   9
ATOM      9  C   UNL     1      -0.267 -13.403  -5.025  1.00  0.00    -0.000 C 
BRANCH   9  10
ATOM     10  C   UNL     1      -1.762 -13.191  -4.746  1.00  0.00    -0.003 C 
ATOM     11  C   UNL     1      -2.396 -14.449  -4.160  1.00  0.00     0.004 C 
ENDBRANCH   9  10
ENDBRANCH   8   9
ENDBRANCH   1   8
TORSDOF 6
ENDMDL
MODEL 9
REMARK VINA RESULT:    -3.242      2.526      3.373
REMARK INTER + INTRA:          -5.005
REMARK INTER:                  -4.355
REMARK INTRA:                  -0.650
REMARK UNBOUND:                -0.626
REMARK SMILES CCCCCCC=CC(=O)[O-]
REMARK SMILES IDX 5 1 6 2 7 3 8 4 9 5 10 6 11 7 4 8 3 9 2 10 1 11
REMARK H PARENT
REMARK Flexibility Score: inf
ROOT
ATOM      1  C   UNL     1      -0.334 -19.116  -7.679  1.00  0.00     0.004 C 
ENDROOT
BRANCH   1   2
ATOM      2  C   UNL     1       0.682 -18.074  -8.171  1.00  0.00     0.027 C 
BRANCH   2   3
ATOM      3  C   UNL     1       0.069 -16.704  -8.232  1.00  0.00    -0.025 C 
ATOM      4  C   UNL     1      -0.815 -16.293  -7.317  1.00  0.00     0.020 C 
BRANCH   4   5
ATOM      5  C   UNL     1      -1.434 -14.960  -7.374  1.00  0.00     0.064 C 
ATOM      6  O   UNL     1      -0.953 -14.022  -6.686  1.00  0.00    -0.545 OA
ATOM      7  O   UNL     1      -2.544 -14.719  -8.176  1.00  0.00    -0.545 OA
ENDBRANCH   4   5
ENDBRANCH   2   3
ENDBRANCH   1   2
BRANCH   1   8
ATOM      8  C   UNL     1      -1.095 -19.800  -8.830  1.00  0.00     0.000 C 
BRANCH   8   9
ATOM      9  C   UNL     1      -2.544 -19.318  -9.027  1.00  0.00    -0.000 C 
BRANCH   9  10
ATOM     10  C   UNL     1      -2.671 -18.219 -10.091  1.00  0.00    -0.003 C 
ATOM     11  C   UNL     1      -4.000 -17.480  -9.963  1.00  0.00     0.004 C 
ENDBRANCH   9  10
ENDBRANCH   8   9
ENDBRANCH   1   8
TORSDOF 6
ENDMDL
