MODEL 1
REMARK VINA RESULT:    -4.048      0.000      0.000
REMARK INTER + INTRA:          -4.661
REMARK INTER:                  -4.640
REMARK INTRA:                  -0.022
REMARK UNBOUND:                -0.022
REMARK SMILES CC(C)[C@@H]([NH3+])C(=O)[O-]
REMARK SMILES IDX 4 1 5 2 6 6 7 7 8 8 2 9 1 10 3 11
REMARK H PARENT 5 3 5 4 5 5
REMARK Flexibility Score: inf
ROOT
ATOM      1  C   UNL     1     161.639 152.402 230.216  1.00  0.00     0.230 C 
ENDROOT
BRANCH   1   2
ATOM      2  N   UNL     1     162.770 152.546 229.288  1.00  0.00    -0.350 N 
ATOM      3  H   UNL     1     162.568 153.253 228.545  1.00  0.00     0.345 HD
ATOM      4  H   UNL     1     162.982 151.625 228.837  1.00  0.00     0.345 HD
ATOM      5  H   UNL     1     163.619 152.850 229.817  1.00  0.00     0.345 HD
ENDBRANCH   1   2
BRANCH   1   6
ATOM      6  C   UNL     1     161.046 153.752 230.544  1.00  0.00     0.099 C 
ATOM      7  O   UNL     1     161.281 154.740 229.799  1.00  0.00    -0.544 OA
ATOM      8  O   UNL     1     160.263 153.925 231.679  1.00  0.00    -0.544 OA
ENDBRANCH   1   6
BRANCH   1   9
ATOM      9  C   UNL     1     160.579 151.393 229.682  1.00  0.00     0.047 C 
ATOM     10  C   UNL     1     160.079 150.464 230.801  1.00  0.00     0.014 C 
ATOM     11  C   UNL     1     159.385 152.064 228.982  1.00  0.00     0.014 C 
ENDBRANCH   1   9
TORSDOF 3
ENDMDL
MODEL 2
REMARK VINA RESULT:    -4.044     12.439     13.593
REMARK INTER + INTRA:          -4.657
REMARK INTER:                  -4.643
REMARK INTRA:                  -0.014
REMARK UNBOUND:                -0.022
REMARK SMILES CC(C)[C@@H]([NH3+])C(=O)[O-]
REMARK SMILES IDX 4 1 5 2 6 6 7 7 8 8 2 9 1 10 3 11
REMARK H PARENT 5 3 5 4 5 5
REMARK Flexibility Score: inf
ROOT
ATOM      1  C   UNL     1     156.374 165.549 230.214  1.00  0.00     0.230 C 
ENDROOT
BRANCH   1   2
ATOM      2  N   UNL     1     155.225 165.413 229.307  1.00  0.00    -0.350 N 
ATOM      3  H   UNL     1     154.692 166.308 229.229  1.00  0.00     0.345 HD
ATOM      4  H   UNL     1     154.584 164.661 229.651  1.00  0.00     0.345 HD
ATOM      5  H   UNL     1     155.562 165.141 228.356  1.00  0.00     0.345 HD
ENDBRANCH   1   2
BRANCH   1   6
ATOM      6  C   UNL     1     156.988 164.200 230.500  1.00  0.00     0.099 C 
ATOM      7  O   UNL     1     156.769 163.231 229.725  1.00  0.00    -0.544 OA
ATOM      8  O   UNL     1     157.773 164.004 231.631  1.00  0.00    -0.544 OA
ENDBRANCH   1   6
BRANCH   1   9
ATOM      9  C   UNL     1     157.413 166.581 229.678  1.00  0.00     0.047 C 
ATOM     10  C   UNL     1     157.902 167.514 230.797  1.00  0.00     0.014 C 
ATOM     11  C   UNL     1     158.615 165.935 228.968  1.00  0.00     0.014 C 
ENDBRANCH   1   9
TORSDOF 3
ENDMDL
MODEL 3
REMARK VINA RESULT:    -3.924     12.207     13.379
REMARK INTER + INTRA:          -4.519
REMARK INTER:                  -4.450
REMARK INTRA:                  -0.068
REMARK UNBOUND:                -0.022
REMARK SMILES CC(C)[C@@H]([NH3+])C(=O)[O-]
REMARK SMILES IDX 4 1 5 2 6 6 7 7 8 8 2 9 1 10 3 11
REMARK H PARENT 5 3 5 4 5 5
REMARK Flexibility Score: inf
ROOT
ATOM      1  C   UNL     1     156.396 165.205 230.392  1.00  0.00     0.230 C 
ENDROOT
BRANCH   1   2
ATOM      2  N   UNL     1     155.512 165.665 229.312  1.00  0.00    -0.350 N 
ATOM      3  H   UNL     1     154.573 165.941 229.677  1.00  0.00     0.345 HD
ATOM      4  H   UNL     1     155.393 164.907 228.599  1.00  0.00     0.345 HD
ATOM      5  H   UNL     1     155.942 166.491 228.837  1.00  0.00     0.345 HD
ENDBRANCH   1   2
BRANCH   1   6
ATOM      6  C   UNL     1     156.527 163.701 230.368  1.00  0.00     0.099 C 
ATOM      7  O   UNL     1     156.951 163.089 231.385  1.00  0.00    -0.544 OA
ATOM      8  O   UNL     1     156.213 162.981 229.222  1.00  0.00    -0.544 OA
ENDBRANCH   1   6
BRANCH   1   9
ATOM      9  C   UNL     1     157.775 165.930 230.357  1.00  0.00     0.047 C 
ATOM     10  C   UNL     1     158.466 165.749 228.996  1.00  0.00     0.014 C 
ATOM     11  C   UNL     1     157.696 167.424 230.713  1.00  0.00     0.014 C 
ENDBRANCH   1   9
TORSDOF 3
ENDMDL
MODEL 4
REMARK VINA RESULT:    -3.907      2.366      3.227
REMARK INTER + INTRA:          -4.499
REMARK INTER:                  -4.539
REMARK INTRA:                   0.039
REMARK UNBOUND:                -0.022
REMARK SMILES CC(C)[C@@H]([NH3+])C(=O)[O-]
REMARK SMILES IDX 4 1 5 2 6 6 7 7 8 8 2 9 1 10 3 11
REMARK H PARENT 5 3 5 4 5 5
REMARK Flexibility Score: inf
ROOT
ATOM      1  C   UNL     1     160.804 151.691 229.446  1.00  0.00     0.230 C 
ENDROOT
BRANCH   1   2
ATOM      2  N   UNL     1     161.871 150.872 228.853  1.00  0.00    -0.350 N 
ATOM      3  H   UNL     1     162.452 150.410 229.589  1.00  0.00     0.345 HD
ATOM      4  H   UNL     1     162.487 151.467 228.251  1.00  0.00     0.345 HD
ATOM      5  H   UNL     1     161.447 150.131 228.249  1.00  0.00     0.345 HD
ENDBRANCH   1   2
BRANCH   1   6
ATOM      6  C   UNL     1     159.826 150.825 230.204  1.00  0.00     0.099 C 
ATOM      7  O   UNL     1     158.592 150.918 229.973  1.00  0.00    -0.544 OA
ATOM      8  O   UNL     1     160.272 149.941 231.180  1.00  0.00    -0.544 OA
ENDBRANCH   1   6
BRANCH   1   9
ATOM      9  C   UNL     1     161.382 152.849 230.316  1.00  0.00     0.047 C 
ATOM     10  C   UNL     1     161.748 154.067 229.453  1.00  0.00     0.014 C 
ATOM     11  C   UNL     1     160.456 153.278 231.466  1.00  0.00     0.014 C 
ENDBRANCH   1   9
TORSDOF 3
ENDMDL
MODEL 5
REMARK VINA RESULT:    -3.898     13.219     14.102
REMARK INTER + INTRA:          -4.489
REMARK INTER:                  -4.559
REMARK INTRA:                   0.070
REMARK UNBOUND:                -0.022
REMARK SMILES CC(C)[C@@H]([NH3+])C(=O)[O-]
REMARK SMILES IDX 4 1 5 2 6 6 7 7 8 8 2 9 1 10 3 11
REMARK H PARENT 5 3 5 4 5 5
REMARK Flexibility Score: inf
ROOT
ATOM      1  C   UNL     1     157.135 166.302 229.393  1.00  0.00     0.230 C 
ENDROOT
BRANCH   1   2
ATOM      2  N   UNL     1     156.058 167.154 228.869  1.00  0.00    -0.350 N 
ATOM      3  H   UNL     1     156.174 168.147 229.171  1.00  0.00     0.345 HD
ATOM      4  H   UNL     1     155.129 166.801 229.200  1.00  0.00     0.345 HD
ATOM      5  H   UNL     1     156.063 167.120 227.824  1.00  0.00     0.345 HD
ENDBRANCH   1   2
BRANCH   1   6
ATOM      6  C   UNL     1     158.150 167.130 230.145  1.00  0.00     0.099 C 
ATOM      7  O   UNL     1     159.376 167.014 229.882  1.00  0.00    -0.544 OA
ATOM      8  O   UNL     1     157.747 168.003 231.150  1.00  0.00    -0.544 OA
ENDBRANCH   1   6
BRANCH   1   9
ATOM      9  C   UNL     1     156.574 165.121 230.243  1.00  0.00     0.047 C 
ATOM     10  C   UNL     1     156.282 163.893 229.366  1.00  0.00     0.014 C 
ATOM     11  C   UNL     1     157.480 164.723 231.421  1.00  0.00     0.014 C 
ENDBRANCH   1   9
TORSDOF 3
ENDMDL
MODEL 6
REMARK VINA RESULT:    -3.860      2.065      3.041
REMARK INTER + INTRA:          -4.446
REMARK INTER:                  -4.375
REMARK INTRA:                  -0.070
REMARK UNBOUND:                -0.022
REMARK SMILES CC(C)[C@@H]([NH3+])C(=O)[O-]
REMARK SMILES IDX 4 1 5 2 6 6 7 7 8 8 2 9 1 10 3 11
REMARK H PARENT 5 3 5 4 5 5
REMARK Flexibility Score: inf
ROOT
ATOM      1  C   UNL     1     161.316 152.633 229.292  1.00  0.00     0.230 C 
ENDROOT
BRANCH   1   2
ATOM      2  N   UNL     1     162.714 152.317 229.621  1.00  0.00    -0.350 N 
ATOM      3  H   UNL     1     162.794 151.870 230.562  1.00  0.00     0.345 HD
ATOM      4  H   UNL     1     163.291 153.190 229.606  1.00  0.00     0.345 HD
ATOM      5  H   UNL     1     163.101 151.661 228.906  1.00  0.00     0.345 HD
ENDBRANCH   1   2
BRANCH   1   6
ATOM      6  C   UNL     1     160.395 151.540 229.781  1.00  0.00     0.099 C 
ATOM      7  O   UNL     1     160.836 150.640 230.543  1.00  0.00    -0.544 OA
ATOM      8  O   UNL     1     159.067 151.499 229.375  1.00  0.00    -0.544 OA
ENDBRANCH   1   6
BRANCH   1   9
ATOM      9  C   UNL     1     160.906 154.043 229.812  1.00  0.00     0.047 C 
ATOM     10  C   UNL     1     160.810 154.067 231.346  1.00  0.00     0.014 C 
ATOM     11  C   UNL     1     161.828 155.174 229.325  1.00  0.00     0.014 C 
ENDBRANCH   1   9
TORSDOF 3
ENDMDL
MODEL 7
REMARK VINA RESULT:    -3.859     12.424     13.359
REMARK INTER + INTRA:          -4.445
REMARK INTER:                  -4.382
REMARK INTRA:                  -0.063
REMARK UNBOUND:                -0.022
REMARK SMILES CC(C)[C@@H]([NH3+])C(=O)[O-]
REMARK SMILES IDX 4 1 5 2 6 6 7 7 8 8 2 9 1 10 3 11
REMARK H PARENT 5 3 5 4 5 5
REMARK Flexibility Score: inf
ROOT
ATOM      1  C   UNL     1     156.682 165.374 229.267  1.00  0.00     0.230 C 
ENDROOT
BRANCH   1   2
ATOM      2  N   UNL     1     155.284 165.682 229.599  1.00  0.00    -0.350 N 
ATOM      3  H   UNL     1     155.114 165.629 230.629  1.00  0.00     0.345 HD
ATOM      4  H   UNL     1     154.644 165.012 229.111  1.00  0.00     0.345 HD
ATOM      5  H   UNL     1     155.052 166.648 229.272  1.00  0.00     0.345 HD
ENDBRANCH   1   2
BRANCH   1   6
ATOM      6  C   UNL     1     157.597 166.477 229.743  1.00  0.00     0.099 C 
ATOM      7  O   UNL     1     157.164 167.356 230.535  1.00  0.00    -0.544 OA
ATOM      8  O   UNL     1     158.910 166.552 229.293  1.00  0.00    -0.544 OA
ENDBRANCH   1   6
BRANCH   1   9
ATOM      9  C   UNL     1     157.105 163.971 229.797  1.00  0.00     0.047 C 
ATOM     10  C   UNL     1     157.221 163.964 231.329  1.00  0.00     0.014 C 
ATOM     11  C   UNL     1     156.181 162.831 229.334  1.00  0.00     0.014 C 
ENDBRANCH   1   9
TORSDOF 3
ENDMDL
MODEL 8
REMARK VINA RESULT:    -3.844     13.207     14.175
REMARK INTER + INTRA:          -4.427
REMARK INTER:                  -4.409
REMARK INTRA:                  -0.018
REMARK UNBOUND:                -0.022
REMARK SMILES CC(C)[C@@H]([NH3+])C(=O)[O-]
REMARK SMILES IDX 4 1 5 2 6 6 7 7 8 8 2 9 1 10 3 11
REMARK H PARENT 5 3 5 4 5 5
REMARK Flexibility Score: inf
ROOT
ATOM      1  C   UNL     1     158.793 166.357 230.544  1.00  0.00     0.230 C 
ENDROOT
BRANCH   1   2
ATOM      2  N   UNL     1     159.744 167.394 230.120  1.00  0.00    -0.350 N 
ATOM      3  H   UNL     1     159.704 167.551 229.087  1.00  0.00     0.345 HD
ATOM      4  H   UNL     1     160.717 167.119 230.388  1.00  0.00     0.345 HD
ATOM      5  H   UNL     1     159.517 168.293 230.603  1.00  0.00     0.345 HD
ENDBRANCH   1   2
BRANCH   1   6
ATOM      6  C   UNL     1     158.026 166.805 231.765  1.00  0.00     0.099 C 
ATOM      7  O   UNL     1     157.995 168.025 232.076  1.00  0.00    -0.544 OA
ATOM      8  O   UNL     1     157.374 165.879 232.571  1.00  0.00    -0.544 OA
ENDBRANCH   1   6
BRANCH   1   9
ATOM      9  C   UNL     1     157.859 165.918 229.375  1.00  0.00     0.047 C 
ATOM     10  C   UNL     1     157.408 164.458 229.538  1.00  0.00     0.014 C 
ATOM     11  C   UNL     1     156.635 166.830 229.187  1.00  0.00     0.014 C 
ENDBRANCH   1   9
TORSDOF 3
ENDMDL
MODEL 9
REMARK VINA RESULT:    -3.787      2.525      3.296
REMARK INTER + INTRA:          -4.362
REMARK INTER:                  -4.392
REMARK INTRA:                   0.030
REMARK UNBOUND:                -0.022
REMARK SMILES CC(C)[C@@H]([NH3+])C(=O)[O-]
REMARK SMILES IDX 4 1 5 2 6 6 7 7 8 8 2 9 1 10 3 11
REMARK H PARENT 5 3 5 4 5 5
REMARK Flexibility Score: inf
ROOT
ATOM      1  C   UNL     1     159.234 151.749 230.599  1.00  0.00     0.230 C 
ENDROOT
BRANCH   1   2
ATOM      2  N   UNL     1     158.278 150.708 230.194  1.00  0.00    -0.350 N 
ATOM      3  H   UNL     1     157.294 151.057 230.230  1.00  0.00     0.345 HD
ATOM      4  H   UNL     1     158.370 149.875 230.820  1.00  0.00     0.345 HD
ATOM      5  H   UNL     1     158.488 150.404 229.216  1.00  0.00     0.345 HD
ENDBRANCH   1   2
BRANCH   1   6
ATOM      6  C   UNL     1     160.016 151.310 231.814  1.00  0.00     0.099 C 
ATOM      7  O   UNL     1     160.574 152.168 232.548  1.00  0.00    -0.544 OA
ATOM      8  O   UNL     1     160.154 149.960 232.116  1.00  0.00    -0.544 OA
ENDBRANCH   1   6
BRANCH   1   9
ATOM      9  C   UNL     1     160.152 152.181 229.416  1.00  0.00     0.047 C 
ATOM     10  C   UNL     1     160.706 153.599 229.627  1.00  0.00     0.014 C 
ATOM     11  C   UNL     1     161.306 151.202 229.140  1.00  0.00     0.014 C 
ENDBRANCH   1   9
TORSDOF 3
ENDMDL
