MODEL 1
REMARK VINA RESULT:    -6.728      0.000      0.000
REMARK INTER + INTRA:         -11.182
REMARK INTER:                 -10.268
REMARK INTRA:                  -0.913
REMARK UNBOUND:                -0.913
REMARK SMILES CC(=O)CCC=C(C)CCC=C(C)CCC=C(C)C
REMARK SMILES IDX 10 1 11 2 12 3 13 4 14 5 15 6 16 7 18 8 17 9 19 10 9 11 7 12
REMARK SMILES IDX 6 13 8 14 5 15 4 16 2 17 3 18 1 19
REMARK H PARENT
REMARK Flexibility Score: inf
ROOT
ATOM      1  C   UNL     1      20.086 205.930  15.211  1.00  0.00     0.032 C 
ENDROOT
BRANCH   1   2
ATOM      2  C   UNL     1      21.479 205.947  14.626  1.00  0.00    -0.028 C 
ATOM      3  C   UNL     1      22.067 207.012  14.032  1.00  0.00    -0.077 C 
ATOM      4  C   UNL     1      23.433 206.822  13.423  1.00  0.00     0.039 C 
BRANCH   3   5
ATOM      5  C   UNL     1      21.419 208.383  13.956  1.00  0.00     0.034 C 
BRANCH   5   6
ATOM      6  C   UNL     1      20.792 208.644  12.579  1.00  0.00     0.032 C 
BRANCH   6   7
ATOM      7  C   UNL     1      19.682 207.665  12.276  1.00  0.00    -0.028 C 
ATOM      8  C   UNL     1      19.176 208.669  10.039  1.00  0.00     0.039 C 
ATOM      9  C   UNL     1      18.928 207.683  11.156  1.00  0.00    -0.080 C 
ATOM     10  C   UNL     1      17.820 206.672  11.020  1.00  0.00     0.039 C 
ENDBRANCH   6   7
ENDBRANCH   5   6
ENDBRANCH   3   5
ENDBRANCH   1   2
BRANCH   1  11
ATOM     11  C   UNL     1      19.273 204.738  14.690  1.00  0.00     0.034 C 
BRANCH  11  12
ATOM     12  C   UNL     1      19.331 203.558  15.638  1.00  0.00    -0.077 C 
ATOM     13  C   UNL     1      19.912 202.408  15.226  1.00  0.00    -0.028 C 
ATOM     14  C   UNL     1      18.691 203.689  17.000  1.00  0.00     0.039 C 
BRANCH  13  15
ATOM     15  C   UNL     1      20.031 201.160  16.066  1.00  0.00     0.035 C 
BRANCH  15  16
ATOM     16  C   UNL     1      19.504 199.922  15.329  1.00  0.00     0.079 C 
BRANCH  16  17
ATOM     17  C   UNL     1      19.578 198.690  16.192  1.00  0.00     0.130 C 
ATOM     18  O   UNL     1      20.562 197.968  16.130  1.00  0.00    -0.300 OA
ATOM     19  C   UNL     1      18.445 198.312  17.097  1.00  0.00     0.087 C 
ENDBRANCH  16  17
ENDBRANCH  15  16
ENDBRANCH  13  15
ENDBRANCH  11  12
ENDBRANCH   1  11
TORSDOF 9
ENDMDL
MODEL 2
REMARK VINA RESULT:    -6.670      1.187      1.658
REMARK INTER + INTRA:         -11.093
REMARK INTER:                  -9.623
REMARK INTRA:                  -1.470
REMARK UNBOUND:                -0.913
REMARK SMILES CC(=O)CCC=C(C)CCC=C(C)CCC=C(C)C
REMARK SMILES IDX 10 1 11 2 12 3 13 4 14 5 15 6 16 7 18 8 17 9 19 10 9 11 7 12
REMARK SMILES IDX 6 13 8 14 5 15 4 16 2 17 3 18 1 19
REMARK H PARENT
REMARK Flexibility Score: inf
ROOT
ATOM      1  C   UNL     1      20.775 206.609  16.353  1.00  0.00     0.032 C 
ENDROOT
BRANCH   1   2
ATOM      2  C   UNL     1      21.906 206.400  15.372  1.00  0.00    -0.028 C 
ATOM      3  C   UNL     1      22.204 207.216  14.334  1.00  0.00    -0.077 C 
ATOM      4  C   UNL     1      23.315 206.804  13.403  1.00  0.00     0.039 C 
BRANCH   3   5
ATOM      5  C   UNL     1      21.478 208.523  14.070  1.00  0.00     0.034 C 
BRANCH   5   6
ATOM      6  C   UNL     1      20.924 208.591  12.639  1.00  0.00     0.032 C 
BRANCH   6   7
ATOM      7  C   UNL     1      19.790 207.615  12.433  1.00  0.00    -0.028 C 
ATOM      8  C   UNL     1      19.269 208.446  10.129  1.00  0.00     0.039 C 
ATOM      9  C   UNL     1      19.018 207.559  11.326  1.00  0.00    -0.080 C 
ATOM     10  C   UNL     1      17.887 206.565  11.288  1.00  0.00     0.039 C 
ENDBRANCH   6   7
ENDBRANCH   5   6
ENDBRANCH   3   5
ENDBRANCH   1   2
BRANCH   1  11
ATOM     11  C   UNL     1      19.410 206.370  15.694  1.00  0.00     0.034 C 
BRANCH  11  12
ATOM     12  C   UNL     1      19.079 204.895  15.602  1.00  0.00    -0.077 C 
ATOM     13  C   UNL     1      19.276 204.246  14.432  1.00  0.00    -0.028 C 
ATOM     14  C   UNL     1      18.491 204.206  16.811  1.00  0.00     0.039 C 
BRANCH  13  15
ATOM     15  C   UNL     1      18.983 202.783  14.203  1.00  0.00     0.035 C 
BRANCH  15  16
ATOM     16  C   UNL     1      20.234 201.915  14.382  1.00  0.00     0.079 C 
BRANCH  16  17
ATOM     17  C   UNL     1      20.168 201.103  15.650  1.00  0.00     0.130 C 
ATOM     18  O   UNL     1      20.513 201.608  16.708  1.00  0.00    -0.300 OA
ATOM     19  C   UNL     1      19.723 199.673  15.629  1.00  0.00     0.087 C 
ENDBRANCH  16  17
ENDBRANCH  15  16
ENDBRANCH  13  15
ENDBRANCH  11  12
ENDBRANCH   1  11
TORSDOF 9
ENDMDL
MODEL 3
REMARK VINA RESULT:    -6.419      1.205      1.804
REMARK INTER + INTRA:         -10.709
REMARK INTER:                  -9.584
REMARK INTRA:                  -1.125
REMARK UNBOUND:                -0.913
REMARK SMILES CC(=O)CCC=C(C)CCC=C(C)CCC=C(C)C
REMARK SMILES IDX 10 1 11 2 12 3 13 4 14 5 15 6 16 7 18 8 17 9 19 10 9 11 7 12
REMARK SMILES IDX 6 13 8 14 5 15 4 16 2 17 3 18 1 19
REMARK H PARENT
REMARK Flexibility Score: inf
ROOT
ATOM      1  C   UNL     1      18.701 205.544  16.249  1.00  0.00     0.032 C 
ENDROOT
BRANCH   1   2
ATOM      2  C   UNL     1      20.010 206.192  16.635  1.00  0.00    -0.028 C 
ATOM      3  C   UNL     1      20.628 207.182  15.948  1.00  0.00    -0.077 C 
ATOM      4  C   UNL     1      21.977 207.648  16.433  1.00  0.00     0.039 C 
BRANCH   3   5
ATOM      5  C   UNL     1      20.025 207.843  14.721  1.00  0.00     0.034 C 
BRANCH   5   6
ATOM      6  C   UNL     1      20.425 207.120  13.427  1.00  0.00     0.032 C 
BRANCH   6   7
ATOM      7  C   UNL     1      20.098 207.944  12.204  1.00  0.00    -0.028 C 
ATOM      8  C   UNL     1      18.194 206.472  11.512  1.00  0.00     0.039 C 
ATOM      9  C   UNL     1      19.122 207.648  11.319  1.00  0.00    -0.080 C 
ATOM     10  C   UNL     1      18.951 208.538  10.115  1.00  0.00     0.039 C 
ENDBRANCH   6   7
ENDBRANCH   5   6
ENDBRANCH   3   5
ENDBRANCH   1   2
BRANCH   1  11
ATOM     11  C   UNL     1      18.604 204.111  16.788  1.00  0.00     0.034 C 
BRANCH  11  12
ATOM     12  C   UNL     1      19.213 203.107  15.831  1.00  0.00    -0.077 C 
ATOM     13  C   UNL     1      19.865 202.032  16.330  1.00  0.00    -0.028 C 
ATOM     14  C   UNL     1      19.115 203.366  14.346  1.00  0.00     0.039 C 
BRANCH  13  15
ATOM     15  C   UNL     1      20.520 200.962  15.491  1.00  0.00     0.035 C 
BRANCH  15  16
ATOM     16  C   UNL     1      19.545 199.831  15.142  1.00  0.00     0.079 C 
BRANCH  16  17
ATOM     17  C   UNL     1      19.687 198.666  16.086  1.00  0.00     0.130 C 
ATOM     18  O   UNL     1      20.678 197.954  16.023  1.00  0.00    -0.300 OA
ATOM     19  C   UNL     1      18.611 198.340  17.078  1.00  0.00     0.087 C 
ENDBRANCH  16  17
ENDBRANCH  15  16
ENDBRANCH  13  15
ENDBRANCH  11  12
ENDBRANCH   1  11
TORSDOF 9
ENDMDL
MODEL 4
REMARK VINA RESULT:    -6.330      2.992      7.651
REMARK INTER + INTRA:         -10.573
REMARK INTER:                  -9.418
REMARK INTRA:                  -1.155
REMARK UNBOUND:                -0.913
REMARK SMILES CC(=O)CCC=C(C)CCC=C(C)CCC=C(C)C
REMARK SMILES IDX 10 1 11 2 12 3 13 4 14 5 15 6 16 7 18 8 17 9 19 10 9 11 7 12
REMARK SMILES IDX 6 13 8 14 5 15 4 16 2 17 3 18 1 19
REMARK H PARENT
REMARK Flexibility Score: inf
ROOT
ATOM      1  C   UNL     1      21.198 205.048  14.198  1.00  0.00     0.032 C 
ENDROOT
BRANCH   1   2
ATOM      2  C   UNL     1      20.359 204.795  15.428  1.00  0.00    -0.028 C 
ATOM      3  C   UNL     1      19.216 204.070  15.463  1.00  0.00    -0.077 C 
ATOM      4  C   UNL     1      18.460 203.996  16.765  1.00  0.00     0.039 C 
BRANCH   3   5
ATOM      5  C   UNL     1      18.667 203.328  14.258  1.00  0.00     0.034 C 
BRANCH   5   6
ATOM      6  C   UNL     1      19.599 202.192  13.811  1.00  0.00     0.032 C 
BRANCH   6   7
ATOM      7  C   UNL     1      19.233 200.881  14.466  1.00  0.00    -0.028 C 
ATOM      8  C   UNL     1      20.844 201.183  16.360  1.00  0.00     0.039 C 
ATOM      9  C   UNL     1      19.805 200.400  15.591  1.00  0.00    -0.080 C 
ATOM     10  C   UNL     1      19.373 199.048  16.095  1.00  0.00     0.039 C 
ENDBRANCH   6   7
ENDBRANCH   5   6
ENDBRANCH   3   5
ENDBRANCH   1   2
BRANCH   1  11
ATOM     11  C   UNL     1      22.208 206.179  14.430  1.00  0.00     0.034 C 
BRANCH  11  12
ATOM     12  C   UNL     1      21.875 207.409  13.611  1.00  0.00    -0.077 C 
ATOM     13  C   UNL     1      20.580 207.704  13.360  1.00  0.00    -0.028 C 
ATOM     14  C   UNL     1      23.008 208.242  13.059  1.00  0.00     0.039 C 
BRANCH  13  15
ATOM     15  C   UNL     1      20.112 208.892  12.555  1.00  0.00     0.035 C 
BRANCH  15  16
ATOM     16  C   UNL     1      19.631 208.483  11.157  1.00  0.00     0.079 C 
BRANCH  16  17
ATOM     17  C   UNL     1      18.199 208.013  11.180  1.00  0.00     0.130 C 
ATOM     18  O   UNL     1      17.297 208.831  11.281  1.00  0.00    -0.300 OA
ATOM     19  C   UNL     1      17.864 206.554  11.122  1.00  0.00     0.087 C 
ENDBRANCH  16  17
ENDBRANCH  15  16
ENDBRANCH  13  15
ENDBRANCH  11  12
ENDBRANCH   1  11
TORSDOF 9
ENDMDL
MODEL 5
REMARK VINA RESULT:    -6.328      2.022      3.002
REMARK INTER + INTRA:         -10.571
REMARK INTER:                  -9.097
REMARK INTRA:                  -1.474
REMARK UNBOUND:                -0.913
REMARK SMILES CC(=O)CCC=C(C)CCC=C(C)CCC=C(C)C
REMARK SMILES IDX 10 1 11 2 12 3 13 4 14 5 15 6 16 7 18 8 17 9 19 10 9 11 7 12
REMARK SMILES IDX 6 13 8 14 5 15 4 16 2 17 3 18 1 19
REMARK H PARENT
REMARK Flexibility Score: inf
ROOT
ATOM      1  C   UNL     1      19.094 205.539  16.123  1.00  0.00     0.032 C 
ENDROOT
BRANCH   1   2
ATOM      2  C   UNL     1      20.123 206.322  16.903  1.00  0.00    -0.028 C 
ATOM      3  C   UNL     1      20.395 207.638  16.741  1.00  0.00    -0.077 C 
ATOM      4  C   UNL     1      21.520 208.235  17.548  1.00  0.00     0.039 C 
BRANCH   3   5
ATOM      5  C   UNL     1      19.621 208.536  15.793  1.00  0.00     0.034 C 
BRANCH   5   6
ATOM      6  C   UNL     1      20.454 208.923  14.563  1.00  0.00     0.032 C 
BRANCH   6   7
ATOM      7  C   UNL     1      21.271 207.759  14.053  1.00  0.00    -0.028 C 
ATOM      8  C   UNL     1      23.464 208.889  14.490  1.00  0.00     0.039 C 
ATOM      9  C   UNL     1      22.620 207.742  13.985  1.00  0.00    -0.080 C 
ATOM     10  C   UNL     1      23.293 206.527  13.401  1.00  0.00     0.039 C 
ENDBRANCH   6   7
ENDBRANCH   5   6
ENDBRANCH   3   5
ENDBRANCH   1   2
BRANCH   1  11
ATOM     11  C   UNL     1      19.710 204.885  14.879  1.00  0.00     0.034 C 
BRANCH  11  12
ATOM     12  C   UNL     1      20.371 203.562  15.206  1.00  0.00    -0.077 C 
ATOM     13  C   UNL     1      19.661 202.613  15.858  1.00  0.00    -0.028 C 
ATOM     14  C   UNL     1      21.822 203.363  14.837  1.00  0.00     0.039 C 
BRANCH  13  15
ATOM     15  C   UNL     1      20.198 201.258  16.249  1.00  0.00     0.035 C 
BRANCH  15  16
ATOM     16  C   UNL     1      19.608 200.137  15.384  1.00  0.00     0.079 C 
BRANCH  16  17
ATOM     17  C   UNL     1      19.711 198.798  16.066  1.00  0.00     0.130 C 
ATOM     18  O   UNL     1      20.683 198.087  15.856  1.00  0.00    -0.300 OA
ATOM     19  C   UNL     1      18.622 198.305  16.968  1.00  0.00     0.087 C 
ENDBRANCH  16  17
ENDBRANCH  15  16
ENDBRANCH  13  15
ENDBRANCH  11  12
ENDBRANCH   1  11
TORSDOF 9
ENDMDL
MODEL 6
REMARK VINA RESULT:    -6.298      2.680      7.263
REMARK INTER + INTRA:         -10.525
REMARK INTER:                  -9.042
REMARK INTRA:                  -1.484
REMARK UNBOUND:                -0.913
REMARK SMILES CC(=O)CCC=C(C)CCC=C(C)CCC=C(C)C
REMARK SMILES IDX 10 1 11 2 12 3 13 4 14 5 15 6 16 7 18 8 17 9 19 10 9 11 7 12
REMARK SMILES IDX 6 13 8 14 5 15 4 16 2 17 3 18 1 19
REMARK H PARENT
REMARK Flexibility Score: inf
ROOT
ATOM      1  C   UNL     1      19.405 204.887  13.420  1.00  0.00     0.032 C 
ENDROOT
BRANCH   1   2
ATOM      2  C   UNL     1      18.784 204.619  14.771  1.00  0.00    -0.028 C 
ATOM      3  C   UNL     1      19.442 204.153  15.858  1.00  0.00    -0.077 C 
ATOM      4  C   UNL     1      18.642 203.859  17.101  1.00  0.00     0.039 C 
BRANCH   3   5
ATOM      5  C   UNL     1      20.942 203.920  15.884  1.00  0.00     0.034 C 
BRANCH   5   6
ATOM      6  C   UNL     1      21.343 202.686  15.063  1.00  0.00     0.032 C 
BRANCH   6   7
ATOM      7  C   UNL     1      20.822 201.410  15.682  1.00  0.00    -0.028 C 
ATOM      8  C   UNL     1      19.238 200.944  13.800  1.00  0.00     0.039 C 
ATOM      9  C   UNL     1      19.856 200.636  15.144  1.00  0.00    -0.080 C 
ATOM     10  C   UNL     1      19.402 199.419  15.907  1.00  0.00     0.039 C 
ENDBRANCH   6   7
ENDBRANCH   5   6
ENDBRANCH   3   5
ENDBRANCH   1   2
BRANCH   1  11
ATOM     11  C   UNL     1      18.526 205.817  12.573  1.00  0.00     0.034 C 
BRANCH  11  12
ATOM     12  C   UNL     1      19.201 207.147  12.311  1.00  0.00    -0.077 C 
ATOM     13  C   UNL     1      20.039 207.656  13.243  1.00  0.00    -0.028 C 
ATOM     14  C   UNL     1      18.877 207.888  11.035  1.00  0.00     0.039 C 
BRANCH  13  15
ATOM     15  C   UNL     1      20.770 208.971  13.112  1.00  0.00     0.035 C 
BRANCH  15  16
ATOM     16  C   UNL     1      22.280 208.771  12.938  1.00  0.00     0.079 C 
BRANCH  16  17
ATOM     17  C   UNL     1      22.834 207.814  13.962  1.00  0.00     0.130 C 
ATOM     18  O   UNL     1      23.054 208.207  15.098  1.00  0.00    -0.300 OA
ATOM     19  C   UNL     1      23.157 206.397  13.599  1.00  0.00     0.087 C 
ENDBRANCH  16  17
ENDBRANCH  15  16
ENDBRANCH  13  15
ENDBRANCH  11  12
ENDBRANCH   1  11
TORSDOF 9
ENDMDL
MODEL 7
REMARK VINA RESULT:    -6.288      2.642      8.126
REMARK INTER + INTRA:         -10.510
REMARK INTER:                  -9.726
REMARK INTRA:                  -0.784
REMARK UNBOUND:                -0.913
REMARK SMILES CC(=O)CCC=C(C)CCC=C(C)CCC=C(C)C
REMARK SMILES IDX 10 1 11 2 12 3 13 4 14 5 15 6 16 7 18 8 17 9 19 10 9 11 7 12
REMARK SMILES IDX 6 13 8 14 5 15 4 16 2 17 3 18 1 19
REMARK H PARENT
REMARK Flexibility Score: inf
ROOT
ATOM      1  C   UNL     1      19.531 205.359  14.883  1.00  0.00     0.032 C 
ENDROOT
BRANCH   1   2
ATOM      2  C   UNL     1      19.194 204.171  14.012  1.00  0.00    -0.028 C 
ATOM      3  C   UNL     1      19.500 202.882  14.290  1.00  0.00    -0.077 C 
ATOM      4  C   UNL     1      19.164 201.834  13.261  1.00  0.00     0.039 C 
BRANCH   3   5
ATOM      5  C   UNL     1      20.159 202.447  15.587  1.00  0.00     0.034 C 
BRANCH   5   6
ATOM      6  C   UNL     1      20.486 200.947  15.587  1.00  0.00     0.032 C 
BRANCH   6   7
ATOM      7  C   UNL     1      19.423 200.144  16.301  1.00  0.00    -0.028 C 
ATOM      8  C   UNL     1      20.605 197.962  15.964  1.00  0.00     0.039 C 
ATOM      9  C   UNL     1      19.447 198.802  16.450  1.00  0.00    -0.080 C 
ATOM     10  C   UNL     1      18.285 198.136  17.139  1.00  0.00     0.039 C 
ENDBRANCH   6   7
ENDBRANCH   5   6
ENDBRANCH   3   5
ENDBRANCH   1   2
BRANCH   1  11
ATOM     11  C   UNL     1      21.030 205.682  14.835  1.00  0.00     0.034 C 
BRANCH  11  12
ATOM     12  C   UNL     1      21.338 206.780  13.839  1.00  0.00    -0.077 C 
ATOM     13  C   UNL     1      20.320 207.497  13.311  1.00  0.00    -0.028 C 
ATOM     14  C   UNL     1      22.774 207.007  13.428  1.00  0.00     0.039 C 
BRANCH  13  15
ATOM     15  C   UNL     1      20.487 208.611  12.306  1.00  0.00     0.035 C 
BRANCH  15  16
ATOM     16  C   UNL     1      19.852 208.263  10.955  1.00  0.00     0.079 C 
BRANCH  16  17
ATOM     17  C   UNL     1      18.375 207.998  11.089  1.00  0.00     0.130 C 
ATOM     18  O   UNL     1      17.952 206.858  10.966  1.00  0.00    -0.300 OA
ATOM     19  C   UNL     1      17.408 209.117  11.332  1.00  0.00     0.087 C 
ENDBRANCH  16  17
ENDBRANCH  15  16
ENDBRANCH  13  15
ENDBRANCH  11  12
ENDBRANCH   1  11
TORSDOF 9
ENDMDL
MODEL 8
REMARK VINA RESULT:    -6.258      2.521      3.640
REMARK INTER + INTRA:         -10.464
REMARK INTER:                  -8.586
REMARK INTRA:                  -1.878
REMARK UNBOUND:                -0.913
REMARK SMILES CC(=O)CCC=C(C)CCC=C(C)CCC=C(C)C
REMARK SMILES IDX 10 1 11 2 12 3 13 4 14 5 15 6 16 7 18 8 17 9 19 10 9 11 7 12
REMARK SMILES IDX 6 13 8 14 5 15 4 16 2 17 3 18 1 19
REMARK H PARENT
REMARK Flexibility Score: inf
ROOT
ATOM      1  C   UNL     1      22.340 208.773  16.420  1.00  0.00     0.032 C 
ENDROOT
BRANCH   1   2
ATOM      2  C   UNL     1      22.883 207.736  15.465  1.00  0.00    -0.028 C 
ATOM      3  C   UNL     1      22.524 207.600  14.167  1.00  0.00    -0.077 C 
ATOM      4  C   UNL     1      23.105 206.449  13.386  1.00  0.00     0.039 C 
BRANCH   3   5
ATOM      5  C   UNL     1      21.572 208.552  13.465  1.00  0.00     0.034 C 
BRANCH   5   6
ATOM      6  C   UNL     1      20.381 207.812  12.839  1.00  0.00     0.032 C 
BRANCH   6   7
ATOM      7  C   UNL     1      19.908 208.487  11.573  1.00  0.00    -0.028 C 
ATOM      8  C   UNL     1      18.080 206.823  11.168  1.00  0.00     0.039 C 
ATOM      9  C   UNL     1      18.898 208.038  10.796  1.00  0.00    -0.080 C 
ATOM     10  C   UNL     1      18.576 208.791   9.532  1.00  0.00     0.039 C 
ENDBRANCH   6   7
ENDBRANCH   5   6
ENDBRANCH   3   5
ENDBRANCH   1   2
BRANCH   1  11
ATOM     11  C   UNL     1      21.460 208.133  17.502  1.00  0.00     0.034 C 
BRANCH  11  12
ATOM     12  C   UNL     1      20.214 207.502  16.914  1.00  0.00    -0.077 C 
ATOM     13  C   UNL     1      20.143 206.156  16.810  1.00  0.00    -0.028 C 
ATOM     14  C   UNL     1      19.108 208.404  16.417  1.00  0.00     0.039 C 
BRANCH  13  15
ATOM     15  C   UNL     1      18.966 205.401  16.240  1.00  0.00     0.035 C 
BRANCH  15  16
ATOM     16  C   UNL     1      19.215 204.963  14.792  1.00  0.00     0.079 C 
BRANCH  16  17
ATOM     17  C   UNL     1      19.652 203.523  14.717  1.00  0.00     0.130 C 
ATOM     18  O   UNL     1      18.824 202.650  14.505  1.00  0.00    -0.300 OA
ATOM     19  C   UNL     1      21.084 203.138  14.937  1.00  0.00     0.087 C 
ENDBRANCH  16  17
ENDBRANCH  15  16
ENDBRANCH  13  15
ENDBRANCH  11  12
ENDBRANCH   1  11
TORSDOF 9
ENDMDL
MODEL 9
REMARK VINA RESULT:    -6.201      2.965      7.585
REMARK INTER + INTRA:         -10.376
REMARK INTER:                  -9.329
REMARK INTRA:                  -1.047
REMARK UNBOUND:                -0.913
REMARK SMILES CC(=O)CCC=C(C)CCC=C(C)CCC=C(C)C
REMARK SMILES IDX 10 1 11 2 12 3 13 4 14 5 15 6 16 7 18 8 17 9 19 10 9 11 7 12
REMARK SMILES IDX 6 13 8 14 5 15 4 16 2 17 3 18 1 19
REMARK H PARENT
REMARK Flexibility Score: inf
ROOT
ATOM      1  C   UNL     1      20.093 206.742  16.781  1.00  0.00     0.032 C 
ENDROOT
BRANCH   1   2
ATOM      2  C   UNL     1      19.379 206.012  15.668  1.00  0.00    -0.028 C 
ATOM      3  C   UNL     1      19.468 204.685  15.417  1.00  0.00    -0.077 C 
ATOM      4  C   UNL     1      18.754 204.141  14.206  1.00  0.00     0.039 C 
BRANCH   3   5
ATOM      5  C   UNL     1      20.247 203.724  16.297  1.00  0.00     0.034 C 
BRANCH   5   6
ATOM      6  C   UNL     1      20.865 202.576  15.485  1.00  0.00     0.032 C 
BRANCH   6   7
ATOM      7  C   UNL     1      20.467 201.227  16.035  1.00  0.00    -0.028 C 
ATOM      8  C   UNL     1      19.273 200.539  13.943  1.00  0.00     0.039 C 
ATOM      9  C   UNL     1      19.726 200.316  15.367  1.00  0.00    -0.080 C 
ATOM     10  C   UNL     1      19.363 199.033  16.068  1.00  0.00     0.039 C 
ENDBRANCH   6   7
ENDBRANCH   5   6
ENDBRANCH   3   5
ENDBRANCH   1   2
BRANCH   1  11
ATOM     11  C   UNL     1      21.387 207.398  16.282  1.00  0.00     0.034 C 
BRANCH  11  12
ATOM     12  C   UNL     1      21.431 207.479  14.770  1.00  0.00    -0.077 C 
ATOM     13  C   UNL     1      20.582 208.315  14.129  1.00  0.00    -0.028 C 
ATOM     14  C   UNL     1      22.391 206.584  14.022  1.00  0.00     0.039 C 
BRANCH  13  15
ATOM     15  C   UNL     1      20.518 208.487  12.630  1.00  0.00     0.035 C 
BRANCH  15  16
ATOM     16  C   UNL     1      19.438 207.600  11.999  1.00  0.00     0.079 C 
BRANCH  16  17
ATOM     17  C   UNL     1      18.568 208.379  11.047  1.00  0.00     0.130 C 
ATOM     18  O   UNL     1      17.468 208.767  11.413  1.00  0.00    -0.300 OA
ATOM     19  C   UNL     1      19.013 208.653   9.642  1.00  0.00     0.087 C 
ENDBRANCH  16  17
ENDBRANCH  15  16
ENDBRANCH  13  15
ENDBRANCH  11  12
ENDBRANCH   1  11
TORSDOF 9
ENDMDL
