MODEL 1
REMARK VINA RESULT:     1.665      0.000      0.000
REMARK INTER + INTRA:           2.281
REMARK INTER:                   4.195
REMARK INTRA:                  -1.914
REMARK UNBOUND:                -1.914
REMARK SMILES CCCCCCCCCCCCCCCCCCCCCCCCCCCC(=O)[O-]
REMARK SMILES IDX 15 1 16 2 17 3 18 4 19 5 20 6 21 7 22 8 23 9 24 10 25 11
REMARK SMILES IDX 26 12 27 13 28 14 29 15 30 16 14 17 13 18 12 19 11 20 10 21
REMARK SMILES IDX 9 22 8 23 7 24 6 25 5 26 4 27 3 28 2 29 1 30
REMARK H PARENT
REMARK Flexibility Score: inf
ROOT
ATOM      1  C   UNL     1      18.631   1.178 -14.717  1.00  0.00     0.000 C 
ENDROOT
BRANCH   1   2
ATOM      2  C   UNL     1      19.660   1.800 -15.671  1.00  0.00     0.000 C 
BRANCH   2   3
ATOM      3  C   UNL     1      20.142   0.816 -16.749  1.00  0.00     0.000 C 
BRANCH   3   4
ATOM      4  C   UNL     1      21.679   0.756 -16.884  1.00  0.00     0.000 C 
BRANCH   4   5
ATOM      5  C   UNL     1      22.124   0.355 -18.303  1.00  0.00     0.000 C 
BRANCH   5   6
ATOM      6  C   UNL     1      23.506  -0.333 -18.309  1.00  0.00     0.000 C 
BRANCH   6   7
ATOM      7  C   UNL     1      23.996  -0.745 -16.910  1.00  0.00     0.000 C 
BRANCH   7   8
ATOM      8  C   UNL     1      24.910  -1.982 -16.938  1.00  0.00     0.000 C 
BRANCH   8   9
ATOM      9  C   UNL     1      24.299  -3.150 -17.741  1.00  0.00     0.000 C 
BRANCH   9  10
ATOM     10  C   UNL     1      24.643  -3.119 -19.242  1.00  0.00     0.000 C 
BRANCH  10  11
ATOM     11  C   UNL     1      26.060  -2.623 -19.581  1.00  0.00     0.000 C 
BRANCH  11  12
ATOM     12  C   UNL     1      26.777  -3.397 -20.706  1.00  0.00     0.006 C 
BRANCH  12  13
ATOM     13  C   UNL     1      25.877  -4.402 -21.447  1.00  0.00     0.053 C 
BRANCH  13  14
ATOM     14  C   UNL     1      26.471  -5.777 -21.497  1.00  0.00     0.041 C 
ATOM     15  O   UNL     1      25.892  -6.737 -20.923  1.00  0.00    -0.550 OA
ATOM     16  O   UNL     1      27.642  -6.009 -22.208  1.00  0.00    -0.550 OA
ENDBRANCH  13  14
ENDBRANCH  12  13
ENDBRANCH  11  12
ENDBRANCH  10  11
ENDBRANCH   9  10
ENDBRANCH   8   9
ENDBRANCH   7   8
ENDBRANCH   6   7
ENDBRANCH   5   6
ENDBRANCH   4   5
ENDBRANCH   3   4
ENDBRANCH   2   3
ENDBRANCH   1   2
BRANCH   1  17
ATOM     17  C   UNL     1      18.645   1.885 -13.356  1.00  0.00     0.000 C 
BRANCH  17  18
ATOM     18  C   UNL     1      19.544   3.131 -13.390  1.00  0.00     0.000 C 
BRANCH  18  19
ATOM     19  C   UNL     1      18.894   4.346 -12.713  1.00  0.00     0.000 C 
BRANCH  19  20
ATOM     20  C   UNL     1      17.918   3.950 -11.592  1.00  0.00     0.000 C 
BRANCH  20  21
ATOM     21  C   UNL     1      17.639   5.098 -10.604  1.00  0.00     0.000 C 
BRANCH  21  22
ATOM     22  C   UNL     1      18.288   6.447 -10.964  1.00  0.00    -0.000 C 
BRANCH  22  23
ATOM     23  C   UNL     1      19.186   7.005  -9.848  1.00  0.00    -0.000 C 
BRANCH  23  24
ATOM     24  C   UNL     1      20.247   5.995  -9.372  1.00  0.00    -0.000 C 
BRANCH  24  25
ATOM     25  C   UNL     1      21.699   6.469  -9.590  1.00  0.00    -0.000 C 
BRANCH  25  26
ATOM     26  C   UNL     1      21.946   6.951 -11.028  1.00  0.00    -0.000 C 
BRANCH  26  27
ATOM     27  C   UNL     1      21.878   5.782 -12.020  1.00  0.00    -0.000 C 
BRANCH  27  28
ATOM     28  C   UNL     1      22.849   5.995 -13.188  1.00  0.00    -0.000 C 
BRANCH  28  29
ATOM     29  C   UNL     1      23.714   4.750 -13.416  1.00  0.00    -0.003 C 
ATOM     30  C   UNL     1      25.021   5.109 -14.118  1.00  0.00     0.004 C 
ENDBRANCH  28  29
ENDBRANCH  27  28
ENDBRANCH  26  27
ENDBRANCH  25  26
ENDBRANCH  24  25
ENDBRANCH  23  24
ENDBRANCH  22  23
ENDBRANCH  21  22
ENDBRANCH  20  21
ENDBRANCH  19  20
ENDBRANCH  18  19
ENDBRANCH  17  18
ENDBRANCH   1  17
TORSDOF 26
ENDMDL
MODEL 2
REMARK VINA RESULT:     1.677      3.465     10.777
REMARK INTER + INTRA:           2.311
REMARK INTER:                   4.127
REMARK INTRA:                  -1.816
REMARK UNBOUND:                -1.914
REMARK SMILES CCCCCCCCCCCCCCCCCCCCCCCCCCCC(=O)[O-]
REMARK SMILES IDX 15 1 16 2 17 3 18 4 19 5 20 6 21 7 22 8 23 9 24 10 25 11
REMARK SMILES IDX 26 12 27 13 28 14 29 15 30 16 14 17 13 18 12 19 11 20 10 21
REMARK SMILES IDX 9 22 8 23 7 24 6 25 5 26 4 27 3 28 2 29 1 30
REMARK H PARENT
REMARK Flexibility Score: inf
ROOT
ATOM      1  C   UNL     1      22.871   5.856 -13.311  1.00  0.00     0.000 C 
ENDROOT
BRANCH   1   2
ATOM      2  C   UNL     1      21.882   5.814 -12.138  1.00  0.00     0.000 C 
BRANCH   2   3
ATOM      3  C   UNL     1      22.015   7.028 -11.205  1.00  0.00     0.000 C 
BRANCH   3   4
ATOM      4  C   UNL     1      21.612   6.729  -9.745  1.00  0.00     0.000 C 
BRANCH   4   5
ATOM      5  C   UNL     1      20.335   5.873  -9.657  1.00  0.00     0.000 C 
BRANCH   5   6
ATOM      6  C   UNL     1      19.057   6.701  -9.916  1.00  0.00     0.000 C 
BRANCH   6   7
ATOM      7  C   UNL     1      18.232   6.204 -11.115  1.00  0.00     0.000 C 
BRANCH   7   8
ATOM      8  C   UNL     1      17.424   4.935 -10.798  1.00  0.00     0.000 C 
BRANCH   8   9
ATOM      9  C   UNL     1      18.031   3.671 -11.443  1.00  0.00     0.000 C 
BRANCH   9  10
ATOM     10  C   UNL     1      18.917   3.962 -12.669  1.00  0.00     0.000 C 
BRANCH  10  11
ATOM     11  C   UNL     1      19.430   2.719 -13.418  1.00  0.00     0.000 C 
BRANCH  11  12
ATOM     12  C   UNL     1      18.338   1.738 -13.891  1.00  0.00     0.006 C 
BRANCH  12  13
ATOM     13  C   UNL     1      18.628   1.090 -15.257  1.00  0.00     0.053 C 
BRANCH  13  14
ATOM     14  C   UNL     1      17.535   0.161 -15.695  1.00  0.00     0.041 C 
ATOM     15  O   UNL     1      17.022   0.284 -16.839  1.00  0.00    -0.550 OA
ATOM     16  O   UNL     1      17.111  -0.864 -14.859  1.00  0.00    -0.550 OA
ENDBRANCH  13  14
ENDBRANCH  12  13
ENDBRANCH  11  12
ENDBRANCH  10  11
ENDBRANCH   9  10
ENDBRANCH   8   9
ENDBRANCH   7   8
ENDBRANCH   6   7
ENDBRANCH   5   6
ENDBRANCH   4   5
ENDBRANCH   3   4
ENDBRANCH   2   3
ENDBRANCH   1   2
BRANCH   1  17
ATOM     17  C   UNL     1      23.815   4.648 -13.278  1.00  0.00     0.000 C 
BRANCH  17  18
ATOM     18  C   UNL     1      25.048   4.887 -14.163  1.00  0.00     0.000 C 
BRANCH  18  19
ATOM     19  C   UNL     1      25.768   3.582 -14.537  1.00  0.00     0.000 C 
BRANCH  19  20
ATOM     20  C   UNL     1      24.825   2.366 -14.548  1.00  0.00     0.000 C 
BRANCH  20  21
ATOM     21  C   UNL     1      25.544   1.051 -14.899  1.00  0.00     0.000 C 
BRANCH  21  22
ATOM     22  C   UNL     1      24.619  -0.139 -15.217  1.00  0.00    -0.000 C 
BRANCH  22  23
ATOM     23  C   UNL     1      24.119  -0.146 -16.671  1.00  0.00    -0.000 C 
BRANCH  23  24
ATOM     24  C   UNL     1      24.302  -1.511 -17.360  1.00  0.00    -0.000 C 
BRANCH  24  25
ATOM     25  C   UNL     1      24.181  -1.454 -18.897  1.00  0.00    -0.000 C 
BRANCH  25  26
ATOM     26  C   UNL     1      24.060  -2.850 -19.525  1.00  0.00    -0.000 C 
BRANCH  26  27
ATOM     27  C   UNL     1      25.396  -3.302 -20.126  1.00  0.00    -0.000 C 
BRANCH  27  28
ATOM     28  C   UNL     1      25.773  -4.706 -19.637  1.00  0.00    -0.000 C 
BRANCH  28  29
ATOM     29  C   UNL     1      25.655  -5.733 -20.768  1.00  0.00    -0.003 C 
ATOM     30  C   UNL     1      26.760  -5.545 -21.803  1.00  0.00     0.004 C 
ENDBRANCH  28  29
ENDBRANCH  27  28
ENDBRANCH  26  27
ENDBRANCH  25  26
ENDBRANCH  24  25
ENDBRANCH  23  24
ENDBRANCH  22  23
ENDBRANCH  21  22
ENDBRANCH  20  21
ENDBRANCH  19  20
ENDBRANCH  18  19
ENDBRANCH  17  18
ENDBRANCH   1  17
TORSDOF 26
ENDMDL
MODEL 3
REMARK VINA RESULT:     1.711      3.649     11.331
REMARK INTER + INTRA:           2.398
REMARK INTER:                   4.333
REMARK INTRA:                  -1.935
REMARK UNBOUND:                -1.914
REMARK SMILES CCCCCCCCCCCCCCCCCCCCCCCCCCCC(=O)[O-]
REMARK SMILES IDX 15 1 16 2 17 3 18 4 19 5 20 6 21 7 22 8 23 9 24 10 25 11
REMARK SMILES IDX 26 12 27 13 28 14 29 15 30 16 14 17 13 18 12 19 11 20 10 21
REMARK SMILES IDX 9 22 8 23 7 24 6 25 5 26 4 27 3 28 2 29 1 30
REMARK H PARENT
REMARK Flexibility Score: inf
ROOT
ATOM      1  C   UNL     1      18.655   1.130 -15.077  1.00  0.00     0.000 C 
ENDROOT
BRANCH   1   2
ATOM      2  C   UNL     1      19.338   2.365 -14.476  1.00  0.00     0.000 C 
BRANCH   2   3
ATOM      3  C   UNL     1      18.820   2.705 -13.069  1.00  0.00     0.000 C 
BRANCH   3   4
ATOM      4  C   UNL     1      19.205   4.124 -12.599  1.00  0.00     0.000 C 
BRANCH   4   5
ATOM      5  C   UNL     1      18.532   4.499 -11.265  1.00  0.00     0.000 C 
BRANCH   5   6
ATOM      6  C   UNL     1      18.270   6.016 -11.148  1.00  0.00     0.000 C 
BRANCH   6   7
ATOM      7  C   UNL     1      19.029   6.686  -9.990  1.00  0.00     0.000 C 
BRANCH   7   8
ATOM      8  C   UNL     1      20.081   5.763  -9.354  1.00  0.00     0.000 C 
BRANCH   8   9
ATOM      9  C   UNL     1      21.515   6.315  -9.498  1.00  0.00     0.000 C 
BRANCH   9  10
ATOM     10  C   UNL     1      21.759   7.079 -10.813  1.00  0.00     0.000 C 
BRANCH  10  11
ATOM     11  C   UNL     1      21.857   6.202 -12.074  1.00  0.00     0.000 C 
BRANCH  11  12
ATOM     12  C   UNL     1      23.153   6.368 -12.893  1.00  0.00     0.006 C 
BRANCH  12  13
ATOM     13  C   UNL     1      23.670   5.061 -13.520  1.00  0.00     0.053 C 
BRANCH  13  14
ATOM     14  C   UNL     1      25.033   5.215 -14.125  1.00  0.00     0.041 C 
ATOM     15  O   UNL     1      25.411   6.337 -14.555  1.00  0.00    -0.550 OA
ATOM     16  O   UNL     1      25.901   4.131 -14.181  1.00  0.00    -0.550 OA
ENDBRANCH  13  14
ENDBRANCH  12  13
ENDBRANCH  11  12
ENDBRANCH  10  11
ENDBRANCH   9  10
ENDBRANCH   8   9
ENDBRANCH   7   8
ENDBRANCH   6   7
ENDBRANCH   5   6
ENDBRANCH   4   5
ENDBRANCH   3   4
ENDBRANCH   2   3
ENDBRANCH   1   2
BRANCH   1  17
ATOM     17  C   UNL     1      19.311   0.729 -16.404  1.00  0.00     0.000 C 
BRANCH  17  18
ATOM     18  C   UNL     1      20.733   1.301 -16.511  1.00  0.00     0.000 C 
BRANCH  18  19
ATOM     19  C   UNL     1      21.576   0.590 -17.581  1.00  0.00     0.000 C 
BRANCH  19  20
ATOM     20  C   UNL     1      23.008   0.291 -17.106  1.00  0.00     0.000 C 
BRANCH  20  21
ATOM     21  C   UNL     1      23.660  -0.883 -17.860  1.00  0.00     0.000 C 
BRANCH  21  22
ATOM     22  C   UNL     1      24.276  -1.976 -16.966  1.00  0.00    -0.000 C 
BRANCH  22  23
ATOM     23  C   UNL     1      24.804  -3.182 -17.760  1.00  0.00    -0.000 C 
BRANCH  23  24
ATOM     24  C   UNL     1      26.342  -3.258 -17.781  1.00  0.00    -0.000 C 
BRANCH  24  25
ATOM     25  C   UNL     1      26.976  -2.676 -19.062  1.00  0.00    -0.000 C 
BRANCH  25  26
ATOM     26  C   UNL     1      25.978  -2.608 -20.227  1.00  0.00    -0.000 C 
BRANCH  26  27
ATOM     27  C   UNL     1      26.165  -3.793 -21.183  1.00  0.00    -0.000 C 
BRANCH  27  28
ATOM     28  C   UNL     1      25.274  -4.973 -20.777  1.00  0.00    -0.000 C 
BRANCH  28  29
ATOM     29  C   UNL     1      26.119  -6.182 -20.358  1.00  0.00    -0.003 C 
ATOM     30  C   UNL     1      25.293  -7.465 -20.377  1.00  0.00     0.004 C 
ENDBRANCH  28  29
ENDBRANCH  27  28
ENDBRANCH  26  27
ENDBRANCH  25  26
ENDBRANCH  24  25
ENDBRANCH  23  24
ENDBRANCH  22  23
ENDBRANCH  21  22
ENDBRANCH  20  21
ENDBRANCH  19  20
ENDBRANCH  18  19
ENDBRANCH  17  18
ENDBRANCH   1  17
TORSDOF 26
ENDMDL
MODEL 4
REMARK VINA RESULT:     1.881      1.524      5.063
REMARK INTER + INTRA:           2.826
REMARK INTER:                   4.082
REMARK INTRA:                  -1.255
REMARK UNBOUND:                -1.914
REMARK SMILES CCCCCCCCCCCCCCCCCCCCCCCCCCCC(=O)[O-]
REMARK SMILES IDX 15 1 16 2 17 3 18 4 19 5 20 6 21 7 22 8 23 9 24 10 25 11
REMARK SMILES IDX 26 12 27 13 28 14 29 15 30 16 14 17 13 18 12 19 11 20 10 21
REMARK SMILES IDX 9 22 8 23 7 24 6 25 5 26 4 27 3 28 2 29 1 30
REMARK H PARENT
REMARK Flexibility Score: inf
ROOT
ATOM      1  C   UNL     1      22.312   5.799 -12.264  1.00  0.00     0.000 C 
ENDROOT
BRANCH   1   2
ATOM      2  C   UNL     1      23.583   6.052 -13.088  1.00  0.00     0.000 C 
BRANCH   2   3
ATOM      3  C   UNL     1      24.096   4.785 -13.793  1.00  0.00     0.000 C 
BRANCH   3   4
ATOM      4  C   UNL     1      25.520   4.938 -14.369  1.00  0.00     0.000 C 
BRANCH   4   5
ATOM      5  C   UNL     1      26.210   3.577 -14.585  1.00  0.00     0.000 C 
BRANCH   5   6
ATOM      6  C   UNL     1      25.278   2.391 -14.255  1.00  0.00     0.000 C 
BRANCH   6   7
ATOM      7  C   UNL     1      25.619   1.106 -15.029  1.00  0.00     0.000 C 
BRANCH   7   8
ATOM      8  C   UNL     1      24.393   0.207 -15.262  1.00  0.00     0.000 C 
BRANCH   8   9
ATOM      9  C   UNL     1      24.686  -0.949 -16.242  1.00  0.00     0.000 C 
BRANCH   9  10
ATOM     10  C   UNL     1      24.029  -0.774 -17.625  1.00  0.00     0.000 C 
BRANCH  10  11
ATOM     11  C   UNL     1      24.290  -1.915 -18.624  1.00  0.00     0.000 C 
BRANCH  11  12
ATOM     12  C   UNL     1      25.018  -3.145 -18.043  1.00  0.00     0.006 C 
BRANCH  12  13
ATOM     13  C   UNL     1      24.752  -4.451 -18.813  1.00  0.00     0.053 C 
BRANCH  13  14
ATOM     14  C   UNL     1      25.480  -4.505 -20.122  1.00  0.00     0.041 C 
ATOM     15  O   UNL     1      25.892  -5.607 -20.572  1.00  0.00    -0.550 OA
ATOM     16  O   UNL     1      25.671  -3.347 -20.865  1.00  0.00    -0.550 OA
ENDBRANCH  13  14
ENDBRANCH  12  13
ENDBRANCH  11  12
ENDBRANCH  10  11
ENDBRANCH   9  10
ENDBRANCH   8   9
ENDBRANCH   7   8
ENDBRANCH   6   7
ENDBRANCH   5   6
ENDBRANCH   4   5
ENDBRANCH   3   4
ENDBRANCH   2   3
ENDBRANCH   1   2
BRANCH   1  17
ATOM     17  C   UNL     1      21.745   7.111 -11.711  1.00  0.00     0.000 C 
BRANCH  17  18
ATOM     18  C   UNL     1      21.783   7.125 -10.175  1.00  0.00     0.000 C 
BRANCH  18  19
ATOM     19  C   UNL     1      21.721   5.714  -9.571  1.00  0.00     0.000 C 
BRANCH  19  20
ATOM     20  C   UNL     1      20.286   5.278  -9.227  1.00  0.00     0.000 C 
BRANCH  20  21
ATOM     21  C   UNL     1      19.222   6.290  -9.691  1.00  0.00     0.000 C 
BRANCH  21  22
ATOM     22  C   UNL     1      18.322   5.813 -10.847  1.00  0.00    -0.000 C 
BRANCH  22  23
ATOM     23  C   UNL     1      18.841   4.539 -11.534  1.00  0.00    -0.000 C 
BRANCH  23  24
ATOM     24  C   UNL     1      19.466   4.817 -12.914  1.00  0.00    -0.000 C 
BRANCH  24  25
ATOM     25  C   UNL     1      19.826   3.540 -13.702  1.00  0.00    -0.000 C 
BRANCH  25  26
ATOM     26  C   UNL     1      18.728   2.469 -13.611  1.00  0.00    -0.000 C 
BRANCH  26  27
ATOM     27  C   UNL     1      18.810   1.493 -14.791  1.00  0.00    -0.000 C 
BRANCH  27  28
ATOM     28  C   UNL     1      17.798   0.352 -14.634  1.00  0.00    -0.000 C 
BRANCH  28  29
ATOM     29  C   UNL     1      16.881   0.257 -15.858  1.00  0.00    -0.003 C 
ATOM     30  C   UNL     1      17.395  -0.779 -16.853  1.00  0.00     0.004 C 
ENDBRANCH  28  29
ENDBRANCH  27  28
ENDBRANCH  26  27
ENDBRANCH  25  26
ENDBRANCH  24  25
ENDBRANCH  23  24
ENDBRANCH  22  23
ENDBRANCH  21  22
ENDBRANCH  20  21
ENDBRANCH  19  20
ENDBRANCH  18  19
ENDBRANCH  17  18
ENDBRANCH   1  17
TORSDOF 26
ENDMDL
MODEL 5
REMARK VINA RESULT:     1.994      2.070      4.658
REMARK INTER + INTRA:           3.111
REMARK INTER:                   4.563
REMARK INTRA:                  -1.452
REMARK UNBOUND:                -1.914
REMARK SMILES CCCCCCCCCCCCCCCCCCCCCCCCCCCC(=O)[O-]
REMARK SMILES IDX 15 1 16 2 17 3 18 4 19 5 20 6 21 7 22 8 23 9 24 10 25 11
REMARK SMILES IDX 26 12 27 13 28 14 29 15 30 16 14 17 13 18 12 19 11 20 10 21
REMARK SMILES IDX 9 22 8 23 7 24 6 25 5 26 4 27 3 28 2 29 1 30
REMARK H PARENT
REMARK Flexibility Score: inf
ROOT
ATOM      1  C   UNL     1      25.253   2.769 -14.729  1.00  0.00     0.000 C 
ENDROOT
BRANCH   1   2
ATOM      2  C   UNL     1      25.507   1.261 -14.600  1.00  0.00     0.000 C 
BRANCH   2   3
ATOM      3  C   UNL     1      24.613   0.427 -15.531  1.00  0.00     0.000 C 
BRANCH   3   4
ATOM      4  C   UNL     1      24.952  -1.079 -15.521  1.00  0.00     0.000 C 
BRANCH   4   5
ATOM      5  C   UNL     1      24.337  -1.823 -16.722  1.00  0.00     0.000 C 
BRANCH   5   6
ATOM      6  C   UNL     1      23.535  -0.880 -17.645  1.00  0.00     0.000 C 
BRANCH   6   7
ATOM      7  C   UNL     1      24.210  -0.628 -19.004  1.00  0.00     0.000 C 
BRANCH   7   8
ATOM      8  C   UNL     1      24.972  -1.856 -19.529  1.00  0.00     0.000 C 
BRANCH   8   9
ATOM      9  C   UNL     1      24.149  -2.668 -20.552  1.00  0.00     0.000 C 
BRANCH   9  10
ATOM     10  C   UNL     1      23.015  -3.497 -19.921  1.00  0.00     0.000 C 
BRANCH  10  11
ATOM     11  C   UNL     1      23.458  -4.804 -19.239  1.00  0.00     0.000 C 
BRANCH  11  12
ATOM     12  C   UNL     1      24.977  -4.945 -19.011  1.00  0.00     0.006 C 
BRANCH  12  13
ATOM     13  C   UNL     1      25.601  -6.177 -19.691  1.00  0.00     0.053 C 
BRANCH  13  14
ATOM     14  C   UNL     1      26.158  -5.864 -21.047  1.00  0.00     0.041 C 
ATOM     15  O   UNL     1      26.437  -6.797 -21.847  1.00  0.00    -0.550 OA
ATOM     16  O   UNL     1      26.333  -4.545 -21.444  1.00  0.00    -0.550 OA
ENDBRANCH  13  14
ENDBRANCH  12  13
ENDBRANCH  11  12
ENDBRANCH  10  11
ENDBRANCH   9  10
ENDBRANCH   8   9
ENDBRANCH   7   8
ENDBRANCH   6   7
ENDBRANCH   5   6
ENDBRANCH   4   5
ENDBRANCH   3   4
ENDBRANCH   2   3
ENDBRANCH   1   2
BRANCH   1  17
ATOM     17  C   UNL     1      26.544   3.566 -14.504  1.00  0.00     0.000 C 
BRANCH  17  18
ATOM     18  C   UNL     1      26.235   5.027 -14.143  1.00  0.00     0.000 C 
BRANCH  18  19
ATOM     19  C   UNL     1      24.797   5.431 -14.498  1.00  0.00     0.000 C 
BRANCH  19  20
ATOM     20  C   UNL     1      23.892   5.559 -13.260  1.00  0.00     0.000 C 
BRANCH  20  21
ATOM     21  C   UNL     1      23.380   6.993 -13.034  1.00  0.00     0.000 C 
BRANCH  21  22
ATOM     22  C   UNL     1      22.149   7.114 -12.116  1.00  0.00    -0.000 C 
BRANCH  22  23
ATOM     23  C   UNL     1      21.938   5.884 -11.218  1.00  0.00    -0.000 C 
BRANCH  23  24
ATOM     24  C   UNL     1      21.538   6.256  -9.779  1.00  0.00    -0.000 C 
BRANCH  24  25
ATOM     25  C   UNL     1      20.101   5.835  -9.404  1.00  0.00    -0.000 C 
BRANCH  25  26
ATOM     26  C   UNL     1      19.047   6.811  -9.949  1.00  0.00    -0.000 C 
BRANCH  26  27
ATOM     27  C   UNL     1      18.155   6.130 -10.994  1.00  0.00    -0.000 C 
BRANCH  27  28
ATOM     28  C   UNL     1      18.486   4.637 -11.112  1.00  0.00    -0.000 C 
BRANCH  28  29
ATOM     29  C   UNL     1      17.303   3.773 -10.661  1.00  0.00    -0.003 C 
ATOM     30  C   UNL     1      16.002   4.569 -10.676  1.00  0.00     0.004 C 
ENDBRANCH  28  29
ENDBRANCH  27  28
ENDBRANCH  26  27
ENDBRANCH  25  26
ENDBRANCH  24  25
ENDBRANCH  23  24
ENDBRANCH  22  23
ENDBRANCH  21  22
ENDBRANCH  20  21
ENDBRANCH  19  20
ENDBRANCH  18  19
ENDBRANCH  17  18
ENDBRANCH   1  17
TORSDOF 26
ENDMDL
MODEL 6
REMARK VINA RESULT:     2.185      4.753     12.167
REMARK INTER + INTRA:           3.592
REMARK INTER:                   4.710
REMARK INTRA:                  -1.118
REMARK UNBOUND:                -1.914
REMARK SMILES CCCCCCCCCCCCCCCCCCCCCCCCCCCC(=O)[O-]
REMARK SMILES IDX 15 1 16 2 17 3 18 4 19 5 20 6 21 7 22 8 23 9 24 10 25 11
REMARK SMILES IDX 26 12 27 13 28 14 29 15 30 16 14 17 13 18 12 19 11 20 10 21
REMARK SMILES IDX 9 22 8 23 7 24 6 25 5 26 4 27 3 28 2 29 1 30
REMARK H PARENT
REMARK Flexibility Score: inf
ROOT
ATOM      1  C   UNL     1      18.619   1.011 -15.626  1.00  0.00     0.000 C 
ENDROOT
BRANCH   1   2
ATOM      2  C   UNL     1      19.430   1.988 -14.763  1.00  0.00     0.000 C 
BRANCH   2   3
ATOM      3  C   UNL     1      18.788   2.242 -13.390  1.00  0.00     0.000 C 
BRANCH   3   4
ATOM      4  C   UNL     1      19.255   3.554 -12.725  1.00  0.00     0.000 C 
BRANCH   4   5
ATOM      5  C   UNL     1      20.277   4.314 -13.592  1.00  0.00     0.000 C 
BRANCH   5   6
ATOM      6  C   UNL     1      20.222   5.840 -13.358  1.00  0.00     0.000 C 
BRANCH   6   7
ATOM      7  C   UNL     1      21.570   6.448 -12.938  1.00  0.00     0.000 C 
BRANCH   7   8
ATOM      8  C   UNL     1      22.015   6.000 -11.535  1.00  0.00     0.000 C 
BRANCH   8   9
ATOM      9  C   UNL     1      21.348   6.822 -10.413  1.00  0.00     0.000 C 
BRANCH   9  10
ATOM     10  C   UNL     1      20.827   5.967  -9.242  1.00  0.00     0.000 C 
BRANCH  10  11
ATOM     11  C   UNL     1      19.564   5.141  -9.544  1.00  0.00     0.000 C 
BRANCH  11  12
ATOM     12  C   UNL     1      18.528   5.831 -10.455  1.00  0.00     0.006 C 
BRANCH  12  13
ATOM     13  C   UNL     1      17.067   5.603 -10.028  1.00  0.00     0.053 C 
BRANCH  13  14
ATOM     14  C   UNL     1      16.482   4.358 -10.623  1.00  0.00     0.041 C 
ATOM     15  O   UNL     1      17.047   3.246 -10.445  1.00  0.00    -0.550 OA
ATOM     16  O   UNL     1      15.293   4.416 -11.340  1.00  0.00    -0.550 OA
ENDBRANCH  13  14
ENDBRANCH  12  13
ENDBRANCH  11  12
ENDBRANCH  10  11
ENDBRANCH   9  10
ENDBRANCH   8   9
ENDBRANCH   7   8
ENDBRANCH   6   7
ENDBRANCH   5   6
ENDBRANCH   4   5
ENDBRANCH   3   4
ENDBRANCH   2   3
ENDBRANCH   1   2
BRANCH   1  17
ATOM     17  C   UNL     1      19.488   0.408 -16.737  1.00  0.00     0.000 C 
BRANCH  17  18
ATOM     18  C   UNL     1      20.863   1.091 -16.794  1.00  0.00     0.000 C 
BRANCH  18  19
ATOM     19  C   UNL     1      21.832   0.385 -17.755  1.00  0.00     0.000 C 
BRANCH  19  20
ATOM     20  C   UNL     1      23.179   0.042 -17.095  1.00  0.00     0.000 C 
BRANCH  20  21
ATOM     21  C   UNL     1      24.052  -0.888 -17.957  1.00  0.00     0.000 C 
BRANCH  21  22
ATOM     22  C   UNL     1      23.420  -1.336 -19.288  1.00  0.00    -0.000 C 
BRANCH  22  23
ATOM     23  C   UNL     1      24.171  -2.499 -19.956  1.00  0.00    -0.000 C 
BRANCH  23  24
ATOM     24  C   UNL     1      25.693  -2.436 -19.730  1.00  0.00    -0.000 C 
BRANCH  24  25
ATOM     25  C   UNL     1      26.184  -3.302 -18.552  1.00  0.00    -0.000 C 
BRANCH  25  26
ATOM     26  C   UNL     1      25.116  -4.297 -18.074  1.00  0.00    -0.000 C 
BRANCH  26  27
ATOM     27  C   UNL     1      24.656  -5.205 -19.222  1.00  0.00    -0.000 C 
BRANCH  27  28
ATOM     28  C   UNL     1      25.828  -6.020 -19.782  1.00  0.00    -0.000 C 
BRANCH  28  29
ATOM     29  C   UNL     1      25.804  -6.036 -21.315  1.00  0.00    -0.003 C 
ATOM     30  C   UNL     1      27.113  -5.506 -21.893  1.00  0.00     0.004 C 
ENDBRANCH  28  29
ENDBRANCH  27  28
ENDBRANCH  26  27
ENDBRANCH  25  26
ENDBRANCH  24  25
ENDBRANCH  23  24
ENDBRANCH  22  23
ENDBRANCH  21  22
ENDBRANCH  20  21
ENDBRANCH  19  20
ENDBRANCH  18  19
ENDBRANCH  17  18
ENDBRANCH   1  17
TORSDOF 26
ENDMDL
MODEL 7
REMARK VINA RESULT:     2.188      1.334      4.015
REMARK INTER + INTRA:           3.600
REMARK INTER:                   5.366
REMARK INTRA:                  -1.766
REMARK UNBOUND:                -1.914
REMARK SMILES CCCCCCCCCCCCCCCCCCCCCCCCCCCC(=O)[O-]
REMARK SMILES IDX 15 1 16 2 17 3 18 4 19 5 20 6 21 7 22 8 23 9 24 10 25 11
REMARK SMILES IDX 26 12 27 13 28 14 29 15 30 16 14 17 13 18 12 19 11 20 10 21
REMARK SMILES IDX 9 22 8 23 7 24 6 25 5 26 4 27 3 28 2 29 1 30
REMARK H PARENT
REMARK Flexibility Score: inf
ROOT
ATOM      1  C   UNL     1      25.002   5.631 -14.080  1.00  0.00     0.000 C 
ENDROOT
BRANCH   1   2
ATOM      2  C   UNL     1      25.849   4.405 -14.446  1.00  0.00     0.000 C 
BRANCH   2   3
ATOM      3  C   UNL     1      25.023   3.109 -14.507  1.00  0.00     0.000 C 
BRANCH   3   4
ATOM      4  C   UNL     1      25.863   1.860 -14.846  1.00  0.00     0.000 C 
BRANCH   4   5
ATOM      5  C   UNL     1      25.053   0.557 -14.707  1.00  0.00     0.000 C 
BRANCH   5   6
ATOM      6  C   UNL     1      24.672  -0.043 -16.079  1.00  0.00     0.000 C 
BRANCH   6   7
ATOM      7  C   UNL     1      24.311  -1.537 -16.019  1.00  0.00     0.000 C 
BRANCH   7   8
ATOM      8  C   UNL     1      24.778  -2.314 -17.261  1.00  0.00     0.000 C 
BRANCH   8   9
ATOM      9  C   UNL     1      24.100  -1.819 -18.556  1.00  0.00     0.000 C 
BRANCH   9  10
ATOM     10  C   UNL     1      24.841  -2.231 -19.843  1.00  0.00     0.000 C 
BRANCH  10  11
ATOM     11  C   UNL     1      26.209  -2.901 -19.626  1.00  0.00     0.000 C 
BRANCH  11  12
ATOM     12  C   UNL     1      26.835  -3.543 -20.881  1.00  0.00     0.006 C 
BRANCH  12  13
ATOM     13  C   UNL     1      25.920  -4.559 -21.587  1.00  0.00     0.053 C 
BRANCH  13  14
ATOM     14  C   UNL     1      26.456  -5.957 -21.521  1.00  0.00     0.041 C 
ATOM     15  O   UNL     1      25.807  -6.856 -20.922  1.00  0.00    -0.550 OA
ATOM     16  O   UNL     1      27.650  -6.280 -22.153  1.00  0.00    -0.550 OA
ENDBRANCH  13  14
ENDBRANCH  12  13
ENDBRANCH  11  12
ENDBRANCH  10  11
ENDBRANCH   9  10
ENDBRANCH   8   9
ENDBRANCH   7   8
ENDBRANCH   6   7
ENDBRANCH   5   6
ENDBRANCH   4   5
ENDBRANCH   3   4
ENDBRANCH   2   3
ENDBRANCH   1   2
BRANCH   1  17
ATOM     17  C   UNL     1      23.723   5.217 -13.342  1.00  0.00     0.000 C 
BRANCH  17  18
ATOM     18  C   UNL     1      22.815   6.430 -13.087  1.00  0.00     0.000 C 
BRANCH  18  19
ATOM     19  C   UNL     1      21.776   6.168 -11.987  1.00  0.00     0.000 C 
BRANCH  19  20
ATOM     20  C   UNL     1      21.968   7.077 -10.760  1.00  0.00     0.000 C 
BRANCH  20  21
ATOM     21  C   UNL     1      21.633   6.374  -9.432  1.00  0.00     0.000 C 
BRANCH  21  22
ATOM     22  C   UNL     1      20.326   5.558  -9.431  1.00  0.00    -0.000 C 
BRANCH  22  23
ATOM     23  C   UNL     1      19.066   6.431  -9.551  1.00  0.00    -0.000 C 
BRANCH  23  24
ATOM     24  C   UNL     1      18.267   6.155 -10.837  1.00  0.00    -0.000 C 
BRANCH  24  25
ATOM     25  C   UNL     1      16.982   5.330 -10.606  1.00  0.00    -0.000 C 
BRANCH  25  26
ATOM     26  C   UNL     1      17.054   3.944 -11.263  1.00  0.00    -0.000 C 
BRANCH  26  27
ATOM     27  C   UNL     1      18.497   3.586 -11.639  1.00  0.00    -0.000 C 
BRANCH  27  28
ATOM     28  C   UNL     1      18.531   2.482 -12.703  1.00  0.00    -0.000 C 
BRANCH  28  29
ATOM     29  C   UNL     1      19.468   2.857 -13.856  1.00  0.00    -0.003 C 
ATOM     30  C   UNL     1      19.779   4.351 -13.850  1.00  0.00     0.004 C 
ENDBRANCH  28  29
ENDBRANCH  27  28
ENDBRANCH  26  27
ENDBRANCH  25  26
ENDBRANCH  24  25
ENDBRANCH  23  24
ENDBRANCH  22  23
ENDBRANCH  21  22
ENDBRANCH  20  21
ENDBRANCH  19  20
ENDBRANCH  18  19
ENDBRANCH  17  18
ENDBRANCH   1  17
TORSDOF 26
ENDMDL
MODEL 8
REMARK VINA RESULT:     2.193      1.416      3.565
REMARK INTER + INTRA:           3.611
REMARK INTER:                   4.689
REMARK INTRA:                  -1.078
REMARK UNBOUND:                -1.914
REMARK SMILES CCCCCCCCCCCCCCCCCCCCCCCCCCCC(=O)[O-]
REMARK SMILES IDX 15 1 16 2 17 3 18 4 19 5 20 6 21 7 22 8 23 9 24 10 25 11
REMARK SMILES IDX 26 12 27 13 28 14 29 15 30 16 14 17 13 18 12 19 11 20 10 21
REMARK SMILES IDX 9 22 8 23 7 24 6 25 5 26 4 27 3 28 2 29 1 30
REMARK H PARENT
REMARK Flexibility Score: inf
ROOT
ATOM      1  C   UNL     1      18.318   1.423 -15.581  1.00  0.00     0.000 C 
ENDROOT
BRANCH   1   2
ATOM      2  C   UNL     1      19.268   0.551 -16.413  1.00  0.00     0.000 C 
BRANCH   2   3
ATOM      3  C   UNL     1      20.711   1.080 -16.416  1.00  0.00     0.000 C 
BRANCH   3   4
ATOM      4  C   UNL     1      21.596   0.447 -17.511  1.00  0.00     0.000 C 
BRANCH   4   5
ATOM      5  C   UNL     1      23.078   0.379 -17.095  1.00  0.00     0.000 C 
BRANCH   5   6
ATOM      6  C   UNL     1      23.776  -0.891 -17.628  1.00  0.00     0.000 C 
BRANCH   6   7
ATOM      7  C   UNL     1      23.882  -0.939 -19.162  1.00  0.00     0.000 C 
BRANCH   7   8
ATOM      8  C   UNL     1      24.669  -2.160 -19.667  1.00  0.00     0.000 C 
BRANCH   8   9
ATOM      9  C   UNL     1      23.747  -3.292 -20.168  1.00  0.00     0.000 C 
BRANCH   9  10
ATOM     10  C   UNL     1      23.876  -4.600 -19.365  1.00  0.00     0.000 C 
BRANCH  10  11
ATOM     11  C   UNL     1      25.316  -5.099 -19.150  1.00  0.00     0.000 C 
BRANCH  11  12
ATOM     12  C   UNL     1      25.583  -6.551 -19.595  1.00  0.00     0.006 C 
BRANCH  12  13
ATOM     13  C   UNL     1      25.783  -6.715 -21.113  1.00  0.00     0.053 C 
BRANCH  13  14
ATOM     14  C   UNL     1      26.730  -5.701 -21.680  1.00  0.00     0.041 C 
ATOM     15  O   UNL     1      27.720  -6.074 -22.363  1.00  0.00    -0.550 OA
ATOM     16  O   UNL     1      26.500  -4.344 -21.489  1.00  0.00    -0.550 OA
ENDBRANCH  13  14
ENDBRANCH  12  13
ENDBRANCH  11  12
ENDBRANCH  10  11
ENDBRANCH   9  10
ENDBRANCH   8   9
ENDBRANCH   7   8
ENDBRANCH   6   7
ENDBRANCH   5   6
ENDBRANCH   4   5
ENDBRANCH   3   4
ENDBRANCH   2   3
ENDBRANCH   1   2
BRANCH   1  17
ATOM     17  C   UNL     1      18.625   1.298 -14.084  1.00  0.00     0.000 C 
BRANCH  17  18
ATOM     18  C   UNL     1      18.875   2.678 -13.455  1.00  0.00     0.000 C 
BRANCH  18  19
ATOM     19  C   UNL     1      20.123   3.369 -14.024  1.00  0.00     0.000 C 
BRANCH  19  20
ATOM     20  C   UNL     1      20.182   4.867 -13.681  1.00  0.00     0.000 C 
BRANCH  20  21
ATOM     21  C   UNL     1      21.606   5.355 -13.356  1.00  0.00     0.000 C 
BRANCH  21  22
ATOM     22  C   UNL     1      21.966   5.382 -11.859  1.00  0.00    -0.000 C 
BRANCH  22  23
ATOM     23  C   UNL     1      21.519   6.672 -11.151  1.00  0.00    -0.000 C 
BRANCH  23  24
ATOM     24  C   UNL     1      20.616   6.404  -9.933  1.00  0.00    -0.000 C 
BRANCH  24  25
ATOM     25  C   UNL     1      19.222   7.058 -10.035  1.00  0.00    -0.000 C 
BRANCH  25  26
ATOM     26  C   UNL     1      18.233   6.200 -10.838  1.00  0.00    -0.000 C 
BRANCH  26  27
ATOM     27  C   UNL     1      18.608   4.714 -10.767  1.00  0.00    -0.000 C 
BRANCH  27  28
ATOM     28  C   UNL     1      17.401   3.861 -10.360  1.00  0.00    -0.000 C 
BRANCH  28  29
ATOM     29  C   UNL     1      16.144   4.724 -10.205  1.00  0.00    -0.003 C 
ATOM     30  C   UNL     1      15.025   4.240 -11.122  1.00  0.00     0.004 C 
ENDBRANCH  28  29
ENDBRANCH  27  28
ENDBRANCH  26  27
ENDBRANCH  25  26
ENDBRANCH  24  25
ENDBRANCH  23  24
ENDBRANCH  22  23
ENDBRANCH  21  22
ENDBRANCH  20  21
ENDBRANCH  19  20
ENDBRANCH  18  19
ENDBRANCH  17  18
ENDBRANCH   1  17
TORSDOF 26
ENDMDL
MODEL 9
REMARK VINA RESULT:     2.324      1.701      4.772
REMARK INTER + INTRA:           3.943
REMARK INTER:                   4.576
REMARK INTRA:                  -0.633
REMARK UNBOUND:                -1.914
REMARK SMILES CCCCCCCCCCCCCCCCCCCCCCCCCCCC(=O)[O-]
REMARK SMILES IDX 15 1 16 2 17 3 18 4 19 5 20 6 21 7 22 8 23 9 24 10 25 11
REMARK SMILES IDX 26 12 27 13 28 14 29 15 30 16 14 17 13 18 12 19 11 20 10 21
REMARK SMILES IDX 9 22 8 23 7 24 6 25 5 26 4 27 3 28 2 29 1 30
REMARK H PARENT
REMARK Flexibility Score: inf
ROOT
ATOM      1  C   UNL     1      24.820   5.661 -14.137  1.00  0.00     0.000 C 
ENDROOT
BRANCH   1   2
ATOM      2  C   UNL     1      25.841   4.515 -14.150  1.00  0.00     0.000 C 
BRANCH   2   3
ATOM      3  C   UNL     1      27.137   4.882 -14.891  1.00  0.00     0.000 C 
BRANCH   3   4
ATOM      4  C   UNL     1      28.171   3.736 -14.925  1.00  0.00     0.000 C 
BRANCH   4   5
ATOM      5  C   UNL     1      27.617   2.434 -14.317  1.00  0.00     0.000 C 
BRANCH   5   6
ATOM      6  C   UNL     1      26.223   2.075 -14.874  1.00  0.00     0.000 C 
BRANCH   6   7
ATOM      7  C   UNL     1      25.886   0.577 -14.774  1.00  0.00     0.000 C 
BRANCH   7   8
ATOM      8  C   UNL     1      24.611   0.199 -15.547  1.00  0.00     0.000 C 
BRANCH   8   9
ATOM      9  C   UNL     1      24.738  -1.160 -16.267  1.00  0.00     0.000 C 
BRANCH   9  10
ATOM     10  C   UNL     1      23.659  -1.399 -17.340  1.00  0.00     0.000 C 
BRANCH  10  11
ATOM     11  C   UNL     1      23.997  -0.857 -18.741  1.00  0.00     0.000 C 
BRANCH  11  12
ATOM     12  C   UNL     1      24.419  -1.922 -19.774  1.00  0.00     0.006 C 
BRANCH  12  13
ATOM     13  C   UNL     1      23.937  -3.345 -19.441  1.00  0.00     0.053 C 
BRANCH  13  14
ATOM     14  C   UNL     1      25.052  -4.235 -18.979  1.00  0.00     0.041 C 
ATOM     15  O   UNL     1      25.034  -5.464 -19.253  1.00  0.00    -0.550 OA
ATOM     16  O   UNL     1      26.129  -3.703 -18.281  1.00  0.00    -0.550 OA
ENDBRANCH  13  14
ENDBRANCH  12  13
ENDBRANCH  11  12
ENDBRANCH  10  11
ENDBRANCH   9  10
ENDBRANCH   8   9
ENDBRANCH   7   8
ENDBRANCH   6   7
ENDBRANCH   5   6
ENDBRANCH   4   5
ENDBRANCH   3   4
ENDBRANCH   2   3
ENDBRANCH   1   2
BRANCH   1  17
ATOM     17  C   UNL     1      23.645   5.340 -13.206  1.00  0.00     0.000 C 
BRANCH  17  18
ATOM     18  C   UNL     1      22.656   6.515 -13.141  1.00  0.00     0.000 C 
BRANCH  18  19
ATOM     19  C   UNL     1      21.612   6.345 -12.027  1.00  0.00     0.000 C 
BRANCH  19  20
ATOM     20  C   UNL     1      21.973   7.125 -10.751  1.00  0.00     0.000 C 
BRANCH  20  21
ATOM     21  C   UNL     1      21.623   6.362  -9.460  1.00  0.00     0.000 C 
BRANCH  21  22
ATOM     22  C   UNL     1      20.151   5.925  -9.334  1.00  0.00    -0.000 C 
BRANCH  22  23
ATOM     23  C   UNL     1      19.160   6.966  -9.880  1.00  0.00    -0.000 C 
BRANCH  23  24
ATOM     24  C   UNL     1      18.268   6.410 -11.004  1.00  0.00    -0.000 C 
BRANCH  24  25
ATOM     25  C   UNL     1      17.642   5.037 -10.680  1.00  0.00    -0.000 C 
BRANCH  25  26
ATOM     26  C   UNL     1      18.117   3.938 -11.644  1.00  0.00    -0.000 C 
BRANCH  26  27
ATOM     27  C   UNL     1      19.025   4.517 -12.735  1.00  0.00    -0.000 C 
BRANCH  27  28
ATOM     28  C   UNL     1      19.781   3.404 -13.471  1.00  0.00    -0.000 C 
BRANCH  28  29
ATOM     29  C   UNL     1      18.990   2.091 -13.443  1.00  0.00    -0.003 C 
ATOM     30  C   UNL     1      18.607   1.648 -14.852  1.00  0.00     0.004 C 
ENDBRANCH  28  29
ENDBRANCH  27  28
ENDBRANCH  26  27
ENDBRANCH  25  26
ENDBRANCH  24  25
ENDBRANCH  23  24
ENDBRANCH  22  23
ENDBRANCH  21  22
ENDBRANCH  20  21
ENDBRANCH  19  20
ENDBRANCH  18  19
ENDBRANCH  17  18
ENDBRANCH   1  17
TORSDOF 26
ENDMDL
