MODEL 1
REMARK VINA RESULT:    -5.558      0.000      0.000
REMARK INTER + INTRA:          -5.558
REMARK INTER:                  -5.558
REMARK INTRA:                   0.000
REMARK UNBOUND:                 0.000
REMARK SMILES CC1=CC(=O)[C@@H]2C[C@H]1C2(C)C
REMARK SMILES IDX 1 1 2 2 3 3 4 4 5 5 6 6 7 7 8 8 9 9 10 10 11 11
REMARK H PARENT
REMARK Flexibility Score: inf
ROOT
ATOM      1  C   UNL     1      -5.298   1.058   1.915  1.00  0.00     0.040 C 
ATOM      2  C   UNL     1      -5.240  -0.155   1.042  1.00  0.00    -0.066 C 
ATOM      3  C   UNL     1      -6.327  -0.608   0.354  1.00  0.00     0.047 C 
ATOM      4  C   UNL     1      -6.116  -1.834  -0.482  1.00  0.00     0.159 C 
ATOM      5  O   UNL     1      -7.029  -2.326  -1.196  1.00  0.00    -0.295 OA
ATOM      6  C   UNL     1      -4.718  -2.448  -0.404  1.00  0.00     0.067 C 
ATOM      7  C   UNL     1      -4.391  -2.456   1.106  1.00  0.00     0.021 C 
ATOM      8  C   UNL     1      -3.947  -0.986   0.929  1.00  0.00     0.022 C 
ATOM      9  C   UNL     1      -3.669  -1.310  -0.568  1.00  0.00    -0.019 C 
ATOM     10  C   UNL     1      -2.237  -1.856  -0.797  1.00  0.00     0.012 C 
ATOM     11  C   UNL     1      -3.943  -0.201  -1.623  1.00  0.00     0.012 C 
ENDROOT
TORSDOF 0
ENDMDL
MODEL 2
REMARK VINA RESULT:    -5.546      1.382      3.034
REMARK INTER + INTRA:          -5.546
REMARK INTER:                  -5.546
REMARK INTRA:                   0.000
REMARK UNBOUND:                 0.000
REMARK SMILES CC1=CC(=O)[C@@H]2C[C@H]1C2(C)C
REMARK SMILES IDX 1 1 2 2 3 3 4 4 5 5 6 6 7 7 8 8 9 9 10 10 11 11
REMARK H PARENT
REMARK Flexibility Score: inf
ROOT
ATOM      1  C   UNL     1      -5.255  -3.447  -2.045  1.00  0.00     0.040 C 
ATOM      2  C   UNL     1      -5.174  -2.239  -1.167  1.00  0.00    -0.066 C 
ATOM      3  C   UNL     1      -6.260  -1.752  -0.499  1.00  0.00     0.047 C 
ATOM      4  C   UNL     1      -6.025  -0.536   0.345  1.00  0.00     0.159 C 
ATOM      5  O   UNL     1      -6.936  -0.016   1.041  1.00  0.00    -0.295 OA
ATOM      6  C   UNL     1      -4.606   0.031   0.298  1.00  0.00     0.067 C 
ATOM      7  C   UNL     1      -4.248   0.032  -1.204  1.00  0.00     0.021 C 
ATOM      8  C   UNL     1      -3.857  -1.453  -1.023  1.00  0.00     0.022 C 
ATOM      9  C   UNL     1      -3.600  -1.143   0.480  1.00  0.00    -0.019 C 
ATOM     10  C   UNL     1      -2.155  -0.645   0.742  1.00  0.00     0.012 C 
ATOM     11  C   UNL     1      -3.933  -2.245   1.525  1.00  0.00     0.012 C 
ENDROOT
TORSDOF 0
ENDMDL
MODEL 3
REMARK VINA RESULT:    -5.487      1.428      2.249
REMARK INTER + INTRA:          -5.487
REMARK INTER:                  -5.487
REMARK INTRA:                   0.000
REMARK UNBOUND:                 0.000
REMARK SMILES CC1=CC(=O)[C@@H]2C[C@H]1C2(C)C
REMARK SMILES IDX 1 1 2 2 3 3 4 4 5 5 6 6 7 7 8 8 9 9 10 10 11 11
REMARK H PARENT
REMARK Flexibility Score: inf
ROOT
ATOM      1  C   UNL     1      -2.883  -1.513   2.120  1.00  0.00     0.040 C 
ATOM      2  C   UNL     1      -4.016  -1.391   1.151  1.00  0.00    -0.066 C 
ATOM      3  C   UNL     1      -4.696  -0.222   0.973  1.00  0.00     0.047 C 
ATOM      4  C   UNL     1      -5.805  -0.250  -0.035  1.00  0.00     0.159 C 
ATOM      5  O   UNL     1      -6.480   0.774  -0.320  1.00  0.00    -0.295 OA
ATOM      6  C   UNL     1      -6.062  -1.608  -0.689  1.00  0.00     0.067 C 
ATOM      7  C   UNL     1      -6.041  -2.606   0.489  1.00  0.00     0.021 C 
ATOM      8  C   UNL     1      -4.502  -2.610   0.344  1.00  0.00     0.022 C 
ATOM      9  C   UNL     1      -4.698  -2.202  -1.145  1.00  0.00    -0.019 C 
ATOM     10  C   UNL     1      -4.872  -3.430  -2.075  1.00  0.00     0.012 C 
ATOM     11  C   UNL     1      -3.655  -1.247  -1.788  1.00  0.00     0.012 C 
ENDROOT
TORSDOF 0
ENDMDL
MODEL 4
REMARK VINA RESULT:    -5.416      1.148      3.108
REMARK INTER + INTRA:          -5.416
REMARK INTER:                  -5.416
REMARK INTRA:                   0.000
REMARK UNBOUND:                 0.000
REMARK SMILES CC1=CC(=O)[C@@H]2C[C@H]1C2(C)C
REMARK SMILES IDX 1 1 2 2 3 3 4 4 5 5 6 6 7 7 8 8 9 9 10 10 11 11
REMARK H PARENT
REMARK Flexibility Score: inf
ROOT
ATOM      1  C   UNL     1      -2.917  -0.782  -2.253  1.00  0.00     0.040 C 
ATOM      2  C   UNL     1      -3.999  -0.930  -1.230  1.00  0.00    -0.066 C 
ATOM      3  C   UNL     1      -4.648  -2.112  -1.024  1.00  0.00     0.047 C 
ATOM      4  C   UNL     1      -5.707  -2.107   0.037  1.00  0.00     0.159 C 
ATOM      5  O   UNL     1      -6.348  -3.145   0.350  1.00  0.00    -0.295 OA
ATOM      6  C   UNL     1      -5.958  -0.756   0.707  1.00  0.00     0.067 C 
ATOM      7  C   UNL     1      -6.013   0.245  -0.467  1.00  0.00     0.021 C 
ATOM      8  C   UNL     1      -4.469   0.279  -0.397  1.00  0.00     0.022 C 
ATOM      9  C   UNL     1      -4.585  -0.138   1.098  1.00  0.00    -0.019 C 
ATOM     10  C   UNL     1      -4.736   1.084   2.041  1.00  0.00     0.012 C 
ATOM     11  C   UNL     1      -3.493  -1.075   1.687  1.00  0.00     0.012 C 
ENDROOT
TORSDOF 0
ENDMDL
MODEL 5
REMARK VINA RESULT:    -5.055      1.812      3.070
REMARK INTER + INTRA:          -5.055
REMARK INTER:                  -5.055
REMARK INTRA:                   0.000
REMARK UNBOUND:                 0.000
REMARK SMILES CC1=CC(=O)[C@@H]2C[C@H]1C2(C)C
REMARK SMILES IDX 1 1 2 2 3 3 4 4 5 5 6 6 7 7 8 8 9 9 10 10 11 11
REMARK H PARENT
REMARK Flexibility Score: inf
ROOT
ATOM      1  C   UNL     1      -5.249   1.249   2.302  1.00  0.00     0.040 C 
ATOM      2  C   UNL     1      -4.767   0.297   1.253  1.00  0.00    -0.066 C 
ATOM      3  C   UNL     1      -3.507  -0.226   1.271  1.00  0.00     0.047 C 
ATOM      4  C   UNL     1      -3.167  -1.168   0.155  1.00  0.00     0.159 C 
ATOM      5  O   UNL     1      -2.053  -1.748   0.082  1.00  0.00    -0.295 OA
ATOM      6  C   UNL     1      -4.266  -1.371  -0.889  1.00  0.00     0.067 C 
ATOM      7  C   UNL     1      -4.773   0.057  -1.188  1.00  0.00     0.021 C 
ATOM      8  C   UNL     1      -5.667  -0.092   0.064  1.00  0.00     0.022 C 
ATOM      9  C   UNL     1      -5.609  -1.633  -0.147  1.00  0.00    -0.019 C 
ATOM     10  C   UNL     1      -6.720  -2.140  -1.102  1.00  0.00     0.012 C 
ATOM     11  C   UNL     1      -5.592  -2.547   1.110  1.00  0.00     0.012 C 
ENDROOT
TORSDOF 0
ENDMDL
MODEL 6
REMARK VINA RESULT:    -5.040      1.763      2.435
REMARK INTER + INTRA:          -5.040
REMARK INTER:                  -5.040
REMARK INTRA:                   0.000
REMARK UNBOUND:                 0.000
REMARK SMILES CC1=CC(=O)[C@@H]2C[C@H]1C2(C)C
REMARK SMILES IDX 1 1 2 2 3 3 4 4 5 5 6 6 7 7 8 8 9 9 10 10 11 11
REMARK H PARENT
REMARK Flexibility Score: inf
ROOT
ATOM      1  C   UNL     1      -7.098   0.128   1.137  1.00  0.00     0.040 C 
ATOM      2  C   UNL     1      -5.802  -0.340   0.554  1.00  0.00    -0.066 C 
ATOM      3  C   UNL     1      -5.275   0.207  -0.579  1.00  0.00     0.047 C 
ATOM      4  C   UNL     1      -3.968  -0.363  -1.042  1.00  0.00     0.159 C 
ATOM      5  O   UNL     1      -3.360   0.083  -2.050  1.00  0.00    -0.295 OA
ATOM      6  C   UNL     1      -3.428  -1.525  -0.208  1.00  0.00     0.067 C 
ATOM      7  C   UNL     1      -4.655  -2.438   0.009  1.00  0.00     0.021 C 
ATOM      8  C   UNL     1      -5.027  -1.512   1.189  1.00  0.00     0.022 C 
ATOM      9  C   UNL     1      -3.520  -1.138   1.296  1.00  0.00    -0.019 C 
ATOM     10  C   UNL     1      -2.733  -2.116   2.206  1.00  0.00     0.012 C 
ATOM     11  C   UNL     1      -3.150   0.315   1.709  1.00  0.00     0.012 C 
ENDROOT
TORSDOF 0
ENDMDL
MODEL 7
REMARK VINA RESULT:    -4.887      1.801      3.508
REMARK INTER + INTRA:          -4.887
REMARK INTER:                  -4.887
REMARK INTRA:                   0.000
REMARK UNBOUND:                 0.000
REMARK SMILES CC1=CC(=O)[C@@H]2C[C@H]1C2(C)C
REMARK SMILES IDX 1 1 2 2 3 3 4 4 5 5 6 6 7 7 8 8 9 9 10 10 11 11
REMARK H PARENT
REMARK Flexibility Score: inf
ROOT
ATOM      1  C   UNL     1      -3.222  -0.830  -2.364  1.00  0.00     0.040 C 
ATOM      2  C   UNL     1      -3.800  -1.240  -1.046  1.00  0.00    -0.066 C 
ATOM      3  C   UNL     1      -3.040  -1.805  -0.064  1.00  0.00     0.047 C 
ATOM      4  C   UNL     1      -3.758  -2.162   1.203  1.00  0.00     0.159 C 
ATOM      5  O   UNL     1      -3.161  -2.650   2.198  1.00  0.00    -0.295 OA
ATOM      6  C   UNL     1      -5.263  -1.894   1.202  1.00  0.00     0.067 C 
ATOM      7  C   UNL     1      -5.744  -2.444  -0.159  1.00  0.00     0.021 C 
ATOM      8  C   UNL     1      -5.307  -1.090  -0.763  1.00  0.00     0.022 C 
ATOM      9  C   UNL     1      -5.509  -0.461   0.647  1.00  0.00    -0.019 C 
ATOM     10  C   UNL     1      -6.966   0.018   0.876  1.00  0.00     0.012 C 
ATOM     11  C   UNL     1      -4.547   0.677   1.088  1.00  0.00     0.012 C 
ENDROOT
TORSDOF 0
ENDMDL
MODEL 8
REMARK VINA RESULT:    -4.689      1.556      3.212
REMARK INTER + INTRA:          -4.689
REMARK INTER:                  -4.689
REMARK INTRA:                   0.000
REMARK UNBOUND:                 0.000
REMARK SMILES CC1=CC(=O)[C@@H]2C[C@H]1C2(C)C
REMARK SMILES IDX 1 1 2 2 3 3 4 4 5 5 6 6 7 7 8 8 9 9 10 10 11 11
REMARK H PARENT
REMARK Flexibility Score: inf
ROOT
ATOM      1  C   UNL     1      -2.500  -1.769   2.276  1.00  0.00     0.040 C 
ATOM      2  C   UNL     1      -3.317  -1.461   1.061  1.00  0.00    -0.066 C 
ATOM      3  C   UNL     1      -3.057  -2.030  -0.152  1.00  0.00     0.047 C 
ATOM      4  C   UNL     1      -3.963  -1.627  -1.277  1.00  0.00     0.159 C 
ATOM      5  O   UNL     1      -3.853  -2.113  -2.433  1.00  0.00    -0.295 OA
ATOM      6  C   UNL     1      -5.024  -0.585  -0.923  1.00  0.00     0.067 C 
ATOM      7  C   UNL     1      -4.254   0.479  -0.111  1.00  0.00     0.021 C 
ATOM      8  C   UNL     1      -4.464  -0.434   1.119  1.00  0.00     0.022 C 
ATOM      9  C   UNL     1      -5.717  -1.016   0.402  1.00  0.00    -0.019 C 
ATOM     10  C   UNL     1      -6.998  -0.193   0.692  1.00  0.00     0.012 C 
ATOM     11  C   UNL     1      -6.048  -2.521   0.606  1.00  0.00     0.012 C 
ENDROOT
TORSDOF 0
ENDMDL
MODEL 9
REMARK VINA RESULT:    -4.457      7.743      8.969
REMARK INTER + INTRA:          -4.457
REMARK INTER:                  -4.457
REMARK INTRA:                   0.000
REMARK UNBOUND:                 0.000
REMARK SMILES CC1=CC(=O)[C@@H]2C[C@H]1C2(C)C
REMARK SMILES IDX 1 1 2 2 3 3 4 4 5 5 6 6 7 7 8 8 9 9 10 10 11 11
REMARK H PARENT
REMARK Flexibility Score: inf
ROOT
ATOM      1  C   UNL     1       4.245  -1.695   3.822  1.00  0.00     0.040 C 
ATOM      2  C   UNL     1       3.096  -1.218   4.654  1.00  0.00    -0.066 C 
ATOM      3  C   UNL     1       3.266  -0.380   5.716  1.00  0.00     0.047 C 
ATOM      4  C   UNL     1       2.022   0.014   6.453  1.00  0.00     0.159 C 
ATOM      5  O   UNL     1       2.042   0.815   7.424  1.00  0.00    -0.295 OA
ATOM      6  C   UNL     1       0.729  -0.626   5.946  1.00  0.00     0.067 C 
ATOM      7  C   UNL     1       1.094  -2.114   5.753  1.00  0.00     0.021 C 
ATOM      8  C   UNL     1       1.661  -1.706   4.374  1.00  0.00     0.022 C 
ATOM      9  C   UNL     1       0.687  -0.492   4.396  1.00  0.00    -0.019 C 
ATOM     10  C   UNL     1      -0.705  -0.842   3.812  1.00  0.00     0.012 C 
ATOM     11  C   UNL     1       1.163   0.843   3.757  1.00  0.00     0.012 C 
ENDROOT
TORSDOF 0
ENDMDL
