MODEL 1
REMARK VINA RESULT:    -6.066      0.000      0.000
REMARK INTER + INTRA:         -10.606
REMARK INTER:                  -9.257
REMARK INTRA:                  -1.348
REMARK UNBOUND:                -1.348
REMARK SMILES CC(=O)CCC=C(C)CCC=C(C)CCC=C(C)C
REMARK SMILES IDX 10 1 11 2 12 3 13 4 14 5 15 6 16 7 18 8 17 9 19 10 9 11 7 12
REMARK SMILES IDX 6 13 8 14 5 15 4 16 2 17 3 18 1 19
REMARK H PARENT
REMARK Flexibility Score: inf
ROOT
ATOM      1  C   UNL     1       1.655 -25.279 -10.152  1.00  0.00     0.032 C 
ENDROOT
BRANCH   1   2
ATOM      2  C   UNL     1       0.318 -24.907  -9.561  1.00  0.00    -0.028 C 
ATOM      3  C   UNL     1      -0.691 -24.329 -10.253  1.00  0.00    -0.077 C 
ATOM      4  C   UNL     1      -0.583 -24.045 -11.732  1.00  0.00     0.039 C 
BRANCH   3   5
ATOM      5  C   UNL     1      -1.967 -23.968  -9.524  1.00  0.00     0.034 C 
BRANCH   5   6
ATOM      6  C   UNL     1      -2.160 -22.448  -9.480  1.00  0.00     0.032 C 
BRANCH   6   7
ATOM      7  C   UNL     1      -3.346 -22.023 -10.312  1.00  0.00    -0.028 C 
ATOM      8  C   UNL     1      -1.909 -20.644 -11.819  1.00  0.00     0.039 C 
ATOM      9  C   UNL     1      -3.242 -21.203 -11.379  1.00  0.00    -0.080 C 
ATOM     10  C   UNL     1      -4.491 -20.846 -12.143  1.00  0.00     0.039 C 
ENDBRANCH   6   7
ENDBRANCH   5   6
ENDBRANCH   3   5
ENDBRANCH   1   2
BRANCH   1  11
ATOM     11  C   UNL     1       1.933 -26.777  -9.966  1.00  0.00     0.034 C 
BRANCH  11  12
ATOM     12  C   UNL     1       2.160 -27.458 -11.303  1.00  0.00    -0.077 C 
ATOM     13  C   UNL     1       3.255 -28.201 -11.592  1.00  0.00    -0.028 C 
ATOM     14  C   UNL     1       1.117 -27.290 -12.378  1.00  0.00     0.039 C 
BRANCH  13  15
ATOM     15  C   UNL     1       4.428 -28.442 -10.670  1.00  0.00     0.035 C 
BRANCH  15  16
ATOM     16  C   UNL     1       5.728 -27.818 -11.195  1.00  0.00     0.079 C 
BRANCH  16  17
ATOM     17  C   UNL     1       6.102 -26.577 -10.425  1.00  0.00     0.130 C 
ATOM     18  O   UNL     1       5.330 -25.630 -10.398  1.00  0.00    -0.300 OA
ATOM     19  C   UNL     1       7.401 -26.480  -9.681  1.00  0.00     0.087 C 
ENDBRANCH  16  17
ENDBRANCH  15  16
ENDBRANCH  13  15
ENDBRANCH  11  12
ENDBRANCH   1  11
TORSDOF 9
ENDMDL
MODEL 2
REMARK VINA RESULT:    -6.031      2.936      7.715
REMARK INTER + INTRA:         -10.553
REMARK INTER:                  -9.040
REMARK INTRA:                  -1.513
REMARK UNBOUND:                -1.348
REMARK SMILES CC(=O)CCC=C(C)CCC=C(C)CCC=C(C)C
REMARK SMILES IDX 10 1 11 2 12 3 13 4 14 5 15 6 16 7 18 8 17 9 19 10 9 11 7 12
REMARK SMILES IDX 6 13 8 14 5 15 4 16 2 17 3 18 1 19
REMARK H PARENT
REMARK Flexibility Score: inf
ROOT
ATOM      1  C   UNL     1      -0.990 -24.219 -12.355  1.00  0.00     0.032 C 
ENDROOT
BRANCH   1   2
ATOM      2  C   UNL     1       0.456 -24.567 -12.106  1.00  0.00    -0.028 C 
ATOM      3  C   UNL     1       0.964 -24.915 -10.902  1.00  0.00    -0.077 C 
ATOM      4  C   UNL     1       0.092 -25.040  -9.675  1.00  0.00     0.039 C 
BRANCH   3   5
ATOM      5  C   UNL     1       2.446 -25.198 -10.784  1.00  0.00     0.034 C 
BRANCH   5   6
ATOM      6  C   UNL     1       2.711 -26.706 -10.710  1.00  0.00     0.032 C 
BRANCH   6   7
ATOM      7  C   UNL     1       2.456 -27.372 -12.041  1.00  0.00    -0.028 C 
ATOM      8  C   UNL     1       0.737 -28.890 -11.052  1.00  0.00     0.039 C 
ATOM      9  C   UNL     1       1.558 -28.366 -12.206  1.00  0.00    -0.080 C 
ATOM     10  C   UNL     1       1.379 -28.958 -13.581  1.00  0.00     0.039 C 
ENDBRANCH   6   7
ENDBRANCH   5   6
ENDBRANCH   3   5
ENDBRANCH   1   2
BRANCH   1  11
ATOM     11  C   UNL     1      -1.104 -22.955 -13.218  1.00  0.00     0.034 C 
BRANCH  11  12
ATOM     12  C   UNL     1      -2.464 -22.302 -13.050  1.00  0.00    -0.077 C 
ATOM     13  C   UNL     1      -2.734 -21.355 -12.121  1.00  0.00    -0.028 C 
ATOM     14  C   UNL     1      -3.585 -22.740 -13.959  1.00  0.00     0.039 C 
BRANCH  13  15
ATOM     15  C   UNL     1      -1.761 -20.826 -11.091  1.00  0.00     0.035 C 
BRANCH  15  16
ATOM     16  C   UNL     1      -1.517 -21.819  -9.948  1.00  0.00     0.079 C 
BRANCH  16  17
ATOM     17  C   UNL     1      -2.811 -22.343  -9.378  1.00  0.00     0.130 C 
ATOM     18  O   UNL     1      -3.454 -21.648  -8.607  1.00  0.00    -0.300 OA
ATOM     19  C   UNL     1      -3.334 -23.701  -9.745  1.00  0.00     0.087 C 
ENDBRANCH  16  17
ENDBRANCH  15  16
ENDBRANCH  13  15
ENDBRANCH  11  12
ENDBRANCH   1  11
TORSDOF 9
ENDMDL
MODEL 3
REMARK VINA RESULT:    -6.020      2.272      3.328
REMARK INTER + INTRA:         -10.536
REMARK INTER:                  -9.288
REMARK INTRA:                  -1.248
REMARK UNBOUND:                -1.348
REMARK SMILES CC(=O)CCC=C(C)CCC=C(C)CCC=C(C)C
REMARK SMILES IDX 10 1 11 2 12 3 13 4 14 5 15 6 16 7 18 8 17 9 19 10 9 11 7 12
REMARK SMILES IDX 6 13 8 14 5 15 4 16 2 17 3 18 1 19
REMARK H PARENT
REMARK Flexibility Score: inf
ROOT
ATOM      1  C   UNL     1       0.629 -24.320 -10.867  1.00  0.00     0.032 C 
ENDROOT
BRANCH   1   2
ATOM      2  C   UNL     1      -0.830 -24.228 -10.495  1.00  0.00    -0.028 C 
ATOM      3  C   UNL     1      -1.460 -23.083 -10.144  1.00  0.00    -0.077 C 
ATOM      4  C   UNL     1      -0.750 -21.750 -10.146  1.00  0.00     0.039 C 
BRANCH   3   5
ATOM      5  C   UNL     1      -2.920 -23.141  -9.750  1.00  0.00     0.034 C 
BRANCH   5   6
ATOM      6  C   UNL     1      -3.771 -22.263 -10.675  1.00  0.00     0.032 C 
BRANCH   6   7
ATOM      7  C   UNL     1      -3.568 -22.636 -12.123  1.00  0.00    -0.028 C 
ATOM      8  C   UNL     1      -2.970 -20.290 -12.737  1.00  0.00     0.039 C 
ATOM      9  C   UNL     1      -3.201 -21.746 -13.069  1.00  0.00    -0.080 C 
ATOM     10  C   UNL     1      -3.020 -22.227 -14.486  1.00  0.00     0.039 C 
ENDBRANCH   6   7
ENDBRANCH   5   6
ENDBRANCH   3   5
ENDBRANCH   1   2
BRANCH   1  11
ATOM     11  C   UNL     1       1.427 -25.035  -9.769  1.00  0.00     0.034 C 
BRANCH  11  12
ATOM     12  C   UNL     1       2.838 -25.342 -10.233  1.00  0.00    -0.077 C 
ATOM     13  C   UNL     1       3.249 -26.570 -10.630  1.00  0.00    -0.028 C 
ATOM     14  C   UNL     1       3.848 -24.222 -10.242  1.00  0.00     0.039 C 
BRANCH  13  15
ATOM     15  C   UNL     1       2.404 -27.823 -10.641  1.00  0.00     0.035 C 
BRANCH  15  16
ATOM     16  C   UNL     1       2.686 -28.712 -11.860  1.00  0.00     0.079 C 
BRANCH  16  17
ATOM     17  C   UNL     1       1.692 -28.470 -12.968  1.00  0.00     0.130 C 
ATOM     18  O   UNL     1       1.061 -29.411 -13.426  1.00  0.00    -0.300 OA
ATOM     19  C   UNL     1       1.453 -27.095 -13.518  1.00  0.00     0.087 C 
ENDBRANCH  16  17
ENDBRANCH  15  16
ENDBRANCH  13  15
ENDBRANCH  11  12
ENDBRANCH   1  11
TORSDOF 9
ENDMDL
MODEL 4
REMARK VINA RESULT:    -5.966      4.167      9.981
REMARK INTER + INTRA:         -10.453
REMARK INTER:                  -9.386
REMARK INTRA:                  -1.066
REMARK UNBOUND:                -1.348
REMARK SMILES CC(=O)CCC=C(C)CCC=C(C)CCC=C(C)C
REMARK SMILES IDX 10 1 11 2 12 3 13 4 14 5 15 6 16 7 18 8 17 9 19 10 9 11 7 12
REMARK SMILES IDX 6 13 8 14 5 15 4 16 2 17 3 18 1 19
REMARK H PARENT
REMARK Flexibility Score: inf
ROOT
ATOM      1  C   UNL     1      -3.452 -23.374 -11.041  1.00  0.00     0.032 C 
ENDROOT
BRANCH   1   2
ATOM      2  C   UNL     1      -2.499 -24.004 -10.057  1.00  0.00    -0.028 C 
ATOM      3  C   UNL     1      -1.157 -24.054 -10.215  1.00  0.00    -0.077 C 
ATOM      4  C   UNL     1      -0.469 -23.418 -11.401  1.00  0.00     0.039 C 
BRANCH   3   5
ATOM      5  C   UNL     1      -0.320 -24.757  -9.168  1.00  0.00     0.034 C 
BRANCH   5   6
ATOM      6  C   UNL     1       1.064 -25.114  -9.723  1.00  0.00     0.032 C 
BRANCH   6   7
ATOM      7  C   UNL     1       1.211 -26.604  -9.912  1.00  0.00    -0.028 C 
ATOM      8  C   UNL     1       1.313 -26.370 -12.396  1.00  0.00     0.039 C 
ATOM      9  C   UNL     1       1.326 -27.185 -11.125  1.00  0.00    -0.080 C 
ATOM     10  C   UNL     1       1.473 -28.684 -11.199  1.00  0.00     0.039 C 
ENDBRANCH   6   7
ENDBRANCH   5   6
ENDBRANCH   3   5
ENDBRANCH   1   2
BRANCH   1  11
ATOM     11  C   UNL     1      -3.726 -21.909 -10.671  1.00  0.00     0.034 C 
BRANCH  11  12
ATOM     12  C   UNL     1      -3.823 -21.043 -11.913  1.00  0.00    -0.077 C 
ATOM     13  C   UNL     1      -4.902 -20.284 -12.219  1.00  0.00    -0.028 C 
ATOM     14  C   UNL     1      -2.659 -21.034 -12.871  1.00  0.00     0.039 C 
BRANCH  13  15
ATOM     15  C   UNL     1      -6.179 -20.202 -11.415  1.00  0.00     0.035 C 
BRANCH  15  16
ATOM     16  C   UNL     1      -7.244 -19.325 -12.090  1.00  0.00     0.079 C 
BRANCH  16  17
ATOM     17  C   UNL     1      -8.622 -19.606 -11.547  1.00  0.00     0.130 C 
ATOM     18  O   UNL     1      -8.775 -20.499 -10.727  1.00  0.00    -0.300 OA
ATOM     19  C   UNL     1      -9.813 -18.807 -11.985  1.00  0.00     0.087 C 
ENDBRANCH  16  17
ENDBRANCH  15  16
ENDBRANCH  13  15
ENDBRANCH  11  12
ENDBRANCH   1  11
TORSDOF 9
ENDMDL
MODEL 5
REMARK VINA RESULT:    -5.916      1.661      2.431
REMARK INTER + INTRA:         -10.377
REMARK INTER:                  -9.224
REMARK INTRA:                  -1.153
REMARK UNBOUND:                -1.348
REMARK SMILES CC(=O)CCC=C(C)CCC=C(C)CCC=C(C)C
REMARK SMILES IDX 10 1 11 2 12 3 13 4 14 5 15 6 16 7 18 8 17 9 19 10 9 11 7 12
REMARK SMILES IDX 6 13 8 14 5 15 4 16 2 17 3 18 1 19
REMARK H PARENT
REMARK Flexibility Score: inf
ROOT
ATOM      1  C   UNL     1       0.599 -24.224 -10.216  1.00  0.00     0.032 C 
ENDROOT
BRANCH   1   2
ATOM      2  C   UNL     1      -0.872 -24.049  -9.933  1.00  0.00    -0.028 C 
ATOM      3  C   UNL     1      -1.506 -22.855  -9.881  1.00  0.00    -0.077 C 
ATOM      4  C   UNL     1      -0.785 -21.558 -10.163  1.00  0.00     0.039 C 
BRANCH   3   5
ATOM      5  C   UNL     1      -2.980 -22.821  -9.542  1.00  0.00     0.034 C 
BRANCH   5   6
ATOM      6  C   UNL     1      -3.751 -21.952 -10.543  1.00  0.00     0.032 C 
BRANCH   6   7
ATOM      7  C   UNL     1      -3.558 -22.444 -11.957  1.00  0.00    -0.028 C 
ATOM      8  C   UNL     1      -3.000 -20.150 -12.773  1.00  0.00     0.039 C 
ATOM      9  C   UNL     1      -3.214 -21.631 -12.979  1.00  0.00    -0.080 C 
ATOM     10  C   UNL     1      -3.041 -22.228 -14.352  1.00  0.00     0.039 C 
ENDBRANCH   6   7
ENDBRANCH   5   6
ENDBRANCH   3   5
ENDBRANCH   1   2
BRANCH   1  11
ATOM     11  C   UNL     1       0.952 -25.711 -10.357  1.00  0.00     0.034 C 
BRANCH  11  12
ATOM     12  C   UNL     1       0.921 -26.143 -11.812  1.00  0.00    -0.077 C 
ATOM     13  C   UNL     1       1.055 -27.428 -12.218  1.00  0.00    -0.028 C 
ATOM     14  C   UNL     1       0.744 -25.083 -12.869  1.00  0.00     0.039 C 
BRANCH  13  15
ATOM     15  C   UNL     1       1.291 -28.618 -11.317  1.00  0.00     0.035 C 
BRANCH  15  16
ATOM     16  C   UNL     1       2.587 -29.367 -11.659  1.00  0.00     0.079 C 
BRANCH  16  17
ATOM     17  C   UNL     1       3.803 -28.641 -11.140  1.00  0.00     0.130 C 
ATOM     18  O   UNL     1       3.728 -28.015 -10.093  1.00  0.00    -0.300 OA
ATOM     19  C   UNL     1       5.108 -28.675 -11.878  1.00  0.00     0.087 C 
ENDBRANCH  16  17
ENDBRANCH  15  16
ENDBRANCH  13  15
ENDBRANCH  11  12
ENDBRANCH   1  11
TORSDOF 9
ENDMDL
MODEL 6
REMARK VINA RESULT:    -5.911      2.665      8.022
REMARK INTER + INTRA:         -10.369
REMARK INTER:                  -8.776
REMARK INTRA:                  -1.593
REMARK UNBOUND:                -1.348
REMARK SMILES CC(=O)CCC=C(C)CCC=C(C)CCC=C(C)C
REMARK SMILES IDX 10 1 11 2 12 3 13 4 14 5 15 6 16 7 18 8 17 9 19 10 9 11 7 12
REMARK SMILES IDX 6 13 8 14 5 15 4 16 2 17 3 18 1 19
REMARK H PARENT
REMARK Flexibility Score: inf
ROOT
ATOM      1  C   UNL     1      -0.572 -24.342 -11.600  1.00  0.00     0.032 C 
ENDROOT
BRANCH   1   2
ATOM      2  C   UNL     1       0.858 -24.820 -11.624  1.00  0.00    -0.028 C 
ATOM      3  C   UNL     1       1.508 -25.344 -10.559  1.00  0.00    -0.077 C 
ATOM      4  C   UNL     1       0.823 -25.549  -9.228  1.00  0.00     0.039 C 
BRANCH   3   5
ATOM      5  C   UNL     1       2.960 -25.744 -10.710  1.00  0.00     0.034 C 
BRANCH   5   6
ATOM      6  C   UNL     1       3.106 -27.270 -10.740  1.00  0.00     0.032 C 
BRANCH   6   7
ATOM      7  C   UNL     1       2.683 -27.834 -12.074  1.00  0.00    -0.028 C 
ATOM      8  C   UNL     1       0.697 -28.967 -11.067  1.00  0.00     0.039 C 
ATOM      9  C   UNL     1       1.587 -28.607 -12.233  1.00  0.00    -0.080 C 
ATOM     10  C   UNL     1       1.252 -29.114 -13.613  1.00  0.00     0.039 C 
ENDBRANCH   6   7
ENDBRANCH   5   6
ENDBRANCH   3   5
ENDBRANCH   1   2
BRANCH   1  11
ATOM     11  C   UNL     1      -0.654 -22.898 -11.086  1.00  0.00     0.034 C 
BRANCH  11  12
ATOM     12  C   UNL     1      -2.031 -22.597 -10.524  1.00  0.00    -0.077 C 
ATOM     13  C   UNL     1      -2.803 -21.564 -10.938  1.00  0.00    -0.028 C 
ATOM     14  C   UNL     1      -2.569 -23.489  -9.434  1.00  0.00     0.039 C 
BRANCH  13  15
ATOM     15  C   UNL     1      -2.419 -20.536 -11.977  1.00  0.00     0.035 C 
BRANCH  15  16
ATOM     16  C   UNL     1      -3.171 -20.728 -13.301  1.00  0.00     0.079 C 
BRANCH  16  17
ATOM     17  C   UNL     1      -2.995 -22.123 -13.845  1.00  0.00     0.130 C 
ATOM     18  O   UNL     1      -1.951 -22.423 -14.405  1.00  0.00    -0.300 OA
ATOM     19  C   UNL     1      -4.073 -23.157 -13.707  1.00  0.00     0.087 C 
ENDBRANCH  16  17
ENDBRANCH  15  16
ENDBRANCH  13  15
ENDBRANCH  11  12
ENDBRANCH   1  11
TORSDOF 9
ENDMDL
MODEL 7
REMARK VINA RESULT:    -5.897      2.339      5.124
REMARK INTER + INTRA:         -10.348
REMARK INTER:                  -9.422
REMARK INTRA:                  -0.926
REMARK UNBOUND:                -1.348
REMARK SMILES CC(=O)CCC=C(C)CCC=C(C)CCC=C(C)C
REMARK SMILES IDX 10 1 11 2 12 3 13 4 14 5 15 6 16 7 18 8 17 9 19 10 9 11 7 12
REMARK SMILES IDX 6 13 8 14 5 15 4 16 2 17 3 18 1 19
REMARK H PARENT
REMARK Flexibility Score: inf
ROOT
ATOM      1  C   UNL     1      -2.557 -22.119  -9.577  1.00  0.00     0.032 C 
ENDROOT
BRANCH   1   2
ATOM      2  C   UNL     1      -3.668 -21.723 -10.517  1.00  0.00    -0.028 C 
ATOM      3  C   UNL     1      -3.503 -20.947 -11.613  1.00  0.00    -0.077 C 
ATOM      4  C   UNL     1      -2.144 -20.439 -12.034  1.00  0.00     0.039 C 
BRANCH   3   5
ATOM      5  C   UNL     1      -4.715 -20.589 -12.447  1.00  0.00     0.034 C 
BRANCH   5   6
ATOM      6  C   UNL     1      -5.865 -20.101 -11.559  1.00  0.00     0.032 C 
BRANCH   6   7
ATOM      7  C   UNL     1      -6.654 -19.008 -12.239  1.00  0.00    -0.028 C 
ATOM      8  C   UNL     1      -8.601 -19.341 -10.710  1.00  0.00     0.039 C 
ATOM      9  C   UNL     1      -7.900 -18.654 -11.858  1.00  0.00    -0.080 C 
ATOM     10  C   UNL     1      -8.597 -17.544 -12.603  1.00  0.00     0.039 C 
ENDBRANCH   6   7
ENDBRANCH   5   6
ENDBRANCH   3   5
ENDBRANCH   1   2
BRANCH   1  11
ATOM     11  C   UNL     1      -2.415 -23.646  -9.517  1.00  0.00     0.034 C 
BRANCH  11  12
ATOM     12  C   UNL     1      -2.197 -24.228 -10.901  1.00  0.00    -0.077 C 
ATOM     13  C   UNL     1      -0.978 -24.376 -11.472  1.00  0.00    -0.028 C 
ATOM     14  C   UNL     1      -3.406 -24.655 -11.695  1.00  0.00     0.039 C 
BRANCH  13  15
ATOM     15  C   UNL     1       0.340 -23.961 -10.859  1.00  0.00     0.035 C 
BRANCH  15  16
ATOM     16  C   UNL     1       1.055 -25.124 -10.159  1.00  0.00     0.079 C 
BRANCH  16  17
ATOM     17  C   UNL     1       2.497 -25.229 -10.586  1.00  0.00     0.130 C 
ATOM     18  O   UNL     1       2.829 -26.102 -11.374  1.00  0.00    -0.300 OA
ATOM     19  C   UNL     1       3.537 -24.280 -10.069  1.00  0.00     0.087 C 
ENDBRANCH  16  17
ENDBRANCH  15  16
ENDBRANCH  13  15
ENDBRANCH  11  12
ENDBRANCH   1  11
TORSDOF 9
ENDMDL
MODEL 8
REMARK VINA RESULT:    -5.780      2.504      8.239
REMARK INTER + INTRA:         -10.170
REMARK INTER:                  -8.991
REMARK INTRA:                  -1.179
REMARK UNBOUND:                -1.348
REMARK SMILES CC(=O)CCC=C(C)CCC=C(C)CCC=C(C)C
REMARK SMILES IDX 10 1 11 2 12 3 13 4 14 5 15 6 16 7 18 8 17 9 19 10 9 11 7 12
REMARK SMILES IDX 6 13 8 14 5 15 4 16 2 17 3 18 1 19
REMARK H PARENT
REMARK Flexibility Score: inf
ROOT
ATOM      1  C   UNL     1       0.393 -25.981 -12.339  1.00  0.00     0.032 C 
ENDROOT
BRANCH   1   2
ATOM      2  C   UNL     1       1.739 -26.645 -12.486  1.00  0.00    -0.028 C 
ATOM      3  C   UNL     1       2.073 -27.831 -11.929  1.00  0.00    -0.077 C 
ATOM      4  C   UNL     1       1.081 -28.644 -11.130  1.00  0.00     0.039 C 
BRANCH   3   5
ATOM      5  C   UNL     1       3.477 -28.363 -12.122  1.00  0.00     0.034 C 
BRANCH   5   6
ATOM      6  C   UNL     1       4.206 -28.482 -10.778  1.00  0.00     0.032 C 
BRANCH   6   7
ATOM      7  C   UNL     1       4.974 -27.222 -10.459  1.00  0.00    -0.028 C 
ATOM      8  C   UNL     1       7.112 -28.210 -11.292  1.00  0.00     0.039 C 
ATOM      9  C   UNL     1       6.297 -27.088 -10.692  1.00  0.00    -0.080 C 
ATOM     10  C   UNL     1       6.966 -25.784 -10.340  1.00  0.00     0.039 C 
ENDBRANCH   6   7
ENDBRANCH   5   6
ENDBRANCH   3   5
ENDBRANCH   1   2
BRANCH   1  11
ATOM     11  C   UNL     1       0.554 -24.502 -11.960  1.00  0.00     0.034 C 
BRANCH  11  12
ATOM     12  C   UNL     1       0.245 -24.280 -10.491  1.00  0.00    -0.077 C 
ATOM     13  C   UNL     1      -0.523 -23.264 -10.030  1.00  0.00    -0.028 C 
ATOM     14  C   UNL     1       0.834 -25.234  -9.484  1.00  0.00     0.039 C 
BRANCH  13  15
ATOM     15  C   UNL     1      -1.156 -22.181 -10.874  1.00  0.00     0.035 C 
BRANCH  15  16
ATOM     16  C   UNL     1      -2.656 -22.020 -10.595  1.00  0.00     0.079 C 
BRANCH  16  17
ATOM     17  C   UNL     1      -3.337 -23.354 -10.419  1.00  0.00     0.130 C 
ATOM     18  O   UNL     1      -3.844 -23.632  -9.343  1.00  0.00    -0.300 OA
ATOM     19  C   UNL     1      -3.413 -24.347 -11.540  1.00  0.00     0.087 C 
ENDBRANCH  16  17
ENDBRANCH  15  16
ENDBRANCH  13  15
ENDBRANCH  11  12
ENDBRANCH   1  11
TORSDOF 9
ENDMDL
MODEL 9
REMARK VINA RESULT:    -5.705      2.640      8.472
REMARK INTER + INTRA:         -10.054
REMARK INTER:                  -8.750
REMARK INTRA:                  -1.304
REMARK UNBOUND:                -1.348
REMARK SMILES CC(=O)CCC=C(C)CCC=C(C)CCC=C(C)C
REMARK SMILES IDX 10 1 11 2 12 3 13 4 14 5 15 6 16 7 18 8 17 9 19 10 9 11 7 12
REMARK SMILES IDX 6 13 8 14 5 15 4 16 2 17 3 18 1 19
REMARK H PARENT
REMARK Flexibility Score: inf
ROOT
ATOM      1  C   UNL     1      -0.133 -24.232 -11.979  1.00  0.00     0.032 C 
ENDROOT
BRANCH   1   2
ATOM      2  C   UNL     1       0.507 -25.584 -12.168  1.00  0.00    -0.028 C 
ATOM      3  C   UNL     1       1.694 -25.951 -11.634  1.00  0.00    -0.077 C 
ATOM      4  C   UNL     1       2.481 -25.030 -10.731  1.00  0.00     0.039 C 
BRANCH   3   5
ATOM      5  C   UNL     1       2.243 -27.327 -11.941  1.00  0.00     0.034 C 
BRANCH   5   6
ATOM      6  C   UNL     1       3.146 -27.822 -10.805  1.00  0.00     0.032 C 
BRANCH   6   7
ATOM      7  C   UNL     1       4.424 -28.419 -11.342  1.00  0.00    -0.028 C 
ATOM      8  C   UNL     1       5.811 -26.645 -10.261  1.00  0.00     0.039 C 
ATOM      9  C   UNL     1       5.642 -27.891 -11.099  1.00  0.00    -0.080 C 
ATOM     10  C   UNL     1       6.855 -28.571 -11.680  1.00  0.00     0.039 C 
ENDBRANCH   6   7
ENDBRANCH   5   6
ENDBRANCH   3   5
ENDBRANCH   1   2
BRANCH   1  11
ATOM     11  C   UNL     1      -1.533 -24.374 -11.364  1.00  0.00     0.034 C 
BRANCH  11  12
ATOM     12  C   UNL     1      -1.550 -23.883  -9.929  1.00  0.00    -0.077 C 
ATOM     13  C   UNL     1      -2.243 -22.796  -9.513  1.00  0.00    -0.028 C 
ATOM     14  C   UNL     1      -0.739 -24.637  -8.905  1.00  0.00     0.039 C 
BRANCH  13  15
ATOM     15  C   UNL     1      -3.068 -21.887 -10.394  1.00  0.00     0.035 C 
BRANCH  15  16
ATOM     16  C   UNL     1      -2.206 -21.057 -11.356  1.00  0.00     0.079 C 
BRANCH  16  17
ATOM     17  C   UNL     1      -2.865 -20.904 -12.703  1.00  0.00     0.130 C 
ATOM     18  O   UNL     1      -2.986 -19.789 -13.189  1.00  0.00    -0.300 OA
ATOM     19  C   UNL     1      -3.369 -22.092 -13.467  1.00  0.00     0.087 C 
ENDBRANCH  16  17
ENDBRANCH  15  16
ENDBRANCH  13  15
ENDBRANCH  11  12
ENDBRANCH   1  11
TORSDOF 9
ENDMDL
