MODEL 1
REMARK VINA RESULT:    -4.361      0.000      0.000
REMARK INTER + INTRA:          -4.630
REMARK INTER:                  -5.381
REMARK INTRA:                   0.750
REMARK UNBOUND:                 0.750
REMARK SMILES CC1=CC=CC(C)(C)CC1=O
REMARK SMILES IDX 1 1 2 2 3 3 10 4 11 5 9 6 4 8 5 9 6 10 7 11 8 12
REMARK H PARENT
REMARK Flexibility Score: 80.00
ROOT
ATOM      1  C   UNL     1     143.525 142.120 113.197  1.00  0.00     0.048 C 
ATOM      2  C   UNL     1     142.466 142.292 114.259  1.00  0.00    -0.008 C 
ATOM      3  C   UNL     1     141.524 143.238 114.056  1.00  0.00     0.007 C 
ENDROOT
BRANCH   2   4
ATOM      4  C   UNL     1     142.500 141.351 115.406  1.00  0.00     0.159 C 
ATOM      5  O   UNL     1     143.276 140.357 115.354  1.00  0.00    -0.295 OA
BRANCH   4   6
ATOM      6  C   UNL     1     141.672 141.523 116.642  1.00  0.00     0.091 CG0
ATOM      7  G   UNL     1     140.153 141.549 116.358  1.00  0.00     0.000 G0
ENDBRANCH   4   6
ENDBRANCH   2   4
BRANCH   3   8
ATOM      8  C   UNL     1     140.361 143.617 114.893  1.00  0.00    -0.003 C 
ATOM      9  C   UNL     1     139.758 142.922 115.865  1.00  0.00    -0.020 C 
BRANCH   9  10
ATOM     10  C   UNL     1     140.156 141.555 116.370  1.00  0.00    -0.010 CG0
ATOM     11  C   UNL     1     139.697 140.469 115.370  1.00  0.00     0.016 C 
ATOM     12  C   UNL     1     139.432 141.304 117.712  1.00  0.00     0.016 C 
ATOM     13  G   UNL     1     141.678 141.519 116.631  1.00  0.00     0.000 G0
ENDBRANCH   9  10
ENDBRANCH   3   8
TORSDOF 0
ENDMDL
MODEL 2
REMARK VINA RESULT:    -4.348      1.461      3.341
REMARK INTER + INTRA:          -4.614
REMARK INTER:                  -5.360
REMARK INTRA:                   0.746
REMARK UNBOUND:                 0.750
REMARK SMILES CC1=CC=CC(C)(C)CC1=O
REMARK SMILES IDX 1 1 2 2 3 3 10 4 11 5 9 6 4 8 5 9 6 10 7 11 8 12
REMARK H PARENT
REMARK Flexibility Score: 80.00
ROOT
ATOM      1  C   UNL     1     140.785 140.584 118.919  1.00  0.00     0.048 C 
ATOM      2  C   UNL     1     140.725 141.001 117.469  1.00  0.00    -0.008 C 
ATOM      3  C   UNL     1     139.930 142.045 117.150  1.00  0.00     0.007 C 
ENDROOT
BRANCH   2   4
ATOM      4  C   UNL     1     141.607 140.276 116.520  1.00  0.00     0.159 C 
ATOM      5  O   UNL     1     142.493 139.504 116.982  1.00  0.00    -0.295 OA
BRANCH   4   6
ATOM      6  C   UNL     1     141.496 140.395 115.032  1.00  0.00     0.091 CG0
ATOM      7  G   UNL     1     141.685 141.841 114.521  1.00  0.00     0.000 G0
ENDBRANCH   4   6
ENDBRANCH   2   4
BRANCH   3   8
ATOM      8  C   UNL     1     139.689 142.690 115.838  1.00  0.00    -0.003 C 
ATOM      9  C   UNL     1     140.422 142.629 114.719  1.00  0.00    -0.020 C 
BRANCH   9  10
ATOM     10  C   UNL     1     141.693 141.837 114.521  1.00  0.00    -0.010 CG0
ATOM     11  C   UNL     1     142.879 142.567 115.193  1.00  0.00     0.016 C 
ATOM     12  C   UNL     1     141.981 141.754 113.005  1.00  0.00     0.016 C 
ATOM     13  G   UNL     1     141.499 140.400 115.053  1.00  0.00     0.000 G0
ENDBRANCH   9  10
ENDBRANCH   3   8
TORSDOF 0
ENDMDL
MODEL 3
REMARK VINA RESULT:    -4.241      8.888      9.898
REMARK INTER + INTRA:          -4.482
REMARK INTER:                  -5.237
REMARK INTRA:                   0.754
REMARK UNBOUND:                 0.750
REMARK SMILES CC1=CC=CC(C)(C)CC1=O
REMARK SMILES IDX 1 1 2 2 3 3 10 4 11 5 9 6 4 8 5 9 6 10 7 11 8 12
REMARK H PARENT
REMARK Flexibility Score: 80.00
ROOT
ATOM      1  C   UNL     1     135.263 135.756 118.870  1.00  0.00     0.048 C 
ATOM      2  C   UNL     1     135.459 135.328 117.435  1.00  0.00    -0.008 C 
ATOM      3  C   UNL     1     136.244 134.254 117.204  1.00  0.00     0.007 C 
ENDROOT
BRANCH   2   4
ATOM      4  C   UNL     1     134.709 136.079 116.397  1.00  0.00     0.159 C 
ATOM      5  O   UNL     1     133.807 136.884 116.761  1.00  0.00    -0.295 OA
BRANCH   4   6
ATOM      6  C   UNL     1     134.972 135.948 114.929  1.00  0.00     0.091 CG0
ATOM      7  G   UNL     1     134.779 134.508 114.403  1.00  0.00     0.000 G0
ENDBRANCH   4   6
ENDBRANCH   2   4
BRANCH   3   8
ATOM      8  C   UNL     1     136.597 133.592 115.926  1.00  0.00    -0.003 C 
ATOM      9  C   UNL     1     135.988 133.673 114.736  1.00  0.00    -0.020 C 
BRANCH   9  10
ATOM     10  C   UNL     1     134.776 134.511 114.404  1.00  0.00    -0.010 CG0
ATOM     11  C   UNL     1     133.500 133.835 114.956  1.00  0.00     0.016 C 
ATOM     12  C   UNL     1     134.647 134.588 112.865  1.00  0.00     0.016 C 
ATOM     13  G   UNL     1     134.971 135.946 114.942  1.00  0.00     0.000 G0
ENDBRANCH   9  10
ENDBRANCH   3   8
TORSDOF 0
ENDMDL
MODEL 4
REMARK VINA RESULT:    -4.213      8.571     10.071
REMARK INTER + INTRA:          -4.448
REMARK INTER:                  -5.206
REMARK INTRA:                   0.759
REMARK UNBOUND:                 0.750
REMARK SMILES CC1=CC=CC(C)(C)CC1=O
REMARK SMILES IDX 1 1 2 2 3 3 10 4 11 5 9 6 4 8 5 9 6 10 7 11 8 12
REMARK H PARENT
REMARK Flexibility Score: 80.00
ROOT
ATOM      1  C   UNL     1     133.736 134.847 112.302  1.00  0.00     0.048 C 
ATOM      2  C   UNL     1     134.397 134.464 113.605  1.00  0.00    -0.008 C 
ATOM      3  C   UNL     1     135.597 133.848 113.540  1.00  0.00     0.007 C 
ENDROOT
BRANCH   2   4
ATOM      4  C   UNL     1     133.708 134.864 114.856  1.00  0.00     0.159 C 
ATOM      5  O   UNL     1     132.746 135.679 114.787  1.00  0.00    -0.295 OA
BRANCH   4   6
ATOM      6  C   UNL     1     134.079 134.341 116.209  1.00  0.00     0.091 CG0
ATOM      7  G   UNL     1     135.531 134.679 116.615  1.00  0.00     0.000 G0
ENDBRANCH   4   6
ENDBRANCH   2   4
BRANCH   3   8
ATOM      8  C   UNL     1     136.487 133.382 114.630  1.00  0.00    -0.003 C 
ATOM      9  C   UNL     1     136.489 133.726 115.923  1.00  0.00    -0.020 C 
BRANCH   9  10
ATOM     10  C   UNL     1     135.532 134.680 116.600  1.00  0.00    -0.010 CG0
ATOM     11  C   UNL     1     135.918 136.139 116.265  1.00  0.00     0.016 C 
ATOM     12  C   UNL     1     135.661 134.492 118.129  1.00  0.00     0.016 C 
ATOM     13  G   UNL     1     134.082 134.338 116.194  1.00  0.00     0.000 G0
ENDBRANCH   9  10
ENDBRANCH   3   8
TORSDOF 0
ENDMDL
MODEL 5
REMARK VINA RESULT:    -4.134      1.892      2.431
REMARK INTER + INTRA:          -4.350
REMARK INTER:                  -5.096
REMARK INTRA:                   0.746
REMARK UNBOUND:                 0.750
REMARK SMILES CC1=CC=CC(C)(C)CC1=O
REMARK SMILES IDX 1 1 2 2 3 3 10 4 11 5 9 6 4 8 5 9 6 10 7 11 8 12
REMARK H PARENT
REMARK Flexibility Score: 80.00
ROOT
ATOM      1  C   UNL     1     140.606 142.034 111.577  1.00  0.00     0.048 C 
ATOM      2  C   UNL     1     141.144 141.775 112.964  1.00  0.00    -0.008 C 
ATOM      3  C   UNL     1     142.092 142.614 113.435  1.00  0.00     0.007 C 
ENDROOT
BRANCH   2   4
ATOM      4  C   UNL     1     140.531 140.661 113.730  1.00  0.00     0.159 C 
ATOM      5  O   UNL     1     139.486 140.115 113.278  1.00  0.00    -0.295 OA
BRANCH   4   6
ATOM      6  C   UNL     1     141.093 140.131 115.012  1.00  0.00     0.091 CG0
ATOM      7  G   UNL     1     141.190 141.201 116.123  1.00  0.00     0.000 G0
ENDBRANCH   4   6
ENDBRANCH   2   4
BRANCH   3   8
ATOM      8  C   UNL     1     142.781 142.630 114.747  1.00  0.00    -0.003 C 
ATOM      9  C   UNL     1     142.418 142.052 115.898  1.00  0.00    -0.020 C 
BRANCH   9  10
ATOM     10  C   UNL     1     141.194 141.197 116.127  1.00  0.00    -0.010 CG0
ATOM     11  C   UNL     1     139.938 142.092 116.237  1.00  0.00     0.016 C 
ATOM     12  C   UNL     1     141.367 140.451 117.470  1.00  0.00     0.016 C 
ATOM     13  G   UNL     1     141.078 140.143 115.003  1.00  0.00     0.000 G0
ENDBRANCH   9  10
ENDBRANCH   3   8
TORSDOF 0
ENDMDL
MODEL 6
REMARK VINA RESULT:    -4.131      8.320      9.408
REMARK INTER + INTRA:          -4.347
REMARK INTER:                  -5.098
REMARK INTRA:                   0.751
REMARK UNBOUND:                 0.750
REMARK SMILES CC1=CC=CC(C)(C)CC1=O
REMARK SMILES IDX 1 1 2 2 3 3 10 4 11 5 9 6 4 8 5 9 6 10 7 11 8 12
REMARK H PARENT
REMARK Flexibility Score: 80.00
ROOT
ATOM      1  C   UNL     1     133.297 136.380 112.230  1.00  0.00     0.048 C 
ATOM      2  C   UNL     1     133.745 135.890 113.586  1.00  0.00    -0.008 C 
ATOM      3  C   UNL     1     133.242 134.715 114.024  1.00  0.00     0.007 C 
ENDROOT
BRANCH   2   4
ATOM      4  C   UNL     1     134.763 136.703 114.296  1.00  0.00     0.159 C 
ATOM      5  O   UNL     1     135.355 137.622 113.666  1.00  0.00    -0.295 OA
BRANCH   4   6
ATOM      6  C   UNL     1     135.121 136.505 115.737  1.00  0.00     0.091 CG0
ATOM      7  G   UNL     1     135.682 135.096 116.036  1.00  0.00     0.000 G0
ENDBRANCH   4   6
ENDBRANCH   2   4
BRANCH   3   8
ATOM      8  C   UNL     1     133.509 133.976 115.280  1.00  0.00    -0.003 C 
ATOM      9  C   UNL     1     134.530 134.108 116.137  1.00  0.00    -0.020 C 
BRANCH   9  10
ATOM     10  C   UNL     1     135.669 135.094 116.031  1.00  0.00    -0.010 CG0
ATOM     11  C   UNL     1     136.687 134.613 114.971  1.00  0.00     0.016 C 
ATOM     12  C   UNL     1     136.392 135.149 117.396  1.00  0.00     0.016 C 
ATOM     13  G   UNL     1     135.111 136.502 115.725  1.00  0.00     0.000 G0
ENDBRANCH   9  10
ENDBRANCH   3   8
TORSDOF 0
ENDMDL
MODEL 7
REMARK VINA RESULT:    -4.048      2.242      3.814
REMARK INTER + INTRA:          -4.245
REMARK INTER:                  -4.999
REMARK INTRA:                   0.754
REMARK UNBOUND:                 0.750
REMARK SMILES CC1=CC=CC(C)(C)CC1=O
REMARK SMILES IDX 1 1 2 2 3 3 10 4 11 5 9 6 4 8 5 9 6 10 7 11 8 12
REMARK H PARENT
REMARK Flexibility Score: 80.00
ROOT
ATOM      1  C   UNL     1     141.366 141.700 117.612  1.00  0.00     0.048 C 
ATOM      2  C   UNL     1     141.652 141.764 116.131  1.00  0.00    -0.008 C 
ATOM      3  C   UNL     1     142.723 141.083 115.670  1.00  0.00     0.007 C 
ENDROOT
BRANCH   2   4
ATOM      4  C   UNL     1     140.685 142.509 115.287  1.00  0.00     0.159 C 
ATOM      5  O   UNL     1     139.585 142.866 115.793  1.00  0.00    -0.295 OA
BRANCH   4   6
ATOM      6  C   UNL     1     140.946 142.880 113.860  1.00  0.00     0.091 CG0
ATOM      7  G   UNL     1     141.195 141.658 112.949  1.00  0.00     0.000 G0
ENDBRANCH   4   6
ENDBRANCH   2   4
BRANCH   3   8
ATOM      8  C   UNL     1     143.235 140.937 114.287  1.00  0.00    -0.003 C 
ATOM      9  C   UNL     1     142.605 141.159 113.126  1.00  0.00    -0.020 C 
BRANCH   9  10
ATOM     10  C   UNL     1     141.188 141.654 112.954  1.00  0.00    -0.010 CG0
ATOM     11  C   UNL     1     140.191 140.503 113.224  1.00  0.00     0.016 C 
ATOM     12  C   UNL     1     141.008 142.106 111.487  1.00  0.00     0.016 C 
ATOM     13  G   UNL     1     140.949 142.876 113.867  1.00  0.00     0.000 G0
ENDBRANCH   9  10
ENDBRANCH   3   8
TORSDOF 0
ENDMDL
MODEL 8
REMARK VINA RESULT:    -3.973      8.552     10.040
REMARK INTER + INTRA:          -4.152
REMARK INTER:                  -4.907
REMARK INTRA:                   0.755
REMARK UNBOUND:                 0.750
REMARK SMILES CC1=CC=CC(C)(C)CC1=O
REMARK SMILES IDX 1 1 2 2 3 3 10 4 11 5 9 6 4 8 5 9 6 10 7 11 8 12
REMARK H PARENT
REMARK Flexibility Score: 80.00
ROOT
ATOM      1  C   UNL     1     134.865 134.776 117.342  1.00  0.00     0.048 C 
ATOM      2  C   UNL     1     134.645 134.785 115.848  1.00  0.00    -0.008 C 
ATOM      3  C   UNL     1     133.627 135.534 115.371  1.00  0.00     0.007 C 
ENDROOT
BRANCH   2   4
ATOM      4  C   UNL     1     135.615 134.030 115.017  1.00  0.00     0.159 C 
ATOM      5  O   UNL     1     136.675 133.604 115.555  1.00  0.00    -0.295 OA
BRANCH   4   6
ATOM      6  C   UNL     1     135.402 133.727 113.566  1.00  0.00     0.091 CG0
ATOM      7  G   UNL     1     135.267 134.995 112.693  1.00  0.00     0.000 G0
ENDBRANCH   4   6
ENDBRANCH   2   4
BRANCH   3   8
ATOM      8  C   UNL     1     133.187 135.759 113.973  1.00  0.00    -0.003 C 
ATOM      9  C   UNL     1     133.859 135.556 112.833  1.00  0.00    -0.020 C 
BRANCH   9  10
ATOM     10  C   UNL     1     135.259 135.003 112.702  1.00  0.00    -0.010 CG0
ATOM     11  C   UNL     1     136.293 136.094 113.067  1.00  0.00     0.016 C 
ATOM     12  C   UNL     1     135.487 134.605 111.226  1.00  0.00     0.016 C 
ATOM     13  G   UNL     1     135.400 133.733 113.571  1.00  0.00     0.000 G0
ENDBRANCH   9  10
ENDBRANCH   3   8
TORSDOF 0
ENDMDL
MODEL 9
REMARK VINA RESULT:    -3.899      1.621      2.386
REMARK INTER + INTRA:          -4.061
REMARK INTER:                  -4.818
REMARK INTRA:                   0.757
REMARK UNBOUND:                 0.750
REMARK SMILES CC1=CC=CC(C)(C)CC1=O
REMARK SMILES IDX 1 1 2 2 3 3 10 4 11 5 9 6 4 8 5 9 6 10 7 11 8 12
REMARK H PARENT
REMARK Flexibility Score: 80.00
ROOT
ATOM      1  C   UNL     1     143.192 139.514 112.355  1.00  0.00     0.048 C 
ATOM      2  C   UNL     1     142.255 140.012 113.430  1.00  0.00    -0.008 C 
ATOM      3  C   UNL     1     141.066 139.387 113.562  1.00  0.00     0.007 C 
ENDROOT
BRANCH   2   4
ATOM      4  C   UNL     1     142.750 141.103 114.306  1.00  0.00     0.159 C 
ATOM      5  O   UNL     1     143.968 141.429 114.242  1.00  0.00    -0.295 OA
BRANCH   4   6
ATOM      6  C   UNL     1     141.878 141.858 115.260  1.00  0.00     0.091 CG0
ATOM      7  G   UNL     1     141.202 140.952 116.314  1.00  0.00     0.000 G0
ENDBRANCH   4   6
ENDBRANCH   2   4
BRANCH   3   8
ATOM      8  C   UNL     1     139.966 139.629 114.526  1.00  0.00    -0.003 C 
ATOM      9  C   UNL     1     139.998 140.273 115.699  1.00  0.00    -0.020 C 
BRANCH   9  10
ATOM     10  C   UNL     1     141.198 140.951 116.318  1.00  0.00    -0.010 CG0
ATOM     11  C   UNL     1     142.154 139.891 116.912  1.00  0.00     0.016 C 
ATOM     12  C   UNL     1     140.704 141.849 117.475  1.00  0.00     0.016 C 
ATOM     13  G   UNL     1     141.885 141.853 115.269  1.00  0.00     0.000 G0
ENDBRANCH   9  10
ENDBRANCH   3   8
TORSDOF 0
ENDMDL
