MODEL 1
REMARK VINA RESULT:    14.324      0.000      0.000
REMARK INTER + INTRA:          20.710
REMARK INTER:                  19.768
REMARK INTRA:                   0.942
REMARK UNBOUND:                 0.942
REMARK SMILES C[C@H]1OC(=O)[C@H](C)[C@H]1C[C@@H](O)[C@](C)(O)[C@H]1CC[C@]2(O)C3=CC(=O)[C@@H]4C[C@@H](O)[C@H](O)C[C@]4(C)[C@@H]3CC[C@@]12C
REMARK SMILES IDX 12 1 13 2 10 3 9 4 8 5 7 6 6 7 4 8 2 9 3 10 5 11 1 12 11 13
REMARK SMILES IDX 15 15 16 16 36 17 17 18 18 19 35 20 37 21 20 22 34 23 33 24
REMARK SMILES IDX 21 25 31 26 22 27 24 28 30 29 32 30 23 31 25 32 28 33 26 34
REMARK SMILES IDX 19 35 29 37 27 39 14 41
REMARK H PARENT 11 14 19 36 29 38 27 40 14 42
REMARK Flexibility Score: inf
ROOT
ATOM      1  C   UNL     1       7.642 -33.824  14.138  1.00  0.00     0.091 C 
ATOM      2  C   UNL     1       8.797 -34.267  15.090  1.00  0.00     0.045 C 
ENDROOT
BRANCH   1   3
ATOM      3  C   UNL     1       8.336 -33.271  12.818  1.00  0.00     0.146 C 
BRANCH   3   4
ATOM      4  C   UNL     1       9.263 -34.339  12.142  1.00  0.00     0.043 C 
BRANCH   4   5
ATOM      5  C   UNL     1      10.752 -33.951  11.875  1.00  0.00     0.046 C 
ATOM      6  C   UNL     1      13.020 -35.125  12.022  1.00  0.00     0.020 C 
ATOM      7  C   UNL     1      11.752 -34.717  12.783  1.00  0.00     0.103 C 
ATOM      8  C   UNL     1      12.074 -33.677  13.797  1.00  0.00     0.309 C 
ATOM      9  C   UNL     1      11.125 -32.456  12.106  1.00  0.00     0.177 C 
ATOM     10  O   UNL     1      11.657 -32.414  13.418  1.00  0.00    -0.462 OA
ATOM     11  O   UNL     1      12.652 -33.906  14.891  1.00  0.00    -0.252 OA
ATOM     12  C   UNL     1      10.038 -31.402  11.876  1.00  0.00     0.053 C 
ENDBRANCH   4   5
ENDBRANCH   3   4
BRANCH   3  13
ATOM     13  O   UNL     1       7.397 -32.833  11.875  1.00  0.00    -0.390 OA
ATOM     14  H   UNL     1       6.640 -33.477  11.873  1.00  0.00     0.211 HD
ENDBRANCH   3  13
ENDBRANCH   1   3
BRANCH   1  15
ATOM     15  C   UNL     1       6.747 -32.732  14.879  1.00  0.00     0.032 C 
ATOM     16  C   UNL     1       5.877 -33.267  16.066  1.00  0.00     0.010 C 
ATOM     17  C   UNL     1       7.442 -31.440  15.489  1.00  0.00     0.006 C 
ATOM     18  C   UNL     1       6.038 -32.303  17.243  1.00  0.00     0.041 C 
ATOM     19  C   UNL     1       7.430 -31.722  17.014  1.00  0.00     0.092 C 
ATOM     20  C   UNL     1       8.908 -31.071  15.097  1.00  0.00     0.011 C 
ATOM     21  C   UNL     1       6.533 -30.220  15.102  1.00  0.00     0.015 C 
ATOM     22  C   UNL     1       7.866 -30.463  17.753  1.00  0.00    -0.031 C 
ATOM     23  C   UNL     1       9.458 -29.860  15.905  1.00  0.00     0.009 C 
ATOM     24  C   UNL     1       9.295 -30.017  17.441  1.00  0.00     0.025 C 
ATOM     25  C   UNL     1       7.021 -29.724  18.487  1.00  0.00     0.050 C 
ATOM     26  C   UNL     1       9.821 -28.845  18.376  1.00  0.00    -0.013 C 
ATOM     27  C   UNL     1       7.398 -28.417  19.029  1.00  0.00     0.159 C 
ATOM     28  C   UNL     1       8.720 -27.781  18.695  1.00  0.00     0.070 C 
ATOM     29  C   UNL     1      11.130 -28.146  17.851  1.00  0.00     0.042 C 
ATOM     30  C   UNL     1      10.207 -29.514  19.733  1.00  0.00     0.013 C 
ATOM     31  O   UNL     1       6.576 -27.794  19.752  1.00  0.00    -0.295 OA
ATOM     32  C   UNL     1       8.537 -26.736  17.584  1.00  0.00     0.047 C 
ATOM     33  C   UNL     1      10.971 -26.926  16.904  1.00  0.00     0.143 C 
ATOM     34  C   UNL     1       9.843 -25.973  17.330  1.00  0.00     0.143 C 
BRANCH  19  35
ATOM     35  O   UNL     1       8.362 -32.741  17.315  1.00  0.00    -0.385 OA
ATOM     36  H   UNL     1       8.560 -32.699  18.288  1.00  0.00     0.211 HD
ENDBRANCH  19  35
BRANCH  33  37
ATOM     37  O   UNL     1      10.791 -27.338  15.576  1.00  0.00    -0.390 OA
ATOM     38  H   UNL     1      11.196 -28.240  15.488  1.00  0.00     0.211 HD
ENDBRANCH  33  37
BRANCH  34  39
ATOM     39  O   UNL     1      10.237 -25.271  18.482  1.00  0.00    -0.390 OA
ATOM     40  H   UNL     1      11.124 -24.870  18.287  1.00  0.00     0.211 HD
ENDBRANCH  34  39
ENDBRANCH   1  15
BRANCH   1  41
ATOM     41  O   UNL     1       6.864 -34.963  13.848  1.00  0.00    -0.387 OA
ATOM     42  H   UNL     1       6.411 -35.252  14.680  1.00  0.00     0.211 HD
ENDBRANCH   1  41
TORSDOF 9
ENDMDL
MODEL 2
REMARK VINA RESULT:    16.855      1.804      6.432
REMARK INTER + INTRA:          24.202
REMARK INTER:                  12.905
REMARK INTRA:                  11.296
REMARK UNBOUND:                 0.942
REMARK SMILES C[C@H]1OC(=O)[C@H](C)[C@H]1C[C@@H](O)[C@](C)(O)[C@H]1CC[C@]2(O)C3=CC(=O)[C@@H]4C[C@@H](O)[C@H](O)C[C@]4(C)[C@@H]3CC[C@@]12C
REMARK SMILES IDX 12 1 13 2 10 3 9 4 8 5 7 6 6 7 4 8 2 9 3 10 5 11 1 12 11 13
REMARK SMILES IDX 15 15 16 16 36 17 17 18 18 19 35 20 37 21 20 22 34 23 33 24
REMARK SMILES IDX 21 25 31 26 22 27 24 28 30 29 32 30 23 31 25 32 28 33 26 34
REMARK SMILES IDX 19 35 29 37 27 39 14 41
REMARK H PARENT 11 14 19 36 29 38 27 40 14 42
REMARK Flexibility Score: inf
ROOT
ATOM      1  C   UNL     1       9.749 -27.880  18.517  1.00  0.00     0.091 C 
ATOM      2  C   UNL     1       8.524 -26.941  18.280  1.00  0.00     0.045 C 
ENDROOT
BRANCH   1   3
ATOM      3  C   UNL     1      10.690 -27.718  17.245  1.00  0.00     0.146 C 
BRANCH   3   4
ATOM      4  C   UNL     1       9.970 -28.131  15.916  1.00  0.00     0.043 C 
BRANCH   4   5
ATOM      5  C   UNL     1      10.716 -27.871  14.569  1.00  0.00     0.046 C 
ATOM      6  C   UNL     1      10.285 -28.365  12.096  1.00  0.00     0.020 C 
ATOM      7  C   UNL     1      10.439 -28.963  13.500  1.00  0.00     0.103 C 
ATOM      8  C   UNL     1      11.688 -29.767  13.582  1.00  0.00     0.309 C 
ATOM      9  C   UNL     1      12.271 -27.821  14.642  1.00  0.00     0.177 C 
ATOM     10  O   UNL     1      12.692 -29.125  14.284  1.00  0.00    -0.462 OA
ATOM     11  O   UNL     1      11.829 -30.914  13.083  1.00  0.00    -0.252 OA
ATOM     12  C   UNL     1      12.912 -27.331  15.944  1.00  0.00     0.053 C 
ENDBRANCH   4   5
ENDBRANCH   3   4
BRANCH   3  13
ATOM     13  O   UNL     1      11.166 -26.407  17.108  1.00  0.00    -0.390 OA
ATOM     14  H   UNL     1      11.368 -26.057  18.015  1.00  0.00     0.211 HD
ENDBRANCH   3  13
ENDBRANCH   1   3
BRANCH   1  15
ATOM     15  C   UNL     1       9.227 -29.372  18.724  1.00  0.00     0.032 C 
ATOM     16  C   UNL     1       7.844 -29.508  19.445  1.00  0.00     0.010 C 
ATOM     17  C   UNL     1       9.076 -30.327  17.463  1.00  0.00     0.006 C 
ATOM     18  C   UNL     1       6.998 -30.514  18.662  1.00  0.00     0.041 C 
ATOM     19  C   UNL     1       7.542 -30.378  17.243  1.00  0.00     0.092 C 
ATOM     20  C   UNL     1       9.728 -29.940  16.097  1.00  0.00     0.011 C 
ATOM     21  C   UNL     1       9.666 -31.719  17.885  1.00  0.00     0.015 C 
ATOM     22  C   UNL     1       7.228 -31.441  16.198  1.00  0.00    -0.031 C 
ATOM     23  C   UNL     1       9.349 -30.924  14.952  1.00  0.00     0.009 C 
ATOM     24  C   UNL     1       7.820 -31.153  14.816  1.00  0.00     0.025 C 
ATOM     25  C   UNL     1       6.624 -32.599  16.500  1.00  0.00     0.050 C 
ATOM     26  C   UNL     1       7.305 -32.139  13.681  1.00  0.00    -0.013 C 
ATOM     27  C   UNL     1       6.504 -33.691  15.531  1.00  0.00     0.159 C 
ATOM     28  C   UNL     1       7.154 -33.614  14.177  1.00  0.00     0.070 C 
ATOM     29  C   UNL     1       8.154 -32.085  12.356  1.00  0.00     0.042 C 
ATOM     30  C   UNL     1       5.876 -31.645  13.294  1.00  0.00     0.013 C 
ATOM     31  O   UNL     1       5.882 -34.736  15.861  1.00  0.00    -0.295 OA
ATOM     32  C   UNL     1       8.475 -34.397  14.180  1.00  0.00     0.047 C 
ATOM     33  C   UNL     1       9.368 -33.044  12.232  1.00  0.00     0.143 C 
ATOM     34  C   UNL     1       9.082 -34.455  12.773  1.00  0.00     0.143 C 
BRANCH  19  35
ATOM     35  O   UNL     1       7.092 -29.135  16.742  1.00  0.00    -0.385 OA
ATOM     36  H   UNL     1       6.278 -28.876  17.249  1.00  0.00     0.211 HD
ENDBRANCH  19  35
BRANCH  33  37
ATOM     37  O   UNL     1      10.504 -32.503  12.851  1.00  0.00    -0.390 OA
ATOM     38  H   UNL     1      11.236 -33.168  12.757  1.00  0.00     0.211 HD
ENDBRANCH  33  37
BRANCH  34  39
ATOM     39  O   UNL     1       8.218 -35.125  11.890  1.00  0.00    -0.390 OA
ATOM     40  H   UNL     1       7.290 -34.892  12.159  1.00  0.00     0.211 HD
ENDBRANCH  34  39
ENDBRANCH   1  15
BRANCH   1  41
ATOM     41  O   UNL     1      10.410 -27.438  19.681  1.00  0.00    -0.387 OA
ATOM     42  H   UNL     1      10.710 -26.506  19.535  1.00  0.00     0.211 HD
ENDBRANCH   1  41
TORSDOF 9
ENDMDL
