MODEL 1
REMARK VINA RESULT:    -3.925      0.000      0.000
REMARK INTER + INTRA:          -7.267
REMARK INTER:                  -6.220
REMARK INTRA:                  -1.047
REMARK UNBOUND:                -1.047
REMARK SMILES CCCCCCCCCCCC(=O)[O-]
REMARK SMILES IDX 7 1 8 2 9 3 10 4 11 5 12 6 13 7 14 8 6 9 5 10 4 11 3 12 2 13
REMARK SMILES IDX 1 14
REMARK H PARENT
REMARK Flexibility Score: inf
ROOT
ATOM      1  C   UNL     1     173.885 175.571 150.842  1.00  0.00     0.000 C 
ENDROOT
BRANCH   1   2
ATOM      2  C   UNL     1     174.798 176.802 150.731  1.00  0.00     0.000 C 
BRANCH   2   3
ATOM      3  C   UNL     1     174.160 178.068 151.324  1.00  0.00     0.000 C 
BRANCH   3   4
ATOM      4  C   UNL     1     174.331 178.104 152.851  1.00  0.00     0.006 C 
BRANCH   4   5
ATOM      5  C   UNL     1     175.681 177.526 153.298  1.00  0.00     0.053 C 
BRANCH   5   6
ATOM      6  C   UNL     1     175.509 176.383 154.252  1.00  0.00     0.041 C 
ATOM      7  O   UNL     1     174.389 175.820 154.369  1.00  0.00    -0.550 OA
ATOM      8  O   UNL     1     176.593 175.919 154.986  1.00  0.00    -0.550 OA
ENDBRANCH   5   6
ENDBRANCH   4   5
ENDBRANCH   3   4
ENDBRANCH   2   3
ENDBRANCH   1   2
BRANCH   1   9
ATOM      9  C   UNL     1     174.670 174.269 151.061  1.00  0.00     0.000 C 
BRANCH   9  10
ATOM     10  C   UNL     1     176.180 174.533 151.066  1.00  0.00    -0.000 C 
BRANCH  10  11
ATOM     11  C   UNL     1     176.957 173.286 150.616  1.00  0.00    -0.000 C 
BRANCH  11  12
ATOM     12  C   UNL     1     176.061 172.251 149.917  1.00  0.00    -0.000 C 
BRANCH  12  13
ATOM     13  C   UNL     1     176.510 170.807 150.183  1.00  0.00    -0.003 C 
ATOM     14  C   UNL     1     176.491 170.492 151.676  1.00  0.00     0.004 C 
ENDBRANCH  12  13
ENDBRANCH  11  12
ENDBRANCH  10  11
ENDBRANCH   9  10
ENDBRANCH   1   9
TORSDOF 10
ENDMDL
MODEL 2
REMARK VINA RESULT:    -3.870      1.995      4.971
REMARK INTER + INTRA:          -7.178
REMARK INTER:                  -5.980
REMARK INTRA:                  -1.198
REMARK UNBOUND:                -1.047
REMARK SMILES CCCCCCCCCCCC(=O)[O-]
REMARK SMILES IDX 7 1 8 2 9 3 10 4 11 5 12 6 13 7 14 8 6 9 5 10 4 11 3 12 2 13
REMARK SMILES IDX 1 14
REMARK H PARENT
REMARK Flexibility Score: inf
ROOT
ATOM      1  C   UNL     1     173.427 175.732 151.100  1.00  0.00     0.000 C 
ENDROOT
BRANCH   1   2
ATOM      2  C   UNL     1     174.423 174.562 151.135  1.00  0.00     0.000 C 
BRANCH   2   3
ATOM      3  C   UNL     1     175.871 175.010 150.887  1.00  0.00     0.000 C 
BRANCH   3   4
ATOM      4  C   UNL     1     176.833 173.814 150.949  1.00  0.00     0.006 C 
BRANCH   4   5
ATOM      5  C   UNL     1     176.185 172.580 151.593  1.00  0.00     0.053 C 
BRANCH   5   6
ATOM      6  C   UNL     1     176.981 172.079 152.761  1.00  0.00     0.041 C 
ATOM      7  O   UNL     1     177.597 172.890 153.501  1.00  0.00    -0.550 OA
ATOM      8  O   UNL     1     177.013 170.722 153.050  1.00  0.00    -0.550 OA
ENDBRANCH   5   6
ENDBRANCH   4   5
ENDBRANCH   3   4
ENDBRANCH   2   3
ENDBRANCH   1   2
BRANCH   1   9
ATOM      9  C   UNL     1     174.115 177.091 150.898  1.00  0.00     0.000 C 
BRANCH   9  10
ATOM     10  C   UNL     1     173.971 177.969 152.147  1.00  0.00    -0.000 C 
BRANCH  10  11
ATOM     11  C   UNL     1     175.319 178.125 152.867  1.00  0.00    -0.000 C 
BRANCH  11  12
ATOM     12  C   UNL     1     175.214 177.882 154.381  1.00  0.00    -0.000 C 
BRANCH  12  13
ATOM     13  C   UNL     1     175.936 176.602 154.826  1.00  0.00    -0.003 C 
ATOM     14  C   UNL     1     175.126 175.361 154.462  1.00  0.00     0.004 C 
ENDBRANCH  12  13
ENDBRANCH  11  12
ENDBRANCH  10  11
ENDBRANCH   9  10
ENDBRANCH   1   9
TORSDOF 10
ENDMDL
MODEL 3
REMARK VINA RESULT:    -3.862     10.417     12.386
REMARK INTER + INTRA:          -7.167
REMARK INTER:                  -6.389
REMARK INTRA:                  -0.778
REMARK UNBOUND:                -1.047
REMARK SMILES CCCCCCCCCCCC(=O)[O-]
REMARK SMILES IDX 7 1 8 2 9 3 10 4 11 5 12 6 13 7 14 8 6 9 5 10 4 11 3 12 2 13
REMARK SMILES IDX 1 14
REMARK H PARENT
REMARK Flexibility Score: inf
ROOT
ATOM      1  C   UNL     1     164.105 177.308 151.119  1.00  0.00     0.000 C 
ENDROOT
BRANCH   1   2
ATOM      2  C   UNL     1     165.444 178.003 150.827  1.00  0.00     0.000 C 
BRANCH   2   3
ATOM      3  C   UNL     1     166.645 177.245 151.414  1.00  0.00     0.000 C 
BRANCH   3   4
ATOM      4  C   UNL     1     167.752 177.075 150.362  1.00  0.00     0.006 C 
BRANCH   4   5
ATOM      5  C   UNL     1     167.268 176.298 149.130  1.00  0.00     0.053 C 
BRANCH   5   6
ATOM      6  C   UNL     1     166.942 174.873 149.462  1.00  0.00     0.041 C 
ATOM      7  O   UNL     1     165.784 174.424 149.256  1.00  0.00    -0.550 OA
ATOM      8  O   UNL     1     167.926 174.033 149.967  1.00  0.00    -0.550 OA
ENDBRANCH   5   6
ENDBRANCH   4   5
ENDBRANCH   3   4
ENDBRANCH   2   3
ENDBRANCH   1   2
BRANCH   1   9
ATOM      9  C   UNL     1     163.542 177.663 152.503  1.00  0.00     0.000 C 
BRANCH   9  10
ATOM     10  C   UNL     1     162.008 177.646 152.493  1.00  0.00    -0.000 C 
BRANCH  10  11
ATOM     11  C   UNL     1     161.466 177.984 151.096  1.00  0.00    -0.000 C 
BRANCH  11  12
ATOM     12  C   UNL     1     160.550 176.884 150.535  1.00  0.00    -0.000 C 
BRANCH  12  13
ATOM     13  C   UNL     1     160.745 175.535 151.242  1.00  0.00    -0.003 C 
ATOM     14  C   UNL     1     159.461 175.089 151.936  1.00  0.00     0.004 C 
ENDBRANCH  12  13
ENDBRANCH  11  12
ENDBRANCH  10  11
ENDBRANCH   9  10
ENDBRANCH   1   9
TORSDOF 10
ENDMDL
MODEL 4
REMARK VINA RESULT:    -3.833     11.894     13.584
REMARK INTER + INTRA:          -7.121
REMARK INTER:                  -6.516
REMARK INTRA:                  -0.605
REMARK UNBOUND:                -1.047
REMARK SMILES CCCCCCCCCCCC(=O)[O-]
REMARK SMILES IDX 7 1 8 2 9 3 10 4 11 5 12 6 13 7 14 8 6 9 5 10 4 11 3 12 2 13
REMARK SMILES IDX 1 14
REMARK H PARENT
REMARK Flexibility Score: inf
ROOT
ATOM      1  C   UNL     1     162.377 176.679 150.834  1.00  0.00     0.000 C 
ENDROOT
BRANCH   1   2
ATOM      2  C   UNL     1     160.909 177.074 150.607  1.00  0.00     0.000 C 
BRANCH   2   3
ATOM      3  C   UNL     1     160.113 177.172 151.918  1.00  0.00     0.000 C 
BRANCH   3   4
ATOM      4  C   UNL     1     160.103 175.823 152.654  1.00  0.00     0.006 C 
BRANCH   4   5
ATOM      5  C   UNL     1     159.329 174.745 151.882  1.00  0.00     0.053 C 
BRANCH   5   6
ATOM      6  C   UNL     1     159.909 173.380 152.099  1.00  0.00     0.041 C 
ATOM      7  O   UNL     1     160.987 173.054 151.535  1.00  0.00    -0.550 OA
ATOM      8  O   UNL     1     159.278 172.483 152.950  1.00  0.00    -0.550 OA
ENDBRANCH   5   6
ENDBRANCH   4   5
ENDBRANCH   3   4
ENDBRANCH   2   3
ENDBRANCH   1   2
BRANCH   1   9
ATOM      9  C   UNL     1     163.177 177.769 151.565  1.00  0.00     0.000 C 
BRANCH   9  10
ATOM     10  C   UNL     1     164.488 178.073 150.831  1.00  0.00    -0.000 C 
BRANCH  10  11
ATOM     11  C   UNL     1     165.690 177.945 151.777  1.00  0.00    -0.000 C 
BRANCH  11  12
ATOM     12  C   UNL     1     166.759 176.974 151.249  1.00  0.00    -0.000 C 
BRANCH  12  13
ATOM     13  C   UNL     1     166.983 177.109 149.736  1.00  0.00    -0.003 C 
ATOM     14  C   UNL     1     167.225 175.746 149.093  1.00  0.00     0.004 C 
ENDBRANCH  12  13
ENDBRANCH  11  12
ENDBRANCH  10  11
ENDBRANCH   9  10
ENDBRANCH   1   9
TORSDOF 10
ENDMDL
MODEL 5
REMARK VINA RESULT:    -3.823      2.533      3.208
REMARK INTER + INTRA:          -7.105
REMARK INTER:                  -6.345
REMARK INTRA:                  -0.759
REMARK UNBOUND:                -1.047
REMARK SMILES CCCCCCCCCCCC(=O)[O-]
REMARK SMILES IDX 7 1 8 2 9 3 10 4 11 5 12 6 13 7 14 8 6 9 5 10 4 11 3 12 2 13
REMARK SMILES IDX 1 14
REMARK H PARENT
REMARK Flexibility Score: inf
ROOT
ATOM      1  C   UNL     1     173.652 175.397 150.820  1.00  0.00     0.000 C 
ENDROOT
BRANCH   1   2
ATOM      2  C   UNL     1     174.540 176.641 150.656  1.00  0.00     0.000 C 
BRANCH   2   3
ATOM      3  C   UNL     1     173.806 177.943 151.015  1.00  0.00     0.000 C 
BRANCH   3   4
ATOM      4  C   UNL     1     172.851 177.724 152.199  1.00  0.00     0.006 C 
BRANCH   4   5
ATOM      5  C   UNL     1     171.408 178.125 151.862  1.00  0.00     0.053 C 
BRANCH   5   6
ATOM      6  C   UNL     1     170.415 177.161 152.437  1.00  0.00     0.041 C 
ATOM      7  O   UNL     1     170.647 175.924 152.414  1.00  0.00    -0.550 OA
ATOM      8  O   UNL     1     169.249 177.631 153.028  1.00  0.00    -0.550 OA
ENDBRANCH   5   6
ENDBRANCH   4   5
ENDBRANCH   3   4
ENDBRANCH   2   3
ENDBRANCH   1   2
BRANCH   1   9
ATOM      9  C   UNL     1     174.453 174.147 151.219  1.00  0.00     0.000 C 
BRANCH   9  10
ATOM     10  C   UNL     1     175.937 174.483 151.406  1.00  0.00    -0.000 C 
BRANCH  10  11
ATOM     11  C   UNL     1     176.818 173.593 150.516  1.00  0.00    -0.000 C 
BRANCH  11  12
ATOM     12  C   UNL     1     176.485 172.099 150.658  1.00  0.00    -0.000 C 
BRANCH  12  13
ATOM     13  C   UNL     1     176.142 171.440 149.314  1.00  0.00    -0.003 C 
ATOM     14  C   UNL     1     174.676 171.019 149.268  1.00  0.00     0.004 C 
ENDBRANCH  12  13
ENDBRANCH  11  12
ENDBRANCH  10  11
ENDBRANCH   9  10
ENDBRANCH   1   9
TORSDOF 10
ENDMDL
MODEL 6
REMARK VINA RESULT:    -3.811      2.593      5.774
REMARK INTER + INTRA:          -7.085
REMARK INTER:                  -6.083
REMARK INTRA:                  -1.002
REMARK UNBOUND:                -1.047
REMARK SMILES CCCCCCCCCCCC(=O)[O-]
REMARK SMILES IDX 7 1 8 2 9 3 10 4 11 5 12 6 13 7 14 8 6 9 5 10 4 11 3 12 2 13
REMARK SMILES IDX 1 14
REMARK H PARENT
REMARK Flexibility Score: inf
ROOT
ATOM      1  C   UNL     1     174.797 174.593 151.452  1.00  0.00     0.000 C 
ENDROOT
BRANCH   1   2
ATOM      2  C   UNL     1     176.295 174.730 151.141  1.00  0.00     0.000 C 
BRANCH   2   3
ATOM      3  C   UNL     1     176.860 173.508 150.399  1.00  0.00     0.000 C 
BRANCH   3   4
ATOM      4  C   UNL     1     175.849 172.351 150.401  1.00  0.00     0.006 C 
BRANCH   4   5
ATOM      5  C   UNL     1     176.525 170.989 150.196  1.00  0.00     0.053 C 
BRANCH   5   6
ATOM      6  C   UNL     1     176.607 170.210 151.474  1.00  0.00     0.041 C 
ATOM      7  O   UNL     1     176.368 168.974 151.478  1.00  0.00    -0.550 OA
ATOM      8  O   UNL     1     176.981 170.842 152.652  1.00  0.00    -0.550 OA
ENDBRANCH   5   6
ENDBRANCH   4   5
ENDBRANCH   3   4
ENDBRANCH   2   3
ENDBRANCH   1   2
BRANCH   1   9
ATOM      9  C   UNL     1     173.953 175.703 150.806  1.00  0.00     0.000 C 
BRANCH   9  10
ATOM     10  C   UNL     1     174.824 176.913 150.443  1.00  0.00    -0.000 C 
BRANCH  10  11
ATOM     11  C   UNL     1     174.501 178.112 151.346  1.00  0.00    -0.000 C 
BRANCH  11  12
ATOM     12  C   UNL     1     175.336 178.124 152.637  1.00  0.00    -0.000 C 
BRANCH  12  13
ATOM     13  C   UNL     1     174.500 177.808 153.885  1.00  0.00    -0.003 C 
ATOM     14  C   UNL     1     175.010 176.550 154.583  1.00  0.00     0.004 C 
ENDBRANCH  12  13
ENDBRANCH  11  12
ENDBRANCH  10  11
ENDBRANCH   9  10
ENDBRANCH   1   9
TORSDOF 10
ENDMDL
MODEL 7
REMARK VINA RESULT:    -3.793      1.997      3.247
REMARK INTER + INTRA:          -7.058
REMARK INTER:                  -5.570
REMARK INTRA:                  -1.488
REMARK UNBOUND:                -1.047
REMARK SMILES CCCCCCCCCCCC(=O)[O-]
REMARK SMILES IDX 7 1 8 2 9 3 10 4 11 5 12 6 13 7 14 8 6 9 5 10 4 11 3 12 2 13
REMARK SMILES IDX 1 14
REMARK H PARENT
REMARK Flexibility Score: inf
ROOT
ATOM      1  C   UNL     1     175.295 178.125 151.444  1.00  0.00     0.000 C 
ENDROOT
BRANCH   1   2
ATOM      2  C   UNL     1     174.832 177.981 152.903  1.00  0.00     0.000 C 
BRANCH   2   3
ATOM      3  C   UNL     1     175.814 177.165 153.758  1.00  0.00     0.000 C 
BRANCH   3   4
ATOM      4  C   UNL     1     175.217 176.866 155.142  1.00  0.00     0.006 C 
BRANCH   4   5
ATOM      5  C   UNL     1     175.014 175.362 155.374  1.00  0.00     0.053 C 
BRANCH   5   6
ATOM      6  C   UNL     1     176.191 174.741 156.062  1.00  0.00     0.041 C 
ATOM      7  O   UNL     1     176.315 174.833 157.312  1.00  0.00    -0.550 OA
ATOM      8  O   UNL     1     177.132 174.031 155.327  1.00  0.00    -0.550 OA
ENDBRANCH   5   6
ENDBRANCH   4   5
ENDBRANCH   3   4
ENDBRANCH   2   3
ENDBRANCH   1   2
BRANCH   1   9
ATOM      9  C   UNL     1     174.255 177.609 150.438  1.00  0.00     0.000 C 
BRANCH   9  10
ATOM     10  C   UNL     1     173.293 176.617 151.104  1.00  0.00    -0.000 C 
BRANCH  10  11
ATOM     11  C   UNL     1     173.673 175.169 150.759  1.00  0.00    -0.000 C 
BRANCH  11  12
ATOM     12  C   UNL     1     173.936 174.312 152.008  1.00  0.00    -0.000 C 
BRANCH  12  13
ATOM     13  C   UNL     1     175.386 173.814 152.088  1.00  0.00    -0.003 C 
ATOM     14  C   UNL     1     176.263 174.510 151.051  1.00  0.00     0.004 C 
ENDBRANCH  12  13
ENDBRANCH  11  12
ENDBRANCH  10  11
ENDBRANCH   9  10
ENDBRANCH   1   9
TORSDOF 10
ENDMDL
MODEL 8
REMARK VINA RESULT:    -1.193     11.088     12.617
REMARK INTER + INTRA:          -2.937
REMARK INTER:                  -2.218
REMARK INTRA:                  -0.719
REMARK UNBOUND:                -1.047
REMARK SMILES CCCCCCCCCCCC(=O)[O-]
REMARK SMILES IDX 7 1 8 2 9 3 10 4 11 5 12 6 13 7 14 8 6 9 5 10 4 11 3 12 2 13
REMARK SMILES IDX 1 14
REMARK H PARENT
REMARK Flexibility Score: inf
ROOT
ATOM      1  C   UNL     1     163.433 176.486 151.426  1.00  0.00     0.000 C 
ENDROOT
BRANCH   1   2
ATOM      2  C   UNL     1     162.098 176.134 150.751  1.00  0.00     0.000 C 
BRANCH   2   3
ATOM      3  C   UNL     1     161.141 177.333 150.671  1.00  0.00     0.000 C 
BRANCH   3   4
ATOM      4  C   UNL     1     160.097 177.276 151.796  1.00  0.00     0.006 C 
BRANCH   4   5
ATOM      5  C   UNL     1     160.501 178.125 153.009  1.00  0.00     0.053 C 
BRANCH   5   6
ATOM      6  C   UNL     1     160.675 177.289 154.241  1.00  0.00     0.041 C 
ATOM      7  O   UNL     1     161.280 177.755 155.242  1.00  0.00    -0.550 OA
ATOM      8  O   UNL     1     160.139 176.009 154.295  1.00  0.00    -0.550 OA
ENDBRANCH   5   6
ENDBRANCH   4   5
ENDBRANCH   3   4
ENDBRANCH   2   3
ENDBRANCH   1   2
BRANCH   1   9
ATOM      9  C   UNL     1     163.897 177.917 151.113  1.00  0.00     0.000 C 
BRANCH   9  10
ATOM     10  C   UNL     1     165.384 177.942 150.737  1.00  0.00    -0.000 C 
BRANCH  10  11
ATOM     11  C   UNL     1     165.884 176.534 150.382  1.00  0.00    -0.000 C 
BRANCH  11  12
ATOM     12  C   UNL     1     167.224 176.554 149.630  1.00  0.00    -0.000 C 
BRANCH  12  13
ATOM     13  C   UNL     1     168.392 177.013 150.516  1.00  0.00    -0.003 C 
ATOM     14  C   UNL     1     168.723 175.964 151.574  1.00  0.00     0.004 C 
ENDBRANCH  12  13
ENDBRANCH  11  12
ENDBRANCH  10  11
ENDBRANCH   9  10
ENDBRANCH   1   9
TORSDOF 10
ENDMDL
