MODEL 1
REMARK VINA RESULT:    -4.462      0.000      0.000
REMARK INTER + INTRA:          -9.966
REMARK INTER:                  -8.114
REMARK INTRA:                  -1.852
REMARK UNBOUND:                -1.852
REMARK SMILES CCCCCCCCCCCCCC[C@H](C)C(=O)[O-]
REMARK SMILES IDX 9 1 10 2 11 3 12 4 13 5 14 6 15 7 16 8 17 9 18 10 19 11 8 12
REMARK SMILES IDX 7 13 6 14 5 15 4 16 3 17 2 18 1 19
REMARK H PARENT
REMARK Flexibility Score: inf
ROOT
ATOM      1  C   UNL     1       5.795   1.218  13.894  1.00  0.00     0.000 C 
ENDROOT
BRANCH   1   2
ATOM      2  C   UNL     1       6.806   0.285  13.205  1.00  0.00     0.000 C 
BRANCH   2   3
ATOM      3  C   UNL     1       6.500  -1.201  13.444  1.00  0.00     0.000 C 
BRANCH   3   4
ATOM      4  C   UNL     1       5.302  -1.417  14.381  1.00  0.00     0.000 C 
BRANCH   4   5
ATOM      5  C   UNL     1       5.767  -1.850  15.775  1.00  0.00     0.001 C 
BRANCH   5   6
ATOM      6  C   UNL     1       4.889  -1.221  16.870  1.00  0.00     0.009 C 
BRANCH   6   7
ATOM      7  C   UNL     1       5.720  -0.424  17.897  1.00  0.00     0.032 C 
ATOM      8  C   UNL     1       6.443  -1.370  18.859  1.00  0.00     0.014 C 
BRANCH   7   9
ATOM      9  C   UNL     1       4.861   0.539  18.673  1.00  0.00     0.044 C 
ATOM     10  O   UNL     1       4.526   1.645  18.173  1.00  0.00    -0.550 OA
ATOM     11  O   UNL     1       4.432   0.208  19.952  1.00  0.00    -0.550 OA
ENDBRANCH   7   9
ENDBRANCH   6   7
ENDBRANCH   5   6
ENDBRANCH   4   5
ENDBRANCH   3   4
ENDBRANCH   2   3
ENDBRANCH   1   2
BRANCH   1  12
ATOM     12  C   UNL     1       4.979   2.046  12.877  1.00  0.00     0.000 C 
BRANCH  12  13
ATOM     13  C   UNL     1       4.495   3.397  13.432  1.00  0.00    -0.000 C 
BRANCH  13  14
ATOM     14  C   UNL     1       4.081   3.319  14.911  1.00  0.00    -0.000 C 
BRANCH  14  15
ATOM     15  C   UNL     1       2.639   2.817  15.098  1.00  0.00    -0.000 C 
BRANCH  15  16
ATOM     16  C   UNL     1       2.582   1.372  15.620  1.00  0.00    -0.000 C 
BRANCH  16  17
ATOM     17  C   UNL     1       2.265   0.348  14.515  1.00  0.00    -0.000 C 
BRANCH  17  18
ATOM     18  C   UNL     1       1.203  -0.704  14.885  1.00  0.00    -0.003 C 
ATOM     19  C   UNL     1       1.765  -2.123  14.955  1.00  0.00     0.004 C 
ENDBRANCH  17  18
ENDBRANCH  16  17
ENDBRANCH  15  16
ENDBRANCH  14  15
ENDBRANCH  13  14
ENDBRANCH  12  13
ENDBRANCH   1  12
TORSDOF 14
ENDMDL
MODEL 2
REMARK VINA RESULT:    -4.222      1.085      1.434
REMARK INTER + INTRA:          -9.530
REMARK INTER:                  -7.402
REMARK INTRA:                  -2.128
REMARK UNBOUND:                -1.852
REMARK SMILES CCCCCCCCCCCCCC[C@H](C)C(=O)[O-]
REMARK SMILES IDX 9 1 10 2 11 3 12 4 13 5 14 6 15 7 16 8 17 9 18 10 19 11 8 12
REMARK SMILES IDX 7 13 6 14 5 15 4 16 3 17 2 18 1 19
REMARK H PARENT
REMARK Flexibility Score: inf
ROOT
ATOM      1  C   UNL     1       5.755   1.877  13.615  1.00  0.00     0.000 C 
ENDROOT
BRANCH   1   2
ATOM      2  C   UNL     1       5.260   0.622  12.875  1.00  0.00     0.000 C 
BRANCH   2   3
ATOM      3  C   UNL     1       6.238  -0.558  12.988  1.00  0.00     0.000 C 
BRANCH   3   4
ATOM      4  C   UNL     1       5.780  -1.613  14.005  1.00  0.00     0.000 C 
BRANCH   4   5
ATOM      5  C   UNL     1       6.477  -1.412  15.356  1.00  0.00     0.001 C 
BRANCH   5   6
ATOM      6  C   UNL     1       5.495  -1.619  16.520  1.00  0.00     0.009 C 
BRANCH   6   7
ATOM      7  C   UNL     1       5.317  -0.342  17.367  1.00  0.00     0.032 C 
ATOM      8  C   UNL     1       6.230   0.776  16.857  1.00  0.00     0.014 C 
BRANCH   7   9
ATOM      9  C   UNL     1       5.590  -0.604  18.824  1.00  0.00     0.044 C 
ATOM     10  O   UNL     1       6.550  -1.340  19.173  1.00  0.00    -0.550 OA
ATOM     11  O   UNL     1       4.779  -0.031  19.794  1.00  0.00    -0.550 OA
ENDBRANCH   7   9
ENDBRANCH   6   7
ENDBRANCH   5   6
ENDBRANCH   4   5
ENDBRANCH   3   4
ENDBRANCH   2   3
ENDBRANCH   1   2
BRANCH   1  12
ATOM     12  C   UNL     1       4.945   3.135  13.234  1.00  0.00     0.000 C 
BRANCH  12  13
ATOM     13  C   UNL     1       3.590   3.235  13.957  1.00  0.00    -0.000 C 
BRANCH  13  14
ATOM     14  C   UNL     1       3.719   3.103  15.484  1.00  0.00    -0.000 C 
BRANCH  14  15
ATOM     15  C   UNL     1       2.803   2.012  16.064  1.00  0.00    -0.000 C 
BRANCH  15  16
ATOM     16  C   UNL     1       2.820   0.721  15.227  1.00  0.00    -0.000 C 
BRANCH  16  17
ATOM     17  C   UNL     1       1.428   0.081  15.088  1.00  0.00    -0.000 C 
BRANCH  17  18
ATOM     18  C   UNL     1       1.417  -1.459  15.078  1.00  0.00    -0.003 C 
ATOM     19  C   UNL     1       2.347  -2.058  14.025  1.00  0.00     0.004 C 
ENDBRANCH  17  18
ENDBRANCH  16  17
ENDBRANCH  15  16
ENDBRANCH  14  15
ENDBRANCH  13  14
ENDBRANCH  12  13
ENDBRANCH   1  12
TORSDOF 14
ENDMDL
MODEL 3
REMARK VINA RESULT:    -4.171      2.143      4.375
REMARK INTER + INTRA:          -9.436
REMARK INTER:                  -7.385
REMARK INTRA:                  -2.051
REMARK UNBOUND:                -1.852
REMARK SMILES CCCCCCCCCCCCCC[C@H](C)C(=O)[O-]
REMARK SMILES IDX 9 1 10 2 11 3 12 4 13 5 14 6 15 7 16 8 17 9 18 10 19 11 8 12
REMARK SMILES IDX 7 13 6 14 5 15 4 16 3 17 2 18 1 19
REMARK H PARENT
REMARK Flexibility Score: inf
ROOT
ATOM      1  C   UNL     1       5.421   0.809  17.924  1.00  0.00     0.000 C 
ENDROOT
BRANCH   1   2
ATOM      2  C   UNL     1       5.262  -0.422  18.833  1.00  0.00     0.000 C 
BRANCH   2   3
ATOM      3  C   UNL     1       5.430  -1.747  18.072  1.00  0.00     0.000 C 
BRANCH   3   4
ATOM      4  C   UNL     1       6.073  -1.559  16.690  1.00  0.00     0.000 C 
BRANCH   4   5
ATOM      5  C   UNL     1       5.138  -2.047  15.578  1.00  0.00     0.001 C 
BRANCH   5   6
ATOM      6  C   UNL     1       3.680  -1.659  15.873  1.00  0.00     0.009 C 
BRANCH   6   7
ATOM      7  C   UNL     1       2.770  -1.830  14.640  1.00  0.00     0.032 C 
ATOM      8  C   UNL     1       3.604  -2.123  13.389  1.00  0.00     0.014 C 
BRANCH   7   9
ATOM      9  C   UNL     1       1.915  -0.612  14.412  1.00  0.00     0.044 C 
ATOM     10  O   UNL     1       2.291   0.298  13.627  1.00  0.00    -0.550 OA
ATOM     11  O   UNL     1       0.699  -0.487  15.072  1.00  0.00    -0.550 OA
ENDBRANCH   7   9
ENDBRANCH   6   7
ENDBRANCH   5   6
ENDBRANCH   4   5
ENDBRANCH   3   4
ENDBRANCH   2   3
ENDBRANCH   1   2
BRANCH   1  12
ATOM     12  C   UNL     1       4.115   1.626  17.816  1.00  0.00     0.000 C 
BRANCH  12  13
ATOM     13  C   UNL     1       3.706   1.944  16.368  1.00  0.00    -0.000 C 
BRANCH  13  14
ATOM     14  C   UNL     1       4.359   3.231  15.834  1.00  0.00    -0.000 C 
BRANCH  14  15
ATOM     15  C   UNL     1       3.529   3.902  14.727  1.00  0.00    -0.000 C 
BRANCH  15  16
ATOM     16  C   UNL     1       3.929   3.425  13.320  1.00  0.00    -0.000 C 
BRANCH  16  17
ATOM     17  C   UNL     1       5.354   2.845  13.268  1.00  0.00    -0.000 C 
BRANCH  17  18
ATOM     18  C   UNL     1       5.434   1.339  12.959  1.00  0.00    -0.003 C 
ATOM     19  C   UNL     1       6.604   0.646  13.655  1.00  0.00     0.004 C 
ENDBRANCH  17  18
ENDBRANCH  16  17
ENDBRANCH  15  16
ENDBRANCH  14  15
ENDBRANCH  13  14
ENDBRANCH  12  13
ENDBRANCH   1  12
TORSDOF 14
ENDMDL
MODEL 4
REMARK VINA RESULT:    -4.106      1.009      2.916
REMARK INTER + INTRA:          -9.318
REMARK INTER:                  -7.576
REMARK INTRA:                  -1.742
REMARK UNBOUND:                -1.852
REMARK SMILES CCCCCCCCCCCCCC[C@H](C)C(=O)[O-]
REMARK SMILES IDX 9 1 10 2 11 3 12 4 13 5 14 6 15 7 16 8 17 9 18 10 19 11 8 12
REMARK SMILES IDX 7 13 6 14 5 15 4 16 3 17 2 18 1 19
REMARK H PARENT
REMARK Flexibility Score: inf
ROOT
ATOM      1  C   UNL     1       3.736  -0.397  13.077  1.00  0.00     0.000 C 
ENDROOT
BRANCH   1   2
ATOM      2  C   UNL     1       5.258  -0.589  12.958  1.00  0.00     0.000 C 
BRANCH   2   3
ATOM      3  C   UNL     1       5.724  -1.965  13.459  1.00  0.00     0.000 C 
BRANCH   3   4
ATOM      4  C   UNL     1       6.596  -1.873  14.720  1.00  0.00     0.000 C 
BRANCH   4   5
ATOM      5  C   UNL     1       5.731  -1.862  15.985  1.00  0.00     0.001 C 
BRANCH   5   6
ATOM      6  C   UNL     1       5.561  -0.433  16.526  1.00  0.00     0.009 C 
BRANCH   6   7
ATOM      7  C   UNL     1       6.019  -0.307  17.994  1.00  0.00     0.032 C 
ATOM      8  C   UNL     1       6.226  -1.691  18.616  1.00  0.00     0.014 C 
BRANCH   7   9
ATOM      9  C   UNL     1       5.032   0.482  18.813  1.00  0.00     0.044 C 
ATOM     10  O   UNL     1       4.499   1.522  18.346  1.00  0.00    -0.550 OA
ATOM     11  O   UNL     1       4.706   0.062  20.097  1.00  0.00    -0.550 OA
ENDBRANCH   7   9
ENDBRANCH   6   7
ENDBRANCH   5   6
ENDBRANCH   4   5
ENDBRANCH   3   4
ENDBRANCH   2   3
ENDBRANCH   1   2
BRANCH   1  12
ATOM     12  C   UNL     1       3.061  -1.556  13.842  1.00  0.00     0.000 C 
BRANCH  12  13
ATOM     13  C   UNL     1       2.033  -1.087  14.886  1.00  0.00    -0.000 C 
BRANCH  13  14
ATOM     14  C   UNL     1       1.678   0.403  14.744  1.00  0.00    -0.000 C 
BRANCH  14  15
ATOM     15  C   UNL     1       2.285   1.267  15.862  1.00  0.00    -0.000 C 
BRANCH  15  16
ATOM     16  C   UNL     1       3.397   2.198  15.350  1.00  0.00    -0.000 C 
BRANCH  16  17
ATOM     17  C   UNL     1       2.851   3.487  14.711  1.00  0.00    -0.000 C 
BRANCH  17  18
ATOM     18  C   UNL     1       3.693   4.047  13.550  1.00  0.00    -0.003 C 
ATOM     19  C   UNL     1       4.848   3.129  13.150  1.00  0.00     0.004 C 
ENDBRANCH  17  18
ENDBRANCH  16  17
ENDBRANCH  15  16
ENDBRANCH  14  15
ENDBRANCH  13  14
ENDBRANCH  12  13
ENDBRANCH   1  12
TORSDOF 14
ENDMDL
MODEL 5
REMARK VINA RESULT:    -4.002      1.940      4.762
REMARK INTER + INTRA:          -9.129
REMARK INTER:                  -7.878
REMARK INTRA:                  -1.250
REMARK UNBOUND:                -1.852
REMARK SMILES CCCCCCCCCCCCCC[C@H](C)C(=O)[O-]
REMARK SMILES IDX 9 1 10 2 11 3 12 4 13 5 14 6 15 7 16 8 17 9 18 10 19 11 8 12
REMARK SMILES IDX 7 13 6 14 5 15 4 16 3 17 2 18 1 19
REMARK H PARENT
REMARK Flexibility Score: inf
ROOT
ATOM      1  C   UNL     1       4.244   3.491  12.978  1.00  0.00     0.000 C 
ENDROOT
BRANCH   1   2
ATOM      2  C   UNL     1       3.530   3.499  14.340  1.00  0.00     0.000 C 
BRANCH   2   3
ATOM      3  C   UNL     1       4.510   3.552  15.523  1.00  0.00     0.000 C 
BRANCH   3   4
ATOM      4  C   UNL     1       4.231   2.465  16.573  1.00  0.00     0.000 C 
BRANCH   4   5
ATOM      5  C   UNL     1       3.751   1.170  15.908  1.00  0.00     0.001 C 
BRANCH   5   6
ATOM      6  C   UNL     1       2.217   1.088  15.903  1.00  0.00     0.009 C 
BRANCH   6   7
ATOM      7  C   UNL     1       1.684   0.208  14.753  1.00  0.00     0.032 C 
ATOM      8  C   UNL     1       0.190  -0.078  14.939  1.00  0.00     0.014 C 
BRANCH   7   9
ATOM      9  C   UNL     1       2.445  -1.087  14.651  1.00  0.00     0.044 C 
ATOM     10  O   UNL     1       3.145  -1.341  13.635  1.00  0.00    -0.550 OA
ATOM     11  O   UNL     1       2.377  -2.013  15.684  1.00  0.00    -0.550 OA
ENDBRANCH   7   9
ENDBRANCH   6   7
ENDBRANCH   5   6
ENDBRANCH   4   5
ENDBRANCH   3   4
ENDBRANCH   2   3
ENDBRANCH   1   2
BRANCH   1  12
ATOM     12  C   UNL     1       5.597   2.750  13.033  1.00  0.00     0.000 C 
BRANCH  12  13
ATOM     13  C   UNL     1       5.460   1.217  13.016  1.00  0.00    -0.000 C 
BRANCH  13  14
ATOM     14  C   UNL     1       6.474   0.519  13.938  1.00  0.00    -0.000 C 
BRANCH  14  15
ATOM     15  C   UNL     1       6.531  -1.001  13.714  1.00  0.00    -0.000 C 
BRANCH  15  16
ATOM     16  C   UNL     1       6.278  -1.797  15.006  1.00  0.00    -0.000 C 
BRANCH  16  17
ATOM     17  C   UNL     1       5.951  -0.895  16.209  1.00  0.00    -0.000 C 
BRANCH  17  18
ATOM     18  C   UNL     1       5.467  -1.638  17.468  1.00  0.00    -0.003 C 
ATOM     19  C   UNL     1       6.199  -1.205  18.738  1.00  0.00     0.004 C 
ENDBRANCH  17  18
ENDBRANCH  16  17
ENDBRANCH  15  16
ENDBRANCH  14  15
ENDBRANCH  13  14
ENDBRANCH  12  13
ENDBRANCH   1  12
TORSDOF 14
ENDMDL
MODEL 6
REMARK VINA RESULT:    -3.983      2.035      4.949
REMARK INTER + INTRA:          -9.094
REMARK INTER:                  -7.188
REMARK INTRA:                  -1.907
REMARK UNBOUND:                -1.852
REMARK SMILES CCCCCCCCCCCCCC[C@H](C)C(=O)[O-]
REMARK SMILES IDX 9 1 10 2 11 3 12 4 13 5 14 6 15 7 16 8 17 9 18 10 19 11 8 12
REMARK SMILES IDX 7 13 6 14 5 15 4 16 3 17 2 18 1 19
REMARK H PARENT
REMARK Flexibility Score: inf
ROOT
ATOM      1  C   UNL     1       3.831   2.515  16.433  1.00  0.00     0.000 C 
ENDROOT
BRANCH   1   2
ATOM      2  C   UNL     1       4.521   3.411  15.390  1.00  0.00     0.000 C 
BRANCH   2   3
ATOM      3  C   UNL     1       4.213   2.986  13.946  1.00  0.00     0.000 C 
BRANCH   3   4
ATOM      4  C   UNL     1       5.310   2.096  13.343  1.00  0.00     0.000 C 
BRANCH   4   5
ATOM      5  C   UNL     1       4.733   0.755  12.875  1.00  0.00     0.001 C 
BRANCH   5   6
ATOM      6  C   UNL     1       3.289   0.572  13.368  1.00  0.00     0.009 C 
BRANCH   6   7
ATOM      7  C   UNL     1       3.141  -0.651  14.297  1.00  0.00     0.032 C 
ATOM      8  C   UNL     1       3.452  -1.945  13.540  1.00  0.00     0.014 C 
BRANCH   7   9
ATOM      9  C   UNL     1       1.761  -0.725  14.894  1.00  0.00     0.044 C 
ATOM     10  O   UNL     1       1.198  -1.838  15.071  1.00  0.00    -0.550 OA
ATOM     11  O   UNL     1       1.098   0.441  15.254  1.00  0.00    -0.550 OA
ENDBRANCH   7   9
ENDBRANCH   6   7
ENDBRANCH   5   6
ENDBRANCH   4   5
ENDBRANCH   3   4
ENDBRANCH   2   3
ENDBRANCH   1   2
BRANCH   1  12
ATOM     12  C   UNL     1       4.847   1.754  17.311  1.00  0.00     0.000 C 
BRANCH  12  13
ATOM     13  C   UNL     1       4.254   1.241  18.635  1.00  0.00    -0.000 C 
BRANCH  13  14
ATOM     14  C   UNL     1       5.108   0.137  19.281  1.00  0.00    -0.000 C 
BRANCH  14  15
ATOM     15  C   UNL     1       5.977  -0.615  18.259  1.00  0.00    -0.000 C 
BRANCH  15  16
ATOM     16  C   UNL     1       5.141  -1.475  17.295  1.00  0.00    -0.000 C 
BRANCH  16  17
ATOM     17  C   UNL     1       5.988  -2.124  16.185  1.00  0.00    -0.000 C 
BRANCH  17  18
ATOM     18  C   UNL     1       6.565  -1.143  15.148  1.00  0.00    -0.003 C 
ATOM     19  C   UNL     1       7.140  -1.842  13.917  1.00  0.00     0.004 C 
ENDBRANCH  17  18
ENDBRANCH  16  17
ENDBRANCH  15  16
ENDBRANCH  14  15
ENDBRANCH  13  14
ENDBRANCH  12  13
ENDBRANCH   1  12
TORSDOF 14
ENDMDL
MODEL 7
REMARK VINA RESULT:    -3.903      1.428      2.727
REMARK INTER + INTRA:          -8.950
REMARK INTER:                  -6.793
REMARK INTRA:                  -2.157
REMARK UNBOUND:                -1.852
REMARK SMILES CCCCCCCCCCCCCC[C@H](C)C(=O)[O-]
REMARK SMILES IDX 9 1 10 2 11 3 12 4 13 5 14 6 15 7 16 8 17 9 18 10 19 11 8 12
REMARK SMILES IDX 7 13 6 14 5 15 4 16 3 17 2 18 1 19
REMARK H PARENT
REMARK Flexibility Score: inf
ROOT
ATOM      1  C   UNL     1       4.176   3.694  13.208  1.00  0.00     0.000 C 
ENDROOT
BRANCH   1   2
ATOM      2  C   UNL     1       5.532   3.047  12.878  1.00  0.00     0.000 C 
BRANCH   2   3
ATOM      3  C   UNL     1       5.555   1.538  13.165  1.00  0.00     0.000 C 
BRANCH   3   4
ATOM      4  C   UNL     1       6.594   1.153  14.229  1.00  0.00     0.000 C 
BRANCH   4   5
ATOM      5  C   UNL     1       5.939   0.383  15.381  1.00  0.00     0.001 C 
BRANCH   5   6
ATOM      6  C   UNL     1       5.685   1.303  16.586  1.00  0.00     0.009 C 
BRANCH   6   7
ATOM      7  C   UNL     1       4.719   0.671  17.609  1.00  0.00     0.032 C 
ATOM      8  C   UNL     1       4.473   1.626  18.781  1.00  0.00     0.014 C 
BRANCH   7   9
ATOM      9  C   UNL     1       5.242  -0.645  18.121  1.00  0.00     0.044 C 
ATOM     10  O   UNL     1       4.664  -1.723  17.823  1.00  0.00    -0.550 OA
ATOM     11  O   UNL     1       6.370  -0.674  18.930  1.00  0.00    -0.550 OA
ENDBRANCH   7   9
ENDBRANCH   6   7
ENDBRANCH   5   6
ENDBRANCH   4   5
ENDBRANCH   3   4
ENDBRANCH   2   3
ENDBRANCH   1   2
BRANCH   1  12
ATOM     12  C   UNL     1       3.773   3.482  14.683  1.00  0.00     0.000 C 
BRANCH  12  13
ATOM     13  C   UNL     1       2.325   2.993  14.861  1.00  0.00    -0.000 C 
BRANCH  13  14
ATOM     14  C   UNL     1       2.237   1.655  15.615  1.00  0.00    -0.000 C 
BRANCH  14  15
ATOM     15  C   UNL     1       2.507   0.444  14.707  1.00  0.00    -0.000 C 
BRANCH  15  16
ATOM     16  C   UNL     1       1.980  -0.871  15.307  1.00  0.00    -0.000 C 
BRANCH  16  17
ATOM     17  C   UNL     1       2.527  -2.117  14.588  1.00  0.00    -0.000 C 
BRANCH  17  18
ATOM     18  C   UNL     1       4.050  -2.125  14.364  1.00  0.00    -0.003 C 
ATOM     19  C   UNL     1       4.442  -1.927  12.901  1.00  0.00     0.004 C 
ENDBRANCH  17  18
ENDBRANCH  16  17
ENDBRANCH  15  16
ENDBRANCH  14  15
ENDBRANCH  13  14
ENDBRANCH  12  13
ENDBRANCH   1  12
TORSDOF 14
ENDMDL
MODEL 8
REMARK VINA RESULT:    -3.801      2.298      5.247
REMARK INTER + INTRA:          -8.764
REMARK INTER:                  -7.595
REMARK INTRA:                  -1.170
REMARK UNBOUND:                -1.852
REMARK SMILES CCCCCCCCCCCCCC[C@H](C)C(=O)[O-]
REMARK SMILES IDX 9 1 10 2 11 3 12 4 13 5 14 6 15 7 16 8 17 9 18 10 19 11 8 12
REMARK SMILES IDX 7 13 6 14 5 15 4 16 3 17 2 18 1 19
REMARK H PARENT
REMARK Flexibility Score: inf
ROOT
ATOM      1  C   UNL     1       5.689  -0.097  17.940  1.00  0.00     0.000 C 
ENDROOT
BRANCH   1   2
ATOM      2  C   UNL     1       4.872   0.430  19.133  1.00  0.00     0.000 C 
BRANCH   2   3
ATOM      3  C   UNL     1       3.998   1.639  18.765  1.00  0.00     0.000 C 
BRANCH   3   4
ATOM      4  C   UNL     1       4.284   2.170  17.353  1.00  0.00     0.000 C 
BRANCH   4   5
ATOM      5  C   UNL     1       3.422   1.448  16.311  1.00  0.00     0.001 C 
BRANCH   5   6
ATOM      6  C   UNL     1       2.916   2.426  15.239  1.00  0.00     0.009 C 
BRANCH   6   7
ATOM      7  C   UNL     1       4.061   2.970  14.359  1.00  0.00     0.032 C 
ATOM      8  C   UNL     1       3.609   4.218  13.594  1.00  0.00     0.014 C 
BRANCH   7   9
ATOM      9  C   UNL     1       4.557   1.927  13.392  1.00  0.00     0.044 C 
ATOM     10  O   UNL     1       3.758   1.102  12.875  1.00  0.00    -0.550 OA
ATOM     11  O   UNL     1       5.905   1.871  13.066  1.00  0.00    -0.550 OA
ENDBRANCH   7   9
ENDBRANCH   6   7
ENDBRANCH   5   6
ENDBRANCH   4   5
ENDBRANCH   3   4
ENDBRANCH   2   3
ENDBRANCH   1   2
BRANCH   1  12
ATOM     12  C   UNL     1       5.495  -1.613  17.725  1.00  0.00     0.000 C 
BRANCH  12  13
ATOM     13  C   UNL     1       6.077  -2.125  16.396  1.00  0.00    -0.000 C 
BRANCH  13  14
ATOM     14  C   UNL     1       5.979  -1.087  15.265  1.00  0.00    -0.000 C 
BRANCH  14  15
ATOM     15  C   UNL     1       5.609  -1.717  13.912  1.00  0.00    -0.000 C 
BRANCH  15  16
ATOM     16  C   UNL     1       4.104  -2.016  13.793  1.00  0.00    -0.000 C 
BRANCH  16  17
ATOM     17  C   UNL     1       3.292  -1.476  14.983  1.00  0.00    -0.000 C 
BRANCH  17  18
ATOM     18  C   UNL     1       1.794  -1.835  14.967  1.00  0.00    -0.003 C 
ATOM     19  C   UNL     1       0.891  -0.625  14.735  1.00  0.00     0.004 C 
ENDBRANCH  17  18
ENDBRANCH  16  17
ENDBRANCH  15  16
ENDBRANCH  14  15
ENDBRANCH  13  14
ENDBRANCH  12  13
ENDBRANCH   1  12
TORSDOF 14
ENDMDL
