MODEL 1
REMARK VINA RESULT:    -3.306      0.000      0.000
REMARK INTER + INTRA:          -6.356
REMARK INTER:                  -5.046
REMARK INTRA:                  -1.310
REMARK UNBOUND:                -1.310
REMARK SMILES CCCCCCCCCCC(=O)[O-]
REMARK SMILES IDX 7 1 8 2 9 3 10 4 11 5 12 6 13 7 6 8 5 9 4 10 3 11 2 12 1 13
REMARK H PARENT
REMARK Flexibility Score: inf
ROOT
ATOM      1  C   UNL     1      17.836  14.597  15.526  1.00  0.00     0.000 C 
ENDROOT
BRANCH   1   2
ATOM      2  C   UNL     1      19.300  15.042  15.368  1.00  0.00     0.000 C 
BRANCH   2   3
ATOM      3  C   UNL     1      20.289  14.122  16.105  1.00  0.00     0.006 C 
BRANCH   3   4
ATOM      4  C   UNL     1      19.586  12.928  16.764  1.00  0.00     0.053 C 
BRANCH   4   5
ATOM      5  C   UNL     1      20.437  12.295  17.823  1.00  0.00     0.041 C 
ATOM      6  O   UNL     1      20.360  11.058  18.043  1.00  0.00    -0.550 OA
ATOM      7  O   UNL     1      21.338  13.068  18.546  1.00  0.00    -0.550 OA
ENDBRANCH   4   5
ENDBRANCH   3   4
ENDBRANCH   2   3
ENDBRANCH   1   2
BRANCH   1   8
ATOM      8  C   UNL     1      16.924  15.589  16.279  1.00  0.00     0.000 C 
BRANCH   8   9
ATOM      9  C   UNL     1      17.466  17.029  16.379  1.00  0.00    -0.000 C 
BRANCH   9  10
ATOM     10  C   UNL     1      18.000  17.425  17.767  1.00  0.00    -0.000 C 
BRANCH  10  11
ATOM     11  C   UNL     1      17.734  16.367  18.861  1.00  0.00    -0.000 C 
BRANCH  11  12
ATOM     12  C   UNL     1      19.028  15.782  19.443  1.00  0.00    -0.003 C 
ATOM     13  C   UNL     1      20.257  16.454  18.837  1.00  0.00     0.004 C 
ENDBRANCH  11  12
ENDBRANCH  10  11
ENDBRANCH   9  10
ENDBRANCH   8   9
ENDBRANCH   1   8
TORSDOF 9
ENDMDL
MODEL 2
REMARK VINA RESULT:    -3.188      1.803      3.855
REMARK INTER + INTRA:          -6.175
REMARK INTER:                  -5.166
REMARK INTRA:                  -1.009
REMARK UNBOUND:                -1.310
REMARK SMILES CCCCCCCCCCC(=O)[O-]
REMARK SMILES IDX 7 1 8 2 9 3 10 4 11 5 12 6 13 7 6 8 5 9 4 10 3 11 2 12 1 13
REMARK H PARENT
REMARK Flexibility Score: inf
ROOT
ATOM      1  C   UNL     1      17.724  17.283  16.689  1.00  0.00     0.000 C 
ENDROOT
BRANCH   1   2
ATOM      2  C   UNL     1      18.068  17.407  18.184  1.00  0.00     0.000 C 
BRANCH   2   3
ATOM      3  C   UNL     1      17.879  16.088  18.953  1.00  0.00     0.006 C 
BRANCH   3   4
ATOM      4  C   UNL     1      19.212  15.505  19.440  1.00  0.00     0.053 C 
BRANCH   4   5
ATOM      5  C   UNL     1      19.151  15.102  20.881  1.00  0.00     0.041 C 
ATOM      6  O   UNL     1      18.271  15.589  21.640  1.00  0.00    -0.550 OA
ATOM      7  O   UNL     1      20.047  14.165  21.381  1.00  0.00    -0.550 OA
ENDBRANCH   4   5
ENDBRANCH   3   4
ENDBRANCH   2   3
ENDBRANCH   1   2
BRANCH   1   8
ATOM      8  C   UNL     1      16.860  16.062  16.312  1.00  0.00     0.000 C 
BRANCH   8   9
ATOM      9  C   UNL     1      17.441  15.167  15.200  1.00  0.00    -0.000 C 
BRANCH   9  10
ATOM     10  C   UNL     1      18.909  14.750  15.407  1.00  0.00    -0.000 C 
BRANCH  10  11
ATOM     11  C   UNL     1      19.076  13.443  16.213  1.00  0.00    -0.000 C 
BRANCH  11  12
ATOM     12  C   UNL     1      20.517  13.229  16.697  1.00  0.00    -0.003 C 
ATOM     13  C   UNL     1      20.558  12.321  17.922  1.00  0.00     0.004 C 
ENDBRANCH  11  12
ENDBRANCH  10  11
ENDBRANCH   9  10
ENDBRANCH   8   9
ENDBRANCH   1   8
TORSDOF 9
ENDMDL
MODEL 3
REMARK VINA RESULT:    -3.163      2.640      4.291
REMARK INTER + INTRA:          -6.137
REMARK INTER:                  -4.953
REMARK INTRA:                  -1.184
REMARK UNBOUND:                -1.310
REMARK SMILES CCCCCCCCCCC(=O)[O-]
REMARK SMILES IDX 7 1 8 2 9 3 10 4 11 5 12 6 13 7 6 8 5 9 4 10 3 11 2 12 1 13
REMARK H PARENT
REMARK Flexibility Score: inf
ROOT
ATOM      1  C   UNL     1      17.007  15.925  16.566  1.00  0.00     0.000 C 
ENDROOT
BRANCH   1   2
ATOM      2  C   UNL     1      17.716  17.260  16.850  1.00  0.00     0.000 C 
BRANCH   2   3
ATOM      3  C   UNL     1      18.056  17.453  18.338  1.00  0.00     0.006 C 
BRANCH   3   4
ATOM      4  C   UNL     1      17.569  16.281  19.200  1.00  0.00     0.053 C 
BRANCH   4   5
ATOM      5  C   UNL     1      17.461  16.659  20.645  1.00  0.00     0.041 C 
ATOM      6  O   UNL     1      18.168  16.074  21.508  1.00  0.00    -0.550 OA
ATOM      7  O   UNL     1      16.600  17.677  21.037  1.00  0.00    -0.550 OA
ENDBRANCH   4   5
ENDBRANCH   3   4
ENDBRANCH   2   3
ENDBRANCH   1   2
BRANCH   1   8
ATOM      8  C   UNL     1      17.576  15.117  15.379  1.00  0.00     0.000 C 
BRANCH   8   9
ATOM      9  C   UNL     1      19.041  14.665  15.539  1.00  0.00    -0.000 C 
BRANCH   9  10
ATOM     10  C   UNL     1      19.224  13.298  16.224  1.00  0.00    -0.000 C 
BRANCH  10  11
ATOM     11  C   UNL     1      19.975  13.374  17.572  1.00  0.00    -0.000 C 
BRANCH  11  12
ATOM     12  C   UNL     1      20.649  14.735  17.795  1.00  0.00    -0.003 C 
ATOM     13  C   UNL     1      20.969  14.955  19.271  1.00  0.00     0.004 C 
ENDBRANCH  11  12
ENDBRANCH  10  11
ENDBRANCH   9  10
ENDBRANCH   8   9
ENDBRANCH   1   8
TORSDOF 9
ENDMDL
MODEL 4
REMARK VINA RESULT:    -3.160      2.934      4.923
REMARK INTER + INTRA:          -6.132
REMARK INTER:                  -5.175
REMARK INTRA:                  -0.957
REMARK UNBOUND:                -1.310
REMARK SMILES CCCCCCCCCCC(=O)[O-]
REMARK SMILES IDX 7 1 8 2 9 3 10 4 11 5 12 6 13 7 6 8 5 9 4 10 3 11 2 12 1 13
REMARK H PARENT
REMARK Flexibility Score: inf
ROOT
ATOM      1  C   UNL     1      19.940  14.897  18.318  1.00  0.00     0.000 C 
ENDROOT
BRANCH   1   2
ATOM      2  C   UNL     1      20.228  15.012  19.826  1.00  0.00     0.000 C 
BRANCH   2   3
ATOM      3  C   UNL     1      18.958  15.246  20.662  1.00  0.00     0.006 C 
BRANCH   3   4
ATOM      4  C   UNL     1      17.870  15.981  19.870  1.00  0.00     0.053 C 
BRANCH   4   5
ATOM      5  C   UNL     1      17.611  17.352  20.417  1.00  0.00     0.041 C 
ATOM      6  O   UNL     1      16.529  17.604  21.011  1.00  0.00    -0.550 OA
ATOM      7  O   UNL     1      18.577  18.343  20.298  1.00  0.00    -0.550 OA
ENDBRANCH   4   5
ENDBRANCH   3   4
ENDBRANCH   2   3
ENDBRANCH   1   2
BRANCH   1   8
ATOM      8  C   UNL     1      19.978  13.463  17.750  1.00  0.00     0.000 C 
BRANCH   8   9
ATOM      9  C   UNL     1      19.327  13.291  16.363  1.00  0.00    -0.000 C 
BRANCH   9  10
ATOM     10  C   UNL     1      19.067  14.605  15.604  1.00  0.00    -0.000 C 
BRANCH  10  11
ATOM     11  C   UNL     1      17.579  14.845  15.267  1.00  0.00    -0.000 C 
BRANCH  11  12
ATOM     12  C   UNL     1      16.883  15.755  16.288  1.00  0.00    -0.003 C 
ATOM     13  C   UNL     1      17.535  17.133  16.332  1.00  0.00     0.004 C 
ENDBRANCH  11  12
ENDBRANCH  10  11
ENDBRANCH   9  10
ENDBRANCH   8   9
ENDBRANCH   1   8
TORSDOF 9
ENDMDL
MODEL 5
REMARK VINA RESULT:    -3.151      2.877      4.587
REMARK INTER + INTRA:          -6.119
REMARK INTER:                  -5.035
REMARK INTRA:                  -1.084
REMARK UNBOUND:                -1.310
REMARK SMILES CCCCCCCCCCC(=O)[O-]
REMARK SMILES IDX 7 1 8 2 9 3 10 4 11 5 12 6 13 7 6 8 5 9 4 10 3 11 2 12 1 13
REMARK H PARENT
REMARK Flexibility Score: inf
ROOT
ATOM      1  C   UNL     1      20.023  14.211  15.728  1.00  0.00     0.000 C 
ENDROOT
BRANCH   1   2
ATOM      2  C   UNL     1      18.564  13.953  16.142  1.00  0.00     0.000 C 
BRANCH   2   3
ATOM      3  C   UNL     1      17.563  14.860  15.405  1.00  0.00     0.006 C 
BRANCH   3   4
ATOM      4  C   UNL     1      16.962  15.929  16.328  1.00  0.00     0.053 C 
BRANCH   4   5
ATOM      5  C   UNL     1      17.663  17.245  16.188  1.00  0.00     0.041 C 
ATOM      6  O   UNL     1      18.222  17.554  15.102  1.00  0.00    -0.550 OA
ATOM      7  O   UNL     1      17.674  18.145  17.247  1.00  0.00    -0.550 OA
ENDBRANCH   4   5
ENDBRANCH   3   4
ENDBRANCH   2   3
ENDBRANCH   1   2
BRANCH   1   8
ATOM      8  C   UNL     1      21.082  13.418  16.524  1.00  0.00     0.000 C 
BRANCH   8   9
ATOM      9  C   UNL     1      20.518  12.477  17.605  1.00  0.00    -0.000 C 
BRANCH   9  10
ATOM     10  C   UNL     1      21.187  12.605  18.986  1.00  0.00    -0.000 C 
BRANCH  10  11
ATOM     11  C   UNL     1      21.210  14.048  19.536  1.00  0.00    -0.000 C 
BRANCH  11  12
ATOM     12  C   UNL     1      19.833  14.512  20.030  1.00  0.00    -0.003 C 
ATOM     13  C   UNL     1      19.360  15.744  19.264  1.00  0.00     0.004 C 
ENDBRANCH  11  12
ENDBRANCH  10  11
ENDBRANCH   9  10
ENDBRANCH   8   9
ENDBRANCH   1   8
TORSDOF 9
ENDMDL
MODEL 6
REMARK VINA RESULT:    -3.135      2.508      4.156
REMARK INTER + INTRA:          -6.094
REMARK INTER:                  -4.722
REMARK INTRA:                  -1.372
REMARK UNBOUND:                -1.310
REMARK SMILES CCCCCCCCCCC(=O)[O-]
REMARK SMILES IDX 7 1 8 2 9 3 10 4 11 5 12 6 13 7 6 8 5 9 4 10 3 11 2 12 1 13
REMARK H PARENT
REMARK Flexibility Score: inf
ROOT
ATOM      1  C   UNL     1      17.424  16.853  16.967  1.00  0.00     0.000 C 
ENDROOT
BRANCH   1   2
ATOM      2  C   UNL     1      16.738  15.659  16.280  1.00  0.00     0.000 C 
BRANCH   2   3
ATOM      3  C   UNL     1      17.449  15.221  14.988  1.00  0.00     0.006 C 
BRANCH   3   4
ATOM      4  C   UNL     1      18.086  16.404  14.248  1.00  0.00     0.053 C 
BRANCH   4   5
ATOM      5  C   UNL     1      19.534  16.161  13.947  1.00  0.00     0.041 C 
ATOM      6  O   UNL     1      20.367  17.100  14.039  1.00  0.00    -0.550 OA
ATOM      7  O   UNL     1      19.967  14.889  13.595  1.00  0.00    -0.550 OA
ENDBRANCH   4   5
ENDBRANCH   3   4
ENDBRANCH   2   3
ENDBRANCH   1   2
BRANCH   1   8
ATOM      8  C   UNL     1      17.730  16.661  18.468  1.00  0.00     0.000 C 
BRANCH   8   9
ATOM      9  C   UNL     1      19.037  15.907  18.778  1.00  0.00    -0.000 C 
BRANCH   9  10
ATOM     10  C   UNL     1      20.176  16.144  17.770  1.00  0.00    -0.000 C 
BRANCH  10  11
ATOM     11  C   UNL     1      20.743  14.846  17.155  1.00  0.00    -0.000 C 
BRANCH  11  12
ATOM     12  C   UNL     1      20.055  13.586  17.701  1.00  0.00    -0.003 C 
ATOM     13  C   UNL     1      19.502  12.726  16.569  1.00  0.00     0.004 C 
ENDBRANCH  11  12
ENDBRANCH  10  11
ENDBRANCH   9  10
ENDBRANCH   8   9
ENDBRANCH   1   8
TORSDOF 9
ENDMDL
MODEL 7
REMARK VINA RESULT:    -3.128      1.666      3.138
REMARK INTER + INTRA:          -6.084
REMARK INTER:                  -5.126
REMARK INTRA:                  -0.958
REMARK UNBOUND:                -1.310
REMARK SMILES CCCCCCCCCCC(=O)[O-]
REMARK SMILES IDX 7 1 8 2 9 3 10 4 11 5 12 6 13 7 6 8 5 9 4 10 3 11 2 12 1 13
REMARK H PARENT
REMARK Flexibility Score: inf
ROOT
ATOM      1  C   UNL     1      20.235  13.812  15.886  1.00  0.00     0.000 C 
ENDROOT
BRANCH   1   2
ATOM      2  C   UNL     1      19.824  13.008  17.132  1.00  0.00     0.000 C 
BRANCH   2   3
ATOM      3  C   UNL     1      20.534  13.482  18.412  1.00  0.00     0.006 C 
BRANCH   3   4
ATOM      4  C   UNL     1      19.890  14.745  18.998  1.00  0.00     0.053 C 
BRANCH   4   5
ATOM      5  C   UNL     1      19.665  14.622  20.474  1.00  0.00     0.041 C 
ATOM      6  O   UNL     1      18.678  15.188  21.014  1.00  0.00    -0.550 OA
ATOM      7  O   UNL     1      20.528  13.858  21.250  1.00  0.00    -0.550 OA
ENDBRANCH   4   5
ENDBRANCH   3   4
ENDBRANCH   2   3
ENDBRANCH   1   2
BRANCH   1   8
ATOM      8  C   UNL     1      19.135  14.721  15.297  1.00  0.00     0.000 C 
BRANCH   8   9
ATOM      9  C   UNL     1      17.711  14.443  15.816  1.00  0.00    -0.000 C 
BRANCH   9  10
ATOM     10  C   UNL     1      16.948  15.687  16.309  1.00  0.00    -0.000 C 
BRANCH  10  11
ATOM     11  C   UNL     1      17.552  17.021  15.819  1.00  0.00    -0.000 C 
BRANCH  11  12
ATOM     12  C   UNL     1      18.110  17.872  16.968  1.00  0.00    -0.003 C 
ATOM     13  C   UNL     1      17.549  17.419  18.313  1.00  0.00     0.004 C 
ENDBRANCH  11  12
ENDBRANCH  10  11
ENDBRANCH   9  10
ENDBRANCH   8   9
ENDBRANCH   1   8
TORSDOF 9
ENDMDL
MODEL 8
REMARK VINA RESULT:    -3.118      2.561      4.332
REMARK INTER + INTRA:          -6.068
REMARK INTER:                  -4.958
REMARK INTRA:                  -1.110
REMARK UNBOUND:                -1.310
REMARK SMILES CCCCCCCCCCC(=O)[O-]
REMARK SMILES IDX 7 1 8 2 9 3 10 4 11 5 12 6 13 7 6 8 5 9 4 10 3 11 2 12 1 13
REMARK H PARENT
REMARK Flexibility Score: inf
ROOT
ATOM      1  C   UNL     1      20.628  14.767  17.524  1.00  0.00     0.000 C 
ENDROOT
BRANCH   1   2
ATOM      2  C   UNL     1      20.509  13.946  18.821  1.00  0.00     0.000 C 
BRANCH   2   3
ATOM      3  C   UNL     1      19.776  14.702  19.943  1.00  0.00     0.006 C 
BRANCH   3   4
ATOM      4  C   UNL     1      18.950  15.877  19.406  1.00  0.00     0.053 C 
BRANCH   4   5
ATOM      5  C   UNL     1      17.913  16.326  20.390  1.00  0.00     0.041 C 
ATOM      6  O   UNL     1      17.066  17.199  20.065  1.00  0.00    -0.550 OA
ATOM      7  O   UNL     1      17.864  15.759  21.657  1.00  0.00    -0.550 OA
ENDBRANCH   4   5
ENDBRANCH   3   4
ENDBRANCH   2   3
ENDBRANCH   1   2
BRANCH   1   8
ATOM      8  C   UNL     1      20.180  14.036  16.241  1.00  0.00     0.000 C 
BRANCH   8   9
ATOM      9  C   UNL     1      18.678  13.700  16.169  1.00  0.00    -0.000 C 
BRANCH   9  10
ATOM     10  C   UNL     1      17.815  14.744  15.437  1.00  0.00    -0.000 C 
BRANCH  10  11
ATOM     11  C   UNL     1      16.939  15.598  16.379  1.00  0.00    -0.000 C 
BRANCH  11  12
ATOM     12  C   UNL     1      17.322  17.085  16.353  1.00  0.00    -0.003 C 
ATOM     13  C   UNL     1      18.501  17.334  15.417  1.00  0.00     0.004 C 
ENDBRANCH  11  12
ENDBRANCH  10  11
ENDBRANCH   9  10
ENDBRANCH   8   9
ENDBRANCH   1   8
TORSDOF 9
ENDMDL
MODEL 9
REMARK VINA RESULT:    -3.082      1.114      2.547
REMARK INTER + INTRA:          -6.014
REMARK INTER:                  -4.722
REMARK INTRA:                  -1.292
REMARK UNBOUND:                -1.310
REMARK SMILES CCCCCCCCCCC(=O)[O-]
REMARK SMILES IDX 7 1 8 2 9 3 10 4 11 5 12 6 13 7 6 8 5 9 4 10 3 11 2 12 1 13
REMARK H PARENT
REMARK Flexibility Score: inf
ROOT
ATOM      1  C   UNL     1      20.850  14.842  15.114  1.00  0.00     0.000 C 
ENDROOT
BRANCH   1   2
ATOM      2  C   UNL     1      20.875  15.709  16.385  1.00  0.00     0.000 C 
BRANCH   2   3
ATOM      3  C   UNL     1      20.813  14.878  17.679  1.00  0.00     0.006 C 
BRANCH   3   4
ATOM      4  C   UNL     1      20.085  13.543  17.475  1.00  0.00     0.053 C 
BRANCH   4   5
ATOM      5  C   UNL     1      20.784  12.414  18.169  1.00  0.00     0.041 C 
ATOM      6  O   UNL     1      21.748  12.647  18.946  1.00  0.00    -0.550 OA
ATOM      7  O   UNL     1      20.353  11.106  17.981  1.00  0.00    -0.550 OA
ENDBRANCH   4   5
ENDBRANCH   3   4
ENDBRANCH   2   3
ENDBRANCH   1   2
BRANCH   1   8
ATOM      8  C   UNL     1      19.817  15.267  14.049  1.00  0.00     0.000 C 
BRANCH   8   9
ATOM      9  C   UNL     1      18.624  16.082  14.583  1.00  0.00    -0.000 C 
BRANCH   9  10
ATOM     10  C   UNL     1      17.402  15.242  14.999  1.00  0.00    -0.000 C 
BRANCH  10  11
ATOM     11  C   UNL     1      16.813  15.639  16.371  1.00  0.00    -0.000 C 
BRANCH  11  12
ATOM     12  C   UNL     1      17.453  16.912  16.941  1.00  0.00    -0.003 C 
ATOM     13  C   UNL     1      17.725  16.770  18.435  1.00  0.00     0.004 C 
ENDBRANCH  11  12
ENDBRANCH  10  11
ENDBRANCH   9  10
ENDBRANCH   8   9
ENDBRANCH   1   8
TORSDOF 9
ENDMDL
