MODEL 1
REMARK VINA RESULT:    -3.911      0.000      0.000
REMARK INTER + INTRA:          -4.352
REMARK INTER:                  -4.253
REMARK INTRA:                  -0.098
REMARK UNBOUND:                -0.098
REMARK SMILES C=C(C)[C@H]1CC=C(C)[C@@H](O)C1
REMARK SMILES IDX 8 1 7 2 6 3 5 4 4 5 11 6 9 7 10 8 2 10 1 11 3 12
REMARK H PARENT 10 9
REMARK Flexibility Score: inf
ROOT
ATOM      1  C   UNL     1      -3.462   4.780  -4.920  1.00  0.00     0.042 C 
ATOM      2  C   UNL     1      -2.102   4.134  -4.855  1.00  0.00    -0.049 C 
ATOM      3  C   UNL     1      -1.048   4.887  -4.472  1.00  0.00    -0.025 C 
ATOM      4  C   UNL     1       0.357   4.348  -4.374  1.00  0.00     0.035 C 
ATOM      5  C   UNL     1       0.373   2.825  -4.166  1.00  0.00     0.021 C 
ATOM      6  C   UNL     1      -0.521   2.151  -5.216  1.00  0.00     0.044 C 
ATOM      7  C   UNL     1      -1.979   2.629  -5.066  1.00  0.00     0.140 C 
ENDROOT
BRANCH   7   8
ATOM      8  O   UNL     1      -2.735   2.212  -6.177  1.00  0.00    -0.389 OA
ATOM      9  H   UNL     1      -3.678   2.479  -6.011  1.00  0.00     0.211 HD
ENDBRANCH   7   8
BRANCH   5  10
ATOM     10  C   UNL     1       1.792   2.275  -4.201  1.00  0.00    -0.077 C 
ATOM     11  C   UNL     1       2.749   2.924  -4.884  1.00  0.00     0.008 C 
ATOM     12  C   UNL     1       2.161   0.998  -3.485  1.00  0.00     0.039 C 
ENDBRANCH   5  10
TORSDOF 2
ENDMDL
MODEL 2
REMARK VINA RESULT:    -3.900      1.985      4.490
REMARK INTER + INTRA:          -4.341
REMARK INTER:                  -4.244
REMARK INTRA:                  -0.097
REMARK UNBOUND:                -0.098
REMARK SMILES C=C(C)[C@H]1CC=C(C)[C@@H](O)C1
REMARK SMILES IDX 8 1 7 2 6 3 5 4 4 5 11 6 9 7 10 8 2 10 1 11 3 12
REMARK H PARENT 10 9
REMARK Flexibility Score: inf
ROOT
ATOM      1  C   UNL     1       3.922   2.475  -4.347  1.00  0.00     0.042 C 
ATOM      2  C   UNL     1       2.433   2.688  -4.421  1.00  0.00    -0.049 C 
ATOM      3  C   UNL     1       1.972   3.854  -4.925  1.00  0.00    -0.025 C 
ATOM      4  C   UNL     1       0.504   4.176  -5.045  1.00  0.00     0.035 C 
ATOM      5  C   UNL     1      -0.358   2.905  -5.110  1.00  0.00     0.021 C 
ATOM      6  C   UNL     1       0.019   1.965  -3.957  1.00  0.00     0.044 C 
ATOM      7  C   UNL     1       1.495   1.535  -4.077  1.00  0.00     0.140 C 
ENDROOT
BRANCH   7   8
ATOM      8  O   UNL     1       1.902   0.890  -2.895  1.00  0.00    -0.389 OA
ATOM      9  H   UNL     1       2.683   1.389  -2.538  1.00  0.00     0.211 HD
ENDBRANCH   7   8
BRANCH   5  10
ATOM     10  C   UNL     1      -1.844   3.241  -5.097  1.00  0.00    -0.077 C 
ATOM     11  C   UNL     1      -2.320   4.150  -4.232  1.00  0.00     0.008 C 
ATOM     12  C   UNL     1      -2.813   2.567  -6.038  1.00  0.00     0.039 C 
ENDBRANCH   5  10
TORSDOF 2
ENDMDL
MODEL 3
REMARK VINA RESULT:    -3.887      1.537      1.974
REMARK INTER + INTRA:          -4.326
REMARK INTER:                  -4.230
REMARK INTRA:                  -0.097
REMARK UNBOUND:                -0.098
REMARK SMILES C=C(C)[C@H]1CC=C(C)[C@@H](O)C1
REMARK SMILES IDX 8 1 7 2 6 3 5 4 4 5 11 6 9 7 10 8 2 10 1 11 3 12
REMARK H PARENT 10 9
REMARK Flexibility Score: inf
ROOT
ATOM      1  C   UNL     1      -2.155   3.896  -6.933  1.00  0.00     0.042 C 
ATOM      2  C   UNL     1      -0.982   3.288  -6.211  1.00  0.00    -0.049 C 
ATOM      3  C   UNL     1       0.262   3.539  -6.674  1.00  0.00    -0.025 C 
ATOM      4  C   UNL     1       1.508   2.982  -6.032  1.00  0.00     0.035 C 
ATOM      5  C   UNL     1       1.284   2.637  -4.551  1.00  0.00     0.021 C 
ATOM      6  C   UNL     1       0.024   1.772  -4.407  1.00  0.00     0.044 C 
ATOM      7  C   UNL     1      -1.216   2.544  -4.899  1.00  0.00     0.140 C 
ENDROOT
BRANCH   7   8
ATOM      8  O   UNL     1      -2.313   1.670  -5.004  1.00  0.00    -0.389 OA
ATOM      9  H   UNL     1      -2.580   1.641  -5.961  1.00  0.00     0.211 HD
ENDBRANCH   7   8
BRANCH   5  10
ATOM     10  C   UNL     1       2.505   1.953  -3.950  1.00  0.00    -0.077 C 
ATOM     11  C   UNL     1       2.375   0.776  -3.318  1.00  0.00     0.008 C 
ATOM     12  C   UNL     1       3.879   2.573  -4.040  1.00  0.00     0.039 C 
ENDBRANCH   5  10
TORSDOF 2
ENDMDL
MODEL 4
REMARK VINA RESULT:    -3.608      1.492      2.341
REMARK INTER + INTRA:          -4.023
REMARK INTER:                  -3.925
REMARK INTRA:                  -0.098
REMARK UNBOUND:                -0.098
REMARK SMILES C=C(C)[C@H]1CC=C(C)[C@@H](O)C1
REMARK SMILES IDX 8 1 7 2 6 3 5 4 4 5 11 6 9 7 10 8 2 10 1 11 3 12
REMARK H PARENT 10 9
REMARK Flexibility Score: inf
ROOT
ATOM      1  C   UNL     1      -3.390   4.660  -5.377  1.00  0.00     0.042 C 
ATOM      2  C   UNL     1      -2.040   4.104  -5.006  1.00  0.00    -0.049 C 
ATOM      3  C   UNL     1      -1.896   2.764  -4.911  1.00  0.00    -0.025 C 
ATOM      4  C   UNL     1      -0.594   2.099  -4.545  1.00  0.00     0.035 C 
ATOM      5  C   UNL     1       0.616   2.990  -4.872  1.00  0.00     0.021 C 
ATOM      6  C   UNL     1       0.401   4.390  -4.280  1.00  0.00     0.044 C 
ATOM      7  C   UNL     1      -0.846   5.049  -4.902  1.00  0.00     0.140 C 
ENDROOT
BRANCH   7   8
ATOM      8  O   UNL     1      -1.182   6.210  -4.183  1.00  0.00    -0.389 OA
ATOM      9  H   UNL     1      -2.110   6.092  -3.845  1.00  0.00     0.211 HD
ENDBRANCH   7   8
BRANCH   5  10
ATOM     10  C   UNL     1       1.914   2.365  -4.377  1.00  0.00    -0.077 C 
ATOM     11  C   UNL     1       1.882   1.264  -3.609  1.00  0.00     0.008 C 
ATOM     12  C   UNL     1       3.257   2.961  -4.725  1.00  0.00     0.039 C 
ENDBRANCH   5  10
TORSDOF 2
ENDMDL
MODEL 5
REMARK VINA RESULT:    -3.598      2.314      4.877
REMARK INTER + INTRA:          -4.011
REMARK INTER:                  -3.918
REMARK INTRA:                  -0.094
REMARK UNBOUND:                -0.098
REMARK SMILES C=C(C)[C@H]1CC=C(C)[C@@H](O)C1
REMARK SMILES IDX 8 1 7 2 6 3 5 4 4 5 11 6 9 7 10 8 2 10 1 11 3 12
REMARK H PARENT 10 9
REMARK Flexibility Score: inf
ROOT
ATOM      1  C   UNL     1       4.869   1.775  -4.080  1.00  0.00     0.042 C 
ATOM      2  C   UNL     1       3.420   2.180  -4.147  1.00  0.00    -0.049 C 
ATOM      3  C   UNL     1       3.113   3.399  -4.642  1.00  0.00    -0.025 C 
ATOM      4  C   UNL     1       1.698   3.910  -4.754  1.00  0.00     0.035 C 
ATOM      5  C   UNL     1       0.678   2.762  -4.826  1.00  0.00     0.021 C 
ATOM      6  C   UNL     1       0.933   1.772  -3.680  1.00  0.00     0.044 C 
ATOM      7  C   UNL     1       2.341   1.156  -3.807  1.00  0.00     0.140 C 
ENDROOT
BRANCH   7   8
ATOM      8  O   UNL     1       2.663   0.454  -2.632  1.00  0.00    -0.389 OA
ATOM      9  H   UNL     1       3.337  -0.236  -2.873  1.00  0.00     0.211 HD
ENDBRANCH   7   8
BRANCH   5  10
ATOM     10  C   UNL     1      -0.751   3.287  -4.805  1.00  0.00    -0.077 C 
ATOM     11  C   UNL     1      -1.772   2.476  -5.122  1.00  0.00     0.008 C 
ATOM     12  C   UNL     1      -1.058   4.720  -4.438  1.00  0.00     0.039 C 
ENDBRANCH   5  10
TORSDOF 2
ENDMDL
MODEL 6
REMARK VINA RESULT:    -3.556      1.815      4.747
REMARK INTER + INTRA:          -3.966
REMARK INTER:                  -3.869
REMARK INTRA:                  -0.097
REMARK UNBOUND:                -0.098
REMARK SMILES C=C(C)[C@H]1CC=C(C)[C@@H](O)C1
REMARK SMILES IDX 8 1 7 2 6 3 5 4 4 5 11 6 9 7 10 8 2 10 1 11 3 12
REMARK H PARENT 10 9
REMARK Flexibility Score: inf
ROOT
ATOM      1  C   UNL     1       2.316   2.145  -4.072  1.00  0.00     0.042 C 
ATOM      2  C   UNL     1       0.979   2.764  -4.390  1.00  0.00    -0.049 C 
ATOM      3  C   UNL     1      -0.095   1.954  -4.508  1.00  0.00    -0.025 C 
ATOM      4  C   UNL     1      -1.479   2.463  -4.826  1.00  0.00     0.035 C 
ATOM      5  C   UNL     1      -1.655   3.935  -4.420  1.00  0.00     0.021 C 
ATOM      6  C   UNL     1      -0.499   4.769  -4.989  1.00  0.00     0.044 C 
ATOM      7  C   UNL     1       0.846   4.284  -4.413  1.00  0.00     0.140 C 
ENDROOT
BRANCH   7   8
ATOM      8  O   UNL     1       1.909   4.873  -5.122  1.00  0.00    -0.389 OA
ATOM      9  H   UNL     1       2.254   4.193  -5.759  1.00  0.00     0.211 HD
ENDBRANCH   7   8
BRANCH   5  10
ATOM     10  C   UNL     1      -3.008   4.474  -4.865  1.00  0.00    -0.077 C 
ATOM     11  C   UNL     1      -3.479   4.185  -6.089  1.00  0.00     0.008 C 
ATOM     12  C   UNL     1      -3.846   5.344  -3.959  1.00  0.00     0.039 C 
ENDBRANCH   5  10
TORSDOF 2
ENDMDL
MODEL 7
REMARK VINA RESULT:    -3.445      2.971      4.779
REMARK INTER + INTRA:          -3.845
REMARK INTER:                  -3.752
REMARK INTRA:                  -0.093
REMARK UNBOUND:                -0.098
REMARK SMILES C=C(C)[C@H]1CC=C(C)[C@@H](O)C1
REMARK SMILES IDX 8 1 7 2 6 3 5 4 4 5 11 6 9 7 10 8 2 10 1 11 3 12
REMARK H PARENT 10 9
REMARK Flexibility Score: inf
ROOT
ATOM      1  C   UNL     1       0.186   1.928  -4.106  1.00  0.00     0.042 C 
ATOM      2  C   UNL     1       1.676   1.821  -3.913  1.00  0.00    -0.049 C 
ATOM      3  C   UNL     1       2.173   0.708  -3.331  1.00  0.00    -0.025 C 
ATOM      4  C   UNL     1       3.646   0.495  -3.085  1.00  0.00     0.035 C 
ATOM      5  C   UNL     1       4.513   1.324  -4.047  1.00  0.00     0.021 C 
ATOM      6  C   UNL     1       4.047   2.786  -4.033  1.00  0.00     0.044 C 
ATOM      7  C   UNL     1       2.586   2.888  -4.515  1.00  0.00     0.140 C 
ENDROOT
BRANCH   7   8
ATOM      8  O   UNL     1       2.087   4.178  -4.260  1.00  0.00    -0.389 OA
ATOM      9  H   UNL     1       1.662   4.161  -3.361  1.00  0.00     0.211 HD
ENDBRANCH   7   8
BRANCH   5  10
ATOM     10  C   UNL     1       5.992   1.203  -3.704  1.00  0.00    -0.077 C 
ATOM     11  C   UNL     1       6.923   1.567  -4.600  1.00  0.00     0.008 C 
ATOM     12  C   UNL     1       6.449   0.672  -2.367  1.00  0.00     0.039 C 
ENDBRANCH   5  10
TORSDOF 2
ENDMDL
MODEL 8
REMARK VINA RESULT:    -3.438      2.362      4.741
REMARK INTER + INTRA:          -3.837
REMARK INTER:                  -3.742
REMARK INTRA:                  -0.095
REMARK UNBOUND:                -0.098
REMARK SMILES C=C(C)[C@H]1CC=C(C)[C@@H](O)C1
REMARK SMILES IDX 8 1 7 2 6 3 5 4 4 5 11 6 9 7 10 8 2 10 1 11 3 12
REMARK H PARENT 10 9
REMARK Flexibility Score: inf
ROOT
ATOM      1  C   UNL     1       1.832   2.281  -4.544  1.00  0.00     0.042 C 
ATOM      2  C   UNL     1       0.576   2.596  -5.314  1.00  0.00    -0.049 C 
ATOM      3  C   UNL     1       0.684   2.924  -6.620  1.00  0.00    -0.025 C 
ATOM      4  C   UNL     1      -0.504   3.260  -7.486  1.00  0.00     0.035 C 
ATOM      5  C   UNL     1      -1.802   2.638  -6.945  1.00  0.00     0.021 C 
ATOM      6  C   UNL     1      -1.955   2.976  -5.455  1.00  0.00     0.044 C 
ATOM      7  C   UNL     1      -0.781   2.385  -4.648  1.00  0.00     0.140 C 
ENDROOT
BRANCH   7   8
ATOM      8  O   UNL     1      -0.789   2.906  -3.342  1.00  0.00    -0.389 OA
ATOM      9  H   UNL     1      -0.835   3.897  -3.418  1.00  0.00     0.211 HD
ENDBRANCH   7   8
BRANCH   5  10
ATOM     10  C   UNL     1      -3.012   3.092  -7.750  1.00  0.00    -0.077 C 
ATOM     11  C   UNL     1      -3.866   3.989  -7.233  1.00  0.00     0.008 C 
ATOM     12  C   UNL     1      -3.288   2.550  -9.131  1.00  0.00     0.039 C 
ENDBRANCH   5  10
TORSDOF 2
ENDMDL
MODEL 9
REMARK VINA RESULT:    -3.425      1.322      1.895
REMARK INTER + INTRA:          -3.824
REMARK INTER:                  -3.730
REMARK INTRA:                  -0.094
REMARK UNBOUND:                -0.098
REMARK SMILES C=C(C)[C@H]1CC=C(C)[C@@H](O)C1
REMARK SMILES IDX 8 1 7 2 6 3 5 4 4 5 11 6 9 7 10 8 2 10 1 11 3 12
REMARK H PARENT 10 9
REMARK Flexibility Score: inf
ROOT
ATOM      1  C   UNL     1      -2.523   4.219  -4.318  1.00  0.00     0.042 C 
ATOM      2  C   UNL     1      -1.080   3.866  -4.570  1.00  0.00    -0.049 C 
ATOM      3  C   UNL     1      -0.240   4.840  -4.983  1.00  0.00    -0.025 C 
ATOM      4  C   UNL     1       1.221   4.602  -5.267  1.00  0.00     0.035 C 
ATOM      5  C   UNL     1       1.762   3.381  -4.505  1.00  0.00     0.021 C 
ATOM      6  C   UNL     1       0.839   2.177  -4.739  1.00  0.00     0.044 C 
ATOM      7  C   UNL     1      -0.576   2.473  -4.204  1.00  0.00     0.140 C 
ENDROOT
BRANCH   7   8
ATOM      8  O   UNL     1      -1.471   1.482  -4.644  1.00  0.00    -0.389 OA
ATOM      9  H   UNL     1      -1.972   1.159  -3.849  1.00  0.00     0.211 HD
ENDBRANCH   7   8
BRANCH   5  10
ATOM     10  C   UNL     1       3.199   3.072  -4.901  1.00  0.00    -0.077 C 
ATOM     11  C   UNL     1       3.932   2.220  -4.167  1.00  0.00     0.008 C 
ATOM     12  C   UNL     1       3.837   3.710  -6.112  1.00  0.00     0.039 C 
ENDBRANCH   5  10
TORSDOF 2
ENDMDL
