MODEL 1
REMARK VINA RESULT:    -5.985      0.000      0.000
REMARK INTER + INTRA:          -6.740
REMARK INTER:                  -6.685
REMARK INTRA:                  -0.055
REMARK UNBOUND:                -0.055
REMARK SMILES COc1cc2ccc(=O)oc2c(O)c1O
REMARK SMILES IDX 3 1 14 2 12 3 11 4 5 5 4 6 6 7 7 8 8 9 9 10 10 11 2 12 1 13
REMARK SMILES IDX 15 14 13 16
REMARK H PARENT 15 15 13 17
REMARK Flexibility Score: inf
ROOT
ATOM      1  C   UNL     1       4.407  11.695   4.628  1.00  0.00     0.165 A 
ATOM      2  C   UNL     1       5.452  12.044   3.755  1.00  0.00     0.204 A 
ATOM      3  C   UNL     1       5.983  11.081   2.861  1.00  0.00     0.205 A 
ATOM      4  C   UNL     1       5.459   9.782   2.853  1.00  0.00     0.184 A 
ATOM      5  C   UNL     1       4.411   9.434   3.731  1.00  0.00     0.025 A 
ATOM      6  C   UNL     1       3.890  10.387   4.611  1.00  0.00     0.062 A 
ATOM      7  C   UNL     1       3.914   8.126   3.694  1.00  0.00     0.020 A 
ATOM      8  C   UNL     1       4.463   7.209   2.799  1.00  0.00     0.094 A 
ATOM      9  C   UNL     1       5.501   7.623   1.959  1.00  0.00     0.336 A 
ATOM     10  O   UNL     1       6.011   6.811   1.144  1.00  0.00    -0.246 OA
ATOM     11  O   UNL     1       5.954   8.872   2.015  1.00  0.00    -0.419 OA
ENDROOT
BRANCH   1  12
ATOM     12  O   UNL     1       3.911  12.678   5.498  1.00  0.00    -0.493 OA
ATOM     13  C   UNL     1       3.315  12.412   6.763  1.00  0.00     0.278 C 
ENDBRANCH   1  12
BRANCH   2  14
ATOM     14  O   UNL     1       5.932  13.356   3.810  1.00  0.00    -0.502 OA
ATOM     15  H   UNL     1       6.080  13.872   4.664  1.00  0.00     0.293 HD
ENDBRANCH   2  14
BRANCH   3  16
ATOM     16  O   UNL     1       7.021  11.374   1.972  1.00  0.00    -0.502 OA
ATOM     17  H   UNL     1       7.479  12.271   1.910  1.00  0.00     0.293 HD
ENDBRANCH   3  16
TORSDOF 3
ENDMDL
MODEL 2
REMARK VINA RESULT:    -5.853      1.015      4.610
REMARK INTER + INTRA:          -6.592
REMARK INTER:                  -6.539
REMARK INTRA:                  -0.053
REMARK UNBOUND:                -0.055
REMARK SMILES COc1cc2ccc(=O)oc2c(O)c1O
REMARK SMILES IDX 3 1 14 2 12 3 11 4 5 5 4 6 6 7 7 8 8 9 9 10 10 11 2 12 1 13
REMARK SMILES IDX 15 14 13 16
REMARK H PARENT 15 15 13 17
REMARK Flexibility Score: inf
ROOT
ATOM      1  C   UNL     1       5.529   9.585   2.669  1.00  0.00     0.165 A 
ATOM      2  C   UNL     1       6.032  10.886   2.841  1.00  0.00     0.204 A 
ATOM      3  C   UNL     1       5.498  11.727   3.849  1.00  0.00     0.205 A 
ATOM      4  C   UNL     1       4.467  11.253   4.671  1.00  0.00     0.184 A 
ATOM      5  C   UNL     1       3.964   9.946   4.496  1.00  0.00     0.025 A 
ATOM      6  C   UNL     1       4.494   9.119   3.501  1.00  0.00     0.062 A 
ATOM      7  C   UNL     1       2.935   9.508   5.336  1.00  0.00     0.020 A 
ATOM      8  C   UNL     1       2.437  10.366   6.316  1.00  0.00     0.094 A 
ATOM      9  C   UNL     1       2.983  11.647   6.432  1.00  0.00     0.336 A 
ATOM     10  O   UNL     1       2.548  12.438   7.309  1.00  0.00    -0.246 OA
ATOM     11  O   UNL     1       3.961  12.038   5.620  1.00  0.00    -0.419 OA
ENDROOT
BRANCH   1  12
ATOM     12  O   UNL     1       6.086   8.785   1.659  1.00  0.00    -0.493 OA
ATOM     13  C   UNL     1       5.487   7.601   1.142  1.00  0.00     0.278 C 
ENDBRANCH   1  12
BRANCH   2  14
ATOM     14  O   UNL     1       7.060  11.302   1.990  1.00  0.00    -0.502 OA
ATOM     15  H   UNL     1       7.882  11.802   2.293  1.00  0.00     0.293 HD
ENDBRANCH   2  14
BRANCH   3  16
ATOM     16  O   UNL     1       5.960  13.029   4.063  1.00  0.00    -0.502 OA
ATOM     17  H   UNL     1       6.912  13.326   3.909  1.00  0.00     0.293 HD
ENDBRANCH   3  16
TORSDOF 3
ENDMDL
MODEL 3
REMARK VINA RESULT:    -5.765      1.157      4.732
REMARK INTER + INTRA:          -6.494
REMARK INTER:                  -6.433
REMARK INTRA:                  -0.061
REMARK UNBOUND:                -0.055
REMARK SMILES COc1cc2ccc(=O)oc2c(O)c1O
REMARK SMILES IDX 3 1 14 2 12 3 11 4 5 5 4 6 6 7 7 8 8 9 9 10 10 11 2 12 1 13
REMARK SMILES IDX 15 14 13 16
REMARK H PARENT 15 15 13 17
REMARK Flexibility Score: inf
ROOT
ATOM      1  C   UNL     1       5.654   7.902   2.158  1.00  0.00     0.165 A 
ATOM      2  C   UNL     1       6.470   8.985   1.786  1.00  0.00     0.204 A 
ATOM      3  C   UNL     1       6.273  10.259   2.377  1.00  0.00     0.205 A 
ATOM      4  C   UNL     1       5.263  10.429   3.333  1.00  0.00     0.184 A 
ATOM      5  C   UNL     1       4.446   9.340   3.704  1.00  0.00     0.025 A 
ATOM      6  C   UNL     1       4.643   8.086   3.119  1.00  0.00     0.062 A 
ATOM      7  C   UNL     1       3.448   9.550   4.661  1.00  0.00     0.020 A 
ATOM      8  C   UNL     1       3.288  10.817   5.219  1.00  0.00     0.094 A 
ATOM      9  C   UNL     1       4.133  11.850   4.803  1.00  0.00     0.336 A 
ATOM     10  O   UNL     1       4.005  13.002   5.294  1.00  0.00    -0.246 OA
ATOM     11  O   UNL     1       5.074  11.623   3.891  1.00  0.00    -0.419 OA
ENDROOT
BRANCH   1  12
ATOM     12  O   UNL     1       5.883   6.659   1.549  1.00  0.00    -0.493 OA
ATOM     13  C   UNL     1       4.864   5.830   0.996  1.00  0.00     0.278 C 
ENDBRANCH   1  12
BRANCH   2  14
ATOM     14  O   UNL     1       7.460   8.752   0.828  1.00  0.00    -0.502 OA
ATOM     15  H   UNL     1       7.831   9.459   0.210  1.00  0.00     0.293 HD
ENDBRANCH   2  14
BRANCH   3  16
ATOM     16  O   UNL     1       7.054  11.369   2.044  1.00  0.00    -0.502 OA
ATOM     17  H   UNL     1       7.557  11.931   2.715  1.00  0.00     0.293 HD
ENDBRANCH   3  16
TORSDOF 3
ENDMDL
MODEL 4
REMARK VINA RESULT:    -5.713      1.214      1.694
REMARK INTER + INTRA:          -6.436
REMARK INTER:                  -6.383
REMARK INTRA:                  -0.052
REMARK UNBOUND:                -0.055
REMARK SMILES COc1cc2ccc(=O)oc2c(O)c1O
REMARK SMILES IDX 3 1 14 2 12 3 11 4 5 5 4 6 6 7 7 8 8 9 9 10 10 11 2 12 1 13
REMARK SMILES IDX 15 14 13 16
REMARK H PARENT 15 15 13 17
REMARK Flexibility Score: inf
ROOT
ATOM      1  C   UNL     1       3.349  11.328   5.342  1.00  0.00     0.165 A 
ATOM      2  C   UNL     1       4.139  12.339   4.768  1.00  0.00     0.204 A 
ATOM      3  C   UNL     1       5.092  12.014   3.770  1.00  0.00     0.205 A 
ATOM      4  C   UNL     1       5.239  10.682   3.361  1.00  0.00     0.184 A 
ATOM      5  C   UNL     1       4.444   9.671   3.939  1.00  0.00     0.025 A 
ATOM      6  C   UNL     1       3.505   9.995   4.923  1.00  0.00     0.062 A 
ATOM      7  C   UNL     1       4.620   8.352   3.505  1.00  0.00     0.020 A 
ATOM      8  C   UNL     1       5.567   8.075   2.521  1.00  0.00     0.094 A 
ATOM      9  C   UNL     1       6.320   9.127   1.992  1.00  0.00     0.336 A 
ATOM     10  O   UNL     1       7.181   8.899   1.103  1.00  0.00    -0.246 OA
ATOM     11  O   UNL     1       6.133  10.371   2.423  1.00  0.00    -0.419 OA
ENDROOT
BRANCH   1  12
ATOM     12  O   UNL     1       2.418  11.693   6.327  1.00  0.00    -0.493 OA
ATOM     13  C   UNL     1       1.697  10.771   7.139  1.00  0.00     0.278 C 
ENDBRANCH   1  12
BRANCH   2  14
ATOM     14  O   UNL     1       3.947  13.648   5.218  1.00  0.00    -0.502 OA
ATOM     15  H   UNL     1       3.277  13.913   5.925  1.00  0.00     0.293 HD
ENDBRANCH   2  14
BRANCH   3  16
ATOM     16  O   UNL     1       5.904  12.978   3.166  1.00  0.00    -0.502 OA
ATOM     17  H   UNL     1       5.688  13.437   2.293  1.00  0.00     0.293 HD
ENDBRANCH   3  16
TORSDOF 3
ENDMDL
MODEL 5
REMARK VINA RESULT:    -5.614      1.497      2.350
REMARK INTER + INTRA:          -6.325
REMARK INTER:                  -6.255
REMARK INTRA:                  -0.070
REMARK UNBOUND:                -0.055
REMARK SMILES COc1cc2ccc(=O)oc2c(O)c1O
REMARK SMILES IDX 3 1 14 2 12 3 11 4 5 5 4 6 6 7 7 8 8 9 9 10 10 11 2 12 1 13
REMARK SMILES IDX 15 14 13 16
REMARK H PARENT 15 15 13 17
REMARK Flexibility Score: inf
ROOT
ATOM      1  C   UNL     1       5.341  10.269   3.180  1.00  0.00     0.165 A 
ATOM      2  C   UNL     1       6.350  10.147   2.209  1.00  0.00     0.204 A 
ATOM      3  C   UNL     1       6.520   8.926   1.510  1.00  0.00     0.205 A 
ATOM      4  C   UNL     1       5.676   7.844   1.793  1.00  0.00     0.184 A 
ATOM      5  C   UNL     1       4.664   7.970   2.768  1.00  0.00     0.025 A 
ATOM      6  C   UNL     1       4.500   9.176   3.455  1.00  0.00     0.062 A 
ATOM      7  C   UNL     1       3.841   6.867   3.023  1.00  0.00     0.020 A 
ATOM      8  C   UNL     1       4.040   5.684   2.313  1.00  0.00     0.094 A 
ATOM      9  C   UNL     1       5.062   5.631   1.361  1.00  0.00     0.336 A 
ATOM     10  O   UNL     1       5.260   4.573   0.710  1.00  0.00    -0.246 OA
ATOM     11  O   UNL     1       5.830   6.694   1.139  1.00  0.00    -0.419 OA
ENDROOT
BRANCH   1  12
ATOM     12  O   UNL     1       5.207  11.496   3.849  1.00  0.00    -0.493 OA
ATOM     13  C   UNL     1       5.611  11.731   5.194  1.00  0.00     0.278 C 
ENDBRANCH   1  12
BRANCH   2  14
ATOM     14  O   UNL     1       7.160  11.262   1.971  1.00  0.00    -0.502 OA
ATOM     15  H   UNL     1       7.891  11.295   1.277  1.00  0.00     0.293 HD
ENDBRANCH   2  14
BRANCH   3  16
ATOM     16  O   UNL     1       7.506   8.750   0.535  1.00  0.00    -0.502 OA
ATOM     17  H   UNL     1       8.060   7.912   0.433  1.00  0.00     0.293 HD
ENDBRANCH   3  16
TORSDOF 3
ENDMDL
MODEL 6
REMARK VINA RESULT:    -5.580      1.578      2.102
REMARK INTER + INTRA:          -6.287
REMARK INTER:                  -6.226
REMARK INTRA:                  -0.061
REMARK UNBOUND:                -0.055
REMARK SMILES COc1cc2ccc(=O)oc2c(O)c1O
REMARK SMILES IDX 3 1 14 2 12 3 11 4 5 5 4 6 6 7 7 8 8 9 9 10 10 11 2 12 1 13
REMARK SMILES IDX 15 14 13 16
REMARK H PARENT 15 15 13 17
REMARK Flexibility Score: inf
ROOT
ATOM      1  C   UNL     1       4.326   9.777   4.004  1.00  0.00     0.165 A 
ATOM      2  C   UNL     1       5.166  10.790   3.509  1.00  0.00     0.204 A 
ATOM      3  C   UNL     1       6.185  10.475   2.576  1.00  0.00     0.205 A 
ATOM      4  C   UNL     1       6.347   9.150   2.150  1.00  0.00     0.184 A 
ATOM      5  C   UNL     1       5.502   8.136   2.648  1.00  0.00     0.025 A 
ATOM      6  C   UNL     1       4.498   8.450   3.569  1.00  0.00     0.062 A 
ATOM      7  C   UNL     1       5.695   6.825   2.199  1.00  0.00     0.020 A 
ATOM      8  C   UNL     1       6.708   6.557   1.280  1.00  0.00     0.094 A 
ATOM      9  C   UNL     1       7.508   7.611   0.830  1.00  0.00     0.336 A 
ATOM     10  O   UNL     1       8.429   7.391   0.000  1.00  0.00    -0.246 OA
ATOM     11  O   UNL     1       7.303   8.848   1.273  1.00  0.00    -0.419 OA
ENDROOT
BRANCH   1  12
ATOM     12  O   UNL     1       3.330  10.132   4.927  1.00  0.00    -0.493 OA
ATOM     13  C   UNL     1       3.076   9.443   6.148  1.00  0.00     0.278 C 
ENDBRANCH   1  12
BRANCH   2  14
ATOM     14  O   UNL     1       4.954  12.092   3.972  1.00  0.00    -0.502 OA
ATOM     15  H   UNL     1       5.630  12.838   3.900  1.00  0.00     0.293 HD
ENDBRANCH   2  14
BRANCH   3  16
ATOM     16  O   UNL     1       7.048  11.441   2.052  1.00  0.00    -0.502 OA
ATOM     17  H   UNL     1       6.745  12.252   1.534  1.00  0.00     0.293 HD
ENDBRANCH   3  16
TORSDOF 3
ENDMDL
MODEL 7
REMARK VINA RESULT:    -5.221      1.726      2.936
REMARK INTER + INTRA:          -5.886
REMARK INTER:                  -5.817
REMARK INTRA:                  -0.069
REMARK UNBOUND:                -0.055
REMARK SMILES COc1cc2ccc(=O)oc2c(O)c1O
REMARK SMILES IDX 3 1 14 2 12 3 11 4 5 5 4 6 6 7 7 8 8 9 9 10 10 11 2 12 1 13
REMARK SMILES IDX 15 14 13 16
REMARK H PARENT 15 15 13 17
REMARK Flexibility Score: inf
ROOT
ATOM      1  C   UNL     1       3.912  10.866   5.015  1.00  0.00     0.165 A 
ATOM      2  C   UNL     1       3.038   9.770   4.913  1.00  0.00     0.204 A 
ATOM      3  C   UNL     1       3.319   8.718   4.006  1.00  0.00     0.205 A 
ATOM      4  C   UNL     1       4.473   8.778   3.213  1.00  0.00     0.184 A 
ATOM      5  C   UNL     1       5.349   9.880   3.318  1.00  0.00     0.025 A 
ATOM      6  C   UNL     1       5.068  10.915   4.213  1.00  0.00     0.062 A 
ATOM      7  C   UNL     1       6.491   9.904   2.509  1.00  0.00     0.020 A 
ATOM      8  C   UNL     1       6.732   8.849   1.630  1.00  0.00     0.094 A 
ATOM      9  C   UNL     1       5.820   7.790   1.580  1.00  0.00     0.336 A 
ATOM     10  O   UNL     1       6.018   6.828   0.793  1.00  0.00    -0.246 OA
ATOM     11  O   UNL     1       4.742   7.793   2.359  1.00  0.00    -0.419 OA
ENDROOT
BRANCH   1  12
ATOM     12  O   UNL     1       3.596  11.886   5.925  1.00  0.00    -0.493 OA
ATOM     13  C   UNL     1       4.232  12.069   7.186  1.00  0.00     0.278 C 
ENDBRANCH   1  12
BRANCH   2  14
ATOM     14  O   UNL     1       1.903   9.768   5.730  1.00  0.00    -0.502 OA
ATOM     15  H   UNL     1       1.449  10.601   6.074  1.00  0.00     0.293 HD
ENDBRANCH   2  14
BRANCH   3  16
ATOM     16  O   UNL     1       2.484   7.606   3.864  1.00  0.00    -0.502 OA
ATOM     17  H   UNL     1       1.535   7.648   3.525  1.00  0.00     0.293 HD
ENDBRANCH   3  16
TORSDOF 3
ENDMDL
MODEL 8
REMARK VINA RESULT:    -5.107      1.640      5.440
REMARK INTER + INTRA:          -5.759
REMARK INTER:                  -5.696
REMARK INTRA:                  -0.063
REMARK UNBOUND:                -0.055
REMARK SMILES COc1cc2ccc(=O)oc2c(O)c1O
REMARK SMILES IDX 3 1 14 2 12 3 11 4 5 5 4 6 6 7 7 8 8 9 9 10 10 11 2 12 1 13
REMARK SMILES IDX 15 14 13 16
REMARK H PARENT 15 15 13 17
REMARK Flexibility Score: inf
ROOT
ATOM      1  C   UNL     1       5.416   8.163   2.242  1.00  0.00     0.165 A 
ATOM      2  C   UNL     1       4.305   7.772   3.010  1.00  0.00     0.204 A 
ATOM      3  C   UNL     1       3.713   8.684   3.919  1.00  0.00     0.205 A 
ATOM      4  C   UNL     1       4.243   9.975   4.047  1.00  0.00     0.184 A 
ATOM      5  C   UNL     1       5.358  10.364   3.275  1.00  0.00     0.025 A 
ATOM      6  C   UNL     1       5.939   9.462   2.379  1.00  0.00     0.062 A 
ATOM      7  C   UNL     1       5.858  11.661   3.430  1.00  0.00     0.020 A 
ATOM      8  C   UNL     1       5.247  12.528   4.335  1.00  0.00     0.094 A 
ATOM      9  C   UNL     1       4.146  12.075   5.067  1.00  0.00     0.336 A 
ATOM     10  O   UNL     1       3.579  12.841   5.889  1.00  0.00    -0.246 OA
ATOM     11  O   UNL     1       3.691  10.837   4.900  1.00  0.00    -0.419 OA
ENDROOT
BRANCH   1  12
ATOM     12  O   UNL     1       5.972   7.228   1.354  1.00  0.00    -0.493 OA
ATOM     13  C   UNL     1       7.351   6.878   1.308  1.00  0.00     0.278 C 
ENDBRANCH   1  12
BRANCH   2  14
ATOM     14  O   UNL     1       3.823   6.471   2.838  1.00  0.00    -0.502 OA
ATOM     15  H   UNL     1       4.396   5.641   2.886  1.00  0.00     0.293 HD
ENDBRANCH   2  14
BRANCH   3  16
ATOM     16  O   UNL     1       2.608   8.348   4.706  1.00  0.00    -0.502 OA
ATOM     17  H   UNL     1       2.669   7.899   5.608  1.00  0.00     0.293 HD
ENDBRANCH   3  16
TORSDOF 3
ENDMDL
MODEL 9
REMARK VINA RESULT:    -4.744      3.788      6.366
REMARK INTER + INTRA:          -5.354
REMARK INTER:                  -5.284
REMARK INTRA:                  -0.070
REMARK UNBOUND:                -0.055
REMARK SMILES COc1cc2ccc(=O)oc2c(O)c1O
REMARK SMILES IDX 3 1 14 2 12 3 11 4 5 5 4 6 6 7 7 8 8 9 9 10 10 11 2 12 1 13
REMARK SMILES IDX 15 14 13 16
REMARK H PARENT 15 15 13 17
REMARK Flexibility Score: inf
ROOT
ATOM      1  C   UNL     1       5.144   6.697   1.634  1.00  0.00     0.165 A 
ATOM      2  C   UNL     1       5.186   5.646   2.566  1.00  0.00     0.204 A 
ATOM      3  C   UNL     1       4.454   4.456   2.329  1.00  0.00     0.205 A 
ATOM      4  C   UNL     1       3.691   4.335   1.160  1.00  0.00     0.184 A 
ATOM      5  C   UNL     1       3.651   5.392   0.226  1.00  0.00     0.025 A 
ATOM      6  C   UNL     1       4.375   6.564   0.464  1.00  0.00     0.062 A 
ATOM      7  C   UNL     1       2.877   5.235  -0.929  1.00  0.00     0.020 A 
ATOM      8  C   UNL     1       2.173   4.048  -1.127  1.00  0.00     0.094 A 
ATOM      9  C   UNL     1       2.258   3.043  -0.158  1.00  0.00     0.336 A 
ATOM     10  O   UNL     1       1.629   1.965  -0.316  1.00  0.00    -0.246 OA
ATOM     11  O   UNL     1       3.000   3.219   0.930  1.00  0.00    -0.419 OA
ENDROOT
BRANCH   1  12
ATOM     12  O   UNL     1       5.884   7.858   1.909  1.00  0.00    -0.493 OA
ATOM     13  C   UNL     1       5.320   9.094   2.335  1.00  0.00     0.278 C 
ENDBRANCH   1  12
BRANCH   2  14
ATOM     14  O   UNL     1       5.965   5.826   3.713  1.00  0.00    -0.502 OA
ATOM     15  H   UNL     1       5.590   5.931   4.644  1.00  0.00     0.293 HD
ENDBRANCH   2  14
BRANCH   3  16
ATOM     16  O   UNL     1       4.459   3.380   3.221  1.00  0.00    -0.502 OA
ATOM     17  H   UNL     1       3.663   2.786   3.399  1.00  0.00     0.293 HD
ENDBRANCH   3  16
TORSDOF 3
ENDMDL
