MODEL 1
REMARK VINA RESULT:    -5.095      0.000      0.000
REMARK INTER + INTRA:          -5.244
REMARK INTER:                  -5.244
REMARK INTRA:                   0.000
REMARK UNBOUND:                 0.000
REMARK SMILES Nc1ncnc2nc[nH]c12
REMARK SMILES IDX 8 1 7 2 6 3 5 4 4 5 3 6 2 7 10 8 9 9 1 11
REMARK H PARENT 9 10 1 12 1 13
REMARK Flexibility Score: inf
ROOT
ATOM      1  C   UNL     1     -14.019 -30.838 -13.337  1.00  0.00     0.199 A 
ATOM      2  N   UNL     1     -14.083 -29.997 -12.268  1.00  0.00    -0.217 NA
ATOM      3  C   UNL     1     -14.204 -28.796 -12.857  1.00  0.00     0.182 A 
ATOM      4  N   UNL     1     -14.309 -27.598 -12.235  1.00  0.00    -0.215 NA
ATOM      5  C   UNL     1     -14.425 -26.476 -13.008  1.00  0.00     0.226 A 
ATOM      6  N   UNL     1     -14.434 -26.573 -14.377  1.00  0.00    -0.217 NA
ATOM      7  C   UNL     1     -14.328 -27.781 -15.007  1.00  0.00     0.152 A 
ATOM      8  C   UNL     1     -14.212 -28.912 -14.205  1.00  0.00     0.127 A 
ATOM      9  N   UNL     1     -14.095 -30.205 -14.535  1.00  0.00    -0.340 N 
ATOM     10  H   UNL     1     -14.066 -30.636 -15.485  1.00  0.00     0.168 HD
ENDROOT
BRANCH   7  11
ATOM     11  N   UNL     1     -14.341 -27.856 -16.433  1.00  0.00    -0.382 N 
ATOM     12  H   UNL     1     -13.503 -27.595 -16.999  1.00  0.00     0.158 HD
ATOM     13  H   UNL     1     -15.200 -28.176 -16.932  1.00  0.00     0.158 HD
ENDBRANCH   7  11
TORSDOF 1
ENDMDL
MODEL 2
REMARK VINA RESULT:    -4.873      1.161      3.040
REMARK INTER + INTRA:          -5.015
REMARK INTER:                  -5.015
REMARK INTRA:                   0.000
REMARK UNBOUND:                 0.000
REMARK SMILES Nc1ncnc2nc[nH]c12
REMARK SMILES IDX 8 1 7 2 6 3 5 4 4 5 3 6 2 7 10 8 9 9 1 11
REMARK H PARENT 9 10 1 12 1 13
REMARK Flexibility Score: inf
ROOT
ATOM      1  C   UNL     1     -15.091 -26.453 -14.385  1.00  0.00     0.199 A 
ATOM      2  N   UNL     1     -14.639 -26.334 -13.106  1.00  0.00    -0.217 NA
ATOM      3  C   UNL     1     -14.384 -27.610 -12.775  1.00  0.00     0.182 A 
ATOM      4  N   UNL     1     -13.905 -28.057 -11.589  1.00  0.00    -0.215 NA
ATOM      5  C   UNL     1     -13.707 -29.401 -11.437  1.00  0.00     0.226 A 
ATOM      6  N   UNL     1     -13.989 -30.266 -12.465  1.00  0.00    -0.217 NA
ATOM      7  C   UNL     1     -14.472 -29.817 -13.661  1.00  0.00     0.152 A 
ATOM      8  C   UNL     1     -14.667 -28.447 -13.799  1.00  0.00     0.127 A 
ATOM      9  N   UNL     1     -15.120 -27.731 -14.837  1.00  0.00    -0.340 N 
ATOM     10  H   UNL     1     -15.426 -28.067 -15.777  1.00  0.00     0.168 HD
ENDROOT
BRANCH   7  11
ATOM     11  N   UNL     1     -14.757 -30.737 -14.716  1.00  0.00    -0.382 N 
ATOM     12  H   UNL     1     -15.589 -30.614 -15.335  1.00  0.00     0.158 HD
ATOM     13  H   UNL     1     -14.129 -31.554 -14.881  1.00  0.00     0.158 HD
ENDBRANCH   7  11
TORSDOF 1
ENDMDL
MODEL 3
REMARK VINA RESULT:    -4.844      0.707      2.805
REMARK INTER + INTRA:          -4.986
REMARK INTER:                  -4.986
REMARK INTRA:                   0.000
REMARK UNBOUND:                 0.000
REMARK SMILES Nc1ncnc2nc[nH]c12
REMARK SMILES IDX 8 1 7 2 6 3 5 4 4 5 3 6 2 7 10 8 9 9 1 11
REMARK H PARENT 9 10 1 12 1 13
REMARK Flexibility Score: inf
ROOT
ATOM      1  C   UNL     1     -14.183 -26.651 -12.036  1.00  0.00     0.199 A 
ATOM      2  N   UNL     1     -14.144 -27.857 -11.406  1.00  0.00    -0.217 NA
ATOM      3  C   UNL     1     -14.089 -28.715 -12.437  1.00  0.00     0.182 A 
ATOM      4  N   UNL     1     -14.033 -30.066 -12.363  1.00  0.00    -0.215 NA
ATOM      5  C   UNL     1     -13.980 -30.777 -13.529  1.00  0.00     0.226 A 
ATOM      6  N   UNL     1     -13.984 -30.129 -14.739  1.00  0.00    -0.217 NA
ATOM      7  C   UNL     1     -14.041 -28.766 -14.817  1.00  0.00     0.152 A 
ATOM      8  C   UNL     1     -14.093 -28.058 -13.620  1.00  0.00     0.127 A 
ATOM      9  N   UNL     1     -14.153 -26.740 -13.390  1.00  0.00    -0.340 N 
ATOM     10  H   UNL     1     -14.173 -25.957 -14.080  1.00  0.00     0.168 HD
ENDROOT
BRANCH   7  11
ATOM     11  N   UNL     1     -14.043 -28.114 -16.088  1.00  0.00    -0.382 N 
ATOM     12  H   UNL     1     -14.078 -27.073 -16.165  1.00  0.00     0.158 HD
ATOM     13  H   UNL     1     -14.011 -28.679 -16.965  1.00  0.00     0.158 HD
ENDBRANCH   7  11
TORSDOF 1
ENDMDL
MODEL 4
REMARK VINA RESULT:    -4.823      1.683      2.330
REMARK INTER + INTRA:          -4.964
REMARK INTER:                  -4.964
REMARK INTRA:                   0.000
REMARK UNBOUND:                 0.000
REMARK SMILES Nc1ncnc2nc[nH]c12
REMARK SMILES IDX 8 1 7 2 6 3 5 4 4 5 3 6 2 7 10 8 9 9 1 11
REMARK H PARENT 9 10 1 12 1 13
REMARK Flexibility Score: inf
ROOT
ATOM      1  C   UNL     1     -13.955 -32.032 -14.738  1.00  0.00     0.199 A 
ATOM      2  N   UNL     1     -13.030 -31.930 -13.745  1.00  0.00    -0.217 NA
ATOM      3  C   UNL     1     -13.305 -30.724 -13.222  1.00  0.00     0.182 A 
ATOM      4  N   UNL     1     -12.667 -30.127 -12.187  1.00  0.00    -0.215 NA
ATOM      5  C   UNL     1     -13.093 -28.889 -11.793  1.00  0.00     0.226 A 
ATOM      6  N   UNL     1     -14.141 -28.277 -12.434  1.00  0.00    -0.217 NA
ATOM      7  C   UNL     1     -14.786 -28.878 -13.478  1.00  0.00     0.152 A 
ATOM      8  C   UNL     1     -14.340 -30.137 -13.866  1.00  0.00     0.127 A 
ATOM      9  N   UNL     1     -14.771 -30.953 -14.837  1.00  0.00    -0.340 N 
ATOM     10  H   UNL     1     -15.549 -30.804 -15.517  1.00  0.00     0.168 HD
ENDROOT
BRANCH   7  11
ATOM     11  N   UNL     1     -15.875 -28.221 -14.129  1.00  0.00    -0.382 N 
ATOM     12  H   UNL     1     -15.752 -27.293 -14.591  1.00  0.00     0.158 HD
ATOM     13  H   UNL     1     -16.817 -28.668 -14.150  1.00  0.00     0.158 HD
ENDBRANCH   7  11
TORSDOF 1
ENDMDL
MODEL 5
REMARK VINA RESULT:    -4.790      1.335      1.530
REMARK INTER + INTRA:          -4.930
REMARK INTER:                  -4.930
REMARK INTRA:                   0.000
REMARK UNBOUND:                 0.000
REMARK SMILES Nc1ncnc2nc[nH]c12
REMARK SMILES IDX 8 1 7 2 6 3 5 4 4 5 3 6 2 7 10 8 9 9 1 11
REMARK H PARENT 9 10 1 12 1 13
REMARK Flexibility Score: inf
ROOT
ATOM      1  C   UNL     1     -13.057 -29.179 -11.810  1.00  0.00     0.199 A 
ATOM      2  N   UNL     1     -13.491 -27.947 -11.427  1.00  0.00    -0.217 NA
ATOM      3  C   UNL     1     -13.928 -27.426 -12.585  1.00  0.00     0.182 A 
ATOM      4  N   UNL     1     -14.470 -26.198 -12.766  1.00  0.00    -0.215 NA
ATOM      5  C   UNL     1     -14.859 -25.842 -14.027  1.00  0.00     0.226 A 
ATOM      6  N   UNL     1     -14.702 -26.714 -15.076  1.00  0.00    -0.217 NA
ATOM      7  C   UNL     1     -14.155 -27.953 -14.895  1.00  0.00     0.152 A 
ATOM      8  C   UNL     1     -13.765 -28.299 -13.605  1.00  0.00     0.127 A 
ATOM      9  N   UNL     1     -13.211 -29.424 -13.135  1.00  0.00    -0.340 N 
ATOM     10  H   UNL     1     -12.953 -30.292 -13.656  1.00  0.00     0.168 HD
ENDROOT
BRANCH   7  11
ATOM     11  N   UNL     1     -14.002 -28.844 -16.002  1.00  0.00    -0.382 N 
ATOM     12  H   UNL     1     -13.105 -28.902 -16.533  1.00  0.00     0.158 HD
ATOM     13  H   UNL     1     -14.796 -29.453 -16.296  1.00  0.00     0.158 HD
ENDBRANCH   7  11
TORSDOF 1
ENDMDL
MODEL 6
REMARK VINA RESULT:    -4.613      1.089      2.624
REMARK INTER + INTRA:          -4.748
REMARK INTER:                  -4.748
REMARK INTRA:                   0.000
REMARK UNBOUND:                 0.000
REMARK SMILES Nc1ncnc2nc[nH]c12
REMARK SMILES IDX 8 1 7 2 6 3 5 4 4 5 3 6 2 7 10 8 9 9 1 11
REMARK H PARENT 9 10 1 12 1 13
REMARK Flexibility Score: inf
ROOT
ATOM      1  C   UNL     1     -13.995 -30.406 -12.923  1.00  0.00     0.199 A 
ATOM      2  N   UNL     1     -14.293 -29.907 -14.154  1.00  0.00    -0.217 NA
ATOM      3  C   UNL     1     -14.430 -28.595 -13.904  1.00  0.00     0.182 A 
ATOM      4  N   UNL     1     -14.731 -27.627 -14.802  1.00  0.00    -0.215 NA
ATOM      5  C   UNL     1     -14.828 -26.338 -14.357  1.00  0.00     0.226 A 
ATOM      6  N   UNL     1     -14.624 -26.043 -13.032  1.00  0.00    -0.217 NA
ATOM      7  C   UNL     1     -14.320 -27.018 -12.124  1.00  0.00     0.152 A 
ATOM      8  C   UNL     1     -14.224 -28.324 -12.594  1.00  0.00     0.127 A 
ATOM      9  N   UNL     1     -13.945 -29.463 -11.949  1.00  0.00    -0.340 N 
ATOM     10  H   UNL     1     -13.738 -29.606 -10.936  1.00  0.00     0.168 HD
ENDROOT
BRANCH   7  11
ATOM     11  N   UNL     1     -14.111 -26.685 -10.750  1.00  0.00    -0.382 N 
ATOM     12  H   UNL     1     -13.155 -26.693 -10.329  1.00  0.00     0.158 HD
ATOM     13  H   UNL     1     -14.921 -26.430 -10.145  1.00  0.00     0.158 HD
ENDBRANCH   7  11
TORSDOF 1
ENDMDL
MODEL 7
REMARK VINA RESULT:    -4.575      1.391      3.932
REMARK INTER + INTRA:          -4.709
REMARK INTER:                  -4.709
REMARK INTRA:                   0.000
REMARK UNBOUND:                 0.000
REMARK SMILES Nc1ncnc2nc[nH]c12
REMARK SMILES IDX 8 1 7 2 6 3 5 4 4 5 3 6 2 7 10 8 9 9 1 11
REMARK H PARENT 9 10 1 12 1 13
REMARK Flexibility Score: inf
ROOT
ATOM      1  C   UNL     1     -14.893 -25.861 -14.354  1.00  0.00     0.199 A 
ATOM      2  N   UNL     1     -14.747 -27.102 -14.894  1.00  0.00    -0.217 NA
ATOM      3  C   UNL     1     -14.462 -27.850 -13.816  1.00  0.00     0.182 A 
ATOM      4  N   UNL     1     -14.223 -29.183 -13.798  1.00  0.00    -0.215 NA
ATOM      5  C   UNL     1     -13.950 -29.774 -12.596  1.00  0.00     0.226 A 
ATOM      6  N   UNL     1     -13.922 -29.028 -11.444  1.00  0.00    -0.217 NA
ATOM      7  C   UNL     1     -14.163 -27.684 -11.461  1.00  0.00     0.152 A 
ATOM      8  C   UNL     1     -14.440 -27.098 -12.692  1.00  0.00     0.127 A 
ATOM      9  N   UNL     1     -14.712 -25.826 -13.010  1.00  0.00    -0.340 N 
ATOM     10  H   UNL     1     -14.772 -24.994 -12.382  1.00  0.00     0.168 HD
ENDROOT
BRANCH   7  11
ATOM     11  N   UNL     1     -14.129 -26.928 -10.248  1.00  0.00    -0.382 N 
ATOM     12  H   UNL     1     -14.939 -26.339  -9.953  1.00  0.00     0.158 HD
ATOM     13  H   UNL     1     -13.283 -26.957  -9.639  1.00  0.00     0.158 HD
ENDBRANCH   7  11
TORSDOF 1
ENDMDL
MODEL 8
REMARK VINA RESULT:    -4.531      1.191      2.102
REMARK INTER + INTRA:          -4.663
REMARK INTER:                  -4.663
REMARK INTRA:                   0.000
REMARK UNBOUND:                 0.000
REMARK SMILES Nc1ncnc2nc[nH]c12
REMARK SMILES IDX 8 1 7 2 6 3 5 4 4 5 3 6 2 7 10 8 9 9 1 11
REMARK H PARENT 9 10 1 12 1 13
REMARK Flexibility Score: inf
ROOT
ATOM      1  C   UNL     1     -14.140 -29.269 -15.308  1.00  0.00     0.199 A 
ATOM      2  N   UNL     1     -14.002 -29.756 -14.044  1.00  0.00    -0.217 NA
ATOM      3  C   UNL     1     -14.106 -28.644 -13.298  1.00  0.00     0.182 A 
ATOM      4  N   UNL     1     -14.039 -28.567 -11.947  1.00  0.00    -0.215 NA
ATOM      5  C   UNL     1     -14.169 -27.339 -11.362  1.00  0.00     0.226 A 
ATOM      6  N   UNL     1     -14.362 -26.218 -12.132  1.00  0.00    -0.217 NA
ATOM      7  C   UNL     1     -14.430 -26.294 -13.494  1.00  0.00     0.152 A 
ATOM      8  C   UNL     1     -14.297 -27.552 -14.073  1.00  0.00     0.127 A 
ATOM      9  N   UNL     1     -14.322 -27.926 -15.359  1.00  0.00    -0.340 N 
ATOM     10  H   UNL     1     -14.449 -27.333 -16.209  1.00  0.00     0.168 HD
ENDROOT
BRANCH   7  11
ATOM     11  N   UNL     1     -14.633 -25.114 -14.274  1.00  0.00    -0.382 N 
ATOM     12  H   UNL     1     -14.896 -25.168 -15.283  1.00  0.00     0.158 HD
ATOM     13  H   UNL     1     -14.517 -24.173 -13.838  1.00  0.00     0.158 HD
ENDBRANCH   7  11
TORSDOF 1
ENDMDL
MODEL 9
REMARK VINA RESULT:    -4.399      1.321      2.763
REMARK INTER + INTRA:          -4.527
REMARK INTER:                  -4.527
REMARK INTRA:                   0.000
REMARK UNBOUND:                 0.000
REMARK SMILES Nc1ncnc2nc[nH]c12
REMARK SMILES IDX 8 1 7 2 6 3 5 4 4 5 3 6 2 7 10 8 9 9 1 11
REMARK H PARENT 9 10 1 12 1 13
REMARK Flexibility Score: inf
ROOT
ATOM      1  C   UNL     1     -14.046 -27.578 -10.712  1.00  0.00     0.199 A 
ATOM      2  N   UNL     1     -13.784 -28.784 -11.286  1.00  0.00    -0.217 NA
ATOM      3  C   UNL     1     -13.985 -28.529 -12.589  1.00  0.00     0.182 A 
ATOM      4  N   UNL     1     -13.856 -29.405 -13.614  1.00  0.00    -0.215 NA
ATOM      5  C   UNL     1     -14.105 -28.958 -14.882  1.00  0.00     0.226 A 
ATOM      6  N   UNL     1     -14.475 -27.654 -15.100  1.00  0.00    -0.217 NA
ATOM      7  C   UNL     1     -14.606 -26.769 -14.067  1.00  0.00     0.152 A 
ATOM      8  C   UNL     1     -14.348 -27.240 -12.784  1.00  0.00     0.127 A 
ATOM      9  N   UNL     1     -14.394 -26.614 -11.601  1.00  0.00    -0.340 N 
ATOM     10  H   UNL     1     -14.639 -25.620 -11.397  1.00  0.00     0.168 HD
ENDROOT
BRANCH   7  11
ATOM     11  N   UNL     1     -14.991 -25.416 -14.319  1.00  0.00    -0.382 N 
ATOM     12  H   UNL     1     -14.903 -24.994 -15.270  1.00  0.00     0.158 HD
ATOM     13  H   UNL     1     -15.369 -24.828 -13.545  1.00  0.00     0.158 HD
ENDBRANCH   7  11
TORSDOF 1
ENDMDL
