MODEL 1
REMARK VINA RESULT:    -4.027      0.000      0.000
REMARK INTER + INTRA:          -8.054
REMARK INTER:                  -6.852
REMARK INTRA:                  -1.202
REMARK UNBOUND:                -1.202
REMARK SMILES CCCCCCCCCCCCCC(=O)[O-]
REMARK SMILES IDX 8 1 9 2 10 3 11 4 12 5 13 6 14 7 15 8 16 9 7 10 6 11 5 12
REMARK SMILES IDX 4 13 3 14 2 15 1 16
REMARK H PARENT
REMARK Flexibility Score: inf
ROOT
ATOM      1  C   UNL     1       0.764   7.236  -0.468  1.00  0.00     0.000 C 
ENDROOT
BRANCH   1   2
ATOM      2  C   UNL     1       0.800   8.493   0.425  1.00  0.00     0.000 C 
BRANCH   2   3
ATOM      3  C   UNL     1      -0.164   8.470   1.625  1.00  0.00     0.000 C 
BRANCH   3   4
ATOM      4  C   UNL     1       0.426   7.758   2.851  1.00  0.00     0.000 C 
BRANCH   4   5
ATOM      5  C   UNL     1      -0.372   6.489   3.187  1.00  0.00     0.006 C 
BRANCH   5   6
ATOM      6  C   UNL     1       0.306   5.219   2.656  1.00  0.00     0.053 C 
BRANCH   6   7
ATOM      7  C   UNL     1      -0.333   3.977   3.198  1.00  0.00     0.041 C 
ATOM      8  O   UNL     1      -0.458   3.820   4.441  1.00  0.00    -0.550 OA
ATOM      9  O   UNL     1      -0.823   3.010   2.330  1.00  0.00    -0.550 OA
ENDBRANCH   6   7
ENDBRANCH   5   6
ENDBRANCH   4   5
ENDBRANCH   3   4
ENDBRANCH   2   3
ENDBRANCH   1   2
BRANCH   1  10
ATOM     10  C   UNL     1       0.158   7.444  -1.868  1.00  0.00     0.000 C 
BRANCH  10  11
ATOM     11  C   UNL     1       0.688   8.708  -2.565  1.00  0.00    -0.000 C 
BRANCH  11  12
ATOM     12  C   UNL     1       1.768   8.394  -3.615  1.00  0.00    -0.000 C 
BRANCH  12  13
ATOM     13  C   UNL     1       1.889   6.887  -3.903  1.00  0.00    -0.000 C 
BRANCH  13  14
ATOM     14  C   UNL     1       3.343   6.391  -3.844  1.00  0.00    -0.000 C 
BRANCH  14  15
ATOM     15  C   UNL     1       4.189   7.153  -2.813  1.00  0.00    -0.003 C 
ATOM     16  C   UNL     1       4.221   6.414  -1.478  1.00  0.00     0.004 C 
ENDBRANCH  14  15
ENDBRANCH  13  14
ENDBRANCH  12  13
ENDBRANCH  11  12
ENDBRANCH  10  11
ENDBRANCH   1  10
TORSDOF 12
ENDMDL
MODEL 2
REMARK VINA RESULT:    -4.023      1.379      2.651
REMARK INTER + INTRA:          -8.047
REMARK INTER:                  -6.207
REMARK INTRA:                  -1.840
REMARK UNBOUND:                -1.202
REMARK SMILES CCCCCCCCCCCCCC(=O)[O-]
REMARK SMILES IDX 8 1 9 2 10 3 11 4 12 5 13 6 14 7 15 8 16 9 7 10 6 11 5 12
REMARK SMILES IDX 4 13 3 14 2 15 1 16
REMARK H PARENT
REMARK Flexibility Score: inf
ROOT
ATOM      1  C   UNL     1       1.067   8.298  -2.959  1.00  0.00     0.000 C 
ENDROOT
BRANCH   1   2
ATOM      2  C   UNL     1       0.167   7.699  -1.859  1.00  0.00     0.000 C 
BRANCH   2   3
ATOM      3  C   UNL     1      -0.140   8.641  -0.681  1.00  0.00     0.000 C 
BRANCH   3   4
ATOM      4  C   UNL     1       0.490   8.172   0.638  1.00  0.00     0.000 C 
BRANCH   4   5
ATOM      5  C   UNL     1       0.997   6.726   0.521  1.00  0.00     0.006 C 
BRANCH   5   6
ATOM      6  C   UNL     1       1.424   6.148   1.876  1.00  0.00     0.053 C 
BRANCH   6   7
ATOM      7  C   UNL     1       0.303   5.417   2.550  1.00  0.00     0.041 C 
ATOM      8  O   UNL     1      -0.476   6.030   3.326  1.00  0.00    -0.550 OA
ATOM      9  O   UNL     1       0.097   4.069   2.291  1.00  0.00    -0.550 OA
ENDBRANCH   6   7
ENDBRANCH   5   6
ENDBRANCH   4   5
ENDBRANCH   3   4
ENDBRANCH   2   3
ENDBRANCH   1   2
BRANCH   1  10
ATOM     10  C   UNL     1       1.823   7.269  -3.819  1.00  0.00     0.000 C 
BRANCH  10  11
ATOM     11  C   UNL     1       2.701   6.323  -2.984  1.00  0.00    -0.000 C 
BRANCH  11  12
ATOM     12  C   UNL     1       4.179   6.365  -3.405  1.00  0.00    -0.000 C 
BRANCH  12  13
ATOM     13  C   UNL     1       5.128   6.549  -2.207  1.00  0.00    -0.000 C 
BRANCH  13  14
ATOM     14  C   UNL     1       4.390   6.500  -0.858  1.00  0.00    -0.000 C 
BRANCH  14  15
ATOM     15  C   UNL     1       4.598   7.771  -0.022  1.00  0.00    -0.003 C 
ATOM     16  C   UNL     1       4.025   8.995  -0.732  1.00  0.00     0.004 C 
ENDBRANCH  14  15
ENDBRANCH  13  14
ENDBRANCH  12  13
ENDBRANCH  11  12
ENDBRANCH  10  11
ENDBRANCH   1  10
TORSDOF 12
ENDMDL
MODEL 3
REMARK VINA RESULT:    -4.003      1.210      1.598
REMARK INTER + INTRA:          -8.014
REMARK INTER:                  -7.089
REMARK INTRA:                  -0.925
REMARK UNBOUND:                -1.202
REMARK SMILES CCCCCCCCCCCCCC(=O)[O-]
REMARK SMILES IDX 8 1 9 2 10 3 11 4 12 5 13 6 14 7 15 8 16 9 7 10 6 11 5 12
REMARK SMILES IDX 4 13 3 14 2 15 1 16
REMARK H PARENT
REMARK Flexibility Score: inf
ROOT
ATOM      1  C   UNL     1      -0.974   8.621  -1.412  1.00  0.00     0.000 C 
ENDROOT
BRANCH   1   2
ATOM      2  C   UNL     1      -0.728   9.683  -0.321  1.00  0.00     0.000 C 
BRANCH   2   3
ATOM      3  C   UNL     1       0.235   9.257   0.801  1.00  0.00     0.000 C 
BRANCH   3   4
ATOM      4  C   UNL     1      -0.422   8.327   1.832  1.00  0.00     0.000 C 
BRANCH   4   5
ATOM      5  C   UNL     1       0.345   7.000   1.942  1.00  0.00     0.006 C 
BRANCH   5   6
ATOM      6  C   UNL     1      -0.212   6.099   3.052  1.00  0.00     0.053 C 
BRANCH   6   7
ATOM      7  C   UNL     1       0.054   4.650   2.779  1.00  0.00     0.041 C 
ATOM      8  O   UNL     1       1.232   4.246   2.596  1.00  0.00    -0.550 OA
ATOM      9  O   UNL     1      -0.995   3.741   2.763  1.00  0.00    -0.550 OA
ENDBRANCH   6   7
ENDBRANCH   5   6
ENDBRANCH   4   5
ENDBRANCH   3   4
ENDBRANCH   2   3
ENDBRANCH   1   2
BRANCH   1  10
ATOM     10  C   UNL     1       0.281   8.166  -2.178  1.00  0.00     0.000 C 
BRANCH  10  11
ATOM     11  C   UNL     1       0.744   6.755  -1.779  1.00  0.00    -0.000 C 
BRANCH  11  12
ATOM     12  C   UNL     1       1.523   6.050  -2.902  1.00  0.00    -0.000 C 
BRANCH  12  13
ATOM     13  C   UNL     1       2.361   7.030  -3.742  1.00  0.00    -0.000 C 
BRANCH  13  14
ATOM     14  C   UNL     1       3.698   7.387  -3.070  1.00  0.00    -0.000 C 
BRANCH  14  15
ATOM     15  C   UNL     1       4.737   6.261  -3.179  1.00  0.00    -0.003 C 
ATOM     16  C   UNL     1       5.078   5.695  -1.803  1.00  0.00     0.004 C 
ENDBRANCH  14  15
ENDBRANCH  13  14
ENDBRANCH  12  13
ENDBRANCH  11  12
ENDBRANCH  10  11
ENDBRANCH   1  10
TORSDOF 12
ENDMDL
MODEL 4
REMARK VINA RESULT:    -3.957      1.632      3.475
REMARK INTER + INTRA:          -7.936
REMARK INTER:                  -6.340
REMARK INTRA:                  -1.596
REMARK UNBOUND:                -1.202
REMARK SMILES CCCCCCCCCCCCCC(=O)[O-]
REMARK SMILES IDX 8 1 9 2 10 3 11 4 12 5 13 6 14 7 15 8 16 9 7 10 6 11 5 12
REMARK SMILES IDX 4 13 3 14 2 15 1 16
REMARK H PARENT
REMARK Flexibility Score: inf
ROOT
ATOM      1  C   UNL     1       4.046   6.611  -1.416  1.00  0.00     0.000 C 
ENDROOT
BRANCH   1   2
ATOM      2  C   UNL     1       4.095   7.939  -0.633  1.00  0.00     0.000 C 
BRANCH   2   3
ATOM      3  C   UNL     1       2.986   8.118   0.419  1.00  0.00     0.000 C 
BRANCH   3   4
ATOM      4  C   UNL     1       2.513   6.786   1.020  1.00  0.00     0.000 C 
BRANCH   4   5
ATOM      5  C   UNL     1       0.982   6.755   1.151  1.00  0.00     0.006 C 
BRANCH   5   6
ATOM      6  C   UNL     1       0.527   6.254   2.527  1.00  0.00     0.053 C 
BRANCH   6   7
ATOM      7  C   UNL     1       0.768   4.784   2.693  1.00  0.00     0.041 C 
ATOM      8  O   UNL     1      -0.109   3.955   2.336  1.00  0.00    -0.550 OA
ATOM      9  O   UNL     1       1.974   4.331   3.210  1.00  0.00    -0.550 OA
ENDBRANCH   6   7
ENDBRANCH   5   6
ENDBRANCH   4   5
ENDBRANCH   3   4
ENDBRANCH   2   3
ENDBRANCH   1   2
BRANCH   1  10
ATOM     10  C   UNL     1       3.491   6.715  -2.848  1.00  0.00     0.000 C 
BRANCH  10  11
ATOM     11  C   UNL     1       2.094   6.087  -2.993  1.00  0.00    -0.000 C 
BRANCH  11  12
ATOM     12  C   UNL     1       0.968   7.051  -2.585  1.00  0.00    -0.000 C 
BRANCH  12  13
ATOM     13  C   UNL     1       1.261   8.505  -2.994  1.00  0.00    -0.000 C 
BRANCH  13  14
ATOM     14  C   UNL     1       0.193   9.487  -2.485  1.00  0.00    -0.000 C 
BRANCH  14  15
ATOM     15  C   UNL     1      -0.546   8.969  -1.243  1.00  0.00    -0.003 C 
ATOM     16  C   UNL     1      -2.057   8.971  -1.462  1.00  0.00     0.004 C 
ENDBRANCH  14  15
ENDBRANCH  13  14
ENDBRANCH  12  13
ENDBRANCH  11  12
ENDBRANCH  10  11
ENDBRANCH   1  10
TORSDOF 12
ENDMDL
MODEL 5
REMARK VINA RESULT:    -3.949      1.295      2.355
REMARK INTER + INTRA:          -7.921
REMARK INTER:                  -6.346
REMARK INTRA:                  -1.576
REMARK UNBOUND:                -1.202
REMARK SMILES CCCCCCCCCCCCCC(=O)[O-]
REMARK SMILES IDX 8 1 9 2 10 3 11 4 12 5 13 6 14 7 15 8 16 9 7 10 6 11 5 12
REMARK SMILES IDX 4 13 3 14 2 15 1 16
REMARK H PARENT
REMARK Flexibility Score: inf
ROOT
ATOM      1  C   UNL     1       0.625   7.127  -2.244  1.00  0.00     0.000 C 
ENDROOT
BRANCH   1   2
ATOM      2  C   UNL     1       0.160   8.261  -1.309  1.00  0.00     0.000 C 
BRANCH   2   3
ATOM      3  C   UNL     1       0.499   8.061   0.179  1.00  0.00     0.000 C 
BRANCH   3   4
ATOM      4  C   UNL     1       1.115   6.684   0.471  1.00  0.00     0.000 C 
BRANCH   4   5
ATOM      5  C   UNL     1       1.196   6.429   1.984  1.00  0.00     0.006 C 
BRANCH   5   6
ATOM      6  C   UNL     1      -0.055   5.722   2.521  1.00  0.00     0.053 C 
BRANCH   6   7
ATOM      7  C   UNL     1       0.204   4.276   2.816  1.00  0.00     0.041 C 
ATOM      8  O   UNL     1      -0.625   3.399   2.459  1.00  0.00    -0.550 OA
ATOM      9  O   UNL     1       1.378   3.896   3.454  1.00  0.00    -0.550 OA
ENDBRANCH   6   7
ENDBRANCH   5   6
ENDBRANCH   4   5
ENDBRANCH   3   4
ENDBRANCH   2   3
ENDBRANCH   1   2
BRANCH   1  10
ATOM     10  C   UNL     1       1.655   7.538  -3.312  1.00  0.00     0.000 C 
BRANCH  10  11
ATOM     11  C   UNL     1       2.550   6.370  -3.758  1.00  0.00    -0.000 C 
BRANCH  11  12
ATOM     12  C   UNL     1       4.040   6.627  -3.475  1.00  0.00    -0.000 C 
BRANCH  12  13
ATOM     13  C   UNL     1       4.538   5.882  -2.224  1.00  0.00    -0.000 C 
BRANCH  13  14
ATOM     14  C   UNL     1       4.433   6.736  -0.949  1.00  0.00    -0.000 C 
BRANCH  14  15
ATOM     15  C   UNL     1       4.966   8.163  -1.145  1.00  0.00    -0.003 C 
ATOM     16  C   UNL     1       3.900   9.199  -0.798  1.00  0.00     0.004 C 
ENDBRANCH  14  15
ENDBRANCH  13  14
ENDBRANCH  12  13
ENDBRANCH  11  12
ENDBRANCH  10  11
ENDBRANCH   1  10
TORSDOF 12
ENDMDL
MODEL 6
REMARK VINA RESULT:    -3.916      3.129      6.334
REMARK INTER + INTRA:          -7.865
REMARK INTER:                  -6.948
REMARK INTRA:                  -0.917
REMARK UNBOUND:                -1.202
REMARK SMILES CCCCCCCCCCCCCC(=O)[O-]
REMARK SMILES IDX 8 1 9 2 10 3 11 4 12 5 13 6 14 7 15 8 16 9 7 10 6 11 5 12
REMARK SMILES IDX 4 13 3 14 2 15 1 16
REMARK H PARENT
REMARK Flexibility Score: inf
ROOT
ATOM      1  C   UNL     1      -1.228   8.996  -0.637  1.00  0.00     0.000 C 
ENDROOT
BRANCH   1   2
ATOM      2  C   UNL     1      -0.527   8.430  -1.888  1.00  0.00     0.000 C 
BRANCH   2   3
ATOM      3  C   UNL     1       0.408   9.413  -2.615  1.00  0.00     0.000 C 
BRANCH   3   4
ATOM      4  C   UNL     1       1.625   8.723  -3.248  1.00  0.00     0.000 C 
BRANCH   4   5
ATOM      5  C   UNL     1       1.643   7.224  -2.909  1.00  0.00     0.006 C 
BRANCH   5   6
ATOM      6  C   UNL     1       2.604   6.437  -3.810  1.00  0.00     0.053 C 
BRANCH   6   7
ATOM      7  C   UNL     1       3.969   6.320  -3.203  1.00  0.00     0.041 C 
ATOM      8  O   UNL     1       4.132   6.516  -1.970  1.00  0.00    -0.550 OA
ATOM      9  O   UNL     1       5.054   5.961  -3.992  1.00  0.00    -0.550 OA
ENDBRANCH   6   7
ENDBRANCH   5   6
ENDBRANCH   4   5
ENDBRANCH   3   4
ENDBRANCH   2   3
ENDBRANCH   1   2
BRANCH   1  10
ATOM     10  C   UNL     1      -0.305   9.272   0.564  1.00  0.00     0.000 C 
BRANCH  10  11
ATOM     11  C   UNL     1      -0.127   8.045   1.473  1.00  0.00    -0.000 C 
BRANCH  11  12
ATOM     12  C   UNL     1       1.191   7.299   1.207  1.00  0.00    -0.000 C 
BRANCH  12  13
ATOM     13  C   UNL     1       1.306   5.998   2.020  1.00  0.00    -0.000 C 
BRANCH  13  14
ATOM     14  C   UNL     1       0.030   5.689   2.821  1.00  0.00    -0.000 C 
BRANCH  14  15
ATOM     15  C   UNL     1       0.036   4.277   3.426  1.00  0.00    -0.003 C 
ATOM     16  C   UNL     1      -0.899   3.348   2.658  1.00  0.00     0.004 C 
ENDBRANCH  14  15
ENDBRANCH  13  14
ENDBRANCH  12  13
ENDBRANCH  11  12
ENDBRANCH  10  11
ENDBRANCH   1  10
TORSDOF 12
ENDMDL
MODEL 7
REMARK VINA RESULT:    -3.822      2.938      6.306
REMARK INTER + INTRA:          -7.705
REMARK INTER:                  -6.619
REMARK INTRA:                  -1.086
REMARK UNBOUND:                -1.202
REMARK SMILES CCCCCCCCCCCCCC(=O)[O-]
REMARK SMILES IDX 8 1 9 2 10 3 11 4 12 5 13 6 14 7 15 8 16 9 7 10 6 11 5 12
REMARK SMILES IDX 4 13 3 14 2 15 1 16
REMARK H PARENT
REMARK Flexibility Score: inf
ROOT
ATOM      1  C   UNL     1       0.229   7.477  -1.589  1.00  0.00     0.000 C 
ENDROOT
BRANCH   1   2
ATOM      2  C   UNL     1       1.207   7.620  -2.773  1.00  0.00     0.000 C 
BRANCH   2   3
ATOM      3  C   UNL     1       1.711   6.294  -3.369  1.00  0.00     0.000 C 
BRANCH   3   4
ATOM      4  C   UNL     1       3.152   6.384  -3.893  1.00  0.00     0.000 C 
BRANCH   4   5
ATOM      5  C   UNL     1       4.108   6.865  -2.790  1.00  0.00     0.006 C 
BRANCH   5   6
ATOM      6  C   UNL     1       4.825   5.701  -2.096  1.00  0.00     0.053 C 
BRANCH   6   7
ATOM      7  C   UNL     1       5.396   6.108  -0.771  1.00  0.00     0.041 C 
ATOM      8  O   UNL     1       5.867   5.239   0.009  1.00  0.00    -0.550 OA
ATOM      9  O   UNL     1       5.438   7.449  -0.414  1.00  0.00    -0.550 OA
ENDBRANCH   6   7
ENDBRANCH   5   6
ENDBRANCH   4   5
ENDBRANCH   3   4
ENDBRANCH   2   3
ENDBRANCH   1   2
BRANCH   1  10
ATOM     10  C   UNL     1       0.751   8.008  -0.241  1.00  0.00     0.000 C 
BRANCH  10  11
ATOM     11  C   UNL     1       2.002   7.261   0.250  1.00  0.00    -0.000 C 
BRANCH  11  12
ATOM     12  C   UNL     1       1.776   6.554   1.597  1.00  0.00    -0.000 C 
BRANCH  12  13
ATOM     13  C   UNL     1       0.363   6.791   2.157  1.00  0.00    -0.000 C 
BRANCH  13  14
ATOM     14  C   UNL     1       0.001   5.804   3.280  1.00  0.00    -0.000 C 
BRANCH  14  15
ATOM     15  C   UNL     1       0.390   4.356   2.946  1.00  0.00    -0.003 C 
ATOM     16  C   UNL     1      -0.848   3.473   2.812  1.00  0.00     0.004 C 
ENDBRANCH  14  15
ENDBRANCH  13  14
ENDBRANCH  12  13
ENDBRANCH  11  12
ENDBRANCH  10  11
ENDBRANCH   1  10
TORSDOF 12
ENDMDL
MODEL 8
REMARK VINA RESULT:    -3.806      1.595      2.102
REMARK INTER + INTRA:          -7.679
REMARK INTER:                  -6.680
REMARK INTRA:                  -0.999
REMARK UNBOUND:                -1.202
REMARK SMILES CCCCCCCCCCCCCC(=O)[O-]
REMARK SMILES IDX 8 1 9 2 10 3 11 4 12 5 13 6 14 7 15 8 16 9 7 10 6 11 5 12
REMARK SMILES IDX 4 13 3 14 2 15 1 16
REMARK H PARENT
REMARK Flexibility Score: inf
ROOT
ATOM      1  C   UNL     1       0.556   8.191   0.045  1.00  0.00     0.000 C 
ENDROOT
BRANCH   1   2
ATOM      2  C   UNL     1       1.055   6.760   0.331  1.00  0.00     0.000 C 
BRANCH   2   3
ATOM      3  C   UNL     1       1.344   6.452   1.811  1.00  0.00     0.000 C 
BRANCH   3   4
ATOM      4  C   UNL     1       0.481   5.307   2.362  1.00  0.00     0.000 C 
BRANCH   4   5
ATOM      5  C   UNL     1      -0.231   5.730   3.657  1.00  0.00     0.006 C 
BRANCH   5   6
ATOM      6  C   UNL     1       0.752   5.965   4.811  1.00  0.00     0.053 C 
BRANCH   6   7
ATOM      7  C   UNL     1       1.404   4.691   5.256  1.00  0.00     0.041 C 
ATOM      8  O   UNL     1       2.595   4.442   4.932  1.00  0.00    -0.550 OA
ATOM      9  O   UNL     1       0.707   3.796   6.057  1.00  0.00    -0.550 OA
ENDBRANCH   6   7
ENDBRANCH   5   6
ENDBRANCH   4   5
ENDBRANCH   3   4
ENDBRANCH   2   3
ENDBRANCH   1   2
BRANCH   1  10
ATOM     10  C   UNL     1      -0.466   8.312  -1.100  1.00  0.00     0.000 C 
BRANCH  10  11
ATOM     11  C   UNL     1       0.039   9.189  -2.259  1.00  0.00    -0.000 C 
BRANCH  11  12
ATOM     12  C   UNL     1       1.511   8.914  -2.608  1.00  0.00    -0.000 C 
BRANCH  12  13
ATOM     13  C   UNL     1       1.664   7.983  -3.824  1.00  0.00    -0.000 C 
BRANCH  13  14
ATOM     14  C   UNL     1       1.958   6.529  -3.418  1.00  0.00    -0.000 C 
BRANCH  14  15
ATOM     15  C   UNL     1       3.260   6.388  -2.615  1.00  0.00    -0.003 C 
ATOM     16  C   UNL     1       4.476   6.386  -3.539  1.00  0.00     0.004 C 
ENDBRANCH  14  15
ENDBRANCH  13  14
ENDBRANCH  12  13
ENDBRANCH  11  12
ENDBRANCH  10  11
ENDBRANCH   1  10
TORSDOF 12
ENDMDL
MODEL 9
REMARK VINA RESULT:    -3.761      1.740      3.286
REMARK INTER + INTRA:          -7.601
REMARK INTER:                  -6.166
REMARK INTRA:                  -1.435
REMARK UNBOUND:                -1.202
REMARK SMILES CCCCCCCCCCCCCC(=O)[O-]
REMARK SMILES IDX 8 1 9 2 10 3 11 4 12 5 13 6 14 7 15 8 16 9 7 10 6 11 5 12
REMARK SMILES IDX 4 13 3 14 2 15 1 16
REMARK H PARENT
REMARK Flexibility Score: inf
ROOT
ATOM      1  C   UNL     1       4.312   7.212  -0.262  1.00  0.00     0.000 C 
ENDROOT
BRANCH   1   2
ATOM      2  C   UNL     1       3.314   6.706   0.800  1.00  0.00     0.000 C 
BRANCH   2   3
ATOM      3  C   UNL     1       2.437   7.795   1.444  1.00  0.00     0.000 C 
BRANCH   3   4
ATOM      4  C   UNL     1       1.375   7.221   2.394  1.00  0.00     0.000 C 
BRANCH   4   5
ATOM      5  C   UNL     1       0.951   5.811   1.956  1.00  0.00     0.006 C 
BRANCH   5   6
ATOM      6  C   UNL     1       0.732   4.874   3.151  1.00  0.00     0.053 C 
BRANCH   6   7
ATOM      7  C   UNL     1       2.028   4.415   3.745  1.00  0.00     0.041 C 
ATOM      8  O   UNL     1       2.963   4.023   2.999  1.00  0.00    -0.550 OA
ATOM      9  O   UNL     1       2.215   4.452   5.121  1.00  0.00    -0.550 OA
ENDBRANCH   6   7
ENDBRANCH   5   6
ENDBRANCH   4   5
ENDBRANCH   3   4
ENDBRANCH   2   3
ENDBRANCH   1   2
BRANCH   1  10
ATOM     10  C   UNL     1       5.247   6.138  -0.846  1.00  0.00     0.000 C 
BRANCH  10  11
ATOM     11  C   UNL     1       4.839   5.697  -2.261  1.00  0.00    -0.000 C 
BRANCH  11  12
ATOM     12  C   UNL     1       4.213   6.841  -3.078  1.00  0.00    -0.000 C 
BRANCH  12  13
ATOM     13  C   UNL     1       2.953   6.397  -3.842  1.00  0.00    -0.000 C 
BRANCH  13  14
ATOM     14  C   UNL     1       1.715   7.233  -3.474  1.00  0.00    -0.000 C 
BRANCH  14  15
ATOM     15  C   UNL     1       1.120   6.843  -2.113  1.00  0.00    -0.003 C 
ATOM     16  C   UNL     1      -0.030   7.771  -1.731  1.00  0.00     0.004 C 
ENDBRANCH  14  15
ENDBRANCH  13  14
ENDBRANCH  12  13
ENDBRANCH  11  12
ENDBRANCH  10  11
ENDBRANCH   1  10
TORSDOF 12
ENDMDL
