MODEL 1
REMARK VINA RESULT:    -4.999      0.000      0.000
REMARK INTER + INTRA:          -4.999
REMARK INTER:                  -4.999
REMARK INTRA:                   0.000
REMARK UNBOUND:                 0.000
REMARK SMILES O=c1ccc2ccc3occc3c2o1
REMARK SMILES IDX 6 1 7 2 8 3 12 4 11 5 10 6 9 7 13 8 5 9 4 10 3 11 2 12 1 13
REMARK SMILES IDX 14 14
REMARK H PARENT
REMARK Flexibility Score: inf
ROOT
ATOM      1  C   UNL     1      -0.152  -9.249 -40.507  1.00  0.00     0.016 A 
ATOM      2  C   UNL     1      -1.532  -9.396 -40.275  1.00  0.00     0.048 A 
ATOM      3  C   UNL     1      -2.226 -10.346 -41.023  1.00  0.00     0.137 A 
ATOM      4  C   UNL     1      -1.602 -11.125 -41.960  1.00  0.00     0.064 A 
ATOM      5  C   UNL     1      -2.565 -11.943 -42.505  1.00  0.00     0.054 A 
ATOM      6  C   UNL     1      -3.736 -11.594 -41.841  1.00  0.00     0.196 A 
ATOM      7  O   UNL     1      -3.502 -10.637 -40.962  1.00  0.00    -0.464 OA
ATOM      8  C   UNL     1      -0.238 -11.011 -42.219  1.00  0.00     0.149 A 
ATOM      9  C   UNL     1       0.499 -10.052 -41.475  1.00  0.00     0.018 A 
ATOM     10  C   UNL     1       1.868  -9.933 -41.731  1.00  0.00     0.019 A 
ATOM     11  C   UNL     1       2.459 -10.749 -42.696  1.00  0.00     0.094 A 
ATOM     12  C   UNL     1       1.665 -11.672 -43.388  1.00  0.00     0.336 A 
ATOM     13  O   UNL     1       2.182 -12.415 -44.263  1.00  0.00    -0.246 OA
ATOM     14  O   UNL     1       0.363 -11.770 -43.130  1.00  0.00    -0.422 OA
ENDROOT
TORSDOF 0
ENDMDL
MODEL 2
REMARK VINA RESULT:    -4.835      1.513      1.571
REMARK INTER + INTRA:          -4.835
REMARK INTER:                  -4.835
REMARK INTRA:                   0.000
REMARK UNBOUND:                 0.000
REMARK SMILES O=c1ccc2ccc3occc3c2o1
REMARK SMILES IDX 6 1 7 2 8 3 12 4 11 5 10 6 9 7 13 8 5 9 4 10 3 11 2 12 1 13
REMARK SMILES IDX 14 14
REMARK H PARENT
REMARK Flexibility Score: inf
ROOT
ATOM      1  C   UNL     1      -0.964  -8.774 -42.741  1.00  0.00     0.016 A 
ATOM      2  C   UNL     1      -2.332  -9.105 -42.733  1.00  0.00     0.048 A 
ATOM      3  C   UNL     1      -2.691 -10.401 -42.369  1.00  0.00     0.137 A 
ATOM      4  C   UNL     1      -1.758 -11.341 -42.026  1.00  0.00     0.064 A 
ATOM      5  C   UNL     1      -2.444 -12.496 -41.727  1.00  0.00     0.054 A 
ATOM      6  C   UNL     1      -3.782 -12.166 -41.915  1.00  0.00     0.196 A 
ATOM      7  O   UNL     1      -3.898 -10.908 -42.299  1.00  0.00    -0.464 OA
ATOM      8  C   UNL     1      -0.394 -11.054 -42.021  1.00  0.00     0.149 A 
ATOM      9  C   UNL     1       0.007  -9.743 -42.387  1.00  0.00     0.018 A 
ATOM     10  C   UNL     1       1.373  -9.448 -42.383  1.00  0.00     0.019 A 
ATOM     11  C   UNL     1       2.287 -10.440 -42.026  1.00  0.00     0.094 A 
ATOM     12  C   UNL     1       1.814 -11.711 -41.677  1.00  0.00     0.336 A 
ATOM     13  O   UNL     1       2.625 -12.617 -41.353  1.00  0.00    -0.246 OA
ATOM     14  O   UNL     1       0.508 -11.971 -41.687  1.00  0.00    -0.422 OA
ENDROOT
TORSDOF 0
ENDMDL
MODEL 3
REMARK VINA RESULT:    -4.702     13.695     15.259
REMARK INTER + INTRA:          -4.702
REMARK INTER:                  -4.702
REMARK INTRA:                   0.000
REMARK UNBOUND:                 0.000
REMARK SMILES O=c1ccc2ccc3occc3c2o1
REMARK SMILES IDX 6 1 7 2 8 3 12 4 11 5 10 6 9 7 13 8 5 9 4 10 3 11 2 12 1 13
REMARK SMILES IDX 14 14
REMARK H PARENT
REMARK Flexibility Score: inf
ROOT
ATOM      1  C   UNL     1       1.478 -25.714 -46.865  1.00  0.00     0.016 A 
ATOM      2  C   UNL     1       2.026 -24.664 -46.105  1.00  0.00     0.048 A 
ATOM      3  C   UNL     1       1.154 -23.854 -45.380  1.00  0.00     0.137 A 
ATOM      4  C   UNL     1      -0.199 -24.055 -45.393  1.00  0.00     0.064 A 
ATOM      5  C   UNL     1      -0.755 -23.091 -44.583  1.00  0.00     0.054 A 
ATOM      6  C   UNL     1       0.330 -22.353 -44.123  1.00  0.00     0.196 A 
ATOM      7  O   UNL     1       1.458 -22.833 -44.616  1.00  0.00    -0.464 OA
ATOM      8  C   UNL     1      -0.782 -25.083 -46.132  1.00  0.00     0.149 A 
ATOM      9  C   UNL     1       0.078 -25.927 -46.882  1.00  0.00     0.018 A 
ATOM     10  C   UNL     1      -0.500 -26.960 -47.626  1.00  0.00     0.019 A 
ATOM     11  C   UNL     1      -1.886 -27.125 -47.608  1.00  0.00     0.094 A 
ATOM     12  C   UNL     1      -2.667 -26.250 -46.843  1.00  0.00     0.336 A 
ATOM     13  O   UNL     1      -3.919 -26.386 -46.816  1.00  0.00    -0.246 OA
ATOM     14  O   UNL     1      -2.097 -25.273 -46.142  1.00  0.00    -0.422 OA
ENDROOT
TORSDOF 0
ENDMDL
MODEL 4
REMARK VINA RESULT:    -4.680     13.753     15.133
REMARK INTER + INTRA:          -4.680
REMARK INTER:                  -4.680
REMARK INTRA:                   0.000
REMARK UNBOUND:                 0.000
REMARK SMILES O=c1ccc2ccc3occc3c2o1
REMARK SMILES IDX 6 1 7 2 8 3 12 4 11 5 10 6 9 7 13 8 5 9 4 10 3 11 2 12 1 13
REMARK SMILES IDX 14 14
REMARK H PARENT
REMARK Flexibility Score: inf
ROOT
ATOM      1  C   UNL     1       0.436 -26.388 -47.257  1.00  0.00     0.016 A 
ATOM      2  C   UNL     1      -0.756 -27.083 -47.532  1.00  0.00     0.048 A 
ATOM      3  C   UNL     1      -1.936 -26.617 -46.955  1.00  0.00     0.137 A 
ATOM      4  C   UNL     1      -1.957 -25.516 -46.142  1.00  0.00     0.064 A 
ATOM      5  C   UNL     1      -3.264 -25.335 -45.748  1.00  0.00     0.054 A 
ATOM      6  C   UNL     1      -3.962 -26.365 -46.368  1.00  0.00     0.196 A 
ATOM      7  O   UNL     1      -3.142 -27.115 -47.083  1.00  0.00    -0.464 OA
ATOM      8  C   UNL     1      -0.800 -24.800 -45.845  1.00  0.00     0.149 A 
ATOM      9  C   UNL     1       0.420 -25.248 -46.416  1.00  0.00     0.018 A 
ATOM     10  C   UNL     1       1.585 -24.534 -46.122  1.00  0.00     0.019 A 
ATOM     11  C   UNL     1       1.513 -23.418 -45.287  1.00  0.00     0.094 A 
ATOM     12  C   UNL     1       0.271 -23.038 -44.761  1.00  0.00     0.336 A 
ATOM     13  O   UNL     1       0.189 -22.035 -44.006  1.00  0.00    -0.246 OA
ATOM     14  O   UNL     1      -0.826 -23.732 -45.054  1.00  0.00    -0.422 OA
ENDROOT
TORSDOF 0
ENDMDL
MODEL 5
REMARK VINA RESULT:    -4.653      3.638      4.969
REMARK INTER + INTRA:          -4.653
REMARK INTER:                  -4.653
REMARK INTRA:                   0.000
REMARK UNBOUND:                 0.000
REMARK SMILES O=c1ccc2ccc3occc3c2o1
REMARK SMILES IDX 6 1 7 2 8 3 12 4 11 5 10 6 9 7 13 8 5 9 4 10 3 11 2 12 1 13
REMARK SMILES IDX 14 14
REMARK H PARENT
REMARK Flexibility Score: inf
ROOT
ATOM      1  C   UNL     1      -0.807  -7.540 -38.261  1.00  0.00     0.016 A 
ATOM      2  C   UNL     1      -0.941  -7.478 -36.861  1.00  0.00     0.048 A 
ATOM      3  C   UNL     1      -1.115  -8.673 -36.165  1.00  0.00     0.137 A 
ATOM      4  C   UNL     1      -1.159  -9.883 -36.804  1.00  0.00     0.064 A 
ATOM      5  C   UNL     1      -1.341 -10.842 -35.834  1.00  0.00     0.054 A 
ATOM      6  C   UNL     1      -1.396 -10.127 -34.642  1.00  0.00     0.196 A 
ATOM      7  O   UNL     1      -1.259  -8.833 -34.872  1.00  0.00    -0.464 OA
ATOM      8  C   UNL     1      -1.030  -9.987 -38.187  1.00  0.00     0.149 A 
ATOM      9  C   UNL     1      -0.851  -8.789 -38.927  1.00  0.00     0.018 A 
ATOM     10  C   UNL     1      -0.721  -8.888 -40.315  1.00  0.00     0.019 A 
ATOM     11  C   UNL     1      -0.773 -10.143 -40.922  1.00  0.00     0.094 A 
ATOM     12  C   UNL     1      -0.952 -11.280 -40.123  1.00  0.00     0.336 A 
ATOM     13  O   UNL     1      -1.001 -12.420 -40.655  1.00  0.00    -0.246 OA
ATOM     14  O   UNL     1      -1.073 -11.165 -38.803  1.00  0.00    -0.422 OA
ENDROOT
TORSDOF 0
ENDMDL
MODEL 6
REMARK VINA RESULT:    -4.585      3.105      4.496
REMARK INTER + INTRA:          -4.585
REMARK INTER:                  -4.585
REMARK INTRA:                   0.000
REMARK UNBOUND:                 0.000
REMARK SMILES O=c1ccc2ccc3occc3c2o1
REMARK SMILES IDX 6 1 7 2 8 3 12 4 11 5 10 6 9 7 13 8 5 9 4 10 3 11 2 12 1 13
REMARK SMILES IDX 14 14
REMARK H PARENT
REMARK Flexibility Score: inf
ROOT
ATOM      1  C   UNL     1      -1.544 -11.675 -38.116  1.00  0.00     0.016 A 
ATOM      2  C   UNL     1      -1.608 -10.942 -36.917  1.00  0.00     0.048 A 
ATOM      3  C   UNL     1      -1.156  -9.624 -36.928  1.00  0.00     0.137 A 
ATOM      4  C   UNL     1      -0.660  -9.039 -38.062  1.00  0.00     0.064 A 
ATOM      5  C   UNL     1      -0.307  -7.752 -37.728  1.00  0.00     0.054 A 
ATOM      6  C   UNL     1      -0.624  -7.643 -36.378  1.00  0.00     0.196 A 
ATOM      7  O   UNL     1      -1.128  -8.777 -35.928  1.00  0.00    -0.464 OA
ATOM      8  C   UNL     1      -0.580  -9.730 -39.270  1.00  0.00     0.149 A 
ATOM      9  C   UNL     1      -1.032 -11.075 -39.293  1.00  0.00     0.018 A 
ATOM     10  C   UNL     1      -0.954 -11.774 -40.501  1.00  0.00     0.019 A 
ATOM     11  C   UNL     1      -0.441 -11.135 -41.630  1.00  0.00     0.094 A 
ATOM     12  C   UNL     1      -0.015  -9.805 -41.528  1.00  0.00     0.336 A 
ATOM     13  O   UNL     1       0.452  -9.215 -42.537  1.00  0.00    -0.246 OA
ATOM     14  O   UNL     1      -0.097  -9.158 -40.368  1.00  0.00    -0.422 OA
ENDROOT
TORSDOF 0
ENDMDL
MODEL 7
REMARK VINA RESULT:    -4.562      5.463      7.510
REMARK INTER + INTRA:          -4.562
REMARK INTER:                  -4.562
REMARK INTRA:                   0.000
REMARK UNBOUND:                 0.000
REMARK SMILES O=c1ccc2ccc3occc3c2o1
REMARK SMILES IDX 6 1 7 2 8 3 12 4 11 5 10 6 9 7 13 8 5 9 4 10 3 11 2 12 1 13
REMARK SMILES IDX 14 14
REMARK H PARENT
REMARK Flexibility Score: inf
ROOT
ATOM      1  C   UNL     1      -1.757 -11.821 -37.447  1.00  0.00     0.016 A 
ATOM      2  C   UNL     1      -1.512 -10.739 -38.313  1.00  0.00     0.048 A 
ATOM      3  C   UNL     1      -1.051  -9.546 -37.759  1.00  0.00     0.137 A 
ATOM      4  C   UNL     1      -0.836  -9.409 -36.414  1.00  0.00     0.064 A 
ATOM      5  C   UNL     1      -0.389  -8.123 -36.209  1.00  0.00     0.054 A 
ATOM      6  C   UNL     1      -0.364  -7.556 -37.479  1.00  0.00     0.196 A 
ATOM      7  O   UNL     1      -0.765  -8.430 -38.384  1.00  0.00    -0.464 OA
ATOM      8  C   UNL     1      -1.065 -10.456 -35.524  1.00  0.00     0.149 A 
ATOM      9  C   UNL     1      -1.535 -11.685 -36.055  1.00  0.00     0.018 A 
ATOM     10  C   UNL     1      -1.768 -12.738 -35.166  1.00  0.00     0.019 A 
ATOM     11  C   UNL     1      -1.534 -12.550 -33.804  1.00  0.00     0.094 A 
ATOM     12  C   UNL     1      -1.070 -11.307 -33.356  1.00  0.00     0.336 A 
ATOM     13  O   UNL     1      -0.855 -11.121 -32.130  1.00  0.00    -0.246 OA
ATOM     14  O   UNL     1      -0.855 -10.317 -34.218  1.00  0.00    -0.422 OA
ENDROOT
TORSDOF 0
ENDMDL
MODEL 8
REMARK VINA RESULT:    -4.503      6.201      7.926
REMARK INTER + INTRA:          -4.503
REMARK INTER:                  -4.503
REMARK INTRA:                   0.000
REMARK UNBOUND:                 0.000
REMARK SMILES O=c1ccc2ccc3occc3c2o1
REMARK SMILES IDX 6 1 7 2 8 3 12 4 11 5 10 6 9 7 13 8 5 9 4 10 3 11 2 12 1 13
REMARK SMILES IDX 14 14
REMARK H PARENT
REMARK Flexibility Score: inf
ROOT
ATOM      1  C   UNL     1      -4.139  -8.297 -44.747  1.00  0.00     0.016 A 
ATOM      2  C   UNL     1      -3.397  -7.487 -45.626  1.00  0.00     0.048 A 
ATOM      3  C   UNL     1      -3.703  -7.542 -46.985  1.00  0.00     0.137 A 
ATOM      4  C   UNL     1      -4.692  -8.353 -47.471  1.00  0.00     0.064 A 
ATOM      5  C   UNL     1      -4.729  -8.166 -48.834  1.00  0.00     0.054 A 
ATOM      6  C   UNL     1      -3.733  -7.229 -49.085  1.00  0.00     0.196 A 
ATOM      7  O   UNL     1      -3.136  -6.876 -47.961  1.00  0.00    -0.464 OA
ATOM      8  C   UNL     1      -5.450  -9.169 -46.634  1.00  0.00     0.149 A 
ATOM      9  C   UNL     1      -5.165  -9.138 -45.245  1.00  0.00     0.018 A 
ATOM     10  C   UNL     1      -5.922  -9.955 -44.400  1.00  0.00     0.019 A 
ATOM     11  C   UNL     1      -6.920 -10.765 -44.942  1.00  0.00     0.094 A 
ATOM     12  C   UNL     1      -7.142 -10.740 -46.325  1.00  0.00     0.336 A 
ATOM     13  O   UNL     1      -8.039 -11.465 -46.830  1.00  0.00    -0.246 OA
ATOM     14  O   UNL     1      -6.410  -9.955 -47.112  1.00  0.00    -0.422 OA
ENDROOT
TORSDOF 0
ENDMDL
MODEL 9
REMARK VINA RESULT:    -4.459      1.844      2.130
REMARK INTER + INTRA:          -4.459
REMARK INTER:                  -4.459
REMARK INTRA:                   0.000
REMARK UNBOUND:                 0.000
REMARK SMILES O=c1ccc2ccc3occc3c2o1
REMARK SMILES IDX 6 1 7 2 8 3 12 4 11 5 10 6 9 7 13 8 5 9 4 10 3 11 2 12 1 13
REMARK SMILES IDX 14 14
REMARK H PARENT
REMARK Flexibility Score: inf
ROOT
ATOM      1  C   UNL     1      -1.668  -8.950 -41.958  1.00  0.00     0.016 A 
ATOM      2  C   UNL     1      -2.706  -9.313 -41.080  1.00  0.00     0.048 A 
ATOM      3  C   UNL     1      -2.462 -10.331 -40.160  1.00  0.00     0.137 A 
ATOM      4  C   UNL     1      -1.255 -10.973 -40.096  1.00  0.00     0.064 A 
ATOM      5  C   UNL     1      -1.353 -11.910 -39.092  1.00  0.00     0.054 A 
ATOM      6  C   UNL     1      -2.648 -11.766 -38.605  1.00  0.00     0.196 A 
ATOM      7  O   UNL     1      -3.286 -10.815 -39.263  1.00  0.00    -0.464 OA
ATOM      8  C   UNL     1      -0.202 -10.644 -40.947  1.00  0.00     0.149 A 
ATOM      9  C   UNL     1      -0.417  -9.611 -41.896  1.00  0.00     0.018 A 
ATOM     10  C   UNL     1       0.636  -9.276 -42.752  1.00  0.00     0.019 A 
ATOM     11  C   UNL     1       1.848  -9.959 -42.649  1.00  0.00     0.094 A 
ATOM     12  C   UNL     1       1.983 -10.967 -41.686  1.00  0.00     0.336 A 
ATOM     13  O   UNL     1       3.070 -11.593 -41.580  1.00  0.00    -0.246 OA
ATOM     14  O   UNL     1       0.968 -11.271 -40.880  1.00  0.00    -0.422 OA
ENDROOT
TORSDOF 0
ENDMDL
