MODEL 1
REMARK VINA RESULT:    -3.981      0.000      0.000
REMARK INTER + INTRA:         -10.662
REMARK INTER:                  -7.705
REMARK INTRA:                  -2.957
REMARK UNBOUND:                -2.957
REMARK SMILES CCCCCC=CCC=CCCCCCCCCOC(C)=O
REMARK SMILES IDX 12 1 11 2 10 3 9 4 8 5 7 6 6 7 5 8 4 9 3 10 2 11 1 12 13 13
REMARK SMILES IDX 14 14 15 15 16 16 17 17 18 18 19 19 20 20 22 21 21 22
REMARK H PARENT
REMARK Flexibility Score: inf
ROOT
ATOM      1  C   UNL     1      -8.875  -7.784  92.652  1.00  0.00     0.004 C 
ENDROOT
BRANCH   1   2
ATOM      2  C   UNL     1      -7.860  -8.642  91.884  1.00  0.00     0.027 C 
BRANCH   2   3
ATOM      3  C   UNL     1      -7.710  -8.210  90.445  1.00  0.00    -0.031 C 
ATOM      4  C   UNL     1      -7.735  -9.041  89.389  1.00  0.00    -0.027 C 
BRANCH   4   5
ATOM      5  C   UNL     1      -7.944 -10.531  89.493  1.00  0.00     0.054 C 
BRANCH   5   6
ATOM      6  C   UNL     1      -8.929 -11.017  88.460  1.00  0.00    -0.027 C 
ATOM      7  C   UNL     1     -10.267 -10.933  88.588  1.00  0.00    -0.031 C 
BRANCH   7   8
ATOM      8  C   UNL     1     -10.975 -10.393  89.804  1.00  0.00     0.027 C 
BRANCH   8   9
ATOM      9  C   UNL     1     -11.897  -9.226  89.424  1.00  0.00     0.004 C 
BRANCH   9  10
ATOM     10  C   UNL     1     -11.316  -7.853  89.806  1.00  0.00     0.000 C 
BRANCH  10  11
ATOM     11  C   UNL     1     -10.920  -6.964  88.612  1.00  0.00    -0.003 C 
ATOM     12  C   UNL     1     -10.063  -5.764  89.016  1.00  0.00     0.004 C 
ENDBRANCH  10  11
ENDBRANCH   9  10
ENDBRANCH   8   9
ENDBRANCH   7   8
ENDBRANCH   5   6
ENDBRANCH   4   5
ENDBRANCH   2   3
ENDBRANCH   1   2
BRANCH   1  13
ATOM     13  C   UNL     1     -10.057  -8.612  93.180  1.00  0.00     0.000 C 
BRANCH  13  14
ATOM     14  C   UNL     1      -9.680 -10.097  93.287  1.00  0.00     0.000 C 
BRANCH  14  15
ATOM     15  C   UNL     1     -10.910 -11.022  93.262  1.00  0.00     0.000 C 
BRANCH  15  16
ATOM     16  C   UNL     1     -10.934 -12.057  94.409  1.00  0.00     0.003 C 
BRANCH  16  17
ATOM     17  C   UNL     1     -11.358 -11.466  95.767  1.00  0.00     0.042 C 
BRANCH  17  18
ATOM     18  C   UNL     1     -12.870 -11.519  96.020  1.00  0.00     0.233 C 
BRANCH  18  19
ATOM     19  O   UNL     1     -13.493 -10.267  95.732  1.00  0.00    -0.466 OA
BRANCH  19  20
ATOM     20  C   UNL     1     -13.960  -9.911  94.461  1.00  0.00     0.302 C 
ATOM     21  O   UNL     1     -13.909  -8.716  94.065  1.00  0.00    -0.253 OA
ATOM     22  C   UNL     1     -14.555 -10.955  93.579  1.00  0.00     0.139 C 
ENDBRANCH  19  20
ENDBRANCH  18  19
ENDBRANCH  17  18
ENDBRANCH  16  17
ENDBRANCH  15  16
ENDBRANCH  14  15
ENDBRANCH  13  14
ENDBRANCH   1  13
TORSDOF 16
ENDMDL
MODEL 2
REMARK VINA RESULT:    -3.890      1.883      3.862
REMARK INTER + INTRA:         -10.486
REMARK INTER:                  -6.895
REMARK INTRA:                  -3.592
REMARK UNBOUND:                -2.957
REMARK SMILES CCCCCC=CCC=CCCCCCCCCOC(C)=O
REMARK SMILES IDX 12 1 11 2 10 3 9 4 8 5 7 6 6 7 5 8 4 9 3 10 2 11 1 12 13 13
REMARK SMILES IDX 14 14 15 15 16 16 17 17 18 18 19 19 20 20 22 21 21 22
REMARK H PARENT
REMARK Flexibility Score: inf
ROOT
ATOM      1  C   UNL     1     -10.550  -8.699  93.971  1.00  0.00     0.004 C 
ENDROOT
BRANCH   1   2
ATOM      2  C   UNL     1      -9.178  -8.065  94.236  1.00  0.00     0.027 C 
BRANCH   2   3
ATOM      3  C   UNL     1      -8.065  -8.763  93.491  1.00  0.00    -0.031 C 
ATOM      4  C   UNL     1      -6.977  -8.152  92.992  1.00  0.00    -0.027 C 
BRANCH   4   5
ATOM      5  C   UNL     1      -6.701  -6.675  93.127  1.00  0.00     0.054 C 
BRANCH   5   6
ATOM      6  C   UNL     1      -6.635  -6.008  91.777  1.00  0.00    -0.027 C 
ATOM      7  C   UNL     1      -7.676  -5.398  91.179  1.00  0.00    -0.031 C 
BRANCH   7   8
ATOM      8  C   UNL     1      -9.072  -5.342  91.747  1.00  0.00     0.027 C 
BRANCH   8   9
ATOM      9  C   UNL     1      -9.988  -6.352  91.039  1.00  0.00     0.004 C 
BRANCH   9  10
ATOM     10  C   UNL     1      -9.334  -6.988  89.800  1.00  0.00     0.000 C 
BRANCH  10  11
ATOM     11  C   UNL     1      -9.262  -8.525  89.824  1.00  0.00    -0.003 C 
ATOM     12  C   UNL     1      -7.843  -9.063  89.641  1.00  0.00     0.004 C 
ENDBRANCH  10  11
ENDBRANCH   9  10
ENDBRANCH   8   9
ENDBRANCH   7   8
ENDBRANCH   5   6
ENDBRANCH   4   5
ENDBRANCH   2   3
ENDBRANCH   1   2
BRANCH   1  13
ATOM     13  C   UNL     1     -10.442 -10.024  93.203  1.00  0.00     0.000 C 
BRANCH  13  14
ATOM     14  C   UNL     1     -11.456 -10.073  92.051  1.00  0.00     0.000 C 
BRANCH  14  15
ATOM     15  C   UNL     1     -12.424  -8.875  92.064  1.00  0.00     0.000 C 
BRANCH  15  16
ATOM     16  C   UNL     1     -13.913  -9.279  92.155  1.00  0.00     0.003 C 
BRANCH  16  17
ATOM     17  C   UNL     1     -14.156 -10.790  91.986  1.00  0.00     0.042 C 
BRANCH  17  18
ATOM     18  C   UNL     1     -14.692 -11.476  93.250  1.00  0.00     0.233 C 
BRANCH  18  19
ATOM     19  O   UNL     1     -13.632 -12.000  94.050  1.00  0.00    -0.466 OA
BRANCH  19  20
ATOM     20  C   UNL     1     -13.161 -11.377  95.212  1.00  0.00     0.302 C 
ATOM     21  O   UNL     1     -12.132 -11.803  95.802  1.00  0.00    -0.253 OA
ATOM     22  C   UNL     1     -13.906 -10.216  95.776  1.00  0.00     0.139 C 
ENDBRANCH  19  20
ENDBRANCH  18  19
ENDBRANCH  17  18
ENDBRANCH  16  17
ENDBRANCH  15  16
ENDBRANCH  14  15
ENDBRANCH  13  14
ENDBRANCH   1  13
TORSDOF 16
ENDMDL
MODEL 3
REMARK VINA RESULT:    -3.890      1.526      3.529
REMARK INTER + INTRA:         -10.485
REMARK INTER:                  -6.979
REMARK INTRA:                  -3.506
REMARK UNBOUND:                -2.957
REMARK SMILES CCCCCC=CCC=CCCCCCCCCOC(C)=O
REMARK SMILES IDX 12 1 11 2 10 3 9 4 8 5 7 6 6 7 5 8 4 9 3 10 2 11 1 12 13 13
REMARK SMILES IDX 14 14 15 15 16 16 17 17 18 18 19 19 20 20 22 21 21 22
REMARK H PARENT
REMARK Flexibility Score: inf
ROOT
ATOM      1  C   UNL     1     -10.820 -10.381  88.807  1.00  0.00     0.004 C 
ENDROOT
BRANCH   1   2
ATOM      2  C   UNL     1      -9.600 -10.645  89.701  1.00  0.00     0.027 C 
BRANCH   2   3
ATOM      3  C   UNL     1      -8.325 -10.080  89.121  1.00  0.00    -0.031 C 
ATOM      4  C   UNL     1      -7.544  -9.171  89.729  1.00  0.00    -0.027 C 
BRANCH   4   5
ATOM      5  C   UNL     1      -7.821  -8.602  91.098  1.00  0.00     0.054 C 
BRANCH   5   6
ATOM      6  C   UNL     1      -7.631  -7.106  91.115  1.00  0.00    -0.027 C 
ATOM      7  C   UNL     1      -8.591  -6.215  90.801  1.00  0.00    -0.031 C 
BRANCH   7   8
ATOM      8  C   UNL     1      -9.976  -6.584  90.336  1.00  0.00     0.027 C 
BRANCH   8   9
ATOM      9  C   UNL     1     -10.055  -6.578  88.802  1.00  0.00     0.004 C 
BRANCH   9  10
ATOM     10  C   UNL     1     -11.493  -6.723  88.275  1.00  0.00     0.000 C 
BRANCH  10  11
ATOM     11  C   UNL     1     -12.592  -6.336  89.282  1.00  0.00    -0.003 C 
ATOM     12  C   UNL     1     -13.955  -6.943  88.946  1.00  0.00     0.004 C 
ENDBRANCH  10  11
ENDBRANCH   9  10
ENDBRANCH   8   9
ENDBRANCH   7   8
ENDBRANCH   5   6
ENDBRANCH   4   5
ENDBRANCH   2   3
ENDBRANCH   1   2
BRANCH   1  13
ATOM     13  C   UNL     1     -12.117 -10.242  89.618  1.00  0.00     0.000 C 
BRANCH  13  14
ATOM     14  C   UNL     1     -11.812 -10.059  91.112  1.00  0.00     0.000 C 
BRANCH  14  15
ATOM     15  C   UNL     1     -12.712  -9.000  91.774  1.00  0.00     0.000 C 
BRANCH  15  16
ATOM     16  C   UNL     1     -11.980  -8.122  92.813  1.00  0.00     0.003 C 
BRANCH  16  17
ATOM     17  C   UNL     1     -10.718  -8.780  93.400  1.00  0.00     0.042 C 
BRANCH  17  18
ATOM     18  C   UNL     1     -10.825  -9.098  94.897  1.00  0.00     0.233 C 
BRANCH  18  19
ATOM     19  O   UNL     1     -12.007  -9.843  95.191  1.00  0.00    -0.466 OA
BRANCH  19  20
ATOM     20  C   UNL     1     -12.008 -11.217  95.459  1.00  0.00     0.302 C 
ATOM     21  O   UNL     1     -12.528 -11.670  96.514  1.00  0.00    -0.253 OA
ATOM     22  C   UNL     1     -11.355 -12.152  94.499  1.00  0.00     0.139 C 
ENDBRANCH  19  20
ENDBRANCH  18  19
ENDBRANCH  17  18
ENDBRANCH  16  17
ENDBRANCH  15  16
ENDBRANCH  14  15
ENDBRANCH  13  14
ENDBRANCH   1  13
TORSDOF 16
ENDMDL
MODEL 4
REMARK VINA RESULT:    -3.838      1.920      4.336
REMARK INTER + INTRA:         -10.385
REMARK INTER:                  -7.764
REMARK INTRA:                  -2.620
REMARK UNBOUND:                -2.957
REMARK SMILES CCCCCC=CCC=CCCCCCCCCOC(C)=O
REMARK SMILES IDX 12 1 11 2 10 3 9 4 8 5 7 6 6 7 5 8 4 9 3 10 2 11 1 12 13 13
REMARK SMILES IDX 14 14 15 15 16 16 17 17 18 18 19 19 20 20 22 21 21 22
REMARK H PARENT
REMARK Flexibility Score: inf
ROOT
ATOM      1  C   UNL     1     -13.324  -9.108  92.660  1.00  0.00     0.004 C 
ENDROOT
BRANCH   1   2
ATOM      2  C   UNL     1     -11.918  -9.010  92.051  1.00  0.00     0.027 C 
BRANCH   2   3
ATOM      3  C   UNL     1     -11.051 -10.196  92.402  1.00  0.00    -0.031 C 
ATOM      4  C   UNL     1      -9.898 -10.125  93.088  1.00  0.00    -0.027 C 
BRANCH   4   5
ATOM      5  C   UNL     1      -9.316  -8.842  93.629  1.00  0.00     0.054 C 
BRANCH   5   6
ATOM      6  C   UNL     1      -7.899  -8.645  93.154  1.00  0.00    -0.027 C 
ATOM      7  C   UNL     1      -7.552  -7.898  92.088  1.00  0.00    -0.031 C 
BRANCH   7   8
ATOM      8  C   UNL     1      -8.533  -7.198  91.182  1.00  0.00     0.027 C 
BRANCH   8   9
ATOM      9  C   UNL     1      -8.551  -7.851  89.792  1.00  0.00     0.004 C 
BRANCH   9  10
ATOM     10  C   UNL     1      -7.984  -9.281  89.794  1.00  0.00     0.000 C 
BRANCH  10  11
ATOM     11  C   UNL     1      -8.996 -10.378  89.417  1.00  0.00    -0.003 C 
ATOM     12  C   UNL     1      -8.447 -11.378  88.399  1.00  0.00     0.004 C 
ENDBRANCH  10  11
ENDBRANCH   9  10
ENDBRANCH   8   9
ENDBRANCH   7   8
ENDBRANCH   5   6
ENDBRANCH   4   5
ENDBRANCH   2   3
ENDBRANCH   1   2
BRANCH   1  13
ATOM     13  C   UNL     1     -14.042 -10.407  92.262  1.00  0.00     0.000 C 
BRANCH  13  14
ATOM     14  C   UNL     1     -14.394 -11.240  93.503  1.00  0.00     0.000 C 
BRANCH  14  15
ATOM     15  C   UNL     1     -14.033 -10.523  94.818  1.00  0.00     0.000 C 
BRANCH  15  16
ATOM     16  C   UNL     1     -12.840 -11.159  95.567  1.00  0.00     0.003 C 
BRANCH  16  17
ATOM     17  C   UNL     1     -11.994 -10.145  96.358  1.00  0.00     0.042 C 
BRANCH  17  18
ATOM     18  C   UNL     1     -11.921 -10.440  97.862  1.00  0.00     0.233 C 
BRANCH  18  19
ATOM     19  O   UNL     1     -13.151 -10.975  98.352  1.00  0.00    -0.466 OA
BRANCH  19  20
ATOM     20  C   UNL     1     -14.184 -10.185  98.870  1.00  0.00     0.302 C 
ATOM     21  O   UNL     1     -15.122  -9.781  98.132  1.00  0.00    -0.253 OA
ATOM     22  C   UNL     1     -14.155  -9.790 100.307  1.00  0.00     0.139 C 
ENDBRANCH  19  20
ENDBRANCH  18  19
ENDBRANCH  17  18
ENDBRANCH  16  17
ENDBRANCH  15  16
ENDBRANCH  14  15
ENDBRANCH  13  14
ENDBRANCH   1  13
TORSDOF 16
ENDMDL
MODEL 5
REMARK VINA RESULT:    -3.803      2.849      7.658
REMARK INTER + INTRA:         -10.317
REMARK INTER:                  -7.808
REMARK INTRA:                  -2.509
REMARK UNBOUND:                -2.957
REMARK SMILES CCCCCC=CCC=CCCCCCCCCOC(C)=O
REMARK SMILES IDX 12 1 11 2 10 3 9 4 8 5 7 6 6 7 5 8 4 9 3 10 2 11 1 12 13 13
REMARK SMILES IDX 14 14 15 15 16 16 17 17 18 18 19 19 20 20 22 21 21 22
REMARK H PARENT
REMARK Flexibility Score: inf
ROOT
ATOM      1  C   UNL     1     -10.484 -10.072  93.475  1.00  0.00     0.004 C 
ENDROOT
BRANCH   1   2
ATOM      2  C   UNL     1     -11.156 -11.445  93.609  1.00  0.00     0.027 C 
BRANCH   2   3
ATOM      3  C   UNL     1     -11.464 -11.801  95.045  1.00  0.00    -0.031 C 
ATOM      4  C   UNL     1     -12.613 -11.508  95.676  1.00  0.00    -0.027 C 
BRANCH   4   5
ATOM      5  C   UNL     1     -13.776 -10.799  95.027  1.00  0.00     0.054 C 
BRANCH   5   6
ATOM      6  C   UNL     1     -13.759  -9.325  95.341  1.00  0.00    -0.027 C 
ATOM      7  C   UNL     1     -14.449  -8.754  96.347  1.00  0.00    -0.031 C 
BRANCH   7   8
ATOM      8  C   UNL     1     -15.380  -9.497  97.270  1.00  0.00     0.027 C 
BRANCH   8   9
ATOM      9  C   UNL     1     -14.837  -9.499  98.706  1.00  0.00     0.004 C 
BRANCH   9  10
ATOM     10  C   UNL     1     -13.926 -10.703  99.001  1.00  0.00     0.000 C 
BRANCH  10  11
ATOM     11  C   UNL     1     -12.599 -10.354  99.700  1.00  0.00    -0.003 C 
ATOM     12  C   UNL     1     -11.484  -9.983  98.722  1.00  0.00     0.004 C 
ENDBRANCH  10  11
ENDBRANCH   9  10
ENDBRANCH   8   9
ENDBRANCH   7   8
ENDBRANCH   5   6
ENDBRANCH   4   5
ENDBRANCH   2   3
ENDBRANCH   1   2
BRANCH   1  13
ATOM     13  C   UNL     1     -11.178  -9.182  92.433  1.00  0.00     0.000 C 
BRANCH  13  14
ATOM     14  C   UNL     1     -12.303  -9.949  91.723  1.00  0.00     0.000 C 
BRANCH  14  15
ATOM     15  C   UNL     1     -11.946 -10.309  90.268  1.00  0.00     0.000 C 
BRANCH  15  16
ATOM     16  C   UNL     1     -10.737  -9.524  89.712  1.00  0.00     0.003 C 
BRANCH  16  17
ATOM     17  C   UNL     1      -9.551 -10.420  89.309  1.00  0.00     0.042 C 
BRANCH  17  18
ATOM     18  C   UNL     1      -8.179  -9.801  89.605  1.00  0.00     0.233 C 
BRANCH  18  19
ATOM     19  O   UNL     1      -8.298  -8.444  90.033  1.00  0.00    -0.466 OA
BRANCH  19  20
ATOM     20  C   UNL     1      -7.719  -7.951  91.208  1.00  0.00     0.302 C 
ATOM     21  O   UNL     1      -7.561  -8.695  92.212  1.00  0.00    -0.253 OA
ATOM     22  C   UNL     1      -7.316  -6.518  91.282  1.00  0.00     0.139 C 
ENDBRANCH  19  20
ENDBRANCH  18  19
ENDBRANCH  17  18
ENDBRANCH  16  17
ENDBRANCH  15  16
ENDBRANCH  14  15
ENDBRANCH  13  14
ENDBRANCH   1  13
TORSDOF 16
ENDMDL
MODEL 6
REMARK VINA RESULT:    -3.801      1.262      3.046
REMARK INTER + INTRA:         -10.314
REMARK INTER:                  -7.051
REMARK INTRA:                  -3.263
REMARK UNBOUND:                -2.957
REMARK SMILES CCCCCC=CCC=CCCCCCCCCOC(C)=O
REMARK SMILES IDX 12 1 11 2 10 3 9 4 8 5 7 6 6 7 5 8 4 9 3 10 2 11 1 12 13 13
REMARK SMILES IDX 14 14 15 15 16 16 17 17 18 18 19 19 20 20 22 21 21 22
REMARK H PARENT
REMARK Flexibility Score: inf
ROOT
ATOM      1  C   UNL     1      -7.500  -7.777  92.446  1.00  0.00     0.004 C 
ENDROOT
BRANCH   1   2
ATOM      2  C   UNL     1      -7.566  -7.196  91.027  1.00  0.00     0.027 C 
BRANCH   2   3
ATOM      3  C   UNL     1      -8.516  -6.027  90.924  1.00  0.00    -0.031 C 
ATOM      4  C   UNL     1      -9.676  -6.040  90.245  1.00  0.00    -0.027 C 
BRANCH   4   5
ATOM      5  C   UNL     1     -10.207  -7.243  89.506  1.00  0.00     0.054 C 
BRANCH   5   6
ATOM      6  C   UNL     1     -11.710  -7.322  89.602  1.00  0.00    -0.027 C 
ATOM      7  C   UNL     1     -12.470  -8.193  88.912  1.00  0.00    -0.031 C 
BRANCH   7   8
ATOM      8  C   UNL     1     -11.936  -9.178  87.903  1.00  0.00     0.027 C 
BRANCH   8   9
ATOM      9  C   UNL     1     -11.720 -10.555  88.549  1.00  0.00     0.004 C 
BRANCH   9  10
ATOM     10  C   UNL     1     -10.273 -11.060  88.411  1.00  0.00     0.000 C 
BRANCH  10  11
ATOM     11  C   UNL     1      -9.329 -10.634  89.550  1.00  0.00    -0.003 C 
ATOM     12  C   UNL     1      -7.904 -10.350  89.073  1.00  0.00     0.004 C 
ENDBRANCH  10  11
ENDBRANCH   9  10
ENDBRANCH   8   9
ENDBRANCH   7   8
ENDBRANCH   5   6
ENDBRANCH   4   5
ENDBRANCH   2   3
ENDBRANCH   1   2
BRANCH   1  13
ATOM     13  C   UNL     1      -8.441  -8.978  92.628  1.00  0.00     0.000 C 
BRANCH  13  14
ATOM     14  C   UNL     1      -9.592  -8.630  93.585  1.00  0.00     0.000 C 
BRANCH  14  15
ATOM     15  C   UNL     1     -10.971  -8.711  92.904  1.00  0.00     0.000 C 
BRANCH  15  16
ATOM     16  C   UNL     1     -11.407 -10.150  92.549  1.00  0.00     0.003 C 
BRANCH  16  17
ATOM     17  C   UNL     1     -12.854 -10.250  92.034  1.00  0.00     0.042 C 
BRANCH  17  18
ATOM     18  C   UNL     1     -13.805 -10.975  92.995  1.00  0.00     0.233 C 
BRANCH  18  19
ATOM     19  O   UNL     1     -14.212 -10.127  94.069  1.00  0.00    -0.466 OA
BRANCH  19  20
ATOM     20  C   UNL     1     -13.895 -10.373  95.410  1.00  0.00     0.302 C 
ATOM     21  O   UNL     1     -14.416  -9.692  96.333  1.00  0.00    -0.253 OA
ATOM     22  C   UNL     1     -12.901 -11.432  95.747  1.00  0.00     0.139 C 
ENDBRANCH  19  20
ENDBRANCH  18  19
ENDBRANCH  17  18
ENDBRANCH  16  17
ENDBRANCH  15  16
ENDBRANCH  14  15
ENDBRANCH  13  14
ENDBRANCH   1  13
TORSDOF 16
ENDMDL
MODEL 7
REMARK VINA RESULT:    -3.799      3.012      7.554
REMARK INTER + INTRA:         -10.309
REMARK INTER:                  -7.194
REMARK INTRA:                  -3.115
REMARK UNBOUND:                -2.957
REMARK SMILES CCCCCC=CCC=CCCCCCCCCOC(C)=O
REMARK SMILES IDX 12 1 11 2 10 3 9 4 8 5 7 6 6 7 5 8 4 9 3 10 2 11 1 12 13 13
REMARK SMILES IDX 14 14 15 15 16 16 17 17 18 18 19 19 20 20 22 21 21 22
REMARK H PARENT
REMARK Flexibility Score: inf
ROOT
ATOM      1  C   UNL     1     -14.294 -10.251  94.451  1.00  0.00     0.004 C 
ENDROOT
BRANCH   1   2
ATOM      2  C   UNL     1     -13.712  -8.893  94.034  1.00  0.00     0.027 C 
BRANCH   2   3
ATOM      3  C   UNL     1     -13.784  -7.869  95.141  1.00  0.00    -0.031 C 
ATOM      4  C   UNL     1     -12.782  -7.591  95.993  1.00  0.00    -0.027 C 
BRANCH   4   5
ATOM      5  C   UNL     1     -11.427  -8.252  95.946  1.00  0.00     0.054 C 
BRANCH   5   6
ATOM      6  C   UNL     1     -10.980  -8.678  97.321  1.00  0.00    -0.027 C 
ATOM      7  C   UNL     1     -11.370  -9.816  97.928  1.00  0.00    -0.031 C 
BRANCH   7   8
ATOM      8  C   UNL     1     -12.352 -10.800  97.344  1.00  0.00     0.027 C 
BRANCH   8   9
ATOM      9  C   UNL     1     -13.472 -11.111  98.347  1.00  0.00     0.004 C 
BRANCH   9  10
ATOM     10  C   UNL     1     -13.687  -9.986  99.374  1.00  0.00     0.000 C 
BRANCH  10  11
ATOM     11  C   UNL     1     -14.871  -9.050  99.069  1.00  0.00    -0.003 C 
ATOM     12  C   UNL     1     -15.635  -9.442  97.804  1.00  0.00     0.004 C 
ENDBRANCH  10  11
ENDBRANCH   9  10
ENDBRANCH   8   9
ENDBRANCH   7   8
ENDBRANCH   5   6
ENDBRANCH   4   5
ENDBRANCH   2   3
ENDBRANCH   1   2
BRANCH   1  13
ATOM     13  C   UNL     1     -13.411 -11.426  94.005  1.00  0.00     0.000 C 
BRANCH  13  14
ATOM     14  C   UNL     1     -12.263 -10.937  93.108  1.00  0.00     0.000 C 
BRANCH  14  15
ATOM     15  C   UNL     1     -10.884 -11.090  93.776  1.00  0.00     0.000 C 
BRANCH  15  16
ATOM     16  C   UNL     1      -9.809 -10.136  93.210  1.00  0.00     0.003 C 
BRANCH  16  17
ATOM     17  C   UNL     1     -10.380  -9.024  92.310  1.00  0.00     0.042 C 
BRANCH  17  18
ATOM     18  C   UNL     1      -9.721  -8.948  90.927  1.00  0.00     0.233 C 
BRANCH  18  19
ATOM     19  O   UNL     1     -10.096 -10.054  90.106  1.00  0.00    -0.466 OA
BRANCH  19  20
ATOM     20  C   UNL     1      -9.231 -10.667  89.193  1.00  0.00     0.302 C 
ATOM     21  O   UNL     1      -9.634 -11.597  88.444  1.00  0.00    -0.253 OA
ATOM     22  C   UNL     1      -7.805 -10.236  89.130  1.00  0.00     0.139 C 
ENDBRANCH  19  20
ENDBRANCH  18  19
ENDBRANCH  17  18
ENDBRANCH  16  17
ENDBRANCH  15  16
ENDBRANCH  14  15
ENDBRANCH  13  14
ENDBRANCH   1  13
TORSDOF 16
ENDMDL
MODEL 8
REMARK VINA RESULT:    -3.777      2.910      6.737
REMARK INTER + INTRA:         -10.266
REMARK INTER:                  -6.856
REMARK INTRA:                  -3.411
REMARK UNBOUND:                -2.957
REMARK SMILES CCCCCC=CCC=CCCCCCCCCOC(C)=O
REMARK SMILES IDX 12 1 11 2 10 3 9 4 8 5 7 6 6 7 5 8 4 9 3 10 2 11 1 12 13 13
REMARK SMILES IDX 14 14 15 15 16 16 17 17 18 18 19 19 20 20 22 21 21 22
REMARK H PARENT
REMARK Flexibility Score: inf
ROOT
ATOM      1  C   UNL     1     -12.274  -8.739  92.696  1.00  0.00     0.004 C 
ENDROOT
BRANCH   1   2
ATOM      2  C   UNL     1     -13.647  -9.139  93.256  1.00  0.00     0.027 C 
BRANCH   2   3
ATOM      3  C   UNL     1     -14.253 -10.310  92.520  1.00  0.00    -0.031 C 
ATOM      4  C   UNL     1     -14.276 -11.573  92.979  1.00  0.00    -0.027 C 
BRANCH   4   5
ATOM      5  C   UNL     1     -13.718 -11.996  94.315  1.00  0.00     0.054 C 
BRANCH   5   6
ATOM      6  C   UNL     1     -12.229 -12.219  94.237  1.00  0.00    -0.027 C 
ATOM      7  C   UNL     1     -11.357 -11.867  95.201  1.00  0.00    -0.031 C 
BRANCH   7   8
ATOM      8  C   UNL     1     -11.735 -11.150  96.472  1.00  0.00     0.027 C 
BRANCH   8   9
ATOM      9  C   UNL     1     -11.584  -9.630  96.305  1.00  0.00     0.004 C 
BRANCH   9  10
ATOM     10  C   UNL     1     -12.832  -8.851  96.755  1.00  0.00     0.000 C 
BRANCH  10  11
ATOM     11  C   UNL     1     -13.977  -9.724  97.301  1.00  0.00    -0.003 C 
ATOM     12  C   UNL     1     -15.314  -9.466  96.605  1.00  0.00     0.004 C 
ENDBRANCH  10  11
ENDBRANCH   9  10
ENDBRANCH   8   9
ENDBRANCH   7   8
ENDBRANCH   5   6
ENDBRANCH   4   5
ENDBRANCH   2   3
ENDBRANCH   1   2
BRANCH   1  13
ATOM     13  C   UNL     1     -11.843  -9.627  91.520  1.00  0.00     0.000 C 
BRANCH  13  14
ATOM     14  C   UNL     1     -10.316  -9.781  91.481  1.00  0.00     0.000 C 
BRANCH  14  15
ATOM     15  C   UNL     1      -9.694  -9.857  92.888  1.00  0.00     0.000 C 
BRANCH  15  16
ATOM     16  C   UNL     1      -8.514  -8.883  93.101  1.00  0.00     0.003 C 
BRANCH  16  17
ATOM     17  C   UNL     1      -7.843  -8.428  91.792  1.00  0.00     0.042 C 
BRANCH  17  18
ATOM     18  C   UNL     1      -7.439  -6.947  91.785  1.00  0.00     0.233 C 
BRANCH  18  19
ATOM     19  O   UNL     1      -8.047  -6.244  90.701  1.00  0.00    -0.466 OA
BRANCH  19  20
ATOM     20  C   UNL     1      -9.394  -6.384  90.347  1.00  0.00     0.302 C 
ATOM     21  O   UNL     1      -9.724  -6.920  89.255  1.00  0.00    -0.253 OA
ATOM     22  C   UNL     1     -10.450  -5.860  91.260  1.00  0.00     0.139 C 
ENDBRANCH  19  20
ENDBRANCH  18  19
ENDBRANCH  17  18
ENDBRANCH  16  17
ENDBRANCH  15  16
ENDBRANCH  14  15
ENDBRANCH  13  14
ENDBRANCH   1  13
TORSDOF 16
ENDMDL
MODEL 9
REMARK VINA RESULT:    -3.724      2.801      7.623
REMARK INTER + INTRA:         -10.164
REMARK INTER:                  -6.799
REMARK INTRA:                  -3.365
REMARK UNBOUND:                -2.957
REMARK SMILES CCCCCC=CCC=CCCCCCCCCOC(C)=O
REMARK SMILES IDX 12 1 11 2 10 3 9 4 8 5 7 6 6 7 5 8 4 9 3 10 2 11 1 12 13 13
REMARK SMILES IDX 14 14 15 15 16 16 17 17 18 18 19 19 20 20 22 21 21 22
REMARK H PARENT
REMARK Flexibility Score: inf
ROOT
ATOM      1  C   UNL     1     -11.371 -11.682  94.030  1.00  0.00     0.004 C 
ENDROOT
BRANCH   1   2
ATOM      2  C   UNL     1     -12.804 -12.137  94.339  1.00  0.00     0.027 C 
BRANCH   2   3
ATOM      3  C   UNL     1     -13.844 -11.225  93.733  1.00  0.00    -0.031 C 
ATOM      4  C   UNL     1     -14.475 -10.238  94.392  1.00  0.00    -0.027 C 
BRANCH   4   5
ATOM      5  C   UNL     1     -14.211  -9.884  95.835  1.00  0.00     0.054 C 
BRANCH   5   6
ATOM      6  C   UNL     1     -13.156  -8.814  95.950  1.00  0.00    -0.027 C 
ATOM      7  C   UNL     1     -11.979  -8.974  96.584  1.00  0.00    -0.031 C 
BRANCH   7   8
ATOM      8  C   UNL     1     -11.569 -10.225  97.318  1.00  0.00     0.027 C 
BRANCH   8   9
ATOM      9  C   UNL     1     -10.987  -9.881  98.697  1.00  0.00     0.004 C 
BRANCH   9  10
ATOM     10  C   UNL     1     -11.995 -10.090  99.841  1.00  0.00     0.000 C 
BRANCH  10  11
ATOM     11  C   UNL     1     -13.352 -10.674  99.409  1.00  0.00    -0.003 C 
ATOM     12  C   UNL     1     -14.505  -9.679  99.545  1.00  0.00     0.004 C 
ENDBRANCH  10  11
ENDBRANCH   9  10
ENDBRANCH   8   9
ENDBRANCH   7   8
ENDBRANCH   5   6
ENDBRANCH   4   5
ENDBRANCH   2   3
ENDBRANCH   1   2
BRANCH   1  13
ATOM     13  C   UNL     1     -11.316 -10.675  92.871  1.00  0.00     0.000 C 
BRANCH  13  14
ATOM     14  C   UNL     1     -10.442  -9.467  93.238  1.00  0.00     0.000 C 
BRANCH  14  15
ATOM     15  C   UNL     1     -11.115  -8.125  92.896  1.00  0.00     0.000 C 
BRANCH  15  16
ATOM     16  C   UNL     1     -12.363  -8.266  91.996  1.00  0.00     0.003 C 
BRANCH  16  17
ATOM     17  C   UNL     1     -12.260  -7.491  90.670  1.00  0.00     0.042 C 
BRANCH  17  18
ATOM     18  C   UNL     1     -11.095  -7.941  89.778  1.00  0.00     0.233 C 
BRANCH  18  19
ATOM     19  O   UNL     1     -11.099  -9.356  89.586  1.00  0.00    -0.466 OA
BRANCH  19  20
ATOM     20  C   UNL     1      -9.938 -10.111  89.390  1.00  0.00     0.302 C 
ATOM     21  O   UNL     1      -9.983 -11.228  88.807  1.00  0.00    -0.253 OA
ATOM     22  C   UNL     1      -8.635  -9.603  89.907  1.00  0.00     0.139 C 
ENDBRANCH  19  20
ENDBRANCH  18  19
ENDBRANCH  17  18
ENDBRANCH  16  17
ENDBRANCH  15  16
ENDBRANCH  14  15
ENDBRANCH  13  14
ENDBRANCH   1  13
TORSDOF 16
ENDMDL
