MODEL 1
REMARK VINA RESULT:     1.756      0.000      0.000
REMARK INTER + INTRA:           5.068
REMARK INTER:                   3.707
REMARK INTRA:                   1.360
REMARK UNBOUND:                 1.360
REMARK SMILES CCC(=O)CCCCC[C@@H]1NC(=O)[C@H]2CCCCN2C(=O)[C@@H]([C@@H](C)CC)NC(=O)[C@H](Cc2cn(OC)c3ccccc23)NC1=O
REMARK SMILES IDX 9 1 10 2 44 3 43 4 45 6 30 7 28 8 27 9 29 11 22 12 23 14
REMARK SMILES IDX 24 15 25 16 26 17 31 18 32 19 33 20 42 21 34 22 37 23 41 24
REMARK SMILES IDX 38 25 40 26 39 27 35 28 36 29 11 30 12 31 13 33 14 34 19 35
REMARK SMILES IDX 15 36 18 37 16 38 17 39 20 40 21 41 8 43 7 44 6 45 5 46 3 47
REMARK SMILES IDX 4 48 2 49 1 50
REMARK H PARENT 43 5 27 10 11 32
REMARK Flexibility Score: 80.00
ROOT
ATOM      1  C   UNL     1      35.550  -4.360  13.493  1.00  0.00     0.035 C 
ENDROOT
BRANCH   1   2
ATOM      2  C   UNL     1      34.709  -5.639  13.655  1.00  0.00     0.171 C 
BRANCH   2   3
ATOM      3  C   UNL     1      35.336  -6.795  12.929  1.00  0.00     0.243 C 
ATOM      4  N   UNL     1      36.197  -7.706  13.628  1.00  0.00    -0.342 N 
ATOM      5  H   UNL     1      36.607  -7.412  14.545  1.00  0.00     0.164 HD
ATOM      6  O   UNL     1      35.104  -6.958  11.699  1.00  0.00    -0.273 OA
BRANCH   4   7
ATOM      7  C   UNL     1      36.388  -9.094  13.200  1.00  0.00     0.175 C 
BRANCH   7   8
ATOM      8  C   UNL     1      35.558  -9.976  14.093  1.00  0.00     0.243 C 
ATOM      9  N   UNL     1      34.297  -9.496  14.585  1.00  0.00    -0.342 N 
ATOM     10  H   UNL     1      33.772  -8.804  14.000  1.00  0.00     0.164 HD
ATOM     11  O   UNL     1      36.002 -11.091  14.477  1.00  0.00    -0.273 OA
BRANCH   9  12
ATOM     12  C   UNL     1      33.879  -9.711  15.974  1.00  0.00     0.174 CG0
ATOM     13  G   UNL     1      33.666  -8.374  16.646  1.00  0.00     0.000 G0
BRANCH  12  14
ATOM     14  C   UNL     1      32.636 -10.647  16.057  1.00  0.00     0.018 C 
ATOM     15  C   UNL     1      31.689 -10.303  17.225  1.00  0.00     0.010 C 
BRANCH  14  16
ATOM     16  C   UNL     1      31.877 -10.629  14.706  1.00  0.00     0.002 C 
ATOM     17  C   UNL     1      30.410 -11.047  14.838  1.00  0.00     0.004 C 
ENDBRANCH  14  16
ENDBRANCH  12  14
ENDBRANCH   9  12
ENDBRANCH   7   8
BRANCH   7  18
ATOM     18  C   UNL     1      37.881  -9.466  13.237  1.00  0.00     0.073 C 
BRANCH  18  19
ATOM     19  C   UNL     1      38.469  -9.432  11.855  1.00  0.00    -0.016 A 
ATOM     20  C   UNL     1      38.790 -10.536  11.074  1.00  0.00     0.134 A 
ATOM     21  C   UNL     1      38.625  -8.331  11.034  1.00  0.00     0.006 A 
ATOM     22  N   UNL     1      39.149 -10.145   9.831  1.00  0.00    -0.191 N 
ATOM     23  C   UNL     1      39.053  -8.788   9.806  1.00  0.00     0.087 A 
ATOM     24  C   UNL     1      38.389  -6.979  11.289  1.00  0.00     0.011 A 
ATOM     25  C   UNL     1      39.288  -7.882   8.757  1.00  0.00     0.030 A 
ATOM     26  C   UNL     1      38.606  -6.063  10.248  1.00  0.00     0.001 A 
ATOM     27  C   UNL     1      39.057  -6.511   8.992  1.00  0.00     0.002 A 
BRANCH  22  28
ATOM     28  O   UNL     1      39.469 -11.060   8.839  1.00  0.00    -0.417 OA
ATOM     29  C   UNL     1      40.256 -10.777   7.691  1.00  0.00     0.313 C 
ENDBRANCH  22  28
ENDBRANCH  18  19
ENDBRANCH   7  18
ENDBRANCH   4   7
ENDBRANCH   2   3
BRANCH   2  30
ATOM     30  N   UNL     1      34.556  -5.980  15.073  1.00  0.00    -0.343 N 
ATOM     31  C   UNL     1      35.669  -6.335  15.910  1.00  0.00     0.243 C 
ATOM     32  H   UNL     1      33.617  -5.870  15.517  1.00  0.00     0.164 HD
ATOM     33  O   UNL     1      36.842  -6.354  15.439  1.00  0.00    -0.273 OA
BRANCH  31  34
ATOM     34  C   UNL     1      35.420  -6.633  17.371  1.00  0.00     0.174 C 
ATOM     35  N   UNL     1      34.721  -7.914  17.570  1.00  0.00    -0.329 N 
ATOM     36  C   UNL     1      34.643  -5.525  18.107  1.00  0.00     0.035 C 
ATOM     37  C   UNL     1      34.645  -8.349  18.969  1.00  0.00     0.120 C 
ATOM     38  C   UNL     1      34.486  -5.891  19.596  1.00  0.00     0.004 C 
ATOM     39  C   UNL     1      33.874  -7.294  19.780  1.00  0.00     0.022 C 
BRANCH  35  40
ATOM     40  C   UNL     1      33.703  -8.363  16.650  1.00  0.00     0.246 CG0
ATOM     41  O   UNL     1      32.713  -7.621  16.406  1.00  0.00    -0.272 OA
ATOM     42  G   UNL     1      33.838  -9.692  15.940  1.00  0.00     0.000 G0
ENDBRANCH  35  40
ENDBRANCH  31  34
ENDBRANCH   2  30
ENDBRANCH   1   2
BRANCH   1  43
ATOM     43  C   UNL     1      34.688  -3.195  12.975  1.00  0.00     0.003 C 
BRANCH  43  44
ATOM     44  C   UNL     1      34.957  -1.875  13.712  1.00  0.00     0.001 C 
BRANCH  44  45
ATOM     45  C   UNL     1      34.597  -0.640  12.872  1.00  0.00     0.008 C 
BRANCH  45  46
ATOM     46  C   UNL     1      35.804   0.290  12.730  1.00  0.00     0.075 C 
BRANCH  46  47
ATOM     47  C   UNL     1      35.702   1.113  11.475  1.00  0.00     0.132 C 
ATOM     48  O   UNL     1      35.099   0.666  10.510  1.00  0.00    -0.300 OA
BRANCH  47  49
ATOM     49  C   UNL     1      36.319   2.484  11.389  1.00  0.00     0.072 C 
ATOM     50  C   UNL     1      35.241   3.551  11.220  1.00  0.00     0.012 C 
ENDBRANCH  47  49
ENDBRANCH  46  47
ENDBRANCH  45  46
ENDBRANCH  44  45
ENDBRANCH  43  44
ENDBRANCH   1  43
TORSDOF 12
ENDMDL
MODEL 2
REMARK VINA RESULT:     2.014      4.919     10.638
REMARK INTER + INTRA:           5.612
REMARK INTER:                   3.542
REMARK INTRA:                   2.070
REMARK UNBOUND:                 1.360
REMARK SMILES CCC(=O)CCCCC[C@@H]1NC(=O)[C@H]2CCCCN2C(=O)[C@@H]([C@@H](C)CC)NC(=O)[C@H](Cc2cn(OC)c3ccccc23)NC1=O
REMARK SMILES IDX 9 1 10 2 44 3 43 4 45 6 30 7 28 8 27 9 29 11 22 12 23 14
REMARK SMILES IDX 24 15 25 16 26 17 31 18 32 19 33 20 42 21 34 22 37 23 41 24
REMARK SMILES IDX 38 25 40 26 39 27 35 28 36 29 11 30 12 31 13 33 14 34 19 35
REMARK SMILES IDX 15 36 18 37 16 38 17 39 20 40 21 41 8 43 7 44 6 45 5 46 3 47
REMARK SMILES IDX 4 48 2 49 1 50
REMARK H PARENT 43 5 27 10 11 32
REMARK Flexibility Score: 80.00
ROOT
ATOM      1  C   UNL     1      39.625  -4.419   8.457  1.00  0.00     0.035 C 
ENDROOT
BRANCH   1   2
ATOM      2  C   UNL     1      40.587  -5.537   8.015  1.00  0.00     0.171 C 
BRANCH   2   3
ATOM      3  C   UNL     1      40.527  -6.706   8.956  1.00  0.00     0.243 C 
ATOM      4  N   UNL     1      40.346  -8.035   8.446  1.00  0.00    -0.342 N 
ATOM      5  H   UNL     1      39.977  -8.159   7.474  1.00  0.00     0.164 HD
ATOM      6  O   UNL     1      40.634  -6.512  10.199  1.00  0.00    -0.273 OA
BRANCH   4   7
ATOM      7  C   UNL     1      40.816  -9.224   9.161  1.00  0.00     0.175 C 
BRANCH   7   8
ATOM      8  C   UNL     1      41.821  -9.926   8.289  1.00  0.00     0.243 C 
ATOM      9  N   UNL     1      42.329  -9.261   7.122  1.00  0.00    -0.342 N 
ATOM     10  H   UNL     1      42.376  -8.216   7.133  1.00  0.00     0.164 HD
ATOM     11  O   UNL     1      42.150 -11.119   8.529  1.00  0.00    -0.273 OA
BRANCH   9  12
ATOM     12  C   UNL     1      42.498  -9.965   5.846  1.00  0.00     0.174 CG0
ATOM     13  G   UNL     1      42.446  -8.966   4.712  1.00  0.00     0.000 G0
BRANCH  12  14
ATOM     14  C   UNL     1      43.791 -10.834   5.842  1.00  0.00     0.018 C 
ATOM     15  C   UNL     1      44.330 -11.121   4.425  1.00  0.00     0.010 C 
BRANCH  14  16
ATOM     16  C   UNL     1      44.876 -10.163   6.721  1.00  0.00     0.002 C 
ATOM     17  C   UNL     1      46.299 -10.572   6.333  1.00  0.00     0.004 C 
ENDBRANCH  14  16
ENDBRANCH  12  14
ENDBRANCH   9  12
ENDBRANCH   7   8
BRANCH   7  18
ATOM     18  C   UNL     1      39.630 -10.132   9.532  1.00  0.00     0.073 C 
BRANCH  18  19
ATOM     19  C   UNL     1      38.848  -9.542  10.671  1.00  0.00    -0.016 A 
ATOM     20  C   UNL     1      39.161  -8.379  11.364  1.00  0.00     0.134 A 
ATOM     21  C   UNL     1      37.595  -9.921  11.117  1.00  0.00     0.006 A 
ATOM     22  N   UNL     1      38.164  -8.056  12.217  1.00  0.00    -0.191 N 
ATOM     23  C   UNL     1      37.202  -9.006  12.070  1.00  0.00     0.087 A 
ATOM     24  C   UNL     1      36.784 -10.985  10.721  1.00  0.00     0.011 A 
ATOM     25  C   UNL     1      35.950  -9.134  12.699  1.00  0.00     0.030 A 
ATOM     26  C   UNL     1      35.526 -11.119  11.329  1.00  0.00     0.001 A 
ATOM     27  C   UNL     1      35.115 -10.202  12.314  1.00  0.00     0.002 A 
BRANCH  22  28
ATOM     28  O   UNL     1      38.207  -6.907  12.994  1.00  0.00    -0.417 OA
ATOM     29  C   UNL     1      37.105  -6.358  13.701  1.00  0.00     0.313 C 
ENDBRANCH  22  28
ENDBRANCH  18  19
ENDBRANCH   7  18
ENDBRANCH   4   7
ENDBRANCH   2   3
BRANCH   2  30
ATOM     30  N   UNL     1      40.265  -5.988   6.658  1.00  0.00    -0.343 N 
ATOM     31  C   UNL     1      41.246  -6.555   5.775  1.00  0.00     0.243 C 
ATOM     32  H   UNL     1      39.266  -5.985   6.353  1.00  0.00     0.164 HD
ATOM     33  O   UNL     1      42.444  -6.694   6.156  1.00  0.00    -0.273 OA
BRANCH  31  34
ATOM     34  C   UNL     1      40.812  -7.029   4.406  1.00  0.00     0.174 C 
ATOM     35  N   UNL     1      41.199  -8.427   4.151  1.00  0.00    -0.329 N 
ATOM     36  C   UNL     1      41.331  -6.152   3.252  1.00  0.00     0.035 C 
ATOM     37  C   UNL     1      40.620  -9.000   2.931  1.00  0.00     0.120 C 
ATOM     38  C   UNL     1      40.795  -6.680   1.907  1.00  0.00     0.004 C 
ATOM     39  C   UNL     1      41.095  -8.181   1.718  1.00  0.00     0.022 C 
BRANCH  35  40
ATOM     40  C   UNL     1      42.449  -8.961   4.639  1.00  0.00     0.246 CG0
ATOM     41  O   UNL     1      43.535  -8.560   4.140  1.00  0.00    -0.272 OA
ATOM     42  G   UNL     1      42.468  -9.958   5.776  1.00  0.00     0.000 G0
ENDBRANCH  35  40
ENDBRANCH  31  34
ENDBRANCH   2  30
ENDBRANCH   1   2
BRANCH   1  43
ATOM     43  C   UNL     1      40.401  -3.196   8.977  1.00  0.00     0.003 C 
BRANCH  43  44
ATOM     44  C   UNL     1      40.313  -1.985   8.038  1.00  0.00     0.001 C 
BRANCH  44  45
ATOM     45  C   UNL     1      40.780  -0.681   8.703  1.00  0.00     0.008 C 
BRANCH  45  46
ATOM     46  C   UNL     1      40.637  -0.766  10.225  1.00  0.00     0.075 C 
BRANCH  46  47
ATOM     47  C   UNL     1      40.024   0.491  10.777  1.00  0.00     0.132 C 
ATOM     48  O   UNL     1      38.808   0.574  10.877  1.00  0.00    -0.300 OA
BRANCH  47  49
ATOM     49  C   UNL     1      40.880   1.648  11.219  1.00  0.00     0.072 C 
ATOM     50  C   UNL     1      40.014   2.844  11.602  1.00  0.00     0.012 C 
ENDBRANCH  47  49
ENDBRANCH  46  47
ENDBRANCH  45  46
ENDBRANCH  44  45
ENDBRANCH  43  44
ENDBRANCH   1  43
TORSDOF 12
ENDMDL
MODEL 3
REMARK VINA RESULT:     3.928      4.174      6.672
REMARK INTER + INTRA:           9.652
REMARK INTER:                   7.690
REMARK INTRA:                   1.962
REMARK UNBOUND:                 1.360
REMARK SMILES CCC(=O)CCCCC[C@@H]1NC(=O)[C@H]2CCCCN2C(=O)[C@@H]([C@@H](C)CC)NC(=O)[C@H](Cc2cn(OC)c3ccccc23)NC1=O
REMARK SMILES IDX 9 1 10 2 44 3 43 4 45 6 30 7 28 8 27 9 29 11 22 12 23 14
REMARK SMILES IDX 24 15 25 16 26 17 31 18 32 19 33 20 42 21 34 22 37 23 41 24
REMARK SMILES IDX 38 25 40 26 39 27 35 28 36 29 11 30 12 31 13 33 14 34 19 35
REMARK SMILES IDX 15 36 18 37 16 38 17 39 20 40 21 41 8 43 7 44 6 45 5 46 3 47
REMARK SMILES IDX 4 48 2 49 1 50
REMARK H PARENT 43 5 27 10 11 32
REMARK Flexibility Score: 80.00
ROOT
ATOM      1  C   UNL     1      40.742  -4.320   9.026  1.00  0.00     0.035 C 
ENDROOT
BRANCH   1   2
ATOM      2  C   UNL     1      39.731  -5.280   8.372  1.00  0.00     0.171 C 
BRANCH   2   3
ATOM      3  C   UNL     1      40.394  -6.562   7.955  1.00  0.00     0.243 C 
ATOM      4  N   UNL     1      40.545  -7.636   8.895  1.00  0.00    -0.342 N 
ATOM      5  H   UNL     1      40.457  -7.430   9.918  1.00  0.00     0.164 HD
ATOM      6  O   UNL     1      40.820  -6.687   6.773  1.00  0.00    -0.273 OA
BRANCH   4   7
ATOM      7  C   UNL     1      40.643  -9.037   8.480  1.00  0.00     0.175 C 
BRANCH   7   8
ATOM      8  C   UNL     1      39.801  -9.861   9.416  1.00  0.00     0.243 C 
ATOM      9  N   UNL     1      38.785  -9.219  10.202  1.00  0.00    -0.342 N 
ATOM     10  H   UNL     1      38.338  -8.354   9.816  1.00  0.00     0.164 HD
ATOM     11  O   UNL     1      40.040 -11.088   9.575  1.00  0.00    -0.273 OA
BRANCH   9  12
ATOM     12  C   UNL     1      38.574  -9.556  11.614  1.00  0.00     0.174 CG0
ATOM     13  G   UNL     1      38.893  -8.352  12.470  1.00  0.00     0.000 G0
BRANCH  12  14
ATOM     14  C   UNL     1      37.143 -10.122  11.857  1.00  0.00     0.018 C 
ATOM     15  C   UNL     1      36.540 -10.814  10.616  1.00  0.00     0.010 C 
BRANCH  14  16
ATOM     16  C   UNL     1      37.158 -11.082  13.073  1.00  0.00     0.002 C 
ATOM     17  C   UNL     1      36.164 -10.680  14.165  1.00  0.00     0.004 C 
ENDBRANCH  14  16
ENDBRANCH  12  14
ENDBRANCH   9  12
ENDBRANCH   7   8
BRANCH   7  18
ATOM     18  C   UNL     1      42.114  -9.492   8.466  1.00  0.00     0.073 C 
BRANCH  18  19
ATOM     19  C   UNL     1      42.553  -9.817   7.067  1.00  0.00    -0.016 A 
ATOM     20  C   UNL     1      41.841  -9.557   5.903  1.00  0.00     0.134 A 
ATOM     21  C   UNL     1      43.799 -10.253   6.657  1.00  0.00     0.006 A 
ATOM     22  N   UNL     1      42.595  -9.834   4.816  1.00  0.00    -0.191 N 
ATOM     23  C   UNL     1      43.799 -10.268   5.278  1.00  0.00     0.087 A 
ATOM     24  C   UNL     1      44.922 -10.602   7.408  1.00  0.00     0.011 A 
ATOM     25  C   UNL     1      44.951 -10.663   4.575  1.00  0.00     0.030 A 
ATOM     26  C   UNL     1      46.084 -10.986   6.722  1.00  0.00     0.001 A 
ATOM     27  C   UNL     1      46.096 -11.020   5.314  1.00  0.00     0.002 A 
BRANCH  22  28
ATOM     28  O   UNL     1      42.133  -9.612   3.527  1.00  0.00    -0.417 OA
ATOM     29  C   UNL     1      40.941 -10.158   2.982  1.00  0.00     0.313 C 
ENDBRANCH  22  28
ENDBRANCH  18  19
ENDBRANCH   7  18
ENDBRANCH   4   7
ENDBRANCH   2   3
BRANCH   2  30
ATOM     30  N   UNL     1      38.632  -5.578   9.294  1.00  0.00    -0.343 N 
ATOM     31  C   UNL     1      38.844  -6.142  10.598  1.00  0.00     0.243 C 
ATOM     32  H   UNL     1      37.664  -5.282   9.034  1.00  0.00     0.164 HD
ATOM     33  O   UNL     1      40.015  -6.395  11.003  1.00  0.00    -0.273 OA
BRANCH  31  34
ATOM     34  C   UNL     1      37.650  -6.378  11.497  1.00  0.00     0.174 C 
ATOM     35  N   UNL     1      37.973  -7.254  12.636  1.00  0.00    -0.329 N 
ATOM     36  C   UNL     1      36.424  -6.951  10.762  1.00  0.00     0.035 C 
ATOM     37  C   UNL     1      36.915  -7.342  13.648  1.00  0.00     0.120 C 
ATOM     38  C   UNL     1      35.246  -7.106  11.744  1.00  0.00     0.004 C 
ATOM     39  C   UNL     1      35.645  -7.915  12.996  1.00  0.00     0.022 C 
BRANCH  35  40
ATOM     40  C   UNL     1      38.888  -8.362  12.495  1.00  0.00     0.246 CG0
ATOM     41  O   UNL     1      39.968  -8.364  13.147  1.00  0.00    -0.272 OA
ATOM     42  G   UNL     1      38.542  -9.540  11.613  1.00  0.00     0.000 G0
ENDBRANCH  35  40
ENDBRANCH  31  34
ENDBRANCH   2  30
ENDBRANCH   1   2
BRANCH   1  43
ATOM     43  C   UNL     1      40.130  -2.922   9.219  1.00  0.00     0.003 C 
BRANCH  43  44
ATOM     44  C   UNL     1      40.984  -1.803   8.607  1.00  0.00     0.001 C 
BRANCH  44  45
ATOM     45  C   UNL     1      40.539  -0.402   9.052  1.00  0.00     0.008 C 
BRANCH  45  46
ATOM     46  C   UNL     1      40.653  -0.253  10.572  1.00  0.00     0.075 C 
BRANCH  46  47
ATOM     47  C   UNL     1      40.055   1.049  11.029  1.00  0.00     0.132 C 
ATOM     48  O   UNL     1      38.866   1.263  10.844  1.00  0.00    -0.300 OA
BRANCH  47  49
ATOM     49  C   UNL     1      40.892   2.090  11.723  1.00  0.00     0.072 C 
ATOM     50  C   UNL     1      40.234   3.464  11.625  1.00  0.00     0.012 C 
ENDBRANCH  47  49
ENDBRANCH  46  47
ENDBRANCH  45  46
ENDBRANCH  44  45
ENDBRANCH  43  44
ENDBRANCH   1  43
TORSDOF 12
ENDMDL
MODEL 4
REMARK VINA RESULT:     4.095      5.241     11.136
REMARK INTER + INTRA:          10.003
REMARK INTER:                   8.187
REMARK INTRA:                   1.816
REMARK UNBOUND:                 1.360
REMARK SMILES CCC(=O)CCCCC[C@@H]1NC(=O)[C@H]2CCCCN2C(=O)[C@@H]([C@@H](C)CC)NC(=O)[C@H](Cc2cn(OC)c3ccccc23)NC1=O
REMARK SMILES IDX 9 1 10 2 44 3 43 4 45 6 30 7 28 8 27 9 29 11 22 12 23 14
REMARK SMILES IDX 24 15 25 16 26 17 31 18 32 19 33 20 42 21 34 22 37 23 41 24
REMARK SMILES IDX 38 25 40 26 39 27 35 28 36 29 11 30 12 31 13 33 14 34 19 35
REMARK SMILES IDX 15 36 18 37 16 38 17 39 20 40 21 41 8 43 7 44 6 45 5 46 3 47
REMARK SMILES IDX 4 48 2 49 1 50
REMARK H PARENT 43 5 27 10 11 32
REMARK Flexibility Score: 80.00
ROOT
ATOM      1  C   UNL     1      39.232  -4.222   7.361  1.00  0.00     0.035 C 
ENDROOT
BRANCH   1   2
ATOM      2  C   UNL     1      40.153  -5.453   7.278  1.00  0.00     0.171 C 
BRANCH   2   3
ATOM      3  C   UNL     1      39.939  -6.368   8.450  1.00  0.00     0.243 C 
ATOM      4  N   UNL     1      39.594  -7.745   8.238  1.00  0.00    -0.342 N 
ATOM      5  H   UNL     1      39.219  -8.035   7.304  1.00  0.00     0.164 HD
ATOM      6  O   UNL     1      40.062  -5.918   9.623  1.00  0.00    -0.273 OA
BRANCH   4   7
ATOM      7  C   UNL     1      39.905  -8.794   9.211  1.00  0.00     0.175 C 
BRANCH   7   8
ATOM      8  C   UNL     1      40.975  -9.674   8.623  1.00  0.00     0.243 C 
ATOM      9  N   UNL     1      41.625  -9.277   7.406  1.00  0.00    -0.342 N 
ATOM     10  H   UNL     1      41.703  -8.254   7.201  1.00  0.00     0.164 HD
ATOM     11  O   UNL     1      41.239 -10.791   9.145  1.00  0.00    -0.273 OA
BRANCH   9  12
ATOM     12  C   UNL     1      41.907 -10.238   6.334  1.00  0.00     0.174 CG0
ATOM     13  G   UNL     1      41.963  -9.510   5.010  1.00  0.00     0.000 G0
BRANCH  12  14
ATOM     14  C   UNL     1      43.191 -11.067   6.635  1.00  0.00     0.018 C 
ATOM     15  C   UNL     1      44.177 -11.118   5.450  1.00  0.00     0.010 C 
BRANCH  14  16
ATOM     16  C   UNL     1      43.882 -10.517   7.907  1.00  0.00     0.002 C 
ATOM     17  C   UNL     1      45.138  -9.696   7.599  1.00  0.00     0.004 C 
ENDBRANCH  14  16
ENDBRANCH  12  14
ENDBRANCH   9  12
ENDBRANCH   7   8
BRANCH   7  18
ATOM     18  C   UNL     1      38.634  -9.584   9.575  1.00  0.00     0.073 C 
BRANCH  18  19
ATOM     19  C   UNL     1      37.990  -9.011  10.804  1.00  0.00    -0.016 A 
ATOM     20  C   UNL     1      38.194  -7.736  11.318  1.00  0.00     0.134 A 
ATOM     21  C   UNL     1      36.951  -9.551  11.540  1.00  0.00     0.006 A 
ATOM     22  N   UNL     1      37.340  -7.496  12.338  1.00  0.00    -0.191 N 
ATOM     23  C   UNL     1      36.578  -8.614  12.479  1.00  0.00     0.087 A 
ATOM     24  C   UNL     1      36.308 -10.783  11.415  1.00  0.00     0.011 A 
ATOM     25  C   UNL     1      35.526  -8.888  13.371  1.00  0.00     0.030 A 
ATOM     26  C   UNL     1      35.247 -11.067  12.289  1.00  0.00     0.001 A 
ATOM     27  C   UNL     1      34.862 -10.126  13.263  1.00  0.00     0.002 A 
BRANCH  22  28
ATOM     28  O   UNL     1      37.304  -6.273  12.992  1.00  0.00    -0.417 OA
ATOM     29  C   UNL     1      38.186  -5.878  14.033  1.00  0.00     0.313 C 
ENDBRANCH  22  28
ENDBRANCH  18  19
ENDBRANCH   7  18
ENDBRANCH   4   7
ENDBRANCH   2   3
BRANCH   2  30
ATOM     30  N   UNL     1      39.915  -6.192   6.034  1.00  0.00    -0.343 N 
ATOM     31  C   UNL     1      40.964  -6.863   5.318  1.00  0.00     0.243 C 
ATOM     32  H   UNL     1      38.932  -6.317   5.705  1.00  0.00     0.164 HD
ATOM     33  O   UNL     1      42.150  -6.845   5.754  1.00  0.00    -0.273 OA
BRANCH  31  34
ATOM     34  C   UNL     1      40.616  -7.635   4.064  1.00  0.00     0.174 C 
ATOM     35  N   UNL     1      40.884  -9.076   4.203  1.00  0.00    -0.329 N 
ATOM     36  C   UNL     1      41.328  -7.118   2.800  1.00  0.00     0.035 C 
ATOM     37  C   UNL     1      40.368  -9.895   3.099  1.00  0.00     0.120 C 
ATOM     38  C   UNL     1      40.872  -7.927   1.570  1.00  0.00     0.004 C 
ATOM     39  C   UNL     1      41.036  -9.445   1.789  1.00  0.00     0.022 C 
BRANCH  35  40
ATOM     40  C   UNL     1      42.021  -9.560   4.949  1.00  0.00     0.246 CG0
ATOM     41  O   UNL     1      43.183  -9.405   4.483  1.00  0.00    -0.272 OA
ATOM     42  G   UNL     1      41.836 -10.205   6.304  1.00  0.00     0.000 G0
ENDBRANCH  35  40
ENDBRANCH  31  34
ENDBRANCH   2  30
ENDBRANCH   1   2
BRANCH   1  43
ATOM     43  C   UNL     1      39.771  -3.071   6.492  1.00  0.00     0.003 C 
BRANCH  43  44
ATOM     44  C   UNL     1      38.833  -2.704   5.334  1.00  0.00     0.001 C 
BRANCH  44  45
ATOM     45  C   UNL     1      39.384  -3.128   3.964  1.00  0.00     0.008 C 
BRANCH  45  46
ATOM     46  C   UNL     1      40.904  -2.955   3.913  1.00  0.00     0.075 C 
BRANCH  46  47
ATOM     47  C   UNL     1      41.469  -3.545   2.650  1.00  0.00     0.132 C 
ATOM     48  O   UNL     1      42.292  -4.446   2.723  1.00  0.00    -0.300 OA
BRANCH  47  49
ATOM     49  C   UNL     1      41.030  -3.056   1.296  1.00  0.00     0.072 C 
ATOM     50  C   UNL     1      41.635  -1.688   0.995  1.00  0.00     0.012 C 
ENDBRANCH  47  49
ENDBRANCH  46  47
ENDBRANCH  45  46
ENDBRANCH  44  45
ENDBRANCH  43  44
ENDBRANCH   1  43
TORSDOF 12
ENDMDL
MODEL 5
REMARK VINA RESULT:     4.551      4.404      9.796
REMARK INTER + INTRA:          10.967
REMARK INTER:                   7.956
REMARK INTRA:                   3.011
REMARK UNBOUND:                 1.360
REMARK SMILES CCC(=O)CCCCC[C@@H]1NC(=O)[C@H]2CCCCN2C(=O)[C@@H]([C@@H](C)CC)NC(=O)[C@H](Cc2cn(OC)c3ccccc23)NC1=O
REMARK SMILES IDX 9 1 10 2 44 3 43 4 45 6 30 7 28 8 27 9 29 11 22 12 23 14
REMARK SMILES IDX 24 15 25 16 26 17 31 18 32 19 33 20 42 21 34 22 37 23 41 24
REMARK SMILES IDX 38 25 40 26 39 27 35 28 36 29 11 30 12 31 13 33 14 34 19 35
REMARK SMILES IDX 15 36 18 37 16 38 17 39 20 40 21 41 8 43 7 44 6 45 5 46 3 47
REMARK SMILES IDX 4 48 2 49 1 50
REMARK H PARENT 43 5 27 10 11 32
REMARK Flexibility Score: 80.00
ROOT
ATOM      1  C   UNL     1      39.665  -3.862   9.153  1.00  0.00     0.035 C 
ENDROOT
BRANCH   1   2
ATOM      2  C   UNL     1      40.424  -5.157   8.807  1.00  0.00     0.171 C 
BRANCH   2   3
ATOM      3  C   UNL     1      40.005  -6.285   9.707  1.00  0.00     0.243 C 
ATOM      4  N   UNL     1      39.159  -7.332   9.207  1.00  0.00    -0.342 N 
ATOM      5  H   UNL     1      38.614  -7.166   8.329  1.00  0.00     0.164 HD
ATOM      6  O   UNL     1      40.400  -6.306  10.905  1.00  0.00    -0.273 OA
BRANCH   4   7
ATOM      7  C   UNL     1      39.158  -8.682   9.775  1.00  0.00     0.175 C 
BRANCH   7   8
ATOM      8  C   UNL     1      40.329  -9.431   9.200  1.00  0.00     0.243 C 
ATOM      9  N   UNL     1      41.005  -8.907   8.046  1.00  0.00    -0.342 N 
ATOM     10  H   UNL     1      41.003  -7.870   7.904  1.00  0.00     0.164 HD
ATOM     11  O   UNL     1      40.663 -10.551   9.673  1.00  0.00    -0.273 OA
BRANCH   9  12
ATOM     12  C   UNL     1      41.425  -9.774   6.939  1.00  0.00     0.174 CG0
ATOM     13  G   UNL     1      41.718  -8.925   5.722  1.00  0.00     0.000 G0
BRANCH  12  14
ATOM     14  C   UNL     1      42.617 -10.688   7.353  1.00  0.00     0.018 C 
ATOM     15  C   UNL     1      43.496 -11.123   6.163  1.00  0.00     0.010 C 
BRANCH  14  16
ATOM     16  C   UNL     1      43.466  -9.981   8.439  1.00  0.00     0.002 C 
ATOM     17  C   UNL     1      44.932  -9.806   8.032  1.00  0.00     0.004 C 
ENDBRANCH  14  16
ENDBRANCH  12  14
ENDBRANCH   9  12
ENDBRANCH   7   8
BRANCH   7  18
ATOM     18  C   UNL     1      37.818  -9.384   9.486  1.00  0.00     0.073 C 
BRANCH  18  19
ATOM     19  C   UNL     1      36.921  -9.325  10.689  1.00  0.00    -0.016 A 
ATOM     20  C   UNL     1      36.175 -10.377  11.208  1.00  0.00     0.134 A 
ATOM     21  C   UNL     1      36.808  -8.295  11.605  1.00  0.00     0.006 A 
ATOM     22  N   UNL     1      35.607 -10.019  12.381  1.00  0.00    -0.191 N 
ATOM     23  C   UNL     1      35.991  -8.736  12.624  1.00  0.00     0.087 A 
ATOM     24  C   UNL     1      37.394  -7.029  11.610  1.00  0.00     0.011 A 
ATOM     25  C   UNL     1      35.704  -7.894  13.714  1.00  0.00     0.030 A 
ATOM     26  C   UNL     1      37.127  -6.181  12.696  1.00  0.00     0.001 A 
ATOM     27  C   UNL     1      36.284  -6.611  13.739  1.00  0.00     0.002 A 
BRANCH  22  28
ATOM     28  O   UNL     1      34.851 -10.907  13.131  1.00  0.00    -0.417 OA
ATOM     29  C   UNL     1      34.788 -10.930  14.550  1.00  0.00     0.313 C 
ENDBRANCH  22  28
ENDBRANCH  18  19
ENDBRANCH   7  18
ENDBRANCH   4   7
ENDBRANCH   2   3
BRANCH   2  30
ATOM     30  N   UNL     1      40.188  -5.535   7.410  1.00  0.00    -0.343 N 
ATOM     31  C   UNL     1      41.154  -6.254   6.628  1.00  0.00     0.243 C 
ATOM     32  H   UNL     1      39.246  -5.360   6.995  1.00  0.00     0.164 HD
ATOM     33  O   UNL     1      42.260  -6.599   7.136  1.00  0.00    -0.273 OA
BRANCH  31  34
ATOM     34  C   UNL     1      40.807  -6.637   5.206  1.00  0.00     0.174 C 
ATOM     35  N   UNL     1      40.823  -8.095   5.000  1.00  0.00    -0.329 N 
ATOM     36  C   UNL     1      41.710  -5.976   4.148  1.00  0.00     0.035 C 
ATOM     37  C   UNL     1      40.288  -8.527   3.703  1.00  0.00     0.120 C 
ATOM     38  C   UNL     1      41.247  -6.381   2.734  1.00  0.00     0.004 C 
ATOM     39  C   UNL     1      41.142  -7.912   2.581  1.00  0.00     0.022 C 
BRANCH  35  40
ATOM     40  C   UNL     1      41.791  -8.936   5.663  1.00  0.00     0.246 CG0
ATOM     41  O   UNL     1      42.983  -8.958   5.251  1.00  0.00    -0.272 OA
ATOM     42  G   UNL     1      41.401  -9.752   6.875  1.00  0.00     0.000 G0
ENDBRANCH  35  40
ENDBRANCH  31  34
ENDBRANCH   2  30
ENDBRANCH   1   2
BRANCH   1  43
ATOM     43  C   UNL     1      40.630  -2.666   9.243  1.00  0.00     0.003 C 
BRANCH  43  44
ATOM     44  C   UNL     1      39.906  -1.313   9.271  1.00  0.00     0.001 C 
BRANCH  44  45
ATOM     45  C   UNL     1      40.667  -0.248  10.077  1.00  0.00     0.008 C 
BRANCH  45  46
ATOM     46  C   UNL     1      39.697   0.600  10.906  1.00  0.00     0.075 C 
BRANCH  46  47
ATOM     47  C   UNL     1      40.205   2.008  11.050  1.00  0.00     0.132 C 
ATOM     48  O   UNL     1      41.367   2.197  11.381  1.00  0.00    -0.300 OA
BRANCH  47  49
ATOM     49  C   UNL     1      39.313   3.190  10.783  1.00  0.00     0.072 C 
ATOM     50  C   UNL     1      39.697   4.368  11.675  1.00  0.00     0.012 C 
ENDBRANCH  47  49
ENDBRANCH  46  47
ENDBRANCH  45  46
ENDBRANCH  44  45
ENDBRANCH  43  44
ENDBRANCH   1  43
TORSDOF 12
ENDMDL
