MODEL 1
REMARK VINA RESULT:    -4.400      0.000      0.000
REMARK INTER + INTRA:          -5.628
REMARK INTER:                  -6.201
REMARK INTRA:                   0.572
REMARK UNBOUND:                 0.572
REMARK SMILES CC1=CCC(=C(C)C)C(=O)CC(C)=CCC1
REMARK SMILES IDX 12 1 14 2 13 3 15 4 16 5 2 6 1 7 3 8 11 10 9 11 10 12 5 13
REMARK SMILES IDX 6 14 7 15 8 16 4 17
REMARK H PARENT
REMARK Flexibility Score: 60.00
ROOT
ATOM      1  C   UNL     1     -13.934 -14.514  28.536  1.00  0.00    -0.070 C 
ATOM      2  C   UNL     1     -14.361 -14.963  27.336  1.00  0.00    -0.027 C 
ATOM      3  C   UNL     1     -14.786 -13.495  29.251  1.00  0.00     0.039 C 
ENDROOT
BRANCH   2   4
ATOM      4  C   UNL     1     -13.604 -15.907  26.426  1.00  0.00     0.032 C 
BRANCH   4   5
ATOM      5  C   UNL     1     -13.463 -17.347  26.958  1.00  0.00     0.034 C 
BRANCH   5   6
ATOM      6  C   UNL     1     -12.020 -17.769  27.169  1.00  0.00    -0.077 C 
ATOM      7  C   UNL     1     -11.107 -17.763  25.969  1.00  0.00     0.039 C 
ATOM      8  C   UNL     1     -11.519 -18.216  28.346  1.00  0.00    -0.023 CG0
ATOM      9  G   UNL     1     -12.240 -18.291  29.678  1.00  0.00     0.000 G0
ENDBRANCH   5   6
ENDBRANCH   4   5
ENDBRANCH   2   4
BRANCH   1  10
ATOM     10  C   UNL     1     -12.607 -14.911  29.149  1.00  0.00     0.111 C 
BRANCH  10  11
ATOM     11  C   UNL     1     -12.791 -15.844  30.317  1.00  0.00     0.163 C 
ATOM     12  O   UNL     1     -13.674 -15.559  31.170  1.00  0.00    -0.294 OA
BRANCH  11  13
ATOM     13  C   UNL     1     -11.929 -17.044  30.527  1.00  0.00    -0.002 C 
ATOM     14  C   UNL     1     -10.868 -17.001  31.388  1.00  0.00    -0.069 C 
ATOM     15  C   UNL     1     -10.624 -15.797  32.272  1.00  0.00     0.039 C 
ATOM     16  C   UNL     1      -9.885 -18.144  31.505  1.00  0.00     0.039 C 
BRANCH  13  17
ATOM     17  C   UNL     1     -12.225 -18.270  29.678  1.00  0.00     0.066 CG0
ATOM     18  G   UNL     1     -11.534 -18.217  28.329  1.00  0.00     0.000 G0
ENDBRANCH  13  17
ENDBRANCH  11  13
ENDBRANCH  10  11
ENDBRANCH   1  10
TORSDOF 0
ENDMDL
MODEL 2
REMARK VINA RESULT:    -4.344      1.846      4.108
REMARK INTER + INTRA:          -5.549
REMARK INTER:                  -6.567
REMARK INTRA:                   1.017
REMARK UNBOUND:                 0.572
REMARK SMILES CC1=CCC(=C(C)C)C(=O)CC(C)=CCC1
REMARK SMILES IDX 12 1 14 2 13 3 15 4 16 5 2 6 1 7 3 8 11 10 9 11 10 12 5 13
REMARK SMILES IDX 6 14 7 15 8 16 4 17
REMARK H PARENT
REMARK Flexibility Score: 60.00
ROOT
ATOM      1  C   UNL     1     -10.989 -17.039  27.962  1.00  0.00    -0.070 C 
ATOM      2  C   UNL     1     -10.515 -18.126  28.610  1.00  0.00    -0.027 C 
ATOM      3  C   UNL     1     -11.207 -17.145  26.473  1.00  0.00     0.039 C 
ENDROOT
BRANCH   2   4
ATOM      4  C   UNL     1     -10.141 -18.187  30.076  1.00  0.00     0.032 C 
BRANCH   4   5
ATOM      5  C   UNL     1     -10.968 -19.182  30.914  1.00  0.00     0.034 C 
BRANCH   5   6
ATOM      6  C   UNL     1     -12.450 -19.152  30.587  1.00  0.00    -0.077 C 
ATOM      7  C   UNL     1     -13.083 -20.425  30.083  1.00  0.00     0.039 C 
ATOM      8  C   UNL     1     -13.225 -18.041  30.651  1.00  0.00    -0.023 CG0
ATOM      9  G   UNL     1     -12.814 -16.666  31.141  1.00  0.00     0.000 G0
ENDBRANCH   5   6
ENDBRANCH   4   5
ENDBRANCH   2   4
BRANCH   1  10
ATOM     10  C   UNL     1     -11.222 -15.704  28.637  1.00  0.00     0.111 C 
BRANCH  10  11
ATOM     11  C   UNL     1     -12.688 -15.442  28.862  1.00  0.00     0.163 C 
ATOM     12  O   UNL     1     -13.380 -15.061  27.880  1.00  0.00    -0.294 OA
BRANCH  11  13
ATOM     13  C   UNL     1     -13.326 -15.558  30.207  1.00  0.00    -0.002 C 
ATOM     14  C   UNL     1     -14.264 -14.652  30.616  1.00  0.00    -0.069 C 
ATOM     15  C   UNL     1     -14.803 -13.600  29.670  1.00  0.00     0.039 C 
ATOM     16  C   UNL     1     -14.812 -14.647  32.025  1.00  0.00     0.039 C 
BRANCH  13  17
ATOM     17  C   UNL     1     -12.820 -16.659  31.125  1.00  0.00     0.066 CG0
ATOM     18  G   UNL     1     -13.215 -18.040  30.640  1.00  0.00     0.000 G0
ENDBRANCH  13  17
ENDBRANCH  11  13
ENDBRANCH  10  11
ENDBRANCH   1  10
TORSDOF 0
ENDMDL
MODEL 3
REMARK VINA RESULT:    -4.161      1.975      3.861
REMARK INTER + INTRA:          -5.292
REMARK INTER:                  -6.537
REMARK INTRA:                   1.246
REMARK UNBOUND:                 0.572
REMARK SMILES CC1=CCC(=C(C)C)C(=O)CC(C)=CCC1
REMARK SMILES IDX 12 1 14 2 13 3 15 4 16 5 2 6 1 7 3 8 11 10 9 11 10 12 5 13
REMARK SMILES IDX 6 14 7 15 8 16 4 17
REMARK H PARENT
REMARK Flexibility Score: 60.00
ROOT
ATOM      1  C   UNL     1     -13.176 -16.315  27.671  1.00  0.00    -0.070 C 
ATOM      2  C   UNL     1     -12.780 -15.292  28.460  1.00  0.00    -0.027 C 
ATOM      3  C   UNL     1     -13.744 -15.981  26.315  1.00  0.00     0.039 C 
ENDROOT
BRANCH   2   4
ATOM      4  C   UNL     1     -12.279 -15.416  29.883  1.00  0.00     0.032 C 
BRANCH   4   5
ATOM      5  C   UNL     1     -10.751 -15.579  30.019  1.00  0.00     0.034 C 
BRANCH   5   6
ATOM      6  C   UNL     1     -10.338 -16.307  31.286  1.00  0.00    -0.077 C 
ATOM      7  C   UNL     1     -10.249 -15.502  32.558  1.00  0.00     0.039 C 
ATOM      8  C   UNL     1      -9.976 -17.612  31.334  1.00  0.00    -0.023 CG0
ATOM      9  G   UNL     1     -10.004 -18.612  30.194  1.00  0.00     0.000 G0
ENDBRANCH   5   6
ENDBRANCH   4   5
ENDBRANCH   2   4
BRANCH   1  10
ATOM     10  C   UNL     1     -13.163 -17.763  28.118  1.00  0.00     0.111 C 
BRANCH  10  11
ATOM     11  C   UNL     1     -11.762 -18.252  28.376  1.00  0.00     0.163 C 
ATOM     12  O   UNL     1     -10.914 -18.137  27.452  1.00  0.00    -0.294 OA
BRANCH  11  13
ATOM     13  C   UNL     1     -11.370 -18.919  29.653  1.00  0.00    -0.002 C 
ATOM     14  C   UNL     1     -12.265 -19.685  30.346  1.00  0.00    -0.069 C 
ATOM     15  C   UNL     1     -13.626 -20.013  29.771  1.00  0.00     0.039 C 
ATOM     16  C   UNL     1     -11.951 -20.242  31.716  1.00  0.00     0.039 C 
BRANCH  13  17
ATOM     17  C   UNL     1      -9.976 -18.631  30.188  1.00  0.00     0.066 CG0
ATOM     18  G   UNL     1      -9.991 -17.630  31.327  1.00  0.00     0.000 G0
ENDBRANCH  13  17
ENDBRANCH  11  13
ENDBRANCH  10  11
ENDBRANCH   1  10
TORSDOF 0
ENDMDL
MODEL 4
REMARK VINA RESULT:    -4.135      1.733      3.842
REMARK INTER + INTRA:          -5.254
REMARK INTER:                  -6.325
REMARK INTRA:                   1.071
REMARK UNBOUND:                 0.572
REMARK SMILES CC1=CCC(=C(C)C)C(=O)CC(C)=CCC1
REMARK SMILES IDX 12 1 14 2 13 3 15 4 16 5 2 6 1 7 3 8 11 10 9 11 10 12 5 13
REMARK SMILES IDX 6 14 7 15 8 16 4 17
REMARK H PARENT
REMARK Flexibility Score: 60.00
ROOT
ATOM      1  C   UNL     1     -12.760 -16.993  31.194  1.00  0.00    -0.070 C 
ATOM      2  C   UNL     1     -13.352 -18.194  31.377  1.00  0.00    -0.027 C 
ATOM      3  C   UNL     1     -13.626 -15.761  31.274  1.00  0.00     0.039 C 
ENDROOT
BRANCH   2   4
ATOM      4  C   UNL     1     -12.676 -19.542  31.241  1.00  0.00     0.032 C 
BRANCH   4   5
ATOM      5  C   UNL     1     -11.921 -19.756  29.914  1.00  0.00     0.034 C 
BRANCH   5   6
ATOM      6  C   UNL     1     -12.813 -19.636  28.691  1.00  0.00    -0.077 C 
ATOM      7  C   UNL     1     -13.973 -20.592  28.574  1.00  0.00     0.039 C 
ATOM      8  C   UNL     1     -12.595 -18.775  27.668  1.00  0.00    -0.023 CG0
ATOM      9  G   UNL     1     -11.511 -17.718  27.576  1.00  0.00     0.000 G0
ENDBRANCH   5   6
ENDBRANCH   4   5
ENDBRANCH   2   4
BRANCH   1  10
ATOM     10  C   UNL     1     -11.300 -16.834  30.824  1.00  0.00     0.111 C 
BRANCH  10  11
ATOM     11  C   UNL     1     -11.134 -16.081  29.530  1.00  0.00     0.163 C 
ATOM     12  O   UNL     1     -10.354 -15.091  29.515  1.00  0.00    -0.294 OA
BRANCH  11  13
ATOM     13  C   UNL     1     -11.903 -16.427  28.298  1.00  0.00    -0.002 C 
ATOM     14  C   UNL     1     -12.964 -15.663  27.898  1.00  0.00    -0.069 C 
ATOM     15  C   UNL     1     -13.299 -14.361  28.594  1.00  0.00     0.039 C 
ATOM     16  C   UNL     1     -13.858 -16.073  26.750  1.00  0.00     0.039 C 
BRANCH  13  17
ATOM     17  C   UNL     1     -11.515 -17.705  27.571  1.00  0.00     0.066 CG0
ATOM     18  G   UNL     1     -12.591 -18.769  27.663  1.00  0.00     0.000 G0
ENDBRANCH  13  17
ENDBRANCH  11  13
ENDBRANCH  10  11
ENDBRANCH   1  10
TORSDOF 0
ENDMDL
MODEL 5
REMARK VINA RESULT:    -3.871      1.852      3.034
REMARK INTER + INTRA:          -4.882
REMARK INTER:                  -5.716
REMARK INTRA:                   0.834
REMARK UNBOUND:                 0.572
REMARK SMILES CC1=CCC(=C(C)C)C(=O)CC(C)=CCC1
REMARK SMILES IDX 12 1 14 2 13 3 15 4 16 5 2 6 1 7 3 8 11 10 9 11 10 12 5 13
REMARK SMILES IDX 6 14 7 15 8 16 4 17
REMARK H PARENT
REMARK Flexibility Score: 60.00
ROOT
ATOM      1  C   UNL     1     -11.298 -15.618  30.020  1.00  0.00    -0.070 C 
ATOM      2  C   UNL     1     -11.758 -15.094  28.862  1.00  0.00    -0.027 C 
ATOM      3  C   UNL     1      -9.880 -15.300  30.424  1.00  0.00     0.039 C 
ENDROOT
BRANCH   2   4
ATOM      4  C   UNL     1     -13.110 -15.374  28.241  1.00  0.00     0.032 C 
BRANCH   4   5
ATOM      5  C   UNL     1     -13.059 -15.968  26.819  1.00  0.00     0.034 C 
BRANCH   5   6
ATOM      6  C   UNL     1     -12.193 -17.211  26.721  1.00  0.00    -0.077 C 
ATOM      7  C   UNL     1     -11.144 -17.251  25.638  1.00  0.00     0.039 C 
ATOM      8  C   UNL     1     -12.349 -18.313  27.494  1.00  0.00    -0.023 CG0
ATOM      9  G   UNL     1     -13.317 -18.493  28.647  1.00  0.00     0.000 G0
ENDBRANCH   5   6
ENDBRANCH   4   5
ENDBRANCH   2   4
BRANCH   1  10
ATOM     10  C   UNL     1     -12.101 -16.576  30.876  1.00  0.00     0.111 C 
BRANCH  10  11
ATOM     11  C   UNL     1     -11.726 -18.010  30.606  1.00  0.00     0.163 C 
ATOM     12  O   UNL     1     -10.571 -18.393  30.931  1.00  0.00    -0.294 OA
BRANCH  11  13
ATOM     13  C   UNL     1     -12.647 -18.962  29.916  1.00  0.00    -0.002 C 
ATOM     14  C   UNL     1     -12.802 -20.240  30.374  1.00  0.00    -0.069 C 
ATOM     15  C   UNL     1     -12.175 -20.688  31.677  1.00  0.00     0.039 C 
ATOM     16  C   UNL     1     -13.601 -21.273  29.612  1.00  0.00     0.039 C 
BRANCH  13  17
ATOM     17  C   UNL     1     -13.320 -18.478  28.641  1.00  0.00     0.066 CG0
ATOM     18  G   UNL     1     -12.339 -18.317  27.497  1.00  0.00     0.000 G0
ENDBRANCH  13  17
ENDBRANCH  11  13
ENDBRANCH  10  11
ENDBRANCH   1  10
TORSDOF 0
ENDMDL
MODEL 6
REMARK VINA RESULT:    -3.671      1.917      3.680
REMARK INTER + INTRA:          -4.600
REMARK INTER:                  -5.764
REMARK INTRA:                   1.164
REMARK UNBOUND:                 0.572
REMARK SMILES CC1=CCC(=C(C)C)C(=O)CC(C)=CCC1
REMARK SMILES IDX 12 1 14 2 13 3 15 4 16 5 2 6 1 7 3 8 11 10 9 11 10 12 5 13
REMARK SMILES IDX 6 14 7 15 8 16 4 17
REMARK H PARENT
REMARK Flexibility Score: 60.00
ROOT
ATOM      1  C   UNL     1     -12.302 -19.715  30.195  1.00  0.00    -0.070 C 
ATOM      2  C   UNL     1     -13.234 -19.741  29.217  1.00  0.00    -0.027 C 
ATOM      3  C   UNL     1     -12.637 -20.379  31.507  1.00  0.00     0.039 C 
ENDROOT
BRANCH   2   4
ATOM      4  C   UNL     1     -13.125 -19.052  27.874  1.00  0.00     0.032 C 
BRANCH   4   5
ATOM      5  C   UNL     1     -12.913 -17.526  27.944  1.00  0.00     0.034 C 
BRANCH   5   6
ATOM      6  C   UNL     1     -11.591 -17.077  27.349  1.00  0.00    -0.077 C 
ATOM      7  C   UNL     1     -11.222 -17.604  25.985  1.00  0.00     0.039 C 
ATOM      8  C   UNL     1     -10.692 -16.291  27.990  1.00  0.00    -0.023 CG0
ATOM      9  G   UNL     1     -10.853 -15.636  29.348  1.00  0.00     0.000 G0
ENDBRANCH   5   6
ENDBRANCH   4   5
ENDBRANCH   2   4
BRANCH   1  10
ATOM     10  C   UNL     1     -10.985 -18.976  30.069  1.00  0.00     0.111 C 
BRANCH  10  11
ATOM     11  C   UNL     1     -10.990 -17.694  30.860  1.00  0.00     0.163 C 
ATOM     12  O   UNL     1     -10.491 -17.708  32.016  1.00  0.00    -0.294 OA
BRANCH  11  13
ATOM     13  C   UNL     1     -11.617 -16.439  30.346  1.00  0.00    -0.002 C 
ATOM     14  C   UNL     1     -12.891 -16.098  30.704  1.00  0.00    -0.069 C 
ATOM     15  C   UNL     1     -13.651 -16.887  31.748  1.00  0.00     0.039 C 
ATOM     16  C   UNL     1     -13.609 -14.922  30.081  1.00  0.00     0.039 C 
BRANCH  13  17
ATOM     17  C   UNL     1     -10.817 -15.621  29.345  1.00  0.00     0.066 CG0
ATOM     18  G   UNL     1     -10.715 -16.302  27.995  1.00  0.00     0.000 G0
ENDBRANCH  13  17
ENDBRANCH  11  13
ENDBRANCH  10  11
ENDBRANCH   1  10
TORSDOF 0
ENDMDL
MODEL 7
REMARK VINA RESULT:    -3.401      1.737      3.990
REMARK INTER + INTRA:          -4.220
REMARK INTER:                  -5.359
REMARK INTRA:                   1.139
REMARK UNBOUND:                 0.572
REMARK SMILES CC1=CCC(=C(C)C)C(=O)CC(C)=CCC1
REMARK SMILES IDX 12 1 14 2 13 3 15 4 16 5 2 6 1 7 3 8 11 10 9 11 10 12 5 13
REMARK SMILES IDX 6 14 7 15 8 16 4 17
REMARK H PARENT
REMARK Flexibility Score: 60.00
ROOT
ATOM      1  C   UNL     1     -10.380 -17.420  30.833  1.00  0.00    -0.070 C 
ATOM      2  C   UNL     1     -10.043 -17.438  29.525  1.00  0.00    -0.027 C 
ATOM      3  C   UNL     1      -9.908 -18.560  31.700  1.00  0.00     0.039 C 
ENDROOT
BRANCH   2   4
ATOM      4  C   UNL     1     -10.499 -16.442  28.481  1.00  0.00     0.032 C 
BRANCH   4   5
ATOM      5  C   UNL     1     -11.100 -17.069  27.207  1.00  0.00     0.034 C 
BRANCH   5   6
ATOM      6  C   UNL     1     -12.598 -16.857  27.085  1.00  0.00    -0.077 C 
ATOM      7  C   UNL     1     -13.352 -17.725  26.109  1.00  0.00     0.039 C 
ATOM      8  C   UNL     1     -13.289 -15.894  27.743  1.00  0.00    -0.023 CG0
ATOM      9  G   UNL     1     -12.750 -14.926  28.778  1.00  0.00     0.000 G0
ENDBRANCH   5   6
ENDBRANCH   4   5
ENDBRANCH   2   4
BRANCH   1  10
ATOM     10  C   UNL     1     -11.280 -16.366  31.445  1.00  0.00     0.111 C 
BRANCH  10  11
ATOM     11  C   UNL     1     -12.673 -16.426  30.875  1.00  0.00     0.163 C 
ATOM     12  O   UNL     1     -13.296 -17.519  30.945  1.00  0.00    -0.294 OA
BRANCH  11  13
ATOM     13  C   UNL     1     -13.306 -15.265  30.183  1.00  0.00    -0.002 C 
ATOM     14  C   UNL     1     -14.356 -14.599  30.752  1.00  0.00    -0.069 C 
ATOM     15  C   UNL     1     -14.810 -14.909  32.162  1.00  0.00     0.039 C 
ATOM     16  C   UNL     1     -15.119 -13.524  30.011  1.00  0.00     0.039 C 
BRANCH  13  17
ATOM     17  C   UNL     1     -12.798 -14.923  28.791  1.00  0.00     0.066 CG0
ATOM     18  G   UNL     1     -13.291 -15.899  27.741  1.00  0.00     0.000 G0
ENDBRANCH  13  17
ENDBRANCH  11  13
ENDBRANCH  10  11
ENDBRANCH   1  10
TORSDOF 0
ENDMDL
MODEL 8
REMARK VINA RESULT:    -3.178      1.650      2.845
REMARK INTER + INTRA:          -3.906
REMARK INTER:                  -4.499
REMARK INTRA:                   0.592
REMARK UNBOUND:                 0.572
REMARK SMILES CC1=CCC(=C(C)C)C(=O)CC(C)=CCC1
REMARK SMILES IDX 12 1 14 2 13 3 15 4 16 5 2 6 1 7 3 8 11 10 9 11 10 12 5 13
REMARK SMILES IDX 6 14 7 15 8 16 4 17
REMARK H PARENT
REMARK Flexibility Score: 60.00
ROOT
ATOM      1  C   UNL     1     -14.233 -14.915  31.741  1.00  0.00    -0.070 C 
ATOM      2  C   UNL     1     -14.499 -14.082  30.712  1.00  0.00    -0.027 C 
ATOM      3  C   UNL     1     -14.103 -14.315  33.119  1.00  0.00     0.039 C 
ENDROOT
BRANCH   2   4
ATOM      4  C   UNL     1     -14.570 -14.477  29.252  1.00  0.00     0.032 C 
BRANCH   4   5
ATOM      5  C   UNL     1     -13.202 -14.658  28.563  1.00  0.00     0.034 C 
BRANCH   5   6
ATOM      6  C   UNL     1     -13.181 -15.805  27.569  1.00  0.00    -0.077 C 
ATOM      7  C   UNL     1     -14.074 -15.700  26.358  1.00  0.00     0.039 C 
ATOM      8  C   UNL     1     -12.466 -16.945  27.733  1.00  0.00    -0.023 CG0
ATOM      9  G   UNL     1     -11.495 -17.262  28.853  1.00  0.00     0.000 G0
ENDBRANCH   5   6
ENDBRANCH   4   5
ENDBRANCH   2   4
BRANCH   1  10
ATOM     10  C   UNL     1     -13.969 -16.397  31.566  1.00  0.00     0.111 C 
BRANCH  10  11
ATOM     11  C   UNL     1     -12.554 -16.660  31.119  1.00  0.00     0.163 C 
ATOM     12  O   UNL     1     -11.642 -15.919  31.572  1.00  0.00    -0.294 OA
BRANCH  11  13
ATOM     13  C   UNL     1     -12.213 -17.717  30.121  1.00  0.00    -0.002 C 
ATOM     14  C   UNL     1     -12.464 -19.034  30.385  1.00  0.00    -0.069 C 
ATOM     15  C   UNL     1     -13.234 -19.455  31.618  1.00  0.00     0.039 C 
ATOM     16  C   UNL     1     -11.990 -20.139  29.468  1.00  0.00     0.039 C 
BRANCH  13  17
ATOM     17  C   UNL     1     -11.496 -17.274  28.856  1.00  0.00     0.066 CG0
ATOM     18  G   UNL     1     -12.459 -16.949  27.731  1.00  0.00     0.000 G0
ENDBRANCH  13  17
ENDBRANCH  11  13
ENDBRANCH  10  11
ENDBRANCH   1  10
TORSDOF 0
ENDMDL
MODEL 9
REMARK VINA RESULT:    -2.719      2.066      3.845
REMARK INTER + INTRA:          -3.260
REMARK INTER:                  -4.502
REMARK INTRA:                   1.242
REMARK UNBOUND:                 0.572
REMARK SMILES CC1=CCC(=C(C)C)C(=O)CC(C)=CCC1
REMARK SMILES IDX 12 1 14 2 13 3 15 4 16 5 2 6 1 7 3 8 11 10 9 11 10 12 5 13
REMARK SMILES IDX 6 14 7 15 8 16 4 17
REMARK H PARENT
REMARK Flexibility Score: 60.00
ROOT
ATOM      1  C   UNL     1     -12.863 -15.344  28.130  1.00  0.00    -0.070 C 
ATOM      2  C   UNL     1     -14.003 -14.683  28.427  1.00  0.00    -0.027 C 
ATOM      3  C   UNL     1     -12.847 -16.198  26.887  1.00  0.00     0.039 C 
ENDROOT
BRANCH   2   4
ATOM      4  C   UNL     1     -14.246 -13.858  29.673  1.00  0.00     0.032 C 
BRANCH   4   5
ATOM      5  C   UNL     1     -15.074 -14.565  30.766  1.00  0.00     0.034 C 
BRANCH   5   6
ATOM      6  C   UNL     1     -14.226 -15.109  31.901  1.00  0.00    -0.077 C 
ATOM      7  C   UNL     1     -14.157 -14.302  33.173  1.00  0.00     0.039 C 
ATOM      8  C   UNL     1     -13.472 -16.233  31.821  1.00  0.00    -0.023 CG0
ATOM      9  G   UNL     1     -13.399 -17.204  30.660  1.00  0.00     0.000 G0
ENDBRANCH   5   6
ENDBRANCH   4   5
ENDBRANCH   2   4
BRANCH   1  10
ATOM     10  C   UNL     1     -11.642 -15.341  29.026  1.00  0.00     0.111 C 
BRANCH  10  11
ATOM     11  C   UNL     1     -11.203 -16.741  29.371  1.00  0.00     0.163 C 
ATOM     12  O   UNL     1     -10.193 -17.208  28.780  1.00  0.00    -0.294 OA
BRANCH  11  13
ATOM     13  C   UNL     1     -11.955 -17.602  30.331  1.00  0.00    -0.002 C 
ATOM     14  C   UNL     1     -11.395 -18.745  30.830  1.00  0.00    -0.069 C 
ATOM     15  C   UNL     1      -9.949 -19.096  30.555  1.00  0.00     0.039 C 
ATOM     16  C   UNL     1     -12.184 -19.719  31.676  1.00  0.00     0.039 C 
BRANCH  13  17
ATOM     17  C   UNL     1     -13.387 -17.204  30.648  1.00  0.00     0.066 CG0
ATOM     18  G   UNL     1     -13.474 -16.255  31.827  1.00  0.00     0.000 G0
ENDBRANCH  13  17
ENDBRANCH  11  13
ENDBRANCH  10  11
ENDBRANCH   1  10
TORSDOF 0
ENDMDL
