MODEL 1
REMARK VINA RESULT:    -3.382      0.000      0.000
REMARK INTER + INTRA:          -4.512
REMARK INTER:                  -4.767
REMARK INTRA:                   0.255
REMARK UNBOUND:                 0.255
REMARK SMILES CC1=CCC(=C(C)C)C(=O)CC(C)=CCC1
REMARK SMILES IDX 12 1 14 2 13 3 15 4 16 5 2 6 1 7 3 8 11 10 9 11 10 12 5 13
REMARK SMILES IDX 6 14 7 15 8 16 4 17
REMARK H PARENT
REMARK Flexibility Score: 60.00
ROOT
ATOM      1  C   UNL     1     152.891 161.106 201.045  1.00  0.00    -0.070 C 
ATOM      2  C   UNL     1     153.989 160.383 201.390  1.00  0.00    -0.027 C 
ATOM      3  C   UNL     1     152.198 161.875 202.144  1.00  0.00     0.039 C 
ENDROOT
BRANCH   2   4
ATOM      4  C   UNL     1     154.890 159.627 200.445  1.00  0.00     0.032 C 
BRANCH   4   5
ATOM      5  C   UNL     1     154.524 158.141 200.315  1.00  0.00     0.034 C 
BRANCH   5   6
ATOM      6  C   UNL     1     154.357 157.768 198.856  1.00  0.00    -0.077 C 
ATOM      7  C   UNL     1     155.596 157.591 198.017  1.00  0.00     0.039 C 
ATOM      8  C   UNL     1     153.151 157.660 198.246  1.00  0.00    -0.023 CG0
ATOM      9  G   UNL     1     151.808 157.787 198.923  1.00  0.00     0.000 G0
ENDBRANCH   5   6
ENDBRANCH   4   5
ENDBRANCH   2   4
BRANCH   1  10
ATOM     10  C   UNL     1     152.274 161.125 199.651  1.00  0.00     0.111 C 
BRANCH  10  11
ATOM     11  C   UNL     1     151.079 160.216 199.496  1.00  0.00     0.163 C 
ATOM     12  O   UNL     1     150.091 160.416 200.254  1.00  0.00    -0.294 OA
BRANCH  11  13
ATOM     13  C   UNL     1     151.054 159.066 198.532  1.00  0.00    -0.002 C 
ATOM     14  C   UNL     1     150.435 159.186 197.316  1.00  0.00    -0.069 C 
ATOM     15  C   UNL     1     150.479 158.077 196.289  1.00  0.00     0.039 C 
ATOM     16  C   UNL     1     149.629 160.414 196.950  1.00  0.00     0.039 C 
BRANCH  13  17
ATOM     17  C   UNL     1     151.781 157.776 198.909  1.00  0.00     0.066 CG0
ATOM     18  G   UNL     1     153.128 157.664 198.237  1.00  0.00     0.000 G0
ENDBRANCH  13  17
ENDBRANCH  11  13
ENDBRANCH  10  11
ENDBRANCH   1  10
TORSDOF 0
ENDMDL
MODEL 2
REMARK VINA RESULT:    -3.324      1.826      2.304
REMARK INTER + INTRA:          -4.429
REMARK INTER:                  -4.676
REMARK INTRA:                   0.247
REMARK UNBOUND:                 0.255
REMARK SMILES CC1=CCC(=C(C)C)C(=O)CC(C)=CCC1
REMARK SMILES IDX 12 1 14 2 13 3 15 4 16 5 2 6 1 7 3 8 11 10 9 11 10 12 5 13
REMARK SMILES IDX 6 14 7 15 8 16 4 17
REMARK H PARENT
REMARK Flexibility Score: 60.00
ROOT
ATOM      1  C   UNL     1     151.643 160.354 202.012  1.00  0.00    -0.070 C 
ATOM      2  C   UNL     1     151.968 159.326 202.840  1.00  0.00    -0.027 C 
ATOM      3  C   UNL     1     152.099 161.735 202.417  1.00  0.00     0.039 C 
ENDROOT
BRANCH   2   4
ATOM      4  C   UNL     1     151.707 157.861 202.584  1.00  0.00     0.032 C 
BRANCH   4   5
ATOM      5  C   UNL     1     152.818 157.178 201.773  1.00  0.00     0.034 C 
BRANCH   5   6
ATOM      6  C   UNL     1     152.217 156.347 200.658  1.00  0.00    -0.077 C 
ATOM      7  C   UNL     1     151.634 155.001 201.003  1.00  0.00     0.039 C 
ATOM      8  C   UNL     1     152.246 156.715 199.354  1.00  0.00    -0.023 CG0
ATOM      9  G   UNL     1     152.774 158.026 198.821  1.00  0.00     0.000 G0
ENDBRANCH   5   6
ENDBRANCH   4   5
ENDBRANCH   2   4
BRANCH   1  10
ATOM     10  C   UNL     1     150.790 160.214 200.756  1.00  0.00     0.111 C 
BRANCH  10  11
ATOM     11  C   UNL     1     151.581 160.234 199.472  1.00  0.00     0.163 C 
ATOM     12  O   UNL     1     152.133 161.319 199.142  1.00  0.00    -0.294 OA
BRANCH  11  13
ATOM     13  C   UNL     1     151.681 159.045 198.561  1.00  0.00    -0.002 C 
ATOM     14  C   UNL     1     150.832 158.906 197.496  1.00  0.00    -0.069 C 
ATOM     15  C   UNL     1     150.975 157.769 196.509  1.00  0.00     0.039 C 
ATOM     16  C   UNL     1     149.673 159.852 197.273  1.00  0.00     0.039 C 
BRANCH  13  17
ATOM     17  C   UNL     1     152.785 158.019 198.813  1.00  0.00     0.066 CG0
ATOM     18  G   UNL     1     152.242 156.716 199.348  1.00  0.00     0.000 G0
ENDBRANCH  13  17
ENDBRANCH  11  13
ENDBRANCH  10  11
ENDBRANCH   1  10
TORSDOF 0
ENDMDL
MODEL 3
REMARK VINA RESULT:    -3.283      2.755      4.026
REMARK INTER + INTRA:          -4.372
REMARK INTER:                  -4.664
REMARK INTRA:                   0.292
REMARK UNBOUND:                 0.255
REMARK SMILES CC1=CCC(=C(C)C)C(=O)CC(C)=CCC1
REMARK SMILES IDX 12 1 14 2 13 3 15 4 16 5 2 6 1 7 3 8 11 10 9 11 10 12 5 13
REMARK SMILES IDX 6 14 7 15 8 16 4 17
REMARK H PARENT
REMARK Flexibility Score: 60.00
ROOT
ATOM      1  C   UNL     1     156.218 159.930 200.711  1.00  0.00    -0.070 C 
ATOM      2  C   UNL     1     156.591 158.690 201.125  1.00  0.00    -0.027 C 
ATOM      3  C   UNL     1     157.137 160.639 199.746  1.00  0.00     0.039 C 
ENDROOT
BRANCH   2   4
ATOM      4  C   UNL     1     155.782 157.764 202.001  1.00  0.00     0.032 C 
BRANCH   4   5
ATOM      5  C   UNL     1     154.652 157.048 201.248  1.00  0.00     0.034 C 
BRANCH   5   6
ATOM      6  C   UNL     1     153.425 156.933 202.130  1.00  0.00    -0.077 C 
ATOM      7  C   UNL     1     153.485 156.012 203.321  1.00  0.00     0.039 C 
ATOM      8  C   UNL     1     152.251 157.554 201.860  1.00  0.00    -0.023 CG0
ATOM      9  G   UNL     1     152.006 158.520 200.726  1.00  0.00     0.000 G0
ENDBRANCH   5   6
ENDBRANCH   4   5
ENDBRANCH   2   4
BRANCH   1  10
ATOM     10  C   UNL     1     154.986 160.674 201.216  1.00  0.00     0.111 C 
BRANCH  10  11
ATOM     11  C   UNL     1     153.737 160.407 200.412  1.00  0.00     0.163 C 
ATOM     12  O   UNL     1     153.778 160.642 199.173  1.00  0.00    -0.294 OA
BRANCH  11  13
ATOM     13  C   UNL     1     152.456 159.938 201.036  1.00  0.00    -0.002 C 
ATOM     14  C   UNL     1     151.715 160.775 201.828  1.00  0.00    -0.069 C 
ATOM     15  C   UNL     1     150.373 160.359 202.388  1.00  0.00     0.039 C 
ATOM     16  C   UNL     1     152.219 162.144 202.229  1.00  0.00     0.039 C 
BRANCH  13  17
ATOM     17  C   UNL     1     151.962 158.525 200.725  1.00  0.00     0.066 CG0
ATOM     18  G   UNL     1     152.260 157.558 201.846  1.00  0.00     0.000 G0
ENDBRANCH  13  17
ENDBRANCH  11  13
ENDBRANCH  10  11
ENDBRANCH   1  10
TORSDOF 0
ENDMDL
MODEL 4
REMARK VINA RESULT:    -3.147      2.327      4.889
REMARK INTER + INTRA:          -4.179
REMARK INTER:                  -4.325
REMARK INTRA:                   0.145
REMARK UNBOUND:                 0.255
REMARK SMILES CC1=CCC(=C(C)C)C(=O)CC(C)=CCC1
REMARK SMILES IDX 12 1 14 2 13 3 15 4 16 5 2 6 1 7 3 8 11 10 9 11 10 12 5 13
REMARK SMILES IDX 6 14 7 15 8 16 4 17
REMARK H PARENT
REMARK Flexibility Score: 60.00
ROOT
ATOM      1  C   UNL     1     151.115 160.177 197.536  1.00  0.00    -0.070 C 
ATOM      2  C   UNL     1     150.277 160.027 198.595  1.00  0.00    -0.027 C 
ATOM      3  C   UNL     1     150.650 159.636 196.206  1.00  0.00     0.039 C 
ENDROOT
BRANCH   2   4
ATOM      4  C   UNL     1     150.491 160.578 199.984  1.00  0.00     0.032 C 
BRANCH   4   5
ATOM      5  C   UNL     1     151.499 159.766 200.810  1.00  0.00     0.034 C 
BRANCH   5   6
ATOM      6  C   UNL     1     152.501 160.691 201.471  1.00  0.00    -0.077 C 
ATOM      7  C   UNL     1     151.981 161.781 202.373  1.00  0.00     0.039 C 
ATOM      8  C   UNL     1     153.834 160.640 201.234  1.00  0.00    -0.023 CG0
ATOM      9  G   UNL     1     154.537 159.615 200.375  1.00  0.00     0.000 G0
ENDBRANCH   5   6
ENDBRANCH   4   5
ENDBRANCH   2   4
BRANCH   1  10
ATOM     10  C   UNL     1     152.514 160.778 197.621  1.00  0.00     0.111 C 
BRANCH  10  11
ATOM     11  C   UNL     1     153.593 159.777 197.956  1.00  0.00     0.163 C 
ATOM     12  O   UNL     1     153.510 158.633 197.433  1.00  0.00    -0.294 OA
BRANCH  11  13
ATOM     13  C   UNL     1     154.704 160.074 198.920  1.00  0.00    -0.002 C 
ATOM     14  C   UNL     1     155.808 160.778 198.520  1.00  0.00    -0.069 C 
ATOM     15  C   UNL     1     156.896 161.173 199.495  1.00  0.00     0.039 C 
ATOM     16  C   UNL     1     156.030 161.157 197.072  1.00  0.00     0.039 C 
BRANCH  13  17
ATOM     17  C   UNL     1     154.554 159.624 200.373  1.00  0.00     0.066 CG0
ATOM     18  G   UNL     1     153.832 160.648 201.216  1.00  0.00     0.000 G0
ENDBRANCH  13  17
ENDBRANCH  11  13
ENDBRANCH  10  11
ENDBRANCH   1  10
TORSDOF 0
ENDMDL
MODEL 5
REMARK VINA RESULT:    -3.122      1.750      4.034
REMARK INTER + INTRA:          -4.145
REMARK INTER:                  -4.351
REMARK INTRA:                   0.206
REMARK UNBOUND:                 0.255
REMARK SMILES CC1=CCC(=C(C)C)C(=O)CC(C)=CCC1
REMARK SMILES IDX 12 1 14 2 13 3 15 4 16 5 2 6 1 7 3 8 11 10 9 11 10 12 5 13
REMARK SMILES IDX 6 14 7 15 8 16 4 17
REMARK H PARENT
REMARK Flexibility Score: 60.00
ROOT
ATOM      1  C   UNL     1     154.602 160.369 200.696  1.00  0.00    -0.070 C 
ATOM      2  C   UNL     1     153.529 160.865 201.365  1.00  0.00    -0.027 C 
ATOM      3  C   UNL     1     155.748 159.840 201.525  1.00  0.00     0.039 C 
ENDROOT
BRANCH   2   4
ATOM      4  C   UNL     1     152.239 161.348 200.746  1.00  0.00     0.032 C 
BRANCH   4   5
ATOM      5  C   UNL     1     151.097 160.327 200.848  1.00  0.00     0.034 C 
BRANCH   5   6
ATOM      6  C   UNL     1     150.821 159.713 199.491  1.00  0.00    -0.077 C 
ATOM      7  C   UNL     1     149.801 160.375 198.600  1.00  0.00     0.039 C 
ATOM      8  C   UNL     1     151.386 158.556 199.066  1.00  0.00    -0.023 CG0
ATOM      9  G   UNL     1     152.433 157.763 199.810  1.00  0.00     0.000 G0
ENDBRANCH   5   6
ENDBRANCH   4   5
ENDBRANCH   2   4
BRANCH   1  10
ATOM     10  C   UNL     1     154.756 160.385 199.179  1.00  0.00     0.111 C 
BRANCH  10  11
ATOM     11  C   UNL     1     154.158 159.183 198.489  1.00  0.00     0.163 C 
ATOM     12  O   UNL     1     153.887 159.288 197.262  1.00  0.00    -0.294 OA
BRANCH  11  13
ATOM     13  C   UNL     1     153.826 157.913 199.216  1.00  0.00    -0.002 C 
ATOM     14  C   UNL     1     154.774 156.942 199.398  1.00  0.00    -0.069 C 
ATOM     15  C   UNL     1     154.493 155.697 200.209  1.00  0.00     0.039 C 
ATOM     16  C   UNL     1     156.142 157.034 198.756  1.00  0.00     0.039 C 
BRANCH  13  17
ATOM     17  C   UNL     1     152.423 157.746 199.799  1.00  0.00     0.066 CG0
ATOM     18  G   UNL     1     151.399 158.581 199.069  1.00  0.00     0.000 G0
ENDBRANCH  13  17
ENDBRANCH  11  13
ENDBRANCH  10  11
ENDBRANCH   1  10
TORSDOF 0
ENDMDL
MODEL 6
REMARK VINA RESULT:    -3.073      2.095      3.984
REMARK INTER + INTRA:          -4.076
REMARK INTER:                  -4.235
REMARK INTRA:                   0.160
REMARK UNBOUND:                 0.255
REMARK SMILES CC1=CCC(=C(C)C)C(=O)CC(C)=CCC1
REMARK SMILES IDX 12 1 14 2 13 3 15 4 16 5 2 6 1 7 3 8 11 10 9 11 10 12 5 13
REMARK SMILES IDX 6 14 7 15 8 16 4 17
REMARK H PARENT
REMARK Flexibility Score: 60.00
ROOT
ATOM      1  C   UNL     1     152.336 160.678 201.209  1.00  0.00    -0.070 C 
ATOM      2  C   UNL     1     151.881 161.009 199.973  1.00  0.00    -0.027 C 
ATOM      3  C   UNL     1     151.945 161.583 202.353  1.00  0.00     0.039 C 
ENDROOT
BRANCH   2   4
ATOM      4  C   UNL     1     152.062 160.199 198.711  1.00  0.00     0.032 C 
BRANCH   4   5
ATOM      5  C   UNL     1     151.277 158.880 198.719  1.00  0.00     0.034 C 
BRANCH   5   6
ATOM      6  C   UNL     1     152.181 157.730 198.323  1.00  0.00    -0.077 C 
ATOM      7  C   UNL     1     152.831 157.766 196.964  1.00  0.00     0.039 C 
ATOM      8  C   UNL     1     152.375 156.633 199.095  1.00  0.00    -0.023 CG0
ATOM      9  G   UNL     1     151.821 156.425 200.485  1.00  0.00     0.000 G0
ENDBRANCH   5   6
ENDBRANCH   4   5
ENDBRANCH   2   4
BRANCH   1  10
ATOM     10  C   UNL     1     153.272 159.510 201.501  1.00  0.00     0.111 C 
BRANCH  10  11
ATOM     11  C   UNL     1     152.585 158.311 202.108  1.00  0.00     0.163 C 
ATOM     12  O   UNL     1     151.869 158.503 203.128  1.00  0.00    -0.294 OA
BRANCH  11  13
ATOM     13  C   UNL     1     152.772 156.917 201.584  1.00  0.00    -0.002 C 
ATOM     14  C   UNL     1     153.735 156.096 202.106  1.00  0.00    -0.069 C 
ATOM     15  C   UNL     1     153.878 154.657 201.663  1.00  0.00     0.039 C 
ATOM     16  C   UNL     1     154.742 156.594 203.119  1.00  0.00     0.039 C 
BRANCH  13  17
ATOM     17  C   UNL     1     151.828 156.412 200.493  1.00  0.00     0.066 CG0
ATOM     18  G   UNL     1     152.378 156.651 199.107  1.00  0.00     0.000 G0
ENDBRANCH  13  17
ENDBRANCH  11  13
ENDBRANCH  10  11
ENDBRANCH   1  10
TORSDOF 0
ENDMDL
MODEL 7
REMARK VINA RESULT:    -3.065      1.939      5.068
REMARK INTER + INTRA:          -4.064
REMARK INTER:                  -4.197
REMARK INTRA:                   0.133
REMARK UNBOUND:                 0.255
REMARK SMILES CC1=CCC(=C(C)C)C(=O)CC(C)=CCC1
REMARK SMILES IDX 12 1 14 2 13 3 15 4 16 5 2 6 1 7 3 8 11 10 9 11 10 12 5 13
REMARK SMILES IDX 6 14 7 15 8 16 4 17
REMARK H PARENT
REMARK Flexibility Score: 60.00
ROOT
ATOM      1  C   UNL     1     150.945 158.639 198.054  1.00  0.00    -0.070 C 
ATOM      2  C   UNL     1     150.235 159.703 198.513  1.00  0.00    -0.027 C 
ATOM      3  C   UNL     1     150.620 158.139 196.668  1.00  0.00     0.039 C 
ENDROOT
BRANCH   2   4
ATOM      4  C   UNL     1     150.460 160.428 199.818  1.00  0.00     0.032 C 
BRANCH   4   5
ATOM      5  C   UNL     1     151.751 161.259 199.835  1.00  0.00     0.034 C 
BRANCH   5   6
ATOM      6  C   UNL     1     152.521 161.004 201.115  1.00  0.00    -0.077 C 
ATOM      7  C   UNL     1     151.874 161.374 202.425  1.00  0.00     0.039 C 
ATOM      8  C   UNL     1     153.791 160.532 201.141  1.00  0.00    -0.023 CG0
ATOM      9  G   UNL     1     154.593 160.096 199.937  1.00  0.00     0.000 G0
ENDBRANCH   5   6
ENDBRANCH   4   5
ENDBRANCH   2   4
BRANCH   1  10
ATOM     10  C   UNL     1     151.983 157.878 198.872  1.00  0.00     0.111 C 
BRANCH  10  11
ATOM     11  C   UNL     1     153.410 158.249 198.550  1.00  0.00     0.163 C 
ATOM     12  O   UNL     1     153.768 158.197 197.342  1.00  0.00    -0.294 OA
BRANCH  11  13
ATOM     13  C   UNL     1     154.412 158.613 199.606  1.00  0.00    -0.002 C 
ATOM     14  C   UNL     1     155.169 157.648 200.215  1.00  0.00    -0.069 C 
ATOM     15  C   UNL     1     156.252 157.997 201.211  1.00  0.00     0.039 C 
ATOM     16  C   UNL     1     154.932 156.174 199.965  1.00  0.00     0.039 C 
BRANCH  13  17
ATOM     17  C   UNL     1     154.612 160.088 199.950  1.00  0.00     0.066 CG0
ATOM     18  G   UNL     1     153.771 160.518 201.129  1.00  0.00     0.000 G0
ENDBRANCH  13  17
ENDBRANCH  11  13
ENDBRANCH  10  11
ENDBRANCH   1  10
TORSDOF 0
ENDMDL
MODEL 8
REMARK VINA RESULT:    -3.039      1.645      3.947
REMARK INTER + INTRA:          -4.028
REMARK INTER:                  -4.208
REMARK INTRA:                   0.181
REMARK UNBOUND:                 0.255
REMARK SMILES CC1=CCC(=C(C)C)C(=O)CC(C)=CCC1
REMARK SMILES IDX 12 1 14 2 13 3 15 4 16 5 2 6 1 7 3 8 11 10 9 11 10 12 5 13
REMARK SMILES IDX 6 14 7 15 8 16 4 17
REMARK H PARENT
REMARK Flexibility Score: 60.00
ROOT
ATOM      1  C   UNL     1     150.645 160.397 201.060  1.00  0.00    -0.070 C 
ATOM      2  C   UNL     1     149.640 160.353 200.147  1.00  0.00    -0.027 C 
ATOM      3  C   UNL     1     150.262 160.267 202.514  1.00  0.00     0.039 C 
ENDROOT
BRANCH   2   4
ATOM      4  C   UNL     1     149.799 160.360 198.646  1.00  0.00     0.032 C 
BRANCH   4   5
ATOM      5  C   UNL     1     150.358 159.042 198.088  1.00  0.00     0.034 C 
BRANCH   5   6
ATOM      6  C   UNL     1     151.463 159.323 197.090  1.00  0.00    -0.077 C 
ATOM      7  C   UNL     1     151.116 160.081 195.834  1.00  0.00     0.039 C 
ATOM      8  C   UNL     1     152.730 158.861 197.229  1.00  0.00    -0.023 CG0
ATOM      9  G   UNL     1     153.264 158.101 198.419  1.00  0.00     0.000 G0
ENDBRANCH   5   6
ENDBRANCH   4   5
ENDBRANCH   2   4
BRANCH   1  10
ATOM     10  C   UNL     1     152.111 160.646 200.718  1.00  0.00     0.111 C 
BRANCH  10  11
ATOM     11  C   UNL     1     152.952 159.394 200.677  1.00  0.00     0.163 C 
ATOM     12  O   UNL     1     152.949 158.655 201.699  1.00  0.00    -0.294 OA
BRANCH  11  13
ATOM     13  C   UNL     1     153.822 159.039 199.507  1.00  0.00    -0.002 C 
ATOM     14  C   UNL     1     155.111 159.494 199.429  1.00  0.00    -0.069 C 
ATOM     15  C   UNL     1     156.037 159.072 198.310  1.00  0.00     0.039 C 
ATOM     16  C   UNL     1     155.667 160.484 200.429  1.00  0.00     0.039 C 
BRANCH  13  17
ATOM     17  C   UNL     1     153.259 158.113 198.429  1.00  0.00     0.066 CG0
ATOM     18  G   UNL     1     152.745 158.877 197.232  1.00  0.00     0.000 G0
ENDBRANCH  13  17
ENDBRANCH  11  13
ENDBRANCH  10  11
ENDBRANCH   1  10
TORSDOF 0
ENDMDL
MODEL 9
REMARK VINA RESULT:    -2.947      2.322      3.556
REMARK INTER + INTRA:          -3.898
REMARK INTER:                  -4.099
REMARK INTRA:                   0.201
REMARK UNBOUND:                 0.255
REMARK SMILES CC1=CCC(=C(C)C)C(=O)CC(C)=CCC1
REMARK SMILES IDX 12 1 14 2 13 3 15 4 16 5 2 6 1 7 3 8 11 10 9 11 10 12 5 13
REMARK SMILES IDX 6 14 7 15 8 16 4 17
REMARK H PARENT
REMARK Flexibility Score: 60.00
ROOT
ATOM      1  C   UNL     1     152.494 160.866 202.207  1.00  0.00    -0.070 C 
ATOM      2  C   UNL     1     151.820 159.820 202.754  1.00  0.00    -0.027 C 
ATOM      3  C   UNL     1     151.863 162.232 202.326  1.00  0.00     0.039 C 
ENDROOT
BRANCH   2   4
ATOM      4  C   UNL     1     152.308 158.395 202.843  1.00  0.00     0.032 C 
BRANCH   4   5
ATOM      5  C   UNL     1     151.998 157.568 201.587  1.00  0.00     0.034 C 
BRANCH   5   6
ATOM      6  C   UNL     1     153.211 156.756 201.181  1.00  0.00    -0.077 C 
ATOM      7  C   UNL     1     153.688 155.669 202.110  1.00  0.00     0.039 C 
ATOM      8  C   UNL     1     153.938 157.006 200.064  1.00  0.00    -0.023 CG0
ATOM      9  G   UNL     1     153.608 158.039 199.013  1.00  0.00     0.000 G0
ENDBRANCH   5   6
ENDBRANCH   4   5
ENDBRANCH   2   4
BRANCH   1  10
ATOM     10  C   UNL     1     153.795 160.737 201.421  1.00  0.00     0.111 C 
BRANCH  10  11
ATOM     11  C   UNL     1     153.598 160.452 199.952  1.00  0.00     0.163 C 
ATOM     12  O   UNL     1     152.745 161.144 199.332  1.00  0.00    -0.294 OA
BRANCH  11  13
ATOM     13  C   UNL     1     154.325 159.353 199.235  1.00  0.00    -0.002 C 
ATOM     14  C   UNL     1     155.623 159.518 198.832  1.00  0.00    -0.069 C 
ATOM     15  C   UNL     1     156.408 158.393 198.194  1.00  0.00     0.039 C 
ATOM     16  C   UNL     1     156.331 160.850 198.956  1.00  0.00     0.039 C 
BRANCH  13  17
ATOM     17  C   UNL     1     153.606 158.022 199.010  1.00  0.00     0.066 CG0
ATOM     18  G   UNL     1     153.940 157.007 200.078  1.00  0.00     0.000 G0
ENDBRANCH  13  17
ENDBRANCH  11  13
ENDBRANCH  10  11
ENDBRANCH   1  10
TORSDOF 0
ENDMDL
