MODEL 1
REMARK VINA RESULT:    -3.889      0.000      0.000
REMARK INTER + INTRA:          -4.185
REMARK INTER:                  -4.116
REMARK INTRA:                  -0.069
REMARK UNBOUND:                -0.069
REMARK SMILES CC(=O)c1cccc(C)c1
REMARK SMILES IDX 9 1 8 2 10 3 4 4 5 5 6 6 7 7 2 8 3 9 1 10
REMARK H PARENT
REMARK Flexibility Score: inf
ROOT
ATOM      1  C   UNL     1      39.529 186.127  30.282  1.00  0.00     0.044 C 
ATOM      2  C   UNL     1      40.535 186.073  31.394  1.00  0.00    -0.050 A 
ATOM      3  C   UNL     1      41.249 184.890  31.644  1.00  0.00     0.015 A 
ATOM      4  C   UNL     1      42.171 184.815  32.708  1.00  0.00     0.017 A 
ATOM      5  C   UNL     1      42.353 185.948  33.524  1.00  0.00     0.012 A 
ATOM      6  C   UNL     1      41.630 187.119  33.286  1.00  0.00     0.001 A 
ATOM      7  C   UNL     1      40.720 187.182  32.231  1.00  0.00     0.003 A 
ENDROOT
BRANCH   4   8
ATOM      8  C   UNL     1      42.942 183.571  32.980  1.00  0.00     0.159 C 
ATOM      9  O   UNL     1      42.332 182.520  33.321  1.00  0.00    -0.295 OA
ATOM     10  C   UNL     1      44.435 183.520  32.860  1.00  0.00     0.093 C 
ENDBRANCH   4   8
TORSDOF 1
ENDMDL
MODEL 2
REMARK VINA RESULT:    -3.888     21.711     22.731
REMARK INTER + INTRA:          -4.184
REMARK INTER:                  -4.108
REMARK INTRA:                  -0.076
REMARK UNBOUND:                -0.069
REMARK SMILES CC(=O)c1cccc(C)c1
REMARK SMILES IDX 9 1 8 2 10 3 4 4 5 5 6 6 7 7 2 8 3 9 1 10
REMARK H PARENT
REMARK Flexibility Score: inf
ROOT
ATOM      1  C   UNL     1      32.038 172.279  14.875  1.00  0.00     0.044 C 
ATOM      2  C   UNL     1      32.944 171.464  15.752  1.00  0.00    -0.050 A 
ATOM      3  C   UNL     1      32.531 171.092  17.041  1.00  0.00     0.015 A 
ATOM      4  C   UNL     1      33.386 170.357  17.888  1.00  0.00     0.017 A 
ATOM      5  C   UNL     1      34.669 170.016  17.420  1.00  0.00     0.012 A 
ATOM      6  C   UNL     1      35.087 170.402  16.144  1.00  0.00     0.001 A 
ATOM      7  C   UNL     1      34.232 171.129  15.315  1.00  0.00     0.003 A 
ENDROOT
BRANCH   4   8
ATOM      8  C   UNL     1      32.959 169.947  19.253  1.00  0.00     0.159 C 
ATOM      9  O   UNL     1      33.543 168.989  19.830  1.00  0.00    -0.295 OA
ATOM     10  C   UNL     1      31.845 170.640  19.978  1.00  0.00     0.093 C 
ENDBRANCH   4   8
TORSDOF 1
ENDMDL
MODEL 3
REMARK VINA RESULT:    -3.750      1.872      3.899
REMARK INTER + INTRA:          -4.038
REMARK INTER:                  -3.965
REMARK INTRA:                  -0.073
REMARK UNBOUND:                -0.069
REMARK SMILES CC(=O)c1cccc(C)c1
REMARK SMILES IDX 9 1 8 2 10 3 4 4 5 5 6 6 7 7 2 8 3 9 1 10
REMARK H PARENT
REMARK Flexibility Score: inf
ROOT
ATOM      1  C   UNL     1      44.202 183.509  32.867  1.00  0.00     0.044 C 
ATOM      2  C   UNL     1      43.051 184.443  33.107  1.00  0.00    -0.050 A 
ATOM      3  C   UNL     1      42.060 184.610  32.125  1.00  0.00     0.015 A 
ATOM      4  C   UNL     1      40.994 185.511  32.324  1.00  0.00     0.017 A 
ATOM      5  C   UNL     1      40.949 186.250  33.520  1.00  0.00     0.012 A 
ATOM      6  C   UNL     1      41.944 186.097  34.489  1.00  0.00     0.001 A 
ATOM      7  C   UNL     1      42.995 185.203  34.282  1.00  0.00     0.003 A 
ENDROOT
BRANCH   4   8
ATOM      8  C   UNL     1      39.932 185.691  31.297  1.00  0.00     0.159 C 
ATOM      9  O   UNL     1      40.246 185.752  30.076  1.00  0.00    -0.295 OA
ATOM     10  C   UNL     1      38.483 185.803  31.665  1.00  0.00     0.093 C 
ENDBRANCH   4   8
TORSDOF 1
ENDMDL
MODEL 4
REMARK VINA RESULT:    -3.736      1.166      2.199
REMARK INTER + INTRA:          -4.023
REMARK INTER:                  -3.949
REMARK INTRA:                  -0.074
REMARK UNBOUND:                -0.069
REMARK SMILES CC(=O)c1cccc(C)c1
REMARK SMILES IDX 9 1 8 2 10 3 4 4 5 5 6 6 7 7 2 8 3 9 1 10
REMARK H PARENT
REMARK Flexibility Score: inf
ROOT
ATOM      1  C   UNL     1      40.431 188.672  33.121  1.00  0.00     0.044 C 
ATOM      2  C   UNL     1      40.770 187.280  32.672  1.00  0.00    -0.050 A 
ATOM      3  C   UNL     1      41.788 186.558  33.315  1.00  0.00     0.015 A 
ATOM      4  C   UNL     1      42.139 185.264  32.880  1.00  0.00     0.017 A 
ATOM      5  C   UNL     1      41.458 184.715  31.778  1.00  0.00     0.012 A 
ATOM      6  C   UNL     1      40.458 185.440  31.126  1.00  0.00     0.001 A 
ATOM      7  C   UNL     1      40.118 186.720  31.565  1.00  0.00     0.003 A 
ENDROOT
BRANCH   4   8
ATOM      8  C   UNL     1      43.209 184.483  33.558  1.00  0.00     0.159 C 
ATOM      9  O   UNL     1      43.310 184.523  34.815  1.00  0.00    -0.295 OA
ATOM     10  C   UNL     1      44.184 183.640  32.793  1.00  0.00     0.093 C 
ENDBRANCH   4   8
TORSDOF 1
ENDMDL
MODEL 5
REMARK VINA RESULT:    -3.716     21.713     22.542
REMARK INTER + INTRA:          -4.002
REMARK INTER:                  -3.925
REMARK INTRA:                  -0.078
REMARK UNBOUND:                -0.069
REMARK SMILES CC(=O)c1cccc(C)c1
REMARK SMILES IDX 9 1 8 2 10 3 4 4 5 5 6 6 7 7 2 8 3 9 1 10
REMARK H PARENT
REMARK Flexibility Score: inf
ROOT
ATOM      1  C   UNL     1      35.804 168.875  16.829  1.00  0.00     0.044 C 
ATOM      2  C   UNL     1      34.702 169.886  16.970  1.00  0.00    -0.050 A 
ATOM      3  C   UNL     1      33.900 169.899  18.123  1.00  0.00     0.015 A 
ATOM      4  C   UNL     1      32.840 170.820  18.252  1.00  0.00     0.017 A 
ATOM      5  C   UNL     1      32.593 171.717  17.197  1.00  0.00     0.012 A 
ATOM      6  C   UNL     1      33.379 171.692  16.043  1.00  0.00     0.001 A 
ATOM      7  C   UNL     1      34.426 170.777  15.925  1.00  0.00     0.003 A 
ENDROOT
BRANCH   4   8
ATOM      8  C   UNL     1      31.988 170.852  19.472  1.00  0.00     0.159 C 
ATOM      9  O   UNL     1      32.412 170.340  20.545  1.00  0.00    -0.295 OA
ATOM     10  C   UNL     1      30.626 171.479  19.473  1.00  0.00     0.093 C 
ENDBRANCH   4   8
TORSDOF 1
ENDMDL
MODEL 6
REMARK VINA RESULT:    -3.699     22.250     22.870
REMARK INTER + INTRA:          -3.984
REMARK INTER:                  -3.916
REMARK INTRA:                  -0.068
REMARK UNBOUND:                -0.069
REMARK SMILES CC(=O)c1cccc(C)c1
REMARK SMILES IDX 9 1 8 2 10 3 4 4 5 5 6 6 7 7 2 8 3 9 1 10
REMARK H PARENT
REMARK Flexibility Score: inf
ROOT
ATOM      1  C   UNL     1      35.209 171.511  14.922  1.00  0.00     0.044 C 
ATOM      2  C   UNL     1      34.634 170.750  16.081  1.00  0.00    -0.050 A 
ATOM      3  C   UNL     1      33.482 171.220  16.732  1.00  0.00     0.015 A 
ATOM      4  C   UNL     1      32.952 170.534  17.845  1.00  0.00     0.017 A 
ATOM      5  C   UNL     1      33.609 169.375  18.298  1.00  0.00     0.012 A 
ATOM      6  C   UNL     1      34.765 168.917  17.661  1.00  0.00     0.001 A 
ATOM      7  C   UNL     1      35.281 169.604  16.561  1.00  0.00     0.003 A 
ENDROOT
BRANCH   4   8
ATOM      8  C   UNL     1      31.727 171.014  18.539  1.00  0.00     0.159 C 
ATOM      9  O   UNL     1      31.806 171.439  19.725  1.00  0.00    -0.295 OA
ATOM     10  C   UNL     1      30.384 171.014  17.872  1.00  0.00     0.093 C 
ENDBRANCH   4   8
TORSDOF 1
ENDMDL
MODEL 7
REMARK VINA RESULT:    -3.646      1.984      2.764
REMARK INTER + INTRA:          -3.927
REMARK INTER:                  -3.858
REMARK INTRA:                  -0.070
REMARK UNBOUND:                -0.069
REMARK SMILES CC(=O)c1cccc(C)c1
REMARK SMILES IDX 9 1 8 2 10 3 4 4 5 5 6 6 7 7 2 8 3 9 1 10
REMARK H PARENT
REMARK Flexibility Score: inf
ROOT
ATOM      1  C   UNL     1      37.172 185.721  33.131  1.00  0.00     0.044 C 
ATOM      2  C   UNL     1      38.448 185.742  32.340  1.00  0.00    -0.050 A 
ATOM      3  C   UNL     1      39.677 185.504  32.976  1.00  0.00     0.015 A 
ATOM      4  C   UNL     1      40.885 185.557  32.251  1.00  0.00     0.017 A 
ATOM      5  C   UNL     1      40.836 185.866  30.879  1.00  0.00     0.012 A 
ATOM      6  C   UNL     1      39.615 186.120  30.250  1.00  0.00     0.001 A 
ATOM      7  C   UNL     1      38.426 186.065  30.977  1.00  0.00     0.003 A 
ENDROOT
BRANCH   4   8
ATOM      8  C   UNL     1      42.194 185.298  32.909  1.00  0.00     0.159 C 
ATOM      9  O   UNL     1      42.555 186.010  33.887  1.00  0.00    -0.295 OA
ATOM     10  C   UNL     1      43.113 184.206  32.448  1.00  0.00     0.093 C 
ENDBRANCH   4   8
TORSDOF 1
ENDMDL
MODEL 8
REMARK VINA RESULT:    -3.530     21.591     22.435
REMARK INTER + INTRA:          -3.805
REMARK INTER:                  -3.729
REMARK INTRA:                  -0.076
REMARK UNBOUND:                -0.069
REMARK SMILES CC(=O)c1cccc(C)c1
REMARK SMILES IDX 9 1 8 2 10 3 4 4 5 5 6 6 7 7 2 8 3 9 1 10
REMARK H PARENT
REMARK Flexibility Score: inf
ROOT
ATOM      1  C   UNL     1      30.729 171.748  20.253  1.00  0.00     0.044 C 
ATOM      2  C   UNL     1      31.835 171.077  19.490  1.00  0.00    -0.050 A 
ATOM      3  C   UNL     1      32.177 171.525  18.203  1.00  0.00     0.015 A 
ATOM      4  C   UNL     1      33.189 170.881  17.462  1.00  0.00     0.017 A 
ATOM      5  C   UNL     1      33.841 169.772  18.032  1.00  0.00     0.012 A 
ATOM      6  C   UNL     1      33.488 169.315  19.304  1.00  0.00     0.001 A 
ATOM      7  C   UNL     1      32.486 169.960  20.029  1.00  0.00     0.003 A 
ENDROOT
BRANCH   4   8
ATOM      8  C   UNL     1      33.569 171.350  16.102  1.00  0.00     0.159 C 
ATOM      9  O   UNL     1      32.718 171.949  15.386  1.00  0.00    -0.295 OA
ATOM     10  C   UNL     1      34.943 171.135  15.542  1.00  0.00     0.093 C 
ENDBRANCH   4   8
TORSDOF 1
ENDMDL
MODEL 9
REMARK VINA RESULT:    -3.465     21.492     22.485
REMARK INTER + INTRA:          -3.736
REMARK INTER:                  -3.659
REMARK INTRA:                  -0.077
REMARK UNBOUND:                -0.069
REMARK SMILES CC(=O)c1cccc(C)c1
REMARK SMILES IDX 9 1 8 2 10 3 4 4 5 5 6 6 7 7 2 8 3 9 1 10
REMARK H PARENT
REMARK Flexibility Score: inf
ROOT
ATOM      1  C   UNL     1      32.983 169.476  21.302  1.00  0.00     0.044 C 
ATOM      2  C   UNL     1      32.797 169.960  19.893  1.00  0.00    -0.050 A 
ATOM      3  C   UNL     1      33.835 169.824  18.957  1.00  0.00     0.015 A 
ATOM      4  C   UNL     1      33.687 170.306  17.641  1.00  0.00     0.017 A 
ATOM      5  C   UNL     1      32.481 170.940  17.287  1.00  0.00     0.012 A 
ATOM      6  C   UNL     1      31.455 171.092  18.223  1.00  0.00     0.001 A 
ATOM      7  C   UNL     1      31.613 170.611  19.523  1.00  0.00     0.003 A 
ENDROOT
BRANCH   4   8
ATOM      8  C   UNL     1      34.774 170.160  16.635  1.00  0.00     0.159 C 
ATOM      9  O   UNL     1      35.646 169.260  16.784  1.00  0.00    -0.295 OA
ATOM     10  C   UNL     1      34.873 171.055  15.437  1.00  0.00     0.093 C 
ENDBRANCH   4   8
TORSDOF 1
ENDMDL
