MODEL 1
REMARK VINA RESULT:    -5.601      0.000      0.000
REMARK INTER + INTRA:          -8.430
REMARK INTER:                  -7.730
REMARK INTRA:                  -0.700
REMARK UNBOUND:                -0.700
REMARK SMILES CCCCc1cccc(O)c1CCCC
REMARK SMILES IDX 5 1 11 2 9 3 8 4 7 5 6 6 4 7 3 8 2 9 1 10 12 11 13 12 14 13
REMARK SMILES IDX 15 14 10 15
REMARK H PARENT 10 16
REMARK Flexibility Score: inf
ROOT
ATOM      1  C   UNL     1     -25.521  -9.427 -28.430  1.00  0.00    -0.041 A 
ATOM      2  C   UNL     1     -25.512 -10.767 -28.920  1.00  0.00    -0.003 A 
ATOM      3  C   UNL     1     -26.655 -11.577 -28.719  1.00  0.00     0.119 A 
ATOM      4  C   UNL     1     -27.791 -11.056 -28.089  1.00  0.00     0.046 A 
ATOM      5  C   UNL     1     -27.809  -9.735 -27.654  1.00  0.00     0.004 A 
ATOM      6  C   UNL     1     -26.688  -8.928 -27.821  1.00  0.00     0.004 A 
ENDROOT
BRANCH   1   7
ATOM      7  C   UNL     1     -24.329  -8.494 -28.527  1.00  0.00     0.036 C 
BRANCH   7   8
ATOM      8  C   UNL     1     -24.688  -7.073 -28.068  1.00  0.00     0.004 C 
BRANCH   8   9
ATOM      9  C   UNL     1     -23.746  -6.551 -26.973  1.00  0.00    -0.003 C 
ATOM     10  C   UNL     1     -24.488  -6.135 -25.704  1.00  0.00     0.004 C 
ENDBRANCH   8   9
ENDBRANCH   7   8
ENDBRANCH   1   7
BRANCH   2  11
ATOM     11  C   UNL     1     -24.338 -11.354 -29.686  1.00  0.00     0.040 C 
BRANCH  11  12
ATOM     12  C   UNL     1     -24.407 -10.984 -31.179  1.00  0.00     0.005 C 
BRANCH  12  13
ATOM     13  C   UNL     1     -24.813 -12.176 -32.062  1.00  0.00    -0.003 C 
ATOM     14  C   UNL     1     -23.717 -12.572 -33.052  1.00  0.00     0.004 C 
ENDBRANCH  12  13
ENDBRANCH  11  12
ENDBRANCH   2  11
BRANCH   3  15
ATOM     15  O   UNL     1     -26.658 -12.906 -29.145  1.00  0.00    -0.508 OA
ATOM     16  H   UNL     1     -27.314 -13.584 -28.774  1.00  0.00     0.293 HD
ENDBRANCH   3  15
TORSDOF 7
ENDMDL
MODEL 2
REMARK VINA RESULT:    -5.502      2.057      4.331
REMARK INTER + INTRA:          -8.293
REMARK INTER:                  -7.471
REMARK INTRA:                  -0.823
REMARK UNBOUND:                -0.700
REMARK SMILES CCCCc1cccc(O)c1CCCC
REMARK SMILES IDX 5 1 11 2 9 3 8 4 7 5 6 6 4 7 3 8 2 9 1 10 12 11 13 12 14 13
REMARK SMILES IDX 15 14 10 15
REMARK H PARENT 10 16
REMARK Flexibility Score: inf
ROOT
ATOM      1  C   UNL     1     -25.616 -10.345 -28.533  1.00  0.00    -0.041 A 
ATOM      2  C   UNL     1     -24.240 -10.100 -28.821  1.00  0.00    -0.003 A 
ATOM      3  C   UNL     1     -23.730  -8.789 -28.667  1.00  0.00     0.119 A 
ATOM      4  C   UNL     1     -24.554  -7.760 -28.197  1.00  0.00     0.046 A 
ATOM      5  C   UNL     1     -25.883  -8.016 -27.875  1.00  0.00     0.004 A 
ATOM      6  C   UNL     1     -26.410  -9.293 -28.040  1.00  0.00     0.004 A 
ENDROOT
BRANCH   1   7
ATOM      7  C   UNL     1     -26.283 -11.693 -28.729  1.00  0.00     0.036 C 
BRANCH   7   8
ATOM      8  C   UNL     1     -27.707 -11.540 -29.285  1.00  0.00     0.004 C 
BRANCH   8   9
ATOM      9  C   UNL     1     -28.005 -12.523 -30.426  1.00  0.00    -0.003 C 
ATOM     10  C   UNL     1     -27.866 -11.886 -31.808  1.00  0.00     0.004 C 
ENDBRANCH   8   9
ENDBRANCH   7   8
ENDBRANCH   1   7
BRANCH   2  11
ATOM     11  C   UNL     1     -23.282 -11.200 -29.251  1.00  0.00     0.040 C 
BRANCH  11  12
ATOM     12  C   UNL     1     -23.046 -11.169 -30.772  1.00  0.00     0.005 C 
BRANCH  12  13
ATOM     13  C   UNL     1     -24.195 -11.823 -31.558  1.00  0.00    -0.003 C 
ATOM     14  C   UNL     1     -23.745 -12.355 -32.919  1.00  0.00     0.004 C 
ENDBRANCH  12  13
ENDBRANCH  11  12
ENDBRANCH   2  11
BRANCH   3  15
ATOM     15  O   UNL     1     -22.401  -8.510 -28.986  1.00  0.00    -0.508 OA
ATOM     16  H   UNL     1     -21.700  -9.240 -29.039  1.00  0.00     0.293 HD
ENDBRANCH   3  15
TORSDOF 7
ENDMDL
MODEL 3
REMARK VINA RESULT:    -5.459      1.853      4.355
REMARK INTER + INTRA:          -8.233
REMARK INTER:                  -7.200
REMARK INTRA:                  -1.033
REMARK UNBOUND:                -0.700
REMARK SMILES CCCCc1cccc(O)c1CCCC
REMARK SMILES IDX 5 1 11 2 9 3 8 4 7 5 6 6 4 7 3 8 2 9 1 10 12 11 13 12 14 13
REMARK SMILES IDX 15 14 10 15
REMARK H PARENT 10 16
REMARK Flexibility Score: inf
ROOT
ATOM      1  C   UNL     1     -25.116 -11.368 -30.932  1.00  0.00    -0.041 A 
ATOM      2  C   UNL     1     -25.657 -11.306 -29.613  1.00  0.00    -0.003 A 
ATOM      3  C   UNL     1     -26.827 -12.045 -29.317  1.00  0.00     0.119 A 
ATOM      4  C   UNL     1     -27.416 -12.858 -30.292  1.00  0.00     0.046 A 
ATOM      5  C   UNL     1     -26.857 -12.949 -31.562  1.00  0.00     0.004 A 
ATOM      6  C   UNL     1     -25.720 -12.213 -31.881  1.00  0.00     0.004 A 
ENDROOT
BRANCH   1   7
ATOM      7  C   UNL     1     -23.909 -10.564 -31.378  1.00  0.00     0.036 C 
BRANCH   7   8
ATOM      8  C   UNL     1     -22.599 -11.318 -31.105  1.00  0.00     0.004 C 
BRANCH   8   9
ATOM      9  C   UNL     1     -21.712 -10.607 -30.074  1.00  0.00    -0.003 C 
ATOM     10  C   UNL     1     -21.823  -9.085 -30.146  1.00  0.00     0.004 C 
ENDBRANCH   8   9
ENDBRANCH   7   8
ENDBRANCH   1   7
BRANCH   2  11
ATOM     11  C   UNL     1     -25.007 -10.507 -28.494  1.00  0.00     0.040 C 
BRANCH  11  12
ATOM     12  C   UNL     1     -25.298  -9.003 -28.642  1.00  0.00     0.005 C 
BRANCH  12  13
ATOM     13  C   UNL     1     -26.615  -8.590 -27.967  1.00  0.00    -0.003 C 
ATOM     14  C   UNL     1     -27.737  -8.337 -28.975  1.00  0.00     0.004 C 
ENDBRANCH  12  13
ENDBRANCH  11  12
ENDBRANCH   2  11
BRANCH   3  15
ATOM     15  O   UNL     1     -27.406 -11.967 -28.050  1.00  0.00    -0.508 OA
ATOM     16  H   UNL     1     -26.962 -11.463 -27.290  1.00  0.00     0.293 HD
ENDBRANCH   3  15
TORSDOF 7
ENDMDL
MODEL 4
REMARK VINA RESULT:    -5.448      2.274      2.911
REMARK INTER + INTRA:          -8.219
REMARK INTER:                  -7.029
REMARK INTRA:                  -1.190
REMARK UNBOUND:                -0.700
REMARK SMILES CCCCc1cccc(O)c1CCCC
REMARK SMILES IDX 5 1 11 2 9 3 8 4 7 5 6 6 4 7 3 8 2 9 1 10 12 11 13 12 14 13
REMARK SMILES IDX 15 14 10 15
REMARK H PARENT 10 16
REMARK Flexibility Score: inf
ROOT
ATOM      1  C   UNL     1     -25.298 -11.336 -29.310  1.00  0.00    -0.041 A 
ATOM      2  C   UNL     1     -26.000 -11.831 -30.449  1.00  0.00    -0.003 A 
ATOM      3  C   UNL     1     -27.413 -11.893 -30.409  1.00  0.00     0.119 A 
ATOM      4  C   UNL     1     -28.111 -11.434 -29.286  1.00  0.00     0.046 A 
ATOM      5  C   UNL     1     -27.422 -10.911 -28.197  1.00  0.00     0.004 A 
ATOM      6  C   UNL     1     -26.031 -10.862 -28.206  1.00  0.00     0.004 A 
ENDROOT
BRANCH   1   7
ATOM      7  C   UNL     1     -23.784 -11.291 -29.216  1.00  0.00     0.036 C 
BRANCH   7   8
ATOM      8  C   UNL     1     -23.276  -9.856 -29.017  1.00  0.00     0.004 C 
BRANCH   8   9
ATOM      9  C   UNL     1     -22.968  -9.149 -30.344  1.00  0.00    -0.003 C 
ATOM     10  C   UNL     1     -21.724  -9.704 -31.036  1.00  0.00     0.004 C 
ENDBRANCH   8   9
ENDBRANCH   7   8
ENDBRANCH   1   7
BRANCH   2  11
ATOM     11  C   UNL     1     -25.296 -12.261 -31.726  1.00  0.00     0.040 C 
BRANCH  11  12
ATOM     12  C   UNL     1     -25.023 -11.056 -32.644  1.00  0.00     0.005 C 
BRANCH  12  13
ATOM     13  C   UNL     1     -23.949 -11.355 -33.703  1.00  0.00    -0.003 C 
ATOM     14  C   UNL     1     -23.370 -12.764 -33.569  1.00  0.00     0.004 C 
ENDBRANCH  12  13
ENDBRANCH  11  12
ENDBRANCH   2  11
BRANCH   3  15
ATOM     15  O   UNL     1     -28.125 -12.416 -31.490  1.00  0.00    -0.508 OA
ATOM     16  H   UNL     1     -27.670 -12.956 -32.217  1.00  0.00     0.293 HD
ENDBRANCH   3  15
TORSDOF 7
ENDMDL
MODEL 5
REMARK VINA RESULT:    -5.393      2.302      4.467
REMARK INTER + INTRA:          -8.143
REMARK INTER:                  -7.012
REMARK INTRA:                  -1.131
REMARK UNBOUND:                -0.700
REMARK SMILES CCCCc1cccc(O)c1CCCC
REMARK SMILES IDX 5 1 11 2 9 3 8 4 7 5 6 6 4 7 3 8 2 9 1 10 12 11 13 12 14 13
REMARK SMILES IDX 15 14 10 15
REMARK H PARENT 10 16
REMARK Flexibility Score: inf
ROOT
ATOM      1  C   UNL     1     -26.300 -11.232 -29.295  1.00  0.00    -0.041 A 
ATOM      2  C   UNL     1     -25.719  -9.961 -29.005  1.00  0.00    -0.003 A 
ATOM      3  C   UNL     1     -26.392  -9.086 -28.119  1.00  0.00     0.119 A 
ATOM      4  C   UNL     1     -27.585  -9.481 -27.504  1.00  0.00     0.046 A 
ATOM      5  C   UNL     1     -28.123 -10.739 -27.756  1.00  0.00     0.004 A 
ATOM      6  C   UNL     1     -27.489 -11.606 -28.642  1.00  0.00     0.004 A 
ENDROOT
BRANCH   1   7
ATOM      7  C   UNL     1     -25.703 -12.218 -30.281  1.00  0.00     0.036 C 
BRANCH   7   8
ATOM      8  C   UNL     1     -26.180 -11.938 -31.713  1.00  0.00     0.004 C 
BRANCH   8   9
ATOM      9  C   UNL     1     -25.052 -11.432 -32.624  1.00  0.00    -0.003 C 
ATOM     10  C   UNL     1     -24.000 -12.500 -32.914  1.00  0.00     0.004 C 
ENDBRANCH   8   9
ENDBRANCH   7   8
ENDBRANCH   1   7
BRANCH   2  11
ATOM     11  C   UNL     1     -24.382  -9.518 -29.577  1.00  0.00     0.040 C 
BRANCH  11  12
ATOM     12  C   UNL     1     -23.209 -10.129 -28.789  1.00  0.00     0.005 C 
BRANCH  12  13
ATOM     13  C   UNL     1     -22.391 -11.124 -29.629  1.00  0.00    -0.003 C 
ATOM     14  C   UNL     1     -21.605 -10.438 -30.748  1.00  0.00     0.004 C 
ENDBRANCH  12  13
ENDBRANCH  11  12
ENDBRANCH   2  11
BRANCH   3  15
ATOM     15  O   UNL     1     -25.872  -7.819 -27.852  1.00  0.00    -0.508 OA
ATOM     16  H   UNL     1     -26.318  -7.187 -27.197  1.00  0.00     0.293 HD
ENDBRANCH   3  15
TORSDOF 7
ENDMDL
MODEL 6
REMARK VINA RESULT:    -5.359      1.659      4.125
REMARK INTER + INTRA:          -8.095
REMARK INTER:                  -6.816
REMARK INTRA:                  -1.279
REMARK UNBOUND:                -0.700
REMARK SMILES CCCCc1cccc(O)c1CCCC
REMARK SMILES IDX 5 1 11 2 9 3 8 4 7 5 6 6 4 7 3 8 2 9 1 10 12 11 13 12 14 13
REMARK SMILES IDX 15 14 10 15
REMARK H PARENT 10 16
REMARK Flexibility Score: inf
ROOT
ATOM      1  C   UNL     1     -24.546 -10.375 -28.890  1.00  0.00    -0.041 A 
ATOM      2  C   UNL     1     -25.887 -10.703 -28.527  1.00  0.00    -0.003 A 
ATOM      3  C   UNL     1     -26.736  -9.678 -28.047  1.00  0.00     0.119 A 
ATOM      4  C   UNL     1     -26.280  -8.357 -27.972  1.00  0.00     0.046 A 
ATOM      5  C   UNL     1     -24.986  -8.037 -28.370  1.00  0.00     0.004 A 
ATOM      6  C   UNL     1     -24.127  -9.034 -28.824  1.00  0.00     0.004 A 
ENDROOT
BRANCH   1   7
ATOM      7  C   UNL     1     -23.530 -11.404 -29.349  1.00  0.00     0.036 C 
BRANCH   7   8
ATOM      8  C   UNL     1     -22.821 -10.959 -30.636  1.00  0.00     0.004 C 
BRANCH   8   9
ATOM      9  C   UNL     1     -23.758 -10.947 -31.853  1.00  0.00    -0.003 C 
ATOM     10  C   UNL     1     -23.834 -12.303 -32.554  1.00  0.00     0.004 C 
ENDBRANCH   8   9
ENDBRANCH   7   8
ENDBRANCH   1   7
BRANCH   2  11
ATOM     11  C   UNL     1     -26.458 -12.104 -28.671  1.00  0.00     0.040 C 
BRANCH  11  12
ATOM     12  C   UNL     1     -26.664 -12.472 -30.152  1.00  0.00     0.005 C 
BRANCH  12  13
ATOM     13  C   UNL     1     -27.845 -11.719 -30.786  1.00  0.00    -0.003 C 
ATOM     14  C   UNL     1     -27.394 -10.689 -31.824  1.00  0.00     0.004 C 
ENDBRANCH  12  13
ENDBRANCH  11  12
ENDBRANCH   2  11
BRANCH   3  15
ATOM     15  O   UNL     1     -28.037  -9.976 -27.641  1.00  0.00    -0.508 OA
ATOM     16  H   UNL     1     -28.845  -9.681 -28.179  1.00  0.00     0.293 HD
ENDBRANCH   3  15
TORSDOF 7
ENDMDL
MODEL 7
REMARK VINA RESULT:    -5.322      2.441      5.301
REMARK INTER + INTRA:          -8.045
REMARK INTER:                  -6.905
REMARK INTRA:                  -1.139
REMARK UNBOUND:                -0.700
REMARK SMILES CCCCc1cccc(O)c1CCCC
REMARK SMILES IDX 5 1 11 2 9 3 8 4 7 5 6 6 4 7 3 8 2 9 1 10 12 11 13 12 14 13
REMARK SMILES IDX 15 14 10 15
REMARK H PARENT 10 16
REMARK Flexibility Score: inf
ROOT
ATOM      1  C   UNL     1     -25.279  -9.250 -28.491  1.00  0.00    -0.041 A 
ATOM      2  C   UNL     1     -24.097  -8.471 -28.667  1.00  0.00    -0.003 A 
ATOM      3  C   UNL     1     -22.905  -9.116 -29.073  1.00  0.00     0.119 A 
ATOM      4  C   UNL     1     -22.899 -10.490 -29.340  1.00  0.00     0.046 A 
ATOM      5  C   UNL     1     -24.066 -11.236 -29.210  1.00  0.00     0.004 A 
ATOM      6  C   UNL     1     -25.244 -10.625 -28.790  1.00  0.00     0.004 A 
ENDROOT
BRANCH   1   7
ATOM      7  C   UNL     1     -26.591  -8.676 -27.993  1.00  0.00     0.036 C 
BRANCH   7   8
ATOM      8  C   UNL     1     -27.619  -8.556 -29.127  1.00  0.00     0.004 C 
BRANCH   8   9
ATOM      9  C   UNL     1     -27.676  -7.144 -29.727  1.00  0.00    -0.003 C 
ATOM     10  C   UNL     1     -27.713  -6.049 -28.662  1.00  0.00     0.004 C 
ENDBRANCH   8   9
ENDBRANCH   7   8
ENDBRANCH   1   7
BRANCH   2  11
ATOM     11  C   UNL     1     -24.070  -6.963 -28.474  1.00  0.00     0.040 C 
BRANCH  11  12
ATOM     12  C   UNL     1     -23.575  -6.591 -27.065  1.00  0.00     0.005 C 
BRANCH  12  13
ATOM     13  C   UNL     1     -24.717  -6.132 -26.143  1.00  0.00    -0.003 C 
ATOM     14  C   UNL     1     -25.079  -4.660 -26.345  1.00  0.00     0.004 C 
ENDBRANCH  12  13
ENDBRANCH  11  12
ENDBRANCH   2  11
BRANCH   3  15
ATOM     15  O   UNL     1     -21.722  -8.388 -29.208  1.00  0.00    -0.508 OA
ATOM     16  H   UNL     1     -21.636  -7.440 -28.860  1.00  0.00     0.293 HD
ENDBRANCH   3  15
TORSDOF 7
ENDMDL
MODEL 8
REMARK VINA RESULT:    -4.008      1.967      4.501
REMARK INTER + INTRA:          -6.231
REMARK INTER:                  -5.120
REMARK INTRA:                  -1.110
REMARK UNBOUND:                -0.700
REMARK SMILES CCCCc1cccc(O)c1CCCC
REMARK SMILES IDX 5 1 11 2 9 3 8 4 7 5 6 6 4 7 3 8 2 9 1 10 12 11 13 12 14 13
REMARK SMILES IDX 15 14 10 15
REMARK H PARENT 10 16
REMARK Flexibility Score: inf
ROOT
ATOM      1  C   UNL     1     -25.391 -11.402 -29.640  1.00  0.00    -0.041 A 
ATOM      2  C   UNL     1     -24.045 -11.257 -30.090  1.00  0.00    -0.003 A 
ATOM      3  C   UNL     1     -23.713 -11.667 -31.403  1.00  0.00     0.119 A 
ATOM      4  C   UNL     1     -24.702 -12.163 -32.261  1.00  0.00     0.046 A 
ATOM      5  C   UNL     1     -26.021 -12.259 -31.831  1.00  0.00     0.004 A 
ATOM      6  C   UNL     1     -26.364 -11.883 -30.535  1.00  0.00     0.004 A 
ENDROOT
BRANCH   1   7
ATOM      7  C   UNL     1     -25.842 -11.062 -28.232  1.00  0.00     0.036 C 
BRANCH   7   8
ATOM      8  C   UNL     1     -27.337 -11.353 -28.036  1.00  0.00     0.004 C 
BRANCH   8   9
ATOM      9  C   UNL     1     -28.125 -10.115 -27.581  1.00  0.00    -0.003 C 
ATOM     10  C   UNL     1     -28.122  -8.996 -28.621  1.00  0.00     0.004 C 
ENDBRANCH   8   9
ENDBRANCH   7   8
ENDBRANCH   1   7
BRANCH   2  11
ATOM     11  C   UNL     1     -22.952 -10.644 -29.230  1.00  0.00     0.040 C 
BRANCH  11  12
ATOM     12  C   UNL     1     -22.824  -9.131 -29.487  1.00  0.00     0.005 C 
BRANCH  12  13
ATOM     13  C   UNL     1     -23.583  -8.292 -28.447  1.00  0.00    -0.003 C 
ATOM     14  C   UNL     1     -24.743  -7.507 -29.061  1.00  0.00     0.004 C 
ENDBRANCH  12  13
ENDBRANCH  11  12
ENDBRANCH   2  11
BRANCH   3  15
ATOM     15  O   UNL     1     -22.396 -11.581 -31.856  1.00  0.00    -0.508 OA
ATOM     16  H   UNL     1     -22.004 -12.268 -32.490  1.00  0.00     0.293 HD
ENDBRANCH   3  15
TORSDOF 7
ENDMDL
