MODEL 1
REMARK VINA RESULT:    -5.485      0.000      0.000
REMARK INTER + INTRA:          -5.806
REMARK INTER:                  -5.806
REMARK INTRA:                   0.000
REMARK UNBOUND:                 0.000
REMARK SMILES O=c1ccc2cc(O)c(O)cc2o1
REMARK SMILES IDX 4 1 3 2 2 3 1 4 13 5 12 6 11 7 9 8 7 9 6 10 5 11 8 12 10 14
REMARK H PARENT 8 13 10 15
REMARK Flexibility Score: inf
ROOT
ATOM      1  C   UNL     1     -22.135 -57.033  97.378  1.00  0.00     0.019 A 
ATOM      2  C   UNL     1     -23.077 -56.488  98.250  1.00  0.00     0.094 A 
ATOM      3  C   UNL     1     -22.707 -56.236  99.576  1.00  0.00     0.336 A 
ATOM      4  O   UNL     1     -23.542 -55.744 100.379  1.00  0.00    -0.246 OA
ATOM      5  O   UNL     1     -21.475 -56.515  99.996  1.00  0.00    -0.423 OA
ATOM      6  C   UNL     1     -20.547 -57.035  99.196  1.00  0.00     0.142 A 
ATOM      7  C   UNL     1     -19.270 -57.308  99.692  1.00  0.00     0.098 A 
ATOM      8  C   UNL     1     -18.282 -57.856  98.863  1.00  0.00     0.161 A 
ATOM      9  C   UNL     1     -18.585 -58.137  97.508  1.00  0.00     0.158 A 
ATOM     10  C   UNL     1     -19.867 -57.864  97.013  1.00  0.00     0.062 A 
ATOM     11  C   UNL     1     -20.848 -57.315  97.847  1.00  0.00     0.022 A 
ENDROOT
BRANCH   9  12
ATOM     12  O   UNL     1     -17.651 -58.683  96.625  1.00  0.00    -0.504 OA
ATOM     13  H   UNL     1     -17.790 -59.545  96.116  1.00  0.00     0.293 HD
ENDBRANCH   9  12
BRANCH   8  14
ATOM     14  O   UNL     1     -17.027 -58.103  99.422  1.00  0.00    -0.504 OA
ATOM     15  H   UNL     1     -16.160 -58.051  98.909  1.00  0.00     0.293 HD
ENDBRANCH   8  14
TORSDOF 2
ENDMDL
MODEL 2
REMARK VINA RESULT:    -5.305      1.309      5.040
REMARK INTER + INTRA:          -5.615
REMARK INTER:                  -5.615
REMARK INTRA:                   0.000
REMARK UNBOUND:                 0.000
REMARK SMILES O=c1ccc2cc(O)c(O)cc2o1
REMARK SMILES IDX 4 1 3 2 2 3 1 4 13 5 12 6 11 7 9 8 7 9 6 10 5 11 8 12 10 14
REMARK H PARENT 8 13 10 15
REMARK Flexibility Score: inf
ROOT
ATOM      1  C   UNL     1     -19.769 -58.358 100.252  1.00  0.00     0.019 A 
ATOM      2  C   UNL     1     -18.781 -58.899  99.429  1.00  0.00     0.094 A 
ATOM      3  C   UNL     1     -18.854 -58.680  98.049  1.00  0.00     0.336 A 
ATOM      4  O   UNL     1     -17.973 -59.160  97.288  1.00  0.00    -0.246 OA
ATOM      5  O   UNL     1     -19.852 -57.967  97.532  1.00  0.00    -0.423 OA
ATOM      6  C   UNL     1     -20.814 -57.432  98.282  1.00  0.00     0.142 A 
ATOM      7  C   UNL     1     -21.837 -56.692  97.685  1.00  0.00     0.098 A 
ATOM      8  C   UNL     1     -22.856 -56.125  98.461  1.00  0.00     0.161 A 
ATOM      9  C   UNL     1     -22.847 -56.305  99.866  1.00  0.00     0.158 A 
ATOM     10  C   UNL     1     -21.820 -57.048 100.463  1.00  0.00     0.062 A 
ATOM     11  C   UNL     1     -20.805 -57.612  99.681  1.00  0.00     0.022 A 
ENDROOT
BRANCH   9  12
ATOM     12  O   UNL     1     -23.830 -55.768 100.700  1.00  0.00    -0.504 OA
ATOM     13  H   UNL     1     -23.888 -55.948 101.693  1.00  0.00     0.293 HD
ENDBRANCH   9  12
BRANCH   8  14
ATOM     14  O   UNL     1     -23.847 -55.397  97.800  1.00  0.00    -0.504 OA
ATOM     15  H   UNL     1     -24.765 -55.218  98.181  1.00  0.00     0.293 HD
ENDBRANCH   8  14
TORSDOF 2
ENDMDL
MODEL 3
REMARK VINA RESULT:    -5.257      1.284      4.524
REMARK INTER + INTRA:          -5.564
REMARK INTER:                  -5.564
REMARK INTRA:                   0.000
REMARK UNBOUND:                 0.000
REMARK SMILES O=c1ccc2cc(O)c(O)cc2o1
REMARK SMILES IDX 4 1 3 2 2 3 1 4 13 5 12 6 11 7 9 8 7 9 6 10 5 11 8 12 10 14
REMARK H PARENT 8 13 10 15
REMARK Flexibility Score: inf
ROOT
ATOM      1  C   UNL     1     -19.642 -57.740  97.310  1.00  0.00     0.019 A 
ATOM      2  C   UNL     1     -18.539 -58.340  97.917  1.00  0.00     0.094 A 
ATOM      3  C   UNL     1     -18.501 -58.433  99.312  1.00  0.00     0.336 A 
ATOM      4  O   UNL     1     -17.515 -58.971  99.880  1.00  0.00    -0.246 OA
ATOM      5  O   UNL     1     -19.503 -57.956 100.047  1.00  0.00    -0.423 OA
ATOM      6  C   UNL     1     -20.574 -57.377  99.507  1.00  0.00     0.142 A 
ATOM      7  C   UNL     1     -21.596 -56.894 100.328  1.00  0.00     0.098 A 
ATOM      8  C   UNL     1     -22.729 -56.282  99.775  1.00  0.00     0.161 A 
ATOM      9  C   UNL     1     -22.836 -56.152  98.368  1.00  0.00     0.158 A 
ATOM     10  C   UNL     1     -21.809 -56.637  97.547  1.00  0.00     0.062 A 
ATOM     11  C   UNL     1     -20.681 -57.248  98.107  1.00  0.00     0.022 A 
ENDROOT
BRANCH   9  12
ATOM     12  O   UNL     1     -23.935 -55.554  97.749  1.00  0.00    -0.504 OA
ATOM     13  H   UNL     1     -24.484 -55.994  97.024  1.00  0.00     0.293 HD
ENDBRANCH   9  12
BRANCH   8  14
ATOM     14  O   UNL     1     -23.713 -55.822 100.652  1.00  0.00    -0.504 OA
ATOM     15  H   UNL     1     -24.654 -56.186 100.686  1.00  0.00     0.293 HD
ENDBRANCH   8  14
TORSDOF 2
ENDMDL
MODEL 4
REMARK VINA RESULT:    -5.175      2.241      2.336
REMARK INTER + INTRA:          -5.478
REMARK INTER:                  -5.478
REMARK INTRA:                   0.000
REMARK UNBOUND:                 0.000
REMARK SMILES O=c1ccc2cc(O)c(O)cc2o1
REMARK SMILES IDX 4 1 3 2 2 3 1 4 13 5 12 6 11 7 9 8 7 9 6 10 5 11 8 12 10 14
REMARK H PARENT 8 13 10 15
REMARK Flexibility Score: inf
ROOT
ATOM      1  C   UNL     1     -22.101 -58.992  96.802  1.00  0.00     0.019 A 
ATOM      2  C   UNL     1     -23.056 -59.614  97.606  1.00  0.00     0.094 A 
ATOM      3  C   UNL     1     -22.751 -59.864  98.949  1.00  0.00     0.336 A 
ATOM      4  O   UNL     1     -23.599 -60.424  99.692  1.00  0.00    -0.246 OA
ATOM      5  O   UNL     1     -21.568 -59.514  99.447  1.00  0.00    -0.423 OA
ATOM      6  C   UNL     1     -20.630 -58.919  98.714  1.00  0.00     0.142 A 
ATOM      7  C   UNL     1     -19.405 -58.574  99.292  1.00  0.00     0.098 A 
ATOM      8  C   UNL     1     -18.408 -57.948  98.533  1.00  0.00     0.161 A 
ATOM      9  C   UNL     1     -18.645 -57.663  97.166  1.00  0.00     0.158 A 
ATOM     10  C   UNL     1     -19.874 -58.010  96.589  1.00  0.00     0.062 A 
ATOM     11  C   UNL     1     -20.866 -58.635  97.353  1.00  0.00     0.022 A 
ENDROOT
BRANCH   9  12
ATOM     12  O   UNL     1     -17.697 -57.041  96.351  1.00  0.00    -0.504 OA
ATOM     13  H   UNL     1     -17.129 -56.257  96.641  1.00  0.00     0.293 HD
ENDBRANCH   9  12
BRANCH   8  14
ATOM     14  O   UNL     1     -17.208 -57.631  99.172  1.00  0.00    -0.504 OA
ATOM     15  H   UNL     1     -16.524 -56.986  98.803  1.00  0.00     0.293 HD
ENDBRANCH   8  14
TORSDOF 2
ENDMDL
MODEL 5
REMARK VINA RESULT:    -5.126      2.836      3.524
REMARK INTER + INTRA:          -5.426
REMARK INTER:                  -5.426
REMARK INTRA:                   0.000
REMARK UNBOUND:                 0.000
REMARK SMILES O=c1ccc2cc(O)c(O)cc2o1
REMARK SMILES IDX 4 1 3 2 2 3 1 4 13 5 12 6 11 7 9 8 7 9 6 10 5 11 8 12 10 14
REMARK H PARENT 8 13 10 15
REMARK Flexibility Score: inf
ROOT
ATOM      1  C   UNL     1     -21.514 -59.056 100.814  1.00  0.00     0.019 A 
ATOM      2  C   UNL     1     -22.560 -59.978 100.759  1.00  0.00     0.094 A 
ATOM      3  C   UNL     1     -22.941 -60.496  99.516  1.00  0.00     0.336 A 
ATOM      4  O   UNL     1     -23.882 -61.329  99.444  1.00  0.00    -0.246 OA
ATOM      5  O   UNL     1     -22.314 -60.113  98.406  1.00  0.00    -0.423 OA
ATOM      6  C   UNL     1     -21.312 -59.237  98.415  1.00  0.00     0.142 A 
ATOM      7  C   UNL     1     -20.691 -58.872  97.218  1.00  0.00     0.098 A 
ATOM      8  C   UNL     1     -19.635 -57.951  97.212  1.00  0.00     0.161 A 
ATOM      9  C   UNL     1     -19.195 -57.385  98.434  1.00  0.00     0.158 A 
ATOM     10  C   UNL     1     -19.820 -57.752  99.633  1.00  0.00     0.062 A 
ATOM     11  C   UNL     1     -20.874 -58.673  99.632  1.00  0.00     0.022 A 
ENDROOT
BRANCH   9  12
ATOM     12  O   UNL     1     -18.150 -56.461  98.502  1.00  0.00    -0.504 OA
ATOM     13  H   UNL     1     -18.239 -55.534  98.895  1.00  0.00     0.293 HD
ENDBRANCH   9  12
BRANCH   8  14
ATOM     14  O   UNL     1     -19.059 -57.631  95.981  1.00  0.00    -0.504 OA
ATOM     15  H   UNL     1     -18.130 -57.910  95.703  1.00  0.00     0.293 HD
ENDBRANCH   8  14
TORSDOF 2
ENDMDL
MODEL 6
REMARK VINA RESULT:    -5.106      2.540      3.434
REMARK INTER + INTRA:          -5.404
REMARK INTER:                  -5.404
REMARK INTRA:                   0.000
REMARK UNBOUND:                 0.000
REMARK SMILES O=c1ccc2cc(O)c(O)cc2o1
REMARK SMILES IDX 4 1 3 2 2 3 1 4 13 5 12 6 11 7 9 8 7 9 6 10 5 11 8 12 10 14
REMARK H PARENT 8 13 10 15
REMARK Flexibility Score: inf
ROOT
ATOM      1  C   UNL     1     -23.003 -57.875  97.212  1.00  0.00     0.019 A 
ATOM      2  C   UNL     1     -23.483 -59.038  96.611  1.00  0.00     0.094 A 
ATOM      3  C   UNL     1     -22.608 -60.115  96.425  1.00  0.00     0.336 A 
ATOM      4  O   UNL     1     -23.021 -61.174  95.885  1.00  0.00    -0.246 OA
ATOM      5  O   UNL     1     -21.339 -60.027  96.816  1.00  0.00    -0.423 OA
ATOM      6  C   UNL     1     -20.842 -58.935  97.394  1.00  0.00     0.142 A 
ATOM      7  C   UNL     1     -19.501 -58.900  97.784  1.00  0.00     0.098 A 
ATOM      8  C   UNL     1     -18.963 -57.758  98.393  1.00  0.00     0.161 A 
ATOM      9  C   UNL     1     -19.790 -56.629  98.614  1.00  0.00     0.158 A 
ATOM     10  C   UNL     1     -21.134 -56.667  98.221  1.00  0.00     0.062 A 
ATOM     11  C   UNL     1     -21.665 -57.811  97.614  1.00  0.00     0.022 A 
ENDROOT
BRANCH   9  12
ATOM     12  O   UNL     1     -19.321 -55.459  99.215  1.00  0.00    -0.504 OA
ATOM     13  H   UNL     1     -18.893 -55.425 100.129  1.00  0.00     0.293 HD
ENDBRANCH   9  12
BRANCH   8  14
ATOM     14  O   UNL     1     -17.616 -57.789  98.758  1.00  0.00    -0.504 OA
ATOM     15  H   UNL     1     -16.954 -58.471  98.417  1.00  0.00     0.293 HD
ENDBRANCH   8  14
TORSDOF 2
ENDMDL
MODEL 7
REMARK VINA RESULT:    -5.093      1.210      2.300
REMARK INTER + INTRA:          -5.391
REMARK INTER:                  -5.391
REMARK INTRA:                   0.000
REMARK UNBOUND:                 0.000
REMARK SMILES O=c1ccc2cc(O)c(O)cc2o1
REMARK SMILES IDX 4 1 3 2 2 3 1 4 13 5 12 6 11 7 9 8 7 9 6 10 5 11 8 12 10 14
REMARK H PARENT 8 13 10 15
REMARK Flexibility Score: inf
ROOT
ATOM      1  C   UNL     1     -21.424 -56.858 100.056  1.00  0.00     0.019 A 
ATOM      2  C   UNL     1     -22.627 -56.492  99.452  1.00  0.00     0.094 A 
ATOM      3  C   UNL     1     -22.720 -56.524  98.056  1.00  0.00     0.336 A 
ATOM      4  O   UNL     1     -23.797 -56.199  97.490  1.00  0.00    -0.246 OA
ATOM      5  O   UNL     1     -21.676 -56.896  97.319  1.00  0.00    -0.423 OA
ATOM      6  C   UNL     1     -20.512 -57.253  97.856  1.00  0.00     0.142 A 
ATOM      7  C   UNL     1     -19.450 -57.635  97.033  1.00  0.00     0.098 A 
ATOM      8  C   UNL     1     -18.218 -58.012  97.584  1.00  0.00     0.161 A 
ATOM      9  C   UNL     1     -18.049 -58.005  98.990  1.00  0.00     0.158 A 
ATOM     10  C   UNL     1     -19.116 -57.621  99.814  1.00  0.00     0.062 A 
ATOM     11  C   UNL     1     -20.344 -57.245  99.257  1.00  0.00     0.022 A 
ENDROOT
BRANCH   9  12
ATOM     12  O   UNL     1     -16.850 -58.368  99.607  1.00  0.00    -0.504 OA
ATOM     13  H   UNL     1     -15.944 -58.021  99.329  1.00  0.00     0.293 HD
ENDBRANCH   9  12
BRANCH   8  14
ATOM     14  O   UNL     1     -17.199 -58.383  96.704  1.00  0.00    -0.504 OA
ATOM     15  H   UNL     1     -17.358 -58.769  95.785  1.00  0.00     0.293 HD
ENDBRANCH   8  14
TORSDOF 2
ENDMDL
MODEL 8
REMARK VINA RESULT:    -5.060      2.950      4.307
REMARK INTER + INTRA:          -5.356
REMARK INTER:                  -5.356
REMARK INTRA:                   0.000
REMARK UNBOUND:                 0.000
REMARK SMILES O=c1ccc2cc(O)c(O)cc2o1
REMARK SMILES IDX 4 1 3 2 2 3 1 4 13 5 12 6 11 7 9 8 7 9 6 10 5 11 8 12 10 14
REMARK H PARENT 8 13 10 15
REMARK Flexibility Score: inf
ROOT
ATOM      1  C   UNL     1     -18.347 -60.226 100.981  1.00  0.00     0.019 A 
ATOM      2  C   UNL     1     -19.121 -61.068 101.780  1.00  0.00     0.094 A 
ATOM      3  C   UNL     1     -20.497 -60.836 101.874  1.00  0.00     0.336 A 
ATOM      4  O   UNL     1     -21.213 -61.584 102.590  1.00  0.00    -0.246 OA
ATOM      5  O   UNL     1     -21.057 -59.827 101.211  1.00  0.00    -0.423 OA
ATOM      6  C   UNL     1     -20.356 -59.002 100.437  1.00  0.00     0.142 A 
ATOM      7  C   UNL     1     -20.997 -57.959  99.764  1.00  0.00     0.098 A 
ATOM      8  C   UNL     1     -20.272 -57.082  98.947  1.00  0.00     0.161 A 
ATOM      9  C   UNL     1     -18.873 -57.256  98.804  1.00  0.00     0.158 A 
ATOM     10  C   UNL     1     -18.232 -58.301  99.481  1.00  0.00     0.062 A 
ATOM     11  C   UNL     1     -18.963 -59.174 100.295  1.00  0.00     0.022 A 
ENDROOT
BRANCH   9  12
ATOM     12  O   UNL     1     -18.088 -56.419  98.007  1.00  0.00    -0.504 OA
ATOM     13  H   UNL     1     -17.079 -56.401  98.031  1.00  0.00     0.293 HD
ENDBRANCH   9  12
BRANCH   8  14
ATOM     14  O   UNL     1     -20.975 -56.062  98.303  1.00  0.00    -0.504 OA
ATOM     15  H   UNL     1     -21.572 -55.400  98.778  1.00  0.00     0.293 HD
ENDBRANCH   8  14
TORSDOF 2
ENDMDL
MODEL 9
REMARK VINA RESULT:    -4.973     10.687     11.320
REMARK INTER + INTRA:          -5.264
REMARK INTER:                  -5.264
REMARK INTRA:                   0.000
REMARK UNBOUND:                 0.000
REMARK SMILES O=c1ccc2cc(O)c(O)cc2o1
REMARK SMILES IDX 4 1 3 2 2 3 1 4 13 5 12 6 11 7 9 8 7 9 6 10 5 11 8 12 10 14
REMARK H PARENT 8 13 10 15
REMARK Flexibility Score: inf
ROOT
ATOM      1  C   UNL     1     -22.675 -46.676 103.308  1.00  0.00     0.019 A 
ATOM      2  C   UNL     1     -22.381 -47.341 104.498  1.00  0.00     0.094 A 
ATOM      3  C   UNL     1     -21.135 -47.962 104.636  1.00  0.00     0.336 A 
ATOM      4  O   UNL     1     -20.849 -48.568 105.702  1.00  0.00    -0.246 OA
ATOM      5  O   UNL     1     -20.247 -47.919 103.646  1.00  0.00    -0.423 OA
ATOM      6  C   UNL     1     -20.488 -47.294 102.495  1.00  0.00     0.142 A 
ATOM      7  C   UNL     1     -19.518 -47.281 101.490  1.00  0.00     0.098 A 
ATOM      8  C   UNL     1     -19.757 -46.629 100.273  1.00  0.00     0.161 A 
ATOM      9  C   UNL     1     -20.997 -45.977 100.062  1.00  0.00     0.158 A 
ATOM     10  C   UNL     1     -21.969 -45.992 101.071  1.00  0.00     0.062 A 
ATOM     11  C   UNL     1     -21.723 -46.646 102.284  1.00  0.00     0.022 A 
ENDROOT
BRANCH   9  12
ATOM     12  O   UNL     1     -21.304 -45.308  98.875  1.00  0.00    -0.504 OA
ATOM     13  H   UNL     1     -21.518 -45.772  98.004  1.00  0.00     0.293 HD
ENDBRANCH   9  12
BRANCH   8  14
ATOM     14  O   UNL     1     -18.745 -46.653  99.312  1.00  0.00    -0.504 OA
ATOM     15  H   UNL     1     -18.079 -47.405  99.212  1.00  0.00     0.293 HD
ENDBRANCH   8  14
TORSDOF 2
ENDMDL
