MODEL 1
REMARK VINA RESULT:    -4.182      0.000      0.000
REMARK INTER + INTRA:          -4.182
REMARK INTER:                  -4.182
REMARK INTRA:                   0.000
REMARK UNBOUND:                 0.000
REMARK SMILES CC(C)=C1CC[C@@H](C)CC1=O
REMARK SMILES IDX 8 1 7 2 6 3 5 4 4 5 2 6 1 7 3 8 10 9 11 10 9 11
REMARK H PARENT
REMARK Flexibility Score: inf
ROOT
ATOM      1  C   UNL     1      -3.361  31.086  52.087  1.00  0.00     0.008 C 
ATOM      2  C   UNL     1      -2.010  30.834  51.399  1.00  0.00    -0.006 C 
ATOM      3  C   UNL     1      -2.103  29.754  50.307  1.00  0.00     0.008 C 
ATOM      4  C   UNL     1      -2.403  28.355  50.868  1.00  0.00     0.039 C 
ATOM      5  C   UNL     1      -1.494  27.972  52.028  1.00  0.00    -0.006 C 
ATOM      6  C   UNL     1      -1.163  26.668  52.265  1.00  0.00    -0.070 C 
ATOM      7  C   UNL     1      -1.702  25.553  51.399  1.00  0.00     0.039 C 
ATOM      8  C   UNL     1      -0.217  26.277  53.377  1.00  0.00     0.039 C 
ATOM      9  C   UNL     1      -1.091  29.078  52.945  1.00  0.00     0.159 C 
ATOM     10  O   UNL     1      -0.903  28.874  54.175  1.00  0.00    -0.295 OA
ATOM     11  C   UNL     1      -0.914  30.471  52.413  1.00  0.00     0.084 C 
ENDROOT
TORSDOF 0
ENDMDL
MODEL 2
REMARK VINA RESULT:    -4.092      2.483      3.615
REMARK INTER + INTRA:          -4.092
REMARK INTER:                  -4.092
REMARK INTRA:                   0.000
REMARK UNBOUND:                 0.000
REMARK SMILES CC(C)=C1CC[C@@H](C)CC1=O
REMARK SMILES IDX 8 1 7 2 6 3 5 4 4 5 2 6 1 7 3 8 10 9 11 10 9 11
REMARK H PARENT
REMARK Flexibility Score: inf
ROOT
ATOM      1  C   UNL     1      -2.353  30.655  55.380  1.00  0.00     0.008 C 
ATOM      2  C   UNL     1      -2.884  29.422  54.633  1.00  0.00    -0.006 C 
ATOM      3  C   UNL     1      -3.062  28.209  55.562  1.00  0.00     0.008 C 
ATOM      4  C   UNL     1      -1.730  27.663  56.102  1.00  0.00     0.039 C 
ATOM      5  C   UNL     1      -0.691  27.449  55.010  1.00  0.00    -0.006 C 
ATOM      6  C   UNL     1       0.260  26.474  55.123  1.00  0.00    -0.070 C 
ATOM      7  C   UNL     1       0.330  25.584  56.342  1.00  0.00     0.039 C 
ATOM      8  C   UNL     1       1.264  26.211  54.023  1.00  0.00     0.039 C 
ATOM      9  C   UNL     1      -0.700  28.429  53.885  1.00  0.00     0.159 C 
ATOM     10  O   UNL     1       0.365  28.763  53.299  1.00  0.00    -0.295 OA
ATOM     11  C   UNL     1      -1.991  29.051  53.439  1.00  0.00     0.084 C 
ENDROOT
TORSDOF 0
ENDMDL
MODEL 3
REMARK VINA RESULT:    -4.014      1.590      2.605
REMARK INTER + INTRA:          -4.014
REMARK INTER:                  -4.014
REMARK INTRA:                   0.000
REMARK UNBOUND:                 0.000
REMARK SMILES CC(C)=C1CC[C@@H](C)CC1=O
REMARK SMILES IDX 8 1 7 2 6 3 5 4 4 5 2 6 1 7 3 8 10 9 11 10 9 11
REMARK H PARENT
REMARK Flexibility Score: inf
ROOT
ATOM      1  C   UNL     1      -1.718  31.768  52.504  1.00  0.00     0.008 C 
ATOM      2  C   UNL     1      -2.693  30.827  53.230  1.00  0.00    -0.006 C 
ATOM      3  C   UNL     1      -2.005  30.022  54.345  1.00  0.00     0.008 C 
ATOM      4  C   UNL     1      -0.978  29.011  53.812  1.00  0.00     0.039 C 
ATOM      5  C   UNL     1      -1.525  28.147  52.684  1.00  0.00    -0.006 C 
ATOM      6  C   UNL     1      -1.072  26.873  52.487  1.00  0.00    -0.070 C 
ATOM      7  C   UNL     1       0.004  26.279  53.367  1.00  0.00     0.039 C 
ATOM      8  C   UNL     1      -1.645  25.983  51.408  1.00  0.00     0.039 C 
ATOM      9  C   UNL     1      -2.483  28.807  51.750  1.00  0.00     0.159 C 
ATOM     10  O   UNL     1      -2.533  28.491  50.531  1.00  0.00    -0.295 OA
ATOM     11  C   UNL     1      -3.405  29.881  52.252  1.00  0.00     0.084 C 
ENDROOT
TORSDOF 0
ENDMDL
MODEL 4
REMARK VINA RESULT:    -4.000      2.462      3.720
REMARK INTER + INTRA:          -4.000
REMARK INTER:                  -4.000
REMARK INTRA:                   0.000
REMARK UNBOUND:                 0.000
REMARK SMILES CC(C)=C1CC[C@@H](C)CC1=O
REMARK SMILES IDX 8 1 7 2 6 3 5 4 4 5 2 6 1 7 3 8 10 9 11 10 9 11
REMARK H PARENT
REMARK Flexibility Score: inf
ROOT
ATOM      1  C   UNL     1      -1.672  27.714  50.620  1.00  0.00     0.008 C 
ATOM      2  C   UNL     1      -1.832  26.507  51.556  1.00  0.00    -0.006 C 
ATOM      3  C   UNL     1      -3.291  26.301  52.000  1.00  0.00     0.008 C 
ATOM      4  C   UNL     1      -3.811  27.432  52.901  1.00  0.00     0.039 C 
ATOM      5  C   UNL     1      -2.865  27.759  54.049  1.00  0.00    -0.006 C 
ATOM      6  C   UNL     1      -3.337  28.237  55.238  1.00  0.00    -0.070 C 
ATOM      7  C   UNL     1      -4.813  28.478  55.456  1.00  0.00     0.039 C 
ATOM      8  C   UNL     1      -2.417  28.513  56.406  1.00  0.00     0.039 C 
ATOM      9  C   UNL     1      -1.406  27.642  53.758  1.00  0.00     0.159 C 
ATOM     10  O   UNL     1      -0.565  28.403  54.307  1.00  0.00    -0.295 OA
ATOM     11  C   UNL     1      -0.913  26.612  52.783  1.00  0.00     0.084 C 
ENDROOT
TORSDOF 0
ENDMDL
MODEL 5
REMARK VINA RESULT:    -3.907      8.282      9.690
REMARK INTER + INTRA:          -3.907
REMARK INTER:                  -3.907
REMARK INTRA:                   0.000
REMARK UNBOUND:                 0.000
REMARK SMILES CC(C)=C1CC[C@@H](C)CC1=O
REMARK SMILES IDX 8 1 7 2 6 3 5 4 4 5 2 6 1 7 3 8 10 9 11 10 9 11
REMARK H PARENT
REMARK Flexibility Score: inf
ROOT
ATOM      1  C   UNL     1      -3.625  31.623  58.793  1.00  0.00     0.008 C 
ATOM      2  C   UNL     1      -2.138  31.293  58.583  1.00  0.00    -0.006 C 
ATOM      3  C   UNL     1      -1.523  30.573  59.796  1.00  0.00     0.008 C 
ATOM      4  C   UNL     1      -1.444  31.463  61.046  1.00  0.00     0.039 C 
ATOM      5  C   UNL     1      -0.825  32.826  60.767  1.00  0.00    -0.006 C 
ATOM      6  C   UNL     1      -0.128  33.496  61.732  1.00  0.00    -0.070 C 
ATOM      7  C   UNL     1       0.041  32.920  63.119  1.00  0.00     0.039 C 
ATOM      8  C   UNL     1       0.541  34.823  61.455  1.00  0.00     0.039 C 
ATOM      9  C   UNL     1      -1.125  33.429  59.435  1.00  0.00     0.159 C 
ATOM     10  O   UNL     1      -1.232  34.676  59.290  1.00  0.00    -0.295 OA
ATOM     11  C   UNL     1      -1.320  32.546  58.237  1.00  0.00     0.084 C 
ENDROOT
TORSDOF 0
ENDMDL
MODEL 6
REMARK VINA RESULT:    -3.859      1.832      4.226
REMARK INTER + INTRA:          -3.859
REMARK INTER:                  -3.859
REMARK INTRA:                   0.000
REMARK UNBOUND:                 0.000
REMARK SMILES CC(C)=C1CC[C@@H](C)CC1=O
REMARK SMILES IDX 8 1 7 2 6 3 5 4 4 5 2 6 1 7 3 8 10 9 11 10 9 11
REMARK H PARENT
REMARK Flexibility Score: inf
ROOT
ATOM      1  C   UNL     1      -2.873  25.523  51.767  1.00  0.00     0.008 C 
ATOM      2  C   UNL     1      -1.557  26.306  51.639  1.00  0.00    -0.006 C 
ATOM      3  C   UNL     1      -0.925  26.614  53.007  1.00  0.00     0.008 C 
ATOM      4  C   UNL     1      -1.759  27.594  53.848  1.00  0.00     0.039 C 
ATOM      5  C   UNL     1      -2.173  28.838  53.073  1.00  0.00    -0.006 C 
ATOM      6  C   UNL     1      -2.358  30.034  53.706  1.00  0.00    -0.070 C 
ATOM      7  C   UNL     1      -2.177  30.167  55.201  1.00  0.00     0.039 C 
ATOM      8  C   UNL     1      -2.713  31.291  52.944  1.00  0.00     0.039 C 
ATOM      9  C   UNL     1      -2.477  28.645  51.625  1.00  0.00     0.159 C 
ATOM     10  O   UNL     1      -3.355  29.336  51.043  1.00  0.00    -0.295 OA
ATOM     11  C   UNL     1      -1.742  27.602  50.834  1.00  0.00     0.084 C 
ENDROOT
TORSDOF 0
ENDMDL
MODEL 7
REMARK VINA RESULT:    -3.840      1.571      3.815
REMARK INTER + INTRA:          -3.840
REMARK INTER:                  -3.840
REMARK INTRA:                   0.000
REMARK UNBOUND:                 0.000
REMARK SMILES CC(C)=C1CC[C@@H](C)CC1=O
REMARK SMILES IDX 8 1 7 2 6 3 5 4 4 5 2 6 1 7 3 8 10 9 11 10 9 11
REMARK H PARENT
REMARK Flexibility Score: inf
ROOT
ATOM      1  C   UNL     1       1.285  27.697  53.989  1.00  0.00     0.008 C 
ATOM      2  C   UNL     1       0.025  26.874  54.303  1.00  0.00    -0.006 C 
ATOM      3  C   UNL     1      -0.593  26.250  53.040  1.00  0.00     0.008 C 
ATOM      4  C   UNL     1      -1.170  27.296  52.072  1.00  0.00     0.039 C 
ATOM      5  C   UNL     1      -2.078  28.306  52.762  1.00  0.00    -0.006 C 
ATOM      6  C   UNL     1      -3.115  28.894  52.094  1.00  0.00    -0.070 C 
ATOM      7  C   UNL     1      -3.390  28.581  50.641  1.00  0.00     0.039 C 
ATOM      8  C   UNL     1      -4.059  29.855  52.779  1.00  0.00     0.039 C 
ATOM      9  C   UNL     1      -1.698  28.697  54.151  1.00  0.00     0.159 C 
ATOM     10  O   UNL     1      -1.920  29.858  54.588  1.00  0.00    -0.295 OA
ATOM     11  C   UNL     1      -1.026  27.705  55.055  1.00  0.00     0.084 C 
ENDROOT
TORSDOF 0
ENDMDL
MODEL 8
REMARK VINA RESULT:    -3.801      1.649      4.120
REMARK INTER + INTRA:          -3.801
REMARK INTER:                  -3.801
REMARK INTRA:                   0.000
REMARK UNBOUND:                 0.000
REMARK SMILES CC(C)=C1CC[C@@H](C)CC1=O
REMARK SMILES IDX 8 1 7 2 6 3 5 4 4 5 2 6 1 7 3 8 10 9 11 10 9 11
REMARK H PARENT
REMARK Flexibility Score: inf
ROOT
ATOM      1  C   UNL     1      -0.961  26.185  52.520  1.00  0.00     0.008 C 
ATOM      2  C   UNL     1      -2.098  26.660  51.601  1.00  0.00    -0.006 C 
ATOM      3  C   UNL     1      -1.683  27.861  50.733  1.00  0.00     0.008 C 
ATOM      4  C   UNL     1      -1.427  29.136  51.552  1.00  0.00     0.039 C 
ATOM      5  C   UNL     1      -2.552  29.449  52.530  1.00  0.00    -0.006 C 
ATOM      6  C   UNL     1      -2.839  30.737  52.885  1.00  0.00    -0.070 C 
ATOM      7  C   UNL     1      -2.042  31.898  52.337  1.00  0.00     0.039 C 
ATOM      8  C   UNL     1      -3.989  31.069  53.809  1.00  0.00     0.039 C 
ATOM      9  C   UNL     1      -3.228  28.277  53.157  1.00  0.00     0.159 C 
ATOM     10  O   UNL     1      -3.681  28.334  54.332  1.00  0.00    -0.295 OA
ATOM     11  C   UNL     1      -3.371  26.992  52.394  1.00  0.00     0.084 C 
ENDROOT
TORSDOF 0
ENDMDL
