MODEL 1
REMARK VINA RESULT:    -4.746      0.000      0.000
REMARK INTER + INTRA:          -8.884
REMARK INTER:                  -7.382
REMARK INTRA:                  -1.502
REMARK UNBOUND:                -1.502
REMARK SMILES COc1cc(CNC(=O)CCCCC=CC(C)C)ccc1O
REMARK SMILES IDX 11 1 12 2 13 3 14 4 15 5 16 6 17 7 18 8 10 9 8 10 9 11 7 12
REMARK SMILES IDX 6 14 5 15 4 16 19 17 3 18 20 19 21 20 2 21 1 22 22 23
REMARK H PARENT 7 13 22 24
REMARK Flexibility Score: inf
ROOT
ATOM      1  C   UNL     1    -101.089  -4.690  42.964  1.00  0.00     0.010 C 
ENDROOT
BRANCH   1   2
ATOM      2  C   UNL     1    -100.010  -3.945  43.767  1.00  0.00     0.005 C 
BRANCH   2   3
ATOM      3  C   UNL     1    -100.094  -2.421  43.602  1.00  0.00     0.027 C 
BRANCH   3   4
ATOM      4  C   UNL     1    -100.350  -1.749  44.921  1.00  0.00    -0.031 C 
ATOM      5  C   UNL     1    -100.272  -2.426  46.079  1.00  0.00    -0.028 C 
BRANCH   5   6
ATOM      6  C   UNL     1    -100.515  -1.781  47.424  1.00  0.00     0.005 C 
ATOM      7  C   UNL     1     -99.345  -0.877  47.825  1.00  0.00     0.012 C 
ATOM      8  C   UNL     1    -100.805  -2.828  48.505  1.00  0.00     0.012 C 
ENDBRANCH   5   6
ENDBRANCH   3   4
ENDBRANCH   2   3
ENDBRANCH   1   2
BRANCH   1   9
ATOM      9  C   UNL     1    -101.946  -5.616  43.833  1.00  0.00     0.100 C 
BRANCH   9  10
ATOM     10  C   UNL     1    -103.213  -4.929  44.243  1.00  0.00     0.220 C 
ATOM     11  O   UNL     1    -104.324  -5.420  43.904  1.00  0.00    -0.275 OA
ATOM     12  N   UNL     1    -103.160  -3.753  45.063  1.00  0.00    -0.352 N 
ATOM     13  H   UNL     1    -102.231  -3.404  45.389  1.00  0.00     0.163 HD
BRANCH  12  14
ATOM     14  C   UNL     1    -104.361  -3.033  45.481  1.00  0.00     0.151 C 
BRANCH  14  15
ATOM     15  C   UNL     1    -104.377  -2.861  46.975  1.00  0.00    -0.025 A 
ATOM     16  C   UNL     1    -104.188  -3.963  47.824  1.00  0.00     0.056 A 
ATOM     17  C   UNL     1    -104.608  -1.594  47.530  1.00  0.00     0.009 A 
ATOM     18  C   UNL     1    -104.220  -3.802  49.224  1.00  0.00     0.160 A 
ATOM     19  C   UNL     1    -104.644  -1.429  48.916  1.00  0.00     0.050 A 
ATOM     20  C   UNL     1    -104.450  -2.528  49.764  1.00  0.00     0.157 A 
BRANCH  18  21
ATOM     21  O   UNL     1    -104.030  -4.877  50.107  1.00  0.00    -0.493 OA
ATOM     22  C   UNL     1    -103.743  -6.213  49.704  1.00  0.00     0.278 C 
ENDBRANCH  18  21
BRANCH  20  23
ATOM     23  O   UNL     1    -104.484  -2.361  51.149  1.00  0.00    -0.504 OA
ATOM     24  H   UNL     1    -104.324  -3.136  51.783  1.00  0.00     0.293 HD
ENDBRANCH  20  23
ENDBRANCH  14  15
ENDBRANCH  12  14
ENDBRANCH   9  10
ENDBRANCH   1   9
TORSDOF 10
ENDMDL
MODEL 2
REMARK VINA RESULT:    -4.625      0.981      1.984
REMARK INTER + INTRA:          -8.696
REMARK INTER:                  -7.459
REMARK INTRA:                  -1.237
REMARK UNBOUND:                -1.502
REMARK SMILES COc1cc(CNC(=O)CCCCC=CC(C)C)ccc1O
REMARK SMILES IDX 11 1 12 2 13 3 14 4 15 5 16 6 17 7 18 8 10 9 8 10 9 11 7 12
REMARK SMILES IDX 6 14 5 15 4 16 19 17 3 18 20 19 21 20 2 21 1 22 22 23
REMARK H PARENT 7 13 22 24
REMARK Flexibility Score: inf
ROOT
ATOM      1  C   UNL     1    -101.198  -5.107  42.875  1.00  0.00     0.010 C 
ENDROOT
BRANCH   1   2
ATOM      2  C   UNL     1    -100.330  -4.218  43.781  1.00  0.00     0.005 C 
BRANCH   2   3
ATOM      3  C   UNL     1    -100.589  -2.720  43.566  1.00  0.00     0.027 C 
BRANCH   3   4
ATOM      4  C   UNL     1    -100.455  -1.960  44.855  1.00  0.00    -0.031 C 
ATOM      5  C   UNL     1    -100.594  -2.569  46.045  1.00  0.00    -0.028 C 
BRANCH   5   6
ATOM      6  C   UNL     1    -100.459  -1.837  47.361  1.00  0.00     0.005 C 
ATOM      7  C   UNL     1     -99.145  -1.053  47.427  1.00  0.00     0.012 C 
ATOM      8  C   UNL     1    -100.597  -2.792  48.551  1.00  0.00     0.012 C 
ENDBRANCH   5   6
ENDBRANCH   3   4
ENDBRANCH   2   3
ENDBRANCH   1   2
BRANCH   1   9
ATOM      9  C   UNL     1    -102.010  -6.143  43.659  1.00  0.00     0.100 C 
BRANCH   9  10
ATOM     10  C   UNL     1    -103.328  -5.568  44.081  1.00  0.00     0.220 C 
ATOM     11  O   UNL     1    -104.397  -6.079  43.649  1.00  0.00    -0.275 OA
ATOM     12  N   UNL     1    -103.370  -4.480  45.017  1.00  0.00    -0.352 N 
ATOM     13  H   UNL     1    -102.474  -4.118  45.414  1.00  0.00     0.163 HD
BRANCH  12  14
ATOM     14  C   UNL     1    -104.624  -3.869  45.453  1.00  0.00     0.151 C 
BRANCH  14  15
ATOM     15  C   UNL     1    -104.568  -3.549  46.921  1.00  0.00    -0.025 A 
ATOM     16  C   UNL     1    -105.228  -2.420  47.433  1.00  0.00     0.056 A 
ATOM     17  C   UNL     1    -103.830  -4.368  47.788  1.00  0.00     0.009 A 
ATOM     18  C   UNL     1    -105.160  -2.113  48.807  1.00  0.00     0.160 A 
ATOM     19  C   UNL     1    -103.756  -4.067  49.149  1.00  0.00     0.050 A 
ATOM     20  C   UNL     1    -104.419  -2.943  49.661  1.00  0.00     0.157 A 
BRANCH  18  21
ATOM     21  O   UNL     1    -105.810  -0.997  49.359  1.00  0.00    -0.493 OA
ATOM     22  C   UNL     1    -107.193  -0.953  49.698  1.00  0.00     0.278 C 
ENDBRANCH  18  21
BRANCH  20  23
ATOM     23  O   UNL     1    -104.346  -2.645  51.023  1.00  0.00    -0.504 OA
ATOM     24  H   UNL     1    -105.008  -2.018  51.466  1.00  0.00     0.293 HD
ENDBRANCH  20  23
ENDBRANCH  14  15
ENDBRANCH  12  14
ENDBRANCH   9  10
ENDBRANCH   1   9
TORSDOF 10
ENDMDL
MODEL 3
REMARK VINA RESULT:    -4.399     12.665     14.859
REMARK INTER + INTRA:          -8.344
REMARK INTER:                  -7.501
REMARK INTRA:                  -0.843
REMARK UNBOUND:                -1.502
REMARK SMILES COc1cc(CNC(=O)CCCCC=CC(C)C)ccc1O
REMARK SMILES IDX 11 1 12 2 13 3 14 4 15 5 16 6 17 7 18 8 10 9 8 10 9 11 7 12
REMARK SMILES IDX 6 14 5 15 4 16 19 17 3 18 20 19 21 20 2 21 1 22 22 23
REMARK H PARENT 7 13 22 24
REMARK Flexibility Score: inf
ROOT
ATOM      1  C   UNL     1    -106.509 -18.406  49.030  1.00  0.00     0.010 C 
ENDROOT
BRANCH   1   2
ATOM      2  C   UNL     1    -107.197 -18.857  47.732  1.00  0.00     0.005 C 
BRANCH   2   3
ATOM      3  C   UNL     1    -108.570 -18.201  47.529  1.00  0.00     0.027 C 
BRANCH   3   4
ATOM      4  C   UNL     1    -108.461 -16.978  46.663  1.00  0.00    -0.031 C 
ATOM      5  C   UNL     1    -108.265 -17.075  45.338  1.00  0.00    -0.028 C 
BRANCH   5   6
ATOM      6  C   UNL     1    -108.157 -15.867  44.435  1.00  0.00     0.005 C 
ATOM      7  C   UNL     1    -106.732 -15.307  44.424  1.00  0.00     0.012 C 
ATOM      8  C   UNL     1    -109.176 -14.788  44.818  1.00  0.00     0.012 C 
ENDBRANCH   5   6
ENDBRANCH   3   4
ENDBRANCH   2   3
ENDBRANCH   1   2
BRANCH   1   9
ATOM      9  C   UNL     1    -106.836 -19.310  50.223  1.00  0.00     0.100 C 
BRANCH   9  10
ATOM     10  C   UNL     1    -107.779 -18.620  51.162  1.00  0.00     0.220 C 
ATOM     11  O   UNL     1    -108.119 -19.193  52.233  1.00  0.00    -0.275 OA
ATOM     12  N   UNL     1    -108.242 -17.294  50.870  1.00  0.00    -0.352 N 
ATOM     13  H   UNL     1    -107.892 -16.812  50.012  1.00  0.00     0.163 HD
BRANCH  12  14
ATOM     14  C   UNL     1    -109.173 -16.578  51.741  1.00  0.00     0.151 C 
BRANCH  14  15
ATOM     15  C   UNL     1    -108.484 -15.418  52.404  1.00  0.00    -0.025 A 
ATOM     16  C   UNL     1    -109.073 -14.766  53.499  1.00  0.00     0.056 A 
ATOM     17  C   UNL     1    -107.252 -14.962  51.911  1.00  0.00     0.009 A 
ATOM     18  C   UNL     1    -108.432 -13.668  54.108  1.00  0.00     0.160 A 
ATOM     19  C   UNL     1    -106.614 -13.872  52.509  1.00  0.00     0.050 A 
ATOM     20  C   UNL     1    -107.200 -13.225  53.605  1.00  0.00     0.157 A 
BRANCH  18  21
ATOM     21  O   UNL     1    -108.986 -12.993  55.207  1.00  0.00    -0.493 OA
ATOM     22  C   UNL     1    -110.113 -12.124  55.140  1.00  0.00     0.278 C 
ENDBRANCH  18  21
BRANCH  20  23
ATOM     23  O   UNL     1    -106.561 -12.138  54.202  1.00  0.00    -0.504 OA
ATOM     24  H   UNL     1    -105.868 -11.590  53.705  1.00  0.00     0.293 HD
ENDBRANCH  20  23
ENDBRANCH  14  15
ENDBRANCH  12  14
ENDBRANCH   9  10
ENDBRANCH   1   9
TORSDOF 10
ENDMDL
MODEL 4
REMARK VINA RESULT:    -4.359     13.293     15.694
REMARK INTER + INTRA:          -8.282
REMARK INTER:                  -6.919
REMARK INTRA:                  -1.363
REMARK UNBOUND:                -1.502
REMARK SMILES COc1cc(CNC(=O)CCCCC=CC(C)C)ccc1O
REMARK SMILES IDX 11 1 12 2 13 3 14 4 15 5 16 6 17 7 18 8 10 9 8 10 9 11 7 12
REMARK SMILES IDX 6 14 5 15 4 16 19 17 3 18 20 19 21 20 2 21 1 22 22 23
REMARK H PARENT 7 13 22 24
REMARK Flexibility Score: inf
ROOT
ATOM      1  C   UNL     1    -107.016 -19.848  51.391  1.00  0.00     0.010 C 
ENDROOT
BRANCH   1   2
ATOM      2  C   UNL     1    -106.551 -19.982  49.932  1.00  0.00     0.005 C 
BRANCH   2   3
ATOM      3  C   UNL     1    -106.069 -18.650  49.339  1.00  0.00     0.027 C 
BRANCH   3   4
ATOM      4  C   UNL     1    -107.209 -17.894  48.717  1.00  0.00    -0.031 C 
ATOM      5  C   UNL     1    -108.167 -18.524  48.017  1.00  0.00    -0.028 C 
BRANCH   5   6
ATOM      6  C   UNL     1    -109.331 -17.796  47.384  1.00  0.00     0.005 C 
ATOM      7  C   UNL     1    -108.849 -16.705  46.424  1.00  0.00     0.012 C 
ATOM      8  C   UNL     1    -110.279 -17.225  48.444  1.00  0.00     0.012 C 
ENDBRANCH   5   6
ENDBRANCH   3   4
ENDBRANCH   2   3
ENDBRANCH   1   2
BRANCH   1   9
ATOM      9  C   UNL     1    -108.482 -20.249  51.589  1.00  0.00     0.100 C 
BRANCH   9  10
ATOM     10  C   UNL     1    -109.356 -19.033  51.644  1.00  0.00     0.220 C 
ATOM     11  O   UNL     1    -110.594 -19.148  51.433  1.00  0.00    -0.275 OA
ATOM     12  N   UNL     1    -108.795 -17.760  51.991  1.00  0.00    -0.352 N 
ATOM     13  H   UNL     1    -107.779 -17.701  52.229  1.00  0.00     0.163 HD
BRANCH  12  14
ATOM     14  C   UNL     1    -109.595 -16.538  52.046  1.00  0.00     0.151 C 
BRANCH  14  15
ATOM     15  C   UNL     1    -108.778 -15.399  52.589  1.00  0.00    -0.025 A 
ATOM     16  C   UNL     1    -109.253 -14.624  53.660  1.00  0.00     0.056 A 
ATOM     17  C   UNL     1    -107.539 -15.088  52.009  1.00  0.00     0.009 A 
ATOM     18  C   UNL     1    -108.491 -13.547  54.156  1.00  0.00     0.160 A 
ATOM     19  C   UNL     1    -106.782 -14.020  52.495  1.00  0.00     0.050 A 
ATOM     20  C   UNL     1    -107.253 -13.250  53.567  1.00  0.00     0.157 A 
BRANCH  18  21
ATOM     21  O   UNL     1    -108.927 -12.752  55.228  1.00  0.00    -0.493 OA
ATOM     22  C   UNL     1    -110.152 -12.024  55.248  1.00  0.00     0.278 C 
ENDBRANCH  18  21
BRANCH  20  23
ATOM     23  O   UNL     1    -106.495 -12.184  54.052  1.00  0.00    -0.504 OA
ATOM     24  H   UNL     1    -106.666 -11.782  54.966  1.00  0.00     0.293 HD
ENDBRANCH  20  23
ENDBRANCH  14  15
ENDBRANCH  12  14
ENDBRANCH   9  10
ENDBRANCH   1   9
TORSDOF 10
ENDMDL
MODEL 5
REMARK VINA RESULT:    -4.358     12.777     15.699
REMARK INTER + INTRA:          -8.281
REMARK INTER:                  -6.616
REMARK INTRA:                  -1.664
REMARK UNBOUND:                -1.502
REMARK SMILES COc1cc(CNC(=O)CCCCC=CC(C)C)ccc1O
REMARK SMILES IDX 11 1 12 2 13 3 14 4 15 5 16 6 17 7 18 8 10 9 8 10 9 11 7 12
REMARK SMILES IDX 6 14 5 15 4 16 19 17 3 18 20 19 21 20 2 21 1 22 22 23
REMARK H PARENT 7 13 22 24
REMARK Flexibility Score: inf
ROOT
ATOM      1  C   UNL     1    -107.949 -18.972  51.979  1.00  0.00     0.010 C 
ENDROOT
BRANCH   1   2
ATOM      2  C   UNL     1    -108.206 -17.775  51.050  1.00  0.00     0.005 C 
BRANCH   2   3
ATOM      3  C   UNL     1    -106.909 -17.131  50.540  1.00  0.00     0.027 C 
BRANCH   3   4
ATOM      4  C   UNL     1    -106.705 -15.774  51.151  1.00  0.00    -0.031 C 
ATOM      5  C   UNL     1    -107.601 -15.246  52.001  1.00  0.00    -0.028 C 
BRANCH   5   6
ATOM      6  C   UNL     1    -107.424 -13.887  52.640  1.00  0.00     0.005 C 
ATOM      7  C   UNL     1    -106.094 -13.250  52.228  1.00  0.00     0.012 C 
ATOM      8  C   UNL     1    -107.556 -13.963  54.165  1.00  0.00     0.012 C 
ENDBRANCH   5   6
ENDBRANCH   3   4
ENDBRANCH   2   3
ENDBRANCH   1   2
BRANCH   1   9
ATOM      9  C   UNL     1    -109.178 -19.873  52.145  1.00  0.00     0.100 C 
BRANCH   9  10
ATOM     10  C   UNL     1    -110.329 -19.092  52.704  1.00  0.00     0.220 C 
ATOM     11  O   UNL     1    -111.493 -19.304  52.268  1.00  0.00    -0.275 OA
ATOM     12  N   UNL     1    -110.113 -18.155  53.768  1.00  0.00    -0.352 N 
ATOM     13  H   UNL     1    -109.151 -18.046  54.160  1.00  0.00     0.163 HD
BRANCH  12  14
ATOM     14  C   UNL     1    -111.194 -17.355  54.341  1.00  0.00     0.151 C 
BRANCH  14  15
ATOM     15  C   UNL     1    -111.148 -15.951  53.805  1.00  0.00    -0.025 A 
ATOM     16  C   UNL     1    -111.132 -14.852  54.678  1.00  0.00     0.056 A 
ATOM     17  C   UNL     1    -111.148 -15.732  52.420  1.00  0.00     0.009 A 
ATOM     18  C   UNL     1    -111.106 -13.536  54.172  1.00  0.00     0.160 A 
ATOM     19  C   UNL     1    -111.125 -14.430  51.913  1.00  0.00     0.050 A 
ATOM     20  C   UNL     1    -111.103 -13.333  52.785  1.00  0.00     0.157 A 
BRANCH  18  21
ATOM     21  O   UNL     1    -111.084 -12.411  55.011  1.00  0.00    -0.493 OA
ATOM     22  C   UNL     1    -109.901 -11.824  55.545  1.00  0.00     0.278 C 
ENDBRANCH  18  21
BRANCH  20  23
ATOM     23  O   UNL     1    -111.080 -12.034  52.276  1.00  0.00    -0.504 OA
ATOM     24  H   UNL     1    -110.704 -11.829  51.358  1.00  0.00     0.293 HD
ENDBRANCH  20  23
ENDBRANCH  14  15
ENDBRANCH  12  14
ENDBRANCH   9  10
ENDBRANCH   1   9
TORSDOF 10
ENDMDL
MODEL 6
REMARK VINA RESULT:    -4.234     13.390     15.256
REMARK INTER + INTRA:          -8.088
REMARK INTER:                  -6.686
REMARK INTRA:                  -1.402
REMARK UNBOUND:                -1.502
REMARK SMILES COc1cc(CNC(=O)CCCCC=CC(C)C)ccc1O
REMARK SMILES IDX 11 1 12 2 13 3 14 4 15 5 16 6 17 7 18 8 10 9 8 10 9 11 7 12
REMARK SMILES IDX 6 14 5 15 4 16 19 17 3 18 20 19 21 20 2 21 1 22 22 23
REMARK H PARENT 7 13 22 24
REMARK Flexibility Score: inf
ROOT
ATOM      1  C   UNL     1    -111.303 -17.529  47.446  1.00  0.00     0.010 C 
ENDROOT
BRANCH   1   2
ATOM      2  C   UNL     1    -109.999 -16.856  46.989  1.00  0.00     0.005 C 
BRANCH   2   3
ATOM      3  C   UNL     1    -109.049 -17.829  46.275  1.00  0.00     0.027 C 
BRANCH   3   4
ATOM      4  C   UNL     1    -107.999 -18.345  47.217  1.00  0.00    -0.031 C 
ATOM      5  C   UNL     1    -107.610 -17.635  48.289  1.00  0.00    -0.028 C 
BRANCH   5   6
ATOM      6  C   UNL     1    -106.562 -18.127  49.262  1.00  0.00     0.005 C 
ATOM      7  C   UNL     1    -107.206 -18.803  50.476  1.00  0.00     0.012 C 
ATOM      8  C   UNL     1    -105.618 -16.998  49.689  1.00  0.00     0.012 C 
ENDBRANCH   5   6
ENDBRANCH   3   4
ENDBRANCH   2   3
ENDBRANCH   1   2
BRANCH   1   9
ATOM      9  C   UNL     1    -111.855 -16.938  48.747  1.00  0.00     0.100 C 
BRANCH   9  10
ATOM     10  C   UNL     1    -111.043 -17.398  49.920  1.00  0.00     0.220 C 
ATOM     11  O   UNL     1    -110.748 -18.619  50.030  1.00  0.00    -0.275 OA
ATOM     12  N   UNL     1    -110.558 -16.446  50.877  1.00  0.00    -0.352 N 
ATOM     13  H   UNL     1    -110.757 -15.431  50.728  1.00  0.00     0.163 HD
BRANCH  12  14
ATOM     14  C   UNL     1    -109.775 -16.839  52.047  1.00  0.00     0.151 C 
BRANCH  14  15
ATOM     15  C   UNL     1    -108.935 -15.687  52.526  1.00  0.00    -0.025 A 
ATOM     16  C   UNL     1    -109.329 -14.928  53.639  1.00  0.00     0.056 A 
ATOM     17  C   UNL     1    -107.758 -15.349  51.843  1.00  0.00     0.009 A 
ATOM     18  C   UNL     1    -108.548 -13.839  54.076  1.00  0.00     0.160 A 
ATOM     19  C   UNL     1    -106.982 -14.269  52.269  1.00  0.00     0.050 A 
ATOM     20  C   UNL     1    -107.372 -13.515  53.384  1.00  0.00     0.157 A 
BRANCH  18  21
ATOM     21  O   UNL     1    -108.904 -13.059  55.187  1.00  0.00    -0.493 OA
ATOM     22  C   UNL     1    -109.891 -12.031  55.171  1.00  0.00     0.278 C 
ENDBRANCH  18  21
BRANCH  20  23
ATOM     23  O   UNL     1    -106.594 -12.437  53.809  1.00  0.00    -0.504 OA
ATOM     24  H   UNL     1    -105.746 -12.573  54.346  1.00  0.00     0.293 HD
ENDBRANCH  20  23
ENDBRANCH  14  15
ENDBRANCH  12  14
ENDBRANCH   9  10
ENDBRANCH   1   9
TORSDOF 10
ENDMDL
MODEL 7
REMARK VINA RESULT:    -4.215     13.048     16.643
REMARK INTER + INTRA:          -8.058
REMARK INTER:                  -6.585
REMARK INTRA:                  -1.473
REMARK UNBOUND:                -1.502
REMARK SMILES COc1cc(CNC(=O)CCCCC=CC(C)C)ccc1O
REMARK SMILES IDX 11 1 12 2 13 3 14 4 15 5 16 6 17 7 18 8 10 9 8 10 9 11 7 12
REMARK SMILES IDX 6 14 5 15 4 16 19 17 3 18 20 19 21 20 2 21 1 22 22 23
REMARK H PARENT 7 13 22 24
REMARK Flexibility Score: inf
ROOT
ATOM      1  C   UNL     1    -110.661 -16.216  55.085  1.00  0.00     0.010 C 
ENDROOT
BRANCH   1   2
ATOM      2  C   UNL     1    -110.975 -14.830  54.499  1.00  0.00     0.005 C 
BRANCH   2   3
ATOM      3  C   UNL     1    -110.583 -14.710  53.019  1.00  0.00     0.027 C 
BRANCH   3   4
ATOM      4  C   UNL     1    -109.269 -13.997  52.866  1.00  0.00    -0.031 C 
ATOM      5  C   UNL     1    -108.172 -14.401  53.529  1.00  0.00    -0.028 C 
BRANCH   5   6
ATOM      6  C   UNL     1    -106.833 -13.713  53.394  1.00  0.00     0.005 C 
ATOM      7  C   UNL     1    -106.730 -12.507  54.333  1.00  0.00     0.012 C 
ATOM      8  C   UNL     1    -106.553 -13.311  51.941  1.00  0.00     0.012 C 
ENDBRANCH   5   6
ENDBRANCH   3   4
ENDBRANCH   2   3
ENDBRANCH   1   2
BRANCH   1   9
ATOM      9  C   UNL     1    -111.779 -17.235  54.837  1.00  0.00     0.100 C 
BRANCH   9  10
ATOM     10  C   UNL     1    -111.393 -18.182  53.742  1.00  0.00     0.220 C 
ATOM     11  O   UNL     1    -112.292 -18.717  53.039  1.00  0.00    -0.275 OA
ATOM     12  N   UNL     1    -110.008 -18.429  53.460  1.00  0.00    -0.352 N 
ATOM     13  H   UNL     1    -109.280 -17.922  54.011  1.00  0.00     0.163 HD
BRANCH  12  14
ATOM     14  C   UNL     1    -109.573 -19.354  52.415  1.00  0.00     0.151 C 
BRANCH  14  15
ATOM     15  C   UNL     1    -108.519 -18.714  51.555  1.00  0.00    -0.025 A 
ATOM     16  C   UNL     1    -107.621 -19.502  50.818  1.00  0.00     0.056 A 
ATOM     17  C   UNL     1    -108.412 -17.316  51.504  1.00  0.00     0.009 A 
ATOM     18  C   UNL     1    -106.624 -18.899  50.025  1.00  0.00     0.160 A 
ATOM     19  C   UNL     1    -107.423 -16.714  50.723  1.00  0.00     0.050 A 
ATOM     20  C   UNL     1    -106.530 -17.500  49.983  1.00  0.00     0.157 A 
BRANCH  18  21
ATOM     21  O   UNL     1    -105.710 -19.652  49.269  1.00  0.00    -0.493 OA
ATOM     22  C   UNL     1    -105.958 -20.141  47.954  1.00  0.00     0.278 C 
ENDBRANCH  18  21
BRANCH  20  23
ATOM     23  O   UNL     1    -105.544 -16.897  49.202  1.00  0.00    -0.504 OA
ATOM     24  H   UNL     1    -104.835 -16.299  49.610  1.00  0.00     0.293 HD
ENDBRANCH  20  23
ENDBRANCH  14  15
ENDBRANCH  12  14
ENDBRANCH   9  10
ENDBRANCH   1   9
TORSDOF 10
ENDMDL
MODEL 8
REMARK VINA RESULT:    -4.206     12.132     14.737
REMARK INTER + INTRA:          -8.044
REMARK INTER:                  -7.291
REMARK INTRA:                  -0.753
REMARK UNBOUND:                -1.502
REMARK SMILES COc1cc(CNC(=O)CCCCC=CC(C)C)ccc1O
REMARK SMILES IDX 11 1 12 2 13 3 14 4 15 5 16 6 17 7 18 8 10 9 8 10 9 11 7 12
REMARK SMILES IDX 6 14 5 15 4 16 19 17 3 18 20 19 21 20 2 21 1 22 22 23
REMARK H PARENT 7 13 22 24
REMARK Flexibility Score: inf
ROOT
ATOM      1  C   UNL     1    -106.957 -17.642  49.142  1.00  0.00     0.010 C 
ENDROOT
BRANCH   1   2
ATOM      2  C   UNL     1    -107.614 -18.248  47.892  1.00  0.00     0.005 C 
BRANCH   2   3
ATOM      3  C   UNL     1    -108.690 -17.336  47.286  1.00  0.00     0.027 C 
BRANCH   3   4
ATOM      4  C   UNL     1    -108.133 -16.529  46.148  1.00  0.00    -0.031 C 
ATOM      5  C   UNL     1    -108.933 -15.810  45.343  1.00  0.00    -0.028 C 
BRANCH   5   6
ATOM      6  C   UNL     1    -108.406 -14.981  44.193  1.00  0.00     0.005 C 
ATOM      7  C   UNL     1    -106.910 -15.224  43.972  1.00  0.00     0.012 C 
ATOM      8  C   UNL     1    -108.704 -13.491  44.394  1.00  0.00     0.012 C 
ENDBRANCH   5   6
ENDBRANCH   3   4
ENDBRANCH   2   3
ENDBRANCH   1   2
BRANCH   1   9
ATOM      9  C   UNL     1    -106.932 -18.609  50.331  1.00  0.00     0.100 C 
BRANCH   9  10
ATOM     10  C   UNL     1    -108.064 -18.317  51.269  1.00  0.00     0.220 C 
ATOM     11  O   UNL     1    -108.269 -19.080  52.251  1.00  0.00    -0.275 OA
ATOM     12  N   UNL     1    -108.868 -17.143  51.082  1.00  0.00    -0.352 N 
ATOM     13  H   UNL     1    -108.635 -16.489  50.302  1.00  0.00     0.163 HD
BRANCH  12  14
ATOM     14  C   UNL     1    -109.993 -16.816  51.955  1.00  0.00     0.151 C 
BRANCH  14  15
ATOM     15  C   UNL     1    -109.706 -15.560  52.731  1.00  0.00    -0.025 A 
ATOM     16  C   UNL     1    -108.395 -15.069  52.839  1.00  0.00     0.056 A 
ATOM     17  C   UNL     1    -110.752 -14.882  53.374  1.00  0.00     0.009 A 
ATOM     18  C   UNL     1    -108.128 -13.900  53.580  1.00  0.00     0.160 A 
ATOM     19  C   UNL     1    -110.492 -13.725  54.113  1.00  0.00     0.050 A 
ATOM     20  C   UNL     1    -109.184 -13.232  54.217  1.00  0.00     0.157 A 
BRANCH  18  21
ATOM     21  O   UNL     1    -106.832 -13.374  53.708  1.00  0.00    -0.493 OA
ATOM     22  C   UNL     1    -106.024 -12.940  52.618  1.00  0.00     0.278 C 
ENDBRANCH  18  21
BRANCH  20  23
ATOM     23  O   UNL     1    -108.927 -12.075  54.953  1.00  0.00    -0.504 OA
ATOM     24  H   UNL     1    -109.380 -11.195  54.737  1.00  0.00     0.293 HD
ENDBRANCH  20  23
ENDBRANCH  14  15
ENDBRANCH  12  14
ENDBRANCH   9  10
ENDBRANCH   1   9
TORSDOF 10
ENDMDL
MODEL 9
REMARK VINA RESULT:    -4.086     14.042     16.470
REMARK INTER + INTRA:          -7.858
REMARK INTER:                  -6.227
REMARK INTRA:                  -1.631
REMARK UNBOUND:                -1.502
REMARK SMILES COc1cc(CNC(=O)CCCCC=CC(C)C)ccc1O
REMARK SMILES IDX 11 1 12 2 13 3 14 4 15 5 16 6 17 7 18 8 10 9 8 10 9 11 7 12
REMARK SMILES IDX 6 14 5 15 4 16 19 17 3 18 20 19 21 20 2 21 1 22 22 23
REMARK H PARENT 7 13 22 24
REMARK Flexibility Score: inf
ROOT
ATOM      1  C   UNL     1    -112.164 -18.727  50.158  1.00  0.00     0.010 C 
ENDROOT
BRANCH   1   2
ATOM      2  C   UNL     1    -110.712 -18.710  49.655  1.00  0.00     0.005 C 
BRANCH   2   3
ATOM      3  C   UNL     1    -110.338 -17.389  48.968  1.00  0.00     0.027 C 
BRANCH   3   4
ATOM      4  C   UNL     1    -108.864 -17.327  48.684  1.00  0.00    -0.031 C 
ATOM      5  C   UNL     1    -108.000 -18.166  49.281  1.00  0.00    -0.028 C 
BRANCH   5   6
ATOM      6  C   UNL     1    -106.513 -18.137  49.013  1.00  0.00     0.005 C 
ATOM      7  C   UNL     1    -105.861 -19.479  49.358  1.00  0.00     0.012 C 
ATOM      8  C   UNL     1    -105.832 -16.981  49.754  1.00  0.00     0.012 C 
ENDBRANCH   5   6
ENDBRANCH   3   4
ENDBRANCH   2   3
ENDBRANCH   1   2
BRANCH   1   9
ATOM      9  C   UNL     1    -112.369 -19.662  51.354  1.00  0.00     0.100 C 
BRANCH   9  10
ATOM     10  C   UNL     1    -111.517 -19.233  52.510  1.00  0.00     0.220 C 
ATOM     11  O   UNL     1    -110.679 -20.040  52.997  1.00  0.00    -0.275 OA
ATOM     12  N   UNL     1    -111.614 -17.895  53.017  1.00  0.00    -0.352 N 
ATOM     13  H   UNL     1    -112.266 -17.223  52.553  1.00  0.00     0.163 HD
BRANCH  12  14
ATOM     14  C   UNL     1    -110.820 -17.425  54.150  1.00  0.00     0.151 C 
BRANCH  14  15
ATOM     15  C   UNL     1    -109.859 -16.356  53.710  1.00  0.00    -0.025 A 
ATOM     16  C   UNL     1    -109.674 -15.198  54.482  1.00  0.00     0.056 A 
ATOM     17  C   UNL     1    -109.158 -16.500  52.504  1.00  0.00     0.009 A 
ATOM     18  C   UNL     1    -108.785 -14.189  54.058  1.00  0.00     0.160 A 
ATOM     19  C   UNL     1    -108.278 -15.503  52.077  1.00  0.00     0.050 A 
ATOM     20  C   UNL     1    -108.089 -14.349  52.851  1.00  0.00     0.157 A 
BRANCH  18  21
ATOM     21  O   UNL     1    -108.567 -13.020  54.803  1.00  0.00    -0.493 OA
ATOM     22  C   UNL     1    -109.592 -12.119  55.211  1.00  0.00     0.278 C 
ENDBRANCH  18  21
BRANCH  20  23
ATOM     23  O   UNL     1    -107.208 -13.355  52.424  1.00  0.00    -0.504 OA
ATOM     24  H   UNL     1    -106.263 -13.291  52.783  1.00  0.00     0.293 HD
ENDBRANCH  20  23
ENDBRANCH  14  15
ENDBRANCH  12  14
ENDBRANCH   9  10
ENDBRANCH   1   9
TORSDOF 10
ENDMDL
