MODEL 1
REMARK VINA RESULT:    -0.161      0.000      0.000
REMARK INTER + INTRA:          -1.396
REMARK INTER:                  -0.166
REMARK INTRA:                  -1.230
REMARK UNBOUND:                -1.230
REMARK SMILES COC(=O)C1=CO[C@H](O[C@H]2O[C@H](CO)[C@@H](O)[C@@H](O)[C@H]2O)[C@H]2C(CO)=CC[C@@H]12
REMARK SMILES IDX 9 1 8 2 5 3 6 4 27 5 7 6 21 7 26 8 22 9 25 10 3 11 4 12 2 13
REMARK SMILES IDX 1 14 23 15 24 16 10 18 19 19 11 20 17 21 12 22 15 23 20 24
REMARK SMILES IDX 18 26 13 28 14 29 16 31
REMARK H PARENT 24 17 20 25 18 27 14 30 16 32
REMARK Flexibility Score: inf
ROOT
ATOM      1  O   UNL     1      27.427  29.240  48.676  1.00  0.00    -0.310 OA
ENDROOT
BRANCH   1   2
ATOM      2  C   UNL     1      25.717  28.759  48.231  1.00  0.00     0.316 C 
ATOM      3  C   UNL     1      23.291  26.050  46.875  1.00  0.00     0.076 C 
ATOM      4  C   UNL     1      23.028  28.169  46.999  1.00  0.00     0.202 C 
ATOM      5  C   UNL     1      25.878  26.487  47.408  1.00  0.00     0.047 C 
ATOM      6  O   UNL     1      23.834  29.494  48.315  1.00  0.00    -0.471 OA
ATOM      7  C   UNL     1      25.930  28.095  46.920  1.00  0.00     0.094 C 
ATOM      8  C   UNL     1      28.557  26.613  48.374  1.00  0.00     0.037 C 
ATOM      9  C   UNL     1      25.944  29.678  46.940  1.00  0.00    -0.039 C 
ATOM     10  C   UNL     1      28.660  27.533  46.925  1.00  0.00    -0.024 C 
BRANCH   3  11
ATOM     11  C   UNL     1      21.886  25.641  48.180  1.00  0.00     0.337 C 
ATOM     12  O   UNL     1      20.878  24.450  47.837  1.00  0.00    -0.246 OA
BRANCH  11  13
ATOM     13  O   UNL     1      22.449  25.249  49.596  1.00  0.00    -0.466 OA
ATOM     14  C   UNL     1      23.508  26.672  50.511  1.00  0.00     0.282 C 
ENDBRANCH  11  13
ENDBRANCH   3  11
BRANCH   9  15
ATOM     15  C   UNL     1      22.901  32.601  47.489  1.00  0.00     0.187 C 
BRANCH  15  16
ATOM     16  O   UNL     1      20.596  34.700  48.106  1.00  0.00    -0.392 OA
ATOM     17  H   UNL     1      18.227  35.761  48.418  1.00  0.00     0.211 HD
ENDBRANCH  15  16
ENDBRANCH   9  15
ENDBRANCH   1   2
BRANCH   1  18
ATOM     18  C   UNL     1      28.705  30.384  49.443  1.00  0.00     0.286 C 
ATOM     19  C   UNL     1      30.493  30.231  50.445  1.00  0.00     0.202 C 
ATOM     20  O   UNL     1      28.502  29.798  50.664  1.00  0.00    -0.341 OA
ATOM     21  C   UNL     1      29.855  28.677  52.283  1.00  0.00     0.179 C 
ATOM     22  C   UNL     1      28.614  30.119  52.155  1.00  0.00     0.178 C 
ATOM     23  C   UNL     1      27.530  28.768  52.673  1.00  0.00     0.177 C 
BRANCH  19  24
ATOM     24  O   UNL     1      31.210  29.475  49.115  1.00  0.00    -0.385 OA
ATOM     25  H   UNL     1      30.833  30.064  50.153  1.00  0.00     0.211 HD
ENDBRANCH  19  24
BRANCH  21  26
ATOM     26  O   UNL     1      30.492  27.513  52.011  1.00  0.00    -0.387 OA
ATOM     27  H   UNL     1      31.444  27.201  52.148  1.00  0.00     0.211 HD
ENDBRANCH  21  26
BRANCH  22  28
ATOM     28  C   UNL     1      30.723  30.935  52.835  1.00  0.00     0.191 C 
BRANCH  28  29
ATOM     29  O   UNL     1      30.876  33.241  52.371  1.00  0.00    -0.394 OA
ATOM     30  H   UNL     1      31.551  34.854  52.114  1.00  0.00     0.210 HD
ENDBRANCH  28  29
ENDBRANCH  22  28
BRANCH  23  31
ATOM     31  O   UNL     1      27.143  27.947  51.321  1.00  0.00    -0.387 OA
ATOM     32  H   UNL     1      26.701  27.580  50.311  1.00  0.00     0.211 HD
ENDBRANCH  23  31
ENDBRANCH   1  18
TORSDOF 11
ENDMDL
MODEL 2
REMARK VINA RESULT:    -0.133      3.670      8.267
REMARK INTER + INTRA:          -1.367
REMARK INTER:                  -0.137
REMARK INTRA:                  -1.231
REMARK UNBOUND:                -1.230
REMARK SMILES COC(=O)C1=CO[C@H](O[C@H]2O[C@H](CO)[C@@H](O)[C@@H](O)[C@H]2O)[C@H]2C(CO)=CC[C@@H]12
REMARK SMILES IDX 9 1 8 2 5 3 6 4 27 5 7 6 21 7 26 8 22 9 25 10 3 11 4 12 2 13
REMARK SMILES IDX 1 14 23 15 24 16 10 18 19 19 11 20 17 21 12 22 15 23 20 24
REMARK SMILES IDX 18 26 13 28 14 29 16 31
REMARK H PARENT 24 17 20 25 18 27 14 30 16 32
REMARK Flexibility Score: inf
ROOT
ATOM      1  O   UNL     1      26.086  27.918  50.769  1.00  0.00    -0.310 OA
ENDROOT
BRANCH   1   2
ATOM      2  C   UNL     1      25.934  28.456  52.513  1.00  0.00     0.316 C 
ATOM      3  C   UNL     1      25.303  31.331  55.043  1.00  0.00     0.076 C 
ATOM      4  C   UNL     1      26.231  29.430  55.352  1.00  0.00     0.202 C 
ATOM      5  C   UNL     1      25.504  30.837  52.419  1.00  0.00     0.047 C 
ATOM      6  O   UNL     1      25.924  27.670  54.378  1.00  0.00    -0.471 OA
ATOM      7  C   UNL     1      26.741  29.703  52.507  1.00  0.00     0.094 C 
ATOM      8  C   UNL     1      25.194  30.398  49.619  1.00  0.00     0.037 C 
ATOM      9  C   UNL     1      27.529  28.331  52.544  1.00  0.00    -0.039 C 
ATOM     10  C   UNL     1      26.904  30.345  49.799  1.00  0.00    -0.024 C 
BRANCH   3  11
ATOM     11  C   UNL     1      23.759  30.942  56.187  1.00  0.00     0.337 C 
ATOM     12  O   UNL     1      23.273  32.084  57.192  1.00  0.00    -0.246 OA
BRANCH  11  13
ATOM     13  O   UNL     1      22.458  30.589  55.375  1.00  0.00    -0.466 OA
ATOM     14  C   UNL     1      22.592  28.962  54.225  1.00  0.00     0.282 C 
ENDBRANCH  11  13
ENDBRANCH   3  11
BRANCH   9  15
ATOM     15  C   UNL     1      28.044  25.358  55.545  1.00  0.00     0.187 C 
BRANCH  15  16
ATOM     16  O   UNL     1      28.216  23.177  57.850  1.00  0.00    -0.392 OA
ATOM     17  H   UNL     1      27.526  21.500  59.732  1.00  0.00     0.211 HD
ENDBRANCH  15  16
ENDBRANCH   9  15
ENDBRANCH   1   2
BRANCH   1  18
ATOM     18  C   UNL     1      26.231  26.621  49.419  1.00  0.00     0.286 C 
ATOM     19  C   UNL     1      25.597  26.346  47.483  1.00  0.00     0.202 C 
ATOM     20  O   UNL     1      24.868  26.489  49.393  1.00  0.00    -0.341 OA
ATOM     21  C   UNL     1      23.147  26.705  47.750  1.00  0.00     0.179 C 
ATOM     22  C   UNL     1      23.792  25.459  49.040  1.00  0.00     0.178 C 
ATOM     23  C   UNL     1      22.489  26.291  49.977  1.00  0.00     0.177 C 
BRANCH  19  24
ATOM     24  O   UNL     1      26.447  27.715  46.976  1.00  0.00    -0.385 OA
ATOM     25  H   UNL     1      25.762  26.795  47.477  1.00  0.00     0.211 HD
ENDBRANCH  19  24
BRANCH  21  26
ATOM     26  O   UNL     1      22.884  27.880  47.130  1.00  0.00    -0.387 OA
ATOM     27  H   UNL     1      22.741  28.132  46.160  1.00  0.00     0.211 HD
ENDBRANCH  21  26
BRANCH  22  28
ATOM     28  C   UNL     1      23.978  24.537  46.875  1.00  0.00     0.191 C 
BRANCH  28  29
ATOM     29  O   UNL     1      25.577  22.805  46.877  1.00  0.00    -0.394 OA
ATOM     30  H   UNL     1      26.309  21.205  46.714  1.00  0.00     0.210 HD
ENDBRANCH  28  29
ENDBRANCH  22  28
BRANCH  23  31
ATOM     31  O   UNL     1      23.146  27.663  50.559  1.00  0.00    -0.387 OA
ATOM     32  H   UNL     1      23.619  28.714  50.705  1.00  0.00     0.211 HD
ENDBRANCH  23  31
ENDBRANCH   1  18
TORSDOF 11
ENDMDL
MODEL 3
REMARK VINA RESULT:    -0.129      3.728      4.501
REMARK INTER + INTRA:          -1.363
REMARK INTER:                  -0.133
REMARK INTRA:                  -1.230
REMARK UNBOUND:                -1.230
REMARK SMILES COC(=O)C1=CO[C@H](O[C@H]2O[C@H](CO)[C@@H](O)[C@@H](O)[C@H]2O)[C@H]2C(CO)=CC[C@@H]12
REMARK SMILES IDX 9 1 8 2 5 3 6 4 27 5 7 6 21 7 26 8 22 9 25 10 3 11 4 12 2 13
REMARK SMILES IDX 1 14 23 15 24 16 10 18 19 19 11 20 17 21 12 22 15 23 20 24
REMARK SMILES IDX 18 26 13 28 14 29 16 31
REMARK H PARENT 24 17 20 25 18 27 14 30 16 32
REMARK Flexibility Score: inf
ROOT
ATOM      1  O   UNL     1      26.663  26.169  49.518  1.00  0.00    -0.310 OA
ENDROOT
BRANCH   1   2
ATOM      2  C   UNL     1      24.849  26.064  49.288  1.00  0.00     0.316 C 
ATOM      3  C   UNL     1      21.855  25.214  46.969  1.00  0.00     0.076 C 
ATOM      4  C   UNL     1      21.905  26.418  48.736  1.00  0.00     0.202 C 
ATOM      5  C   UNL     1      24.530  25.300  47.012  1.00  0.00     0.047 C 
ATOM      6  O   UNL     1      23.141  26.293  50.347  1.00  0.00    -0.471 OA
ATOM      7  C   UNL     1      24.687  26.686  47.948  1.00  0.00     0.094 C 
ATOM      8  C   UNL     1      27.347  24.862  47.050  1.00  0.00     0.037 C 
ATOM      9  C   UNL     1      24.912  27.660  49.176  1.00  0.00    -0.039 C 
ATOM     10  C   UNL     1      27.257  26.571  46.875  1.00  0.00    -0.024 C 
BRANCH   3  11
ATOM     11  C   UNL     1      20.721  23.822  47.759  1.00  0.00     0.337 C 
ATOM     12  O   UNL     1      19.516  23.256  46.875  1.00  0.00    -0.246 OA
BRANCH  11  13
ATOM     13  O   UNL     1      21.519  22.528  48.164  1.00  0.00    -0.466 OA
ATOM     14  C   UNL     1      22.939  22.804  49.540  1.00  0.00     0.282 C 
ENDBRANCH  11  13
ENDBRANCH   3  11
BRANCH   9  15
ATOM     15  C   UNL     1      22.468  28.792  52.470  1.00  0.00     0.187 C 
BRANCH  15  16
ATOM     16  O   UNL     1      20.555  29.800  54.799  1.00  0.00    -0.392 OA
ATOM     17  H   UNL     1      19.701  30.574  57.146  1.00  0.00     0.211 HD
ENDBRANCH  15  16
ENDBRANCH   9  15
ENDBRANCH   1   2
BRANCH   1  18
ATOM     18  C   UNL     1      28.214  26.382  50.555  1.00  0.00     0.286 C 
ATOM     19  C   UNL     1      30.126  25.631  50.625  1.00  0.00     0.202 C 
ATOM     20  O   UNL     1      28.178  25.054  50.890  1.00  0.00    -0.341 OA
ATOM     21  C   UNL     1      29.654  23.187  50.692  1.00  0.00     0.179 C 
ATOM     22  C   UNL     1      28.628  24.110  52.006  1.00  0.00     0.178 C 
ATOM     23  C   UNL     1      27.489  22.786  51.538  1.00  0.00     0.177 C 
BRANCH  19  24
ATOM     24  O   UNL     1      30.452  26.231  49.080  1.00  0.00    -0.385 OA
ATOM     25  H   UNL     1      30.089  25.699  50.152  1.00  0.00     0.211 HD
ENDBRANCH  19  24
BRANCH  21  26
ATOM     26  O   UNL     1      30.055  22.707  49.490  1.00  0.00    -0.387 OA
ATOM     27  H   UNL     1      29.626  22.695  48.574  1.00  0.00     0.211 HD
ENDBRANCH  21  26
BRANCH  22  28
ATOM     28  C   UNL     1      30.922  24.240  52.546  1.00  0.00     0.191 C 
BRANCH  28  29
ATOM     29  O   UNL     1      31.298  26.046  54.015  1.00  0.00    -0.394 OA
ATOM     30  H   UNL     1      31.015  27.314  55.212  1.00  0.00     0.210 HD
ENDBRANCH  28  29
ENDBRANCH  22  28
BRANCH  23  31
ATOM     31  O   UNL     1      26.731  23.289  50.187  1.00  0.00    -0.387 OA
ATOM     32  H   UNL     1      25.966  23.648  49.390  1.00  0.00     0.211 HD
ENDBRANCH  23  31
ENDBRANCH   1  18
TORSDOF 11
ENDMDL
MODEL 4
REMARK VINA RESULT:    -0.128      3.004      5.198
REMARK INTER + INTRA:          -1.362
REMARK INTER:                  -0.132
REMARK INTRA:                  -1.230
REMARK UNBOUND:                -1.230
REMARK SMILES COC(=O)C1=CO[C@H](O[C@H]2O[C@H](CO)[C@@H](O)[C@@H](O)[C@H]2O)[C@H]2C(CO)=CC[C@@H]12
REMARK SMILES IDX 9 1 8 2 5 3 6 4 27 5 7 6 21 7 26 8 22 9 25 10 3 11 4 12 2 13
REMARK SMILES IDX 1 14 23 15 24 16 10 18 19 19 11 20 17 21 12 22 15 23 20 24
REMARK SMILES IDX 18 26 13 28 14 29 16 31
REMARK H PARENT 24 17 20 25 18 27 14 30 16 32
REMARK Flexibility Score: inf
ROOT
ATOM      1  O   UNL     1      24.468  29.013  49.690  1.00  0.00    -0.310 OA
ENDROOT
BRANCH   1   2
ATOM      2  C   UNL     1      24.208  27.203  49.599  1.00  0.00     0.316 C 
ATOM      3  C   UNL     1      23.754  24.036  47.402  1.00  0.00     0.076 C 
ATOM      4  C   UNL     1      23.240  24.350  49.454  1.00  0.00     0.202 C 
ATOM      5  C   UNL     1      24.101  26.685  47.235  1.00  0.00     0.047 C 
ATOM      6  O   UNL     1      24.090  25.594  50.821  1.00  0.00    -0.471 OA
ATOM      7  C   UNL     1      23.154  27.110  48.556  1.00  0.00     0.094 C 
ATOM      8  C   UNL     1      24.955  29.382  46.881  1.00  0.00     0.037 C 
ATOM      9  C   UNL     1      22.699  27.540  50.011  1.00  0.00    -0.039 C 
ATOM     10  C   UNL     1      23.295  29.586  47.283  1.00  0.00    -0.024 C 
BRANCH   3  11
ATOM     11  C   UNL     1      25.138  22.701  47.789  1.00  0.00     0.337 C 
ATOM     12  O   UNL     1      25.179  21.389  46.879  1.00  0.00    -0.246 OA
BRANCH  11  13
ATOM     13  O   UNL     1      26.600  23.272  47.675  1.00  0.00    -0.466 OA
ATOM     14  C   UNL     1      27.019  24.781  48.914  1.00  0.00     0.282 C 
ENDBRANCH  11  13
ENDBRANCH   3  11
BRANCH   9  15
ATOM     15  C   UNL     1      22.382  25.434  53.695  1.00  0.00     0.187 C 
BRANCH  15  16
ATOM     16  O   UNL     1      22.003  23.720  56.343  1.00  0.00    -0.392 OA
ATOM     17  H   UNL     1      22.277  22.847  58.792  1.00  0.00     0.211 HD
ENDBRANCH  15  16
ENDBRANCH   9  15
ENDBRANCH   1   2
BRANCH   1  18
ATOM     18  C   UNL     1      24.878  30.607  50.596  1.00  0.00     0.286 C 
ATOM     19  C   UNL     1      25.893  32.357  50.236  1.00  0.00     0.202 C 
ATOM     20  O   UNL     1      26.215  30.346  50.459  1.00  0.00    -0.341 OA
ATOM     21  C   UNL     1      28.100  31.463  49.506  1.00  0.00     0.179 C 
ATOM     22  C   UNL     1      27.549  30.654  51.142  1.00  0.00     0.178 C 
ATOM     23  C   UNL     1      28.430  29.286  50.354  1.00  0.00     0.177 C 
BRANCH  19  24
ATOM     24  O   UNL     1      24.846  32.740  48.966  1.00  0.00    -0.385 OA
ATOM     25  H   UNL     1      25.659  32.618  49.909  1.00  0.00     0.211 HD
ENDBRANCH  19  24
BRANCH  21  26
ATOM     26  O   UNL     1      28.183  31.738  48.183  1.00  0.00    -0.387 OA
ATOM     27  H   UNL     1      28.845  32.266  47.629  1.00  0.00     0.211 HD
ENDBRANCH  21  26
BRANCH  22  28
ATOM     28  C   UNL     1      27.976  32.950  51.489  1.00  0.00     0.191 C 
BRANCH  28  29
ATOM     29  O   UNL     1      26.832  33.696  53.411  1.00  0.00    -0.394 OA
ATOM     30  H   UNL     1      26.190  33.757  55.056  1.00  0.00     0.210 HD
ENDBRANCH  28  29
ENDBRANCH  22  28
BRANCH  23  31
ATOM     31  O   UNL     1      27.373  28.590  49.328  1.00  0.00    -0.387 OA
ATOM     32  H   UNL     1      26.843  27.947  48.519  1.00  0.00     0.211 HD
ENDBRANCH  23  31
ENDBRANCH   1  18
TORSDOF 11
ENDMDL
MODEL 5
REMARK VINA RESULT:    -0.124      3.400      5.956
REMARK INTER + INTRA:          -1.358
REMARK INTER:                  -0.130
REMARK INTRA:                  -1.228
REMARK UNBOUND:                -1.230
REMARK SMILES COC(=O)C1=CO[C@H](O[C@H]2O[C@H](CO)[C@@H](O)[C@@H](O)[C@H]2O)[C@H]2C(CO)=CC[C@@H]12
REMARK SMILES IDX 9 1 8 2 5 3 6 4 27 5 7 6 21 7 26 8 22 9 25 10 3 11 4 12 2 13
REMARK SMILES IDX 1 14 23 15 24 16 10 18 19 19 11 20 17 21 12 22 15 23 20 24
REMARK SMILES IDX 18 26 13 28 14 29 16 31
REMARK H PARENT 24 17 20 25 18 27 14 30 16 32
REMARK Flexibility Score: inf
ROOT
ATOM      1  O   UNL     1      24.065  30.110  49.490  1.00  0.00    -0.310 OA
ENDROOT
BRANCH   1   2
ATOM      2  C   UNL     1      24.505  28.340  49.326  1.00  0.00     0.316 C 
ATOM      3  C   UNL     1      25.723  25.433  47.062  1.00  0.00     0.076 C 
ATOM      4  C   UNL     1      24.693  25.355  48.934  1.00  0.00     0.202 C 
ATOM      5  C   UNL     1      25.115  28.039  47.002  1.00  0.00     0.047 C 
ATOM      6  O   UNL     1      24.711  26.686  50.473  1.00  0.00    -0.471 OA
ATOM      7  C   UNL     1      23.812  27.981  48.061  1.00  0.00     0.094 C 
ATOM      8  C   UNL     1      24.990  30.885  46.880  1.00  0.00     0.037 C 
ATOM      9  C   UNL     1      22.925  28.088  49.368  1.00  0.00    -0.039 C 
ATOM     10  C   UNL     1      23.325  30.457  46.876  1.00  0.00    -0.024 C 
BRANCH   3  11
ATOM     11  C   UNL     1      27.375  24.637  47.758  1.00  0.00     0.337 C 
ATOM     12  O   UNL     1      28.087  23.512  46.875  1.00  0.00    -0.246 OA
BRANCH  11  13
ATOM     13  O   UNL     1      28.517  25.691  48.001  1.00  0.00    -0.466 OA
ATOM     14  C   UNL     1      28.112  27.079  49.378  1.00  0.00     0.282 C 
ENDBRANCH  11  13
ENDBRANCH   3  11
BRANCH   9  15
ATOM     15  C   UNL     1      22.589  25.672  52.855  1.00  0.00     0.187 C 
BRANCH  15  16
ATOM     16  O   UNL     1      22.241  24.044  55.562  1.00  0.00    -0.392 OA
ATOM     17  H   UNL     1      22.530  22.221  57.413  1.00  0.00     0.211 HD
ENDBRANCH  15  16
ENDBRANCH   9  15
ENDBRANCH   1   2
BRANCH   1  18
ATOM     18  C   UNL     1      23.687  31.662  50.479  1.00  0.00     0.286 C 
ATOM     19  C   UNL     1      24.087  33.675  50.383  1.00  0.00     0.202 C 
ATOM     20  O   UNL     1      25.027  31.876  50.663  1.00  0.00    -0.341 OA
ATOM     21  C   UNL     1      26.569  33.639  50.194  1.00  0.00     0.179 C 
ATOM     22  C   UNL     1      25.986  32.550  51.646  1.00  0.00     0.178 C 
ATOM     23  C   UNL     1      27.437  31.632  51.080  1.00  0.00     0.177 C 
BRANCH  19  24
ATOM     24  O   UNL     1      23.281  33.797  48.903  1.00  0.00    -0.385 OA
ATOM     25  H   UNL     1      23.847  33.544  49.990  1.00  0.00     0.211 HD
ENDBRANCH  19  24
BRANCH  21  26
ATOM     26  O   UNL     1      26.843  34.043  48.930  1.00  0.00    -0.387 OA
ATOM     27  H   UNL     1      27.372  34.819  48.554  1.00  0.00     0.211 HD
ENDBRANCH  21  26
BRANCH  22  28
ATOM     28  C   UNL     1      25.504  34.816  52.100  1.00  0.00     0.191 C 
BRANCH  28  29
ATOM     29  O   UNL     1      23.812  34.962  53.736  1.00  0.00    -0.394 OA
ATOM     30  H   UNL     1      22.458  35.577  54.691  1.00  0.00     0.210 HD
ENDBRANCH  28  29
ENDBRANCH  22  28
BRANCH  23  31
ATOM     31  O   UNL     1      26.940  30.717  49.827  1.00  0.00    -0.387 OA
ATOM     32  H   UNL     1      26.859  30.051  48.879  1.00  0.00     0.211 HD
ENDBRANCH  23  31
ENDBRANCH   1  18
TORSDOF 11
ENDMDL
MODEL 6
REMARK VINA RESULT:    -0.123      3.146      8.383
REMARK INTER + INTRA:          -1.356
REMARK INTER:                  -0.128
REMARK INTRA:                  -1.228
REMARK UNBOUND:                -1.230
REMARK SMILES COC(=O)C1=CO[C@H](O[C@H]2O[C@H](CO)[C@@H](O)[C@@H](O)[C@H]2O)[C@H]2C(CO)=CC[C@@H]12
REMARK SMILES IDX 9 1 8 2 5 3 6 4 27 5 7 6 21 7 26 8 22 9 25 10 3 11 4 12 2 13
REMARK SMILES IDX 1 14 23 15 24 16 10 18 19 19 11 20 17 21 12 22 15 23 20 24
REMARK SMILES IDX 18 26 13 28 14 29 16 31
REMARK H PARENT 24 17 20 25 18 27 14 30 16 32
REMARK Flexibility Score: inf
ROOT
ATOM      1  O   UNL     1      25.451  29.070  50.218  1.00  0.00    -0.310 OA
ENDROOT
BRANCH   1   2
ATOM      2  C   UNL     1      26.066  29.473  51.895  1.00  0.00     0.316 C 
ATOM      3  C   UNL     1      25.571  31.415  55.219  1.00  0.00     0.076 C 
ATOM      4  C   UNL     1      27.348  30.549  54.404  1.00  0.00     0.202 C 
ATOM      5  C   UNL     1      24.459  31.035  52.813  1.00  0.00     0.047 C 
ATOM      6  O   UNL     1      27.553  28.950  53.164  1.00  0.00    -0.471 OA
ATOM      7  C   UNL     1      25.885  30.947  51.928  1.00  0.00     0.094 C 
ATOM      8  C   UNL     1      22.902  30.366  50.521  1.00  0.00     0.037 C 
ATOM      9  C   UNL     1      27.134  30.389  51.132  1.00  0.00    -0.039 C 
ATOM     10  C   UNL     1      24.087  31.416  49.850  1.00  0.00    -0.024 C 
BRANCH   3  11
ATOM     11  C   UNL     1      25.486  30.191  56.749  1.00  0.00     0.337 C 
ATOM     12  O   UNL     1      25.148  30.814  58.180  1.00  0.00    -0.246 OA
BRANCH  11  13
ATOM     13  O   UNL     1      24.408  29.058  56.577  1.00  0.00    -0.466 OA
ATOM     14  C   UNL     1      24.704  27.833  55.028  1.00  0.00     0.282 C 
ENDBRANCH  11  13
ENDBRANCH   3  11
BRANCH   9  15
ATOM     15  C   UNL     1      30.778  28.564  52.355  1.00  0.00     0.187 C 
BRANCH  15  16
ATOM     16  O   UNL     1      33.545  27.389  53.386  1.00  0.00    -0.392 OA
ATOM     17  H   UNL     1      35.587  26.842  54.924  1.00  0.00     0.211 HD
ENDBRANCH  15  16
ENDBRANCH   9  15
ENDBRANCH   1   2
BRANCH   1  18
ATOM     18  C   UNL     1      25.474  28.100  48.609  1.00  0.00     0.286 C 
ATOM     19  C   UNL     1      24.127  27.394  47.227  1.00  0.00     0.202 C 
ATOM     20  O   UNL     1      24.692  27.130  49.179  1.00  0.00    -0.341 OA
ATOM     21  C   UNL     1      22.578  26.124  48.708  1.00  0.00     0.179 C 
ATOM     22  C   UNL     1      24.390  25.636  49.047  1.00  0.00     0.178 C 
ATOM     23  C   UNL     1      23.672  25.491  50.700  1.00  0.00     0.177 C 
BRANCH  19  24
ATOM     24  O   UNL     1      23.615  28.965  46.875  1.00  0.00    -0.385 OA
ATOM     25  H   UNL     1      24.136  27.842  47.060  1.00  0.00     0.211 HD
ENDBRANCH  19  24
BRANCH  21  26
ATOM     26  O   UNL     1      21.423  26.831  48.716  1.00  0.00    -0.387 OA
ATOM     27  H   UNL     1      20.674  26.921  49.391  1.00  0.00     0.211 HD
ENDBRANCH  21  26
BRANCH  22  28
ATOM     28  C   UNL     1      23.767  24.942  46.878  1.00  0.00     0.191 C 
BRANCH  28  29
ATOM     29  O   UNL     1      22.506  22.955  47.004  1.00  0.00    -0.394 OA
ATOM     30  H   UNL     1      21.187  21.796  46.806  1.00  0.00     0.210 HD
ENDBRANCH  28  29
ENDBRANCH  22  28
BRANCH  23  31
ATOM     31  O   UNL     1      23.664  26.993  51.330  1.00  0.00    -0.387 OA
ATOM     32  H   UNL     1      23.838  28.115  51.572  1.00  0.00     0.211 HD
ENDBRANCH  23  31
ENDBRANCH   1  18
TORSDOF 11
ENDMDL
MODEL 7
REMARK VINA RESULT:    -0.115      3.137      8.306
REMARK INTER + INTRA:          -1.348
REMARK INTER:                  -0.118
REMARK INTRA:                  -1.229
REMARK UNBOUND:                -1.230
REMARK SMILES COC(=O)C1=CO[C@H](O[C@H]2O[C@H](CO)[C@@H](O)[C@@H](O)[C@H]2O)[C@H]2C(CO)=CC[C@@H]12
REMARK SMILES IDX 9 1 8 2 5 3 6 4 27 5 7 6 21 7 26 8 22 9 25 10 3 11 4 12 2 13
REMARK SMILES IDX 1 14 23 15 24 16 10 18 19 19 11 20 17 21 12 22 15 23 20 24
REMARK SMILES IDX 18 26 13 28 14 29 16 31
REMARK H PARENT 24 17 20 25 18 27 14 30 16 32
REMARK Flexibility Score: inf
ROOT
ATOM      1  O   UNL     1      27.482  28.634  50.688  1.00  0.00    -0.310 OA
ENDROOT
BRANCH   1   2
ATOM      2  C   UNL     1      27.599  29.321  52.382  1.00  0.00     0.316 C 
ATOM      3  C   UNL     1      28.604  32.276  54.688  1.00  0.00     0.076 C 
ATOM      4  C   UNL     1      28.294  30.218  55.177  1.00  0.00     0.202 C 
ATOM      5  C   UNL     1      28.582  31.518  52.120  1.00  0.00     0.047 C 
ATOM      6  O   UNL     1      27.086  28.847  54.281  1.00  0.00    -0.471 OA
ATOM      7  C   UNL     1      28.966  29.902  52.370  1.00  0.00     0.094 C 
ATOM      8  C   UNL     1      28.175  31.073  49.334  1.00  0.00     0.037 C 
ATOM      9  C   UNL     1      28.847  28.333  52.546  1.00  0.00    -0.039 C 
ATOM     10  C   UNL     1      29.553  30.095  49.651  1.00  0.00    -0.024 C 
BRANCH   3  11
ATOM     11  C   UNL     1      27.069  32.918  55.727  1.00  0.00     0.337 C 
ATOM     12  O   UNL     1      27.275  34.220  56.628  1.00  0.00    -0.246 OA
BRANCH  11  13
ATOM     13  O   UNL     1      25.824  33.281  54.835  1.00  0.00    -0.466 OA
ATOM     14  C   UNL     1      25.068  31.766  53.777  1.00  0.00     0.282 C 
ENDBRANCH  11  13
ENDBRANCH   3  11
BRANCH   9  15
ATOM     15  C   UNL     1      27.504  25.864  55.740  1.00  0.00     0.187 C 
BRANCH  15  16
ATOM     16  O   UNL     1      26.417  24.205  58.223  1.00  0.00    -0.392 OA
ATOM     17  H   UNL     1      26.112  22.307  59.995  1.00  0.00     0.211 HD
ENDBRANCH  15  16
ENDBRANCH   9  15
ENDBRANCH   1   2
BRANCH   1  18
ATOM     18  C   UNL     1      26.883  27.383  49.421  1.00  0.00     0.286 C 
ATOM     19  C   UNL     1      26.233  27.368  47.472  1.00  0.00     0.202 C 
ATOM     20  O   UNL     1      25.687  28.044  49.327  1.00  0.00    -0.341 OA
ATOM     21  C   UNL     1      24.419  29.070  47.582  1.00  0.00     0.179 C 
ATOM     22  C   UNL     1      24.223  27.781  48.973  1.00  0.00     0.178 C 
ATOM     23  C   UNL     1      23.610  29.274  49.789  1.00  0.00     0.177 C 
BRANCH  19  24
ATOM     24  O   UNL     1      27.718  27.971  46.938  1.00  0.00    -0.385 OA
ATOM     25  H   UNL     1      26.586  27.492  47.174  1.00  0.00     0.211 HD
ENDBRANCH  19  24
BRANCH  21  26
ATOM     26  O   UNL     1      24.879  30.136  46.885  1.00  0.00    -0.387 OA
ATOM     27  H   UNL     1      25.772  30.348  46.458  1.00  0.00     0.211 HD
ENDBRANCH  21  26
BRANCH  22  28
ATOM     28  C   UNL     1      23.882  26.753  46.875  1.00  0.00     0.191 C 
BRANCH  28  29
ATOM     29  O   UNL     1      24.206  24.425  47.063  1.00  0.00    -0.394 OA
ATOM     30  H   UNL     1      23.909  22.719  47.411  1.00  0.00     0.210 HD
ENDBRANCH  28  29
ENDBRANCH  22  28
BRANCH  23  31
ATOM     31  O   UNL     1      24.922  30.072  50.330  1.00  0.00    -0.387 OA
ATOM     32  H   UNL     1      25.687  30.714  50.924  1.00  0.00     0.211 HD
ENDBRANCH  23  31
ENDBRANCH   1  18
TORSDOF 11
ENDMDL
MODEL 8
REMARK VINA RESULT:    -0.111      2.446      3.112
REMARK INTER + INTRA:          -1.345
REMARK INTER:                  -0.125
REMARK INTRA:                  -1.220
REMARK UNBOUND:                -1.230
REMARK SMILES COC(=O)C1=CO[C@H](O[C@H]2O[C@H](CO)[C@@H](O)[C@@H](O)[C@H]2O)[C@H]2C(CO)=CC[C@@H]12
REMARK SMILES IDX 9 1 8 2 5 3 6 4 27 5 7 6 21 7 26 8 22 9 25 10 3 11 4 12 2 13
REMARK SMILES IDX 1 14 23 15 24 16 10 18 19 19 11 20 17 21 12 22 15 23 20 24
REMARK SMILES IDX 18 26 13 28 14 29 16 31
REMARK H PARENT 24 17 20 25 18 27 14 30 16 32
REMARK Flexibility Score: inf
ROOT
ATOM      1  O   UNL     1      27.411  29.221  49.496  1.00  0.00    -0.310 OA
ENDROOT
BRANCH   1   2
ATOM      2  C   UNL     1      25.732  28.515  49.314  1.00  0.00     0.316 C 
ATOM      3  C   UNL     1      23.082  26.835  47.029  1.00  0.00     0.076 C 
ATOM      4  C   UNL     1      22.817  27.869  48.881  1.00  0.00     0.202 C 
ATOM      5  C   UNL     1      25.567  27.831  46.997  1.00  0.00     0.047 C 
ATOM      6  O   UNL     1      24.108  28.077  50.440  1.00  0.00    -0.471 OA
ATOM      7  C   UNL     1      25.294  29.126  48.032  1.00  0.00     0.094 C 
ATOM      8  C   UNL     1      28.362  28.385  46.914  1.00  0.00     0.037 C 
ATOM      9  C   UNL     1      25.242  30.038  49.325  1.00  0.00    -0.039 C 
ATOM     10  C   UNL     1      27.686  29.966  46.875  1.00  0.00    -0.024 C 
BRANCH   3  11
ATOM     11  C   UNL     1      22.535  25.092  47.742  1.00  0.00     0.337 C 
ATOM     12  O   UNL     1      21.513  24.223  46.875  1.00  0.00    -0.246 OA
BRANCH  11  13
ATOM     13  O   UNL     1      23.742  24.111  47.979  1.00  0.00    -0.466 OA
ATOM     14  C   UNL     1      25.092  24.735  49.312  1.00  0.00     0.282 C 
ENDBRANCH  11  13
ENDBRANCH   3  11
BRANCH   9  15
ATOM     15  C   UNL     1      22.744  30.055  52.770  1.00  0.00     0.187 C 
BRANCH  15  16
ATOM     16  O   UNL     1      20.941  30.282  55.377  1.00  0.00    -0.392 OA
ATOM     17  H   UNL     1      19.966  31.125  57.651  1.00  0.00     0.211 HD
ENDBRANCH  15  16
ENDBRANCH   9  15
ENDBRANCH   1   2
BRANCH   1  18
ATOM     18  C   UNL     1      28.850  29.896  50.498  1.00  0.00     0.286 C 
ATOM     19  C   UNL     1      30.904  29.856  50.449  1.00  0.00     0.202 C 
ATOM     20  O   UNL     1      29.294  28.620  50.727  1.00  0.00    -0.341 OA
ATOM     21  C   UNL     1      31.311  27.402  50.336  1.00  0.00     0.179 C 
ATOM     22  C   UNL     1      30.105  27.823  51.751  1.00  0.00     0.178 C 
ATOM     23  C   UNL     1      29.469  26.218  51.215  1.00  0.00     0.177 C 
BRANCH  19  24
ATOM     24  O   UNL     1      30.914  30.630  48.947  1.00  0.00    -0.385 OA
ATOM     25  H   UNL     1      30.982  29.930  49.982  1.00  0.00     0.211 HD
ENDBRANCH  19  24
BRANCH  21  26
ATOM     26  O   UNL     1      31.784  27.170  49.089  1.00  0.00    -0.387 OA
ATOM     27  H   UNL     1      31.480  26.565  48.337  1.00  0.00     0.211 HD
ENDBRANCH  21  26
BRANCH  22  28
ATOM     28  C   UNL     1      32.239  28.712  52.228  1.00  0.00     0.191 C 
BRANCH  28  29
ATOM     29  O   UNL     1      33.594  27.053  53.213  1.00  0.00    -0.394 OA
ATOM     30  H   UNL     1      34.090  25.623  54.126  1.00  0.00     0.210 HD
ENDBRANCH  28  29
ENDBRANCH  22  28
BRANCH  23  31
ATOM     31  O   UNL     1      28.509  26.509  49.933  1.00  0.00    -0.387 OA
ATOM     32  H   UNL     1      27.959  26.499  48.910  1.00  0.00     0.211 HD
ENDBRANCH  23  31
ENDBRANCH   1  18
TORSDOF 11
ENDMDL
