MODEL 1
REMARK VINA RESULT:    -3.991      0.000      0.000
REMARK INTER + INTRA:          -6.577
REMARK INTER:                  -6.091
REMARK INTRA:                  -0.487
REMARK UNBOUND:                -0.487
REMARK SMILES O=C([O-])CCCCCCCCC(=O)[O-]
REMARK SMILES IDX 7 1 6 2 5 3 4 4 2 5 1 6 3 7 8 8 9 9 10 10 11 11 12 12 13 13
REMARK SMILES IDX 14 14
REMARK H PARENT
REMARK Flexibility Score: inf
ROOT
ATOM      1  C   UNL     1      -7.347  31.762  47.069  1.00  0.00     0.000 C 
ENDROOT
BRANCH   1   2
ATOM      2  C   UNL     1      -5.915  31.697  47.622  1.00  0.00     0.000 C 
BRANCH   2   3
ATOM      3  C   UNL     1      -5.395  33.067  48.095  1.00  0.00     0.006 C 
BRANCH   3   4
ATOM      4  C   UNL     1      -6.496  34.037  48.551  1.00  0.00     0.053 C 
BRANCH   4   5
ATOM      5  C   UNL     1      -6.538  34.177  50.042  1.00  0.00     0.041 C 
ATOM      6  O   UNL     1      -5.706  33.562  50.760  1.00  0.00    -0.550 OA
ATOM      7  O   UNL     1      -7.516  34.960  50.640  1.00  0.00    -0.550 OA
ENDBRANCH   4   5
ENDBRANCH   3   4
ENDBRANCH   2   3
ENDBRANCH   1   2
BRANCH   1   8
ATOM      8  C   UNL     1      -7.975  30.362  47.009  1.00  0.00     0.000 C 
BRANCH   8   9
ATOM      9  C   UNL     1      -8.308  29.914  45.574  1.00  0.00     0.000 C 
BRANCH   9  10
ATOM     10  C   UNL     1      -7.328  28.888  44.968  1.00  0.00     0.006 C 
BRANCH  10  11
ATOM     11  C   UNL     1      -7.497  27.455  45.496  1.00  0.00     0.053 C 
BRANCH  11  12
ATOM     12  C   UNL     1      -6.295  26.992  46.260  1.00  0.00     0.041 C 
ATOM     13  O   UNL     1      -5.436  27.824  46.654  1.00  0.00    -0.550 OA
ATOM     14  O   UNL     1      -6.141  25.646  46.569  1.00  0.00    -0.550 OA
ENDBRANCH  11  12
ENDBRANCH  10  11
ENDBRANCH   9  10
ENDBRANCH   8   9
ENDBRANCH   1   8
TORSDOF 9
ENDMDL
MODEL 2
REMARK VINA RESULT:    -3.923     17.812     19.666
REMARK INTER + INTRA:          -6.474
REMARK INTER:                  -6.069
REMARK INTRA:                  -0.405
REMARK UNBOUND:                -0.487
REMARK SMILES O=C([O-])CCCCCCCCC(=O)[O-]
REMARK SMILES IDX 7 1 6 2 5 3 4 4 2 5 1 6 3 7 8 8 9 9 10 10 11 11 12 12 13 13
REMARK SMILES IDX 14 14
REMARK H PARENT
REMARK Flexibility Score: inf
ROOT
ATOM      1  C   UNL     1     -22.014  21.632  38.445  1.00  0.00     0.000 C 
ENDROOT
BRANCH   1   2
ATOM      2  C   UNL     1     -22.784  22.027  39.714  1.00  0.00     0.000 C 
BRANCH   2   3
ATOM      3  C   UNL     1     -21.895  22.042  40.972  1.00  0.00     0.006 C 
BRANCH   3   4
ATOM      4  C   UNL     1     -20.440  21.612  40.722  1.00  0.00     0.053 C 
BRANCH   4   5
ATOM      5  C   UNL     1     -19.972  20.605  41.727  1.00  0.00     0.041 C 
ATOM      6  O   UNL     1     -20.773  20.145  42.583  1.00  0.00    -0.550 OA
ATOM      7  O   UNL     1     -18.644  20.200  41.740  1.00  0.00    -0.550 OA
ENDBRANCH   4   5
ENDBRANCH   3   4
ENDBRANCH   2   3
ENDBRANCH   1   2
BRANCH   1   8
ATOM      8  C   UNL     1     -22.956  21.006  37.406  1.00  0.00     0.000 C 
BRANCH   8   9
ATOM      9  C   UNL     1     -22.463  21.194  35.959  1.00  0.00     0.000 C 
BRANCH   9  10
ATOM     10  C   UNL     1     -21.371  22.268  35.777  1.00  0.00     0.006 C 
BRANCH  10  11
ATOM     11  C   UNL     1     -20.643  22.214  34.425  1.00  0.00     0.053 C 
BRANCH  11  12
ATOM     12  C   UNL     1     -19.289  22.850  34.490  1.00  0.00     0.041 C 
ATOM     13  O   UNL     1     -19.164  24.035  34.896  1.00  0.00    -0.550 OA
ATOM     14  O   UNL     1     -18.159  22.122  34.136  1.00  0.00    -0.550 OA
ENDBRANCH  11  12
ENDBRANCH  10  11
ENDBRANCH   9  10
ENDBRANCH   8   9
ENDBRANCH   1   8
TORSDOF 9
ENDMDL
MODEL 3
REMARK VINA RESULT:    -3.851      0.696      1.386
REMARK INTER + INTRA:          -6.364
REMARK INTER:                  -5.872
REMARK INTRA:                  -0.492
REMARK UNBOUND:                -0.487
REMARK SMILES O=C([O-])CCCCCCCCC(=O)[O-]
REMARK SMILES IDX 7 1 6 2 5 3 4 4 2 5 1 6 3 7 8 8 9 9 10 10 11 11 12 12 13 13
REMARK SMILES IDX 14 14
REMARK H PARENT
REMARK Flexibility Score: inf
ROOT
ATOM      1  C   UNL     1      -6.187  30.557  47.272  1.00  0.00     0.000 C 
ENDROOT
BRANCH   1   2
ATOM      2  C   UNL     1      -5.566  31.901  46.862  1.00  0.00     0.000 C 
BRANCH   2   3
ATOM      3  C   UNL     1      -6.179  33.097  47.614  1.00  0.00     0.006 C 
BRANCH   3   4
ATOM      4  C   UNL     1      -5.299  33.650  48.746  1.00  0.00     0.053 C 
BRANCH   4   5
ATOM      5  C   UNL     1      -6.106  34.023  49.952  1.00  0.00     0.041 C 
ATOM      6  O   UNL     1      -7.134  34.739  49.830  1.00  0.00    -0.550 OA
ATOM      7  O   UNL     1      -5.704  33.606  51.214  1.00  0.00    -0.550 OA
ENDBRANCH   4   5
ENDBRANCH   3   4
ENDBRANCH   2   3
ENDBRANCH   1   2
BRANCH   1   8
ATOM      8  C   UNL     1      -7.707  30.568  47.057  1.00  0.00     0.000 C 
BRANCH   8   9
ATOM      9  C   UNL     1      -8.131  29.910  45.732  1.00  0.00     0.000 C 
BRANCH   9  10
ATOM     10  C   UNL     1      -7.164  28.830  45.202  1.00  0.00     0.006 C 
BRANCH  10  11
ATOM     11  C   UNL     1      -7.432  27.415  45.740  1.00  0.00     0.053 C 
BRANCH  11  12
ATOM     12  C   UNL     1      -6.185  26.764  46.253  1.00  0.00     0.041 C 
ATOM     13  O   UNL     1      -6.199  25.553  46.596  1.00  0.00    -0.550 OA
ATOM     14  O   UNL     1      -4.999  27.485  46.320  1.00  0.00    -0.550 OA
ENDBRANCH  11  12
ENDBRANCH  10  11
ENDBRANCH   9  10
ENDBRANCH   8   9
ENDBRANCH   1   8
TORSDOF 9
ENDMDL
MODEL 4
REMARK VINA RESULT:    -3.844      0.942      6.562
REMARK INTER + INTRA:          -6.354
REMARK INTER:                  -5.826
REMARK INTRA:                  -0.527
REMARK UNBOUND:                -0.487
REMARK SMILES O=C([O-])CCCCCCCCC(=O)[O-]
REMARK SMILES IDX 7 1 6 2 5 3 4 4 2 5 1 6 3 7 8 8 9 9 10 10 11 11 12 12 13 13
REMARK SMILES IDX 14 14
REMARK H PARENT
REMARK Flexibility Score: inf
ROOT
ATOM      1  C   UNL     1      -8.476  30.316  45.687  1.00  0.00     0.000 C 
ENDROOT
BRANCH   1   2
ATOM      2  C   UNL     1      -7.647  29.302  44.884  1.00  0.00     0.000 C 
BRANCH   2   3
ATOM      3  C   UNL     1      -8.023  27.842  45.197  1.00  0.00     0.006 C 
BRANCH   3   4
ATOM      4  C   UNL     1      -6.890  26.832  44.956  1.00  0.00     0.053 C 
BRANCH   4   5
ATOM      5  C   UNL     1      -6.145  26.513  46.216  1.00  0.00     0.041 C 
ATOM      6  O   UNL     1      -6.373  25.440  46.833  1.00  0.00    -0.550 OA
ATOM      7  O   UNL     1      -5.223  27.417  46.727  1.00  0.00    -0.550 OA
ENDBRANCH   4   5
ENDBRANCH   3   4
ENDBRANCH   2   3
ENDBRANCH   1   2
BRANCH   1   8
ATOM      8  C   UNL     1      -7.887  30.515  47.091  1.00  0.00     0.000 C 
BRANCH   8   9
ATOM      9  C   UNL     1      -6.349  30.589  47.092  1.00  0.00     0.000 C 
BRANCH   9  10
ATOM     10  C   UNL     1      -5.765  32.012  47.216  1.00  0.00     0.006 C 
BRANCH  10  11
ATOM     11  C   UNL     1      -6.630  32.989  48.027  1.00  0.00     0.053 C 
BRANCH  11  12
ATOM     12  C   UNL     1      -5.857  33.639  49.133  1.00  0.00     0.041 C 
ATOM     13  O   UNL     1      -4.640  33.919  48.975  1.00  0.00    -0.550 OA
ATOM     14  O   UNL     1      -6.490  33.967  50.326  1.00  0.00    -0.550 OA
ENDBRANCH  11  12
ENDBRANCH  10  11
ENDBRANCH   9  10
ENDBRANCH   8   9
ENDBRANCH   1   8
TORSDOF 9
ENDMDL
MODEL 5
REMARK VINA RESULT:    -3.742      1.575      6.592
REMARK INTER + INTRA:          -6.197
REMARK INTER:                  -5.580
REMARK INTRA:                  -0.617
REMARK UNBOUND:                -0.487
REMARK SMILES O=C([O-])CCCCCCCCC(=O)[O-]
REMARK SMILES IDX 7 1 6 2 5 3 4 4 2 5 1 6 3 7 8 8 9 9 10 10 11 11 12 12 13 13
REMARK SMILES IDX 14 14
REMARK H PARENT
REMARK Flexibility Score: inf
ROOT
ATOM      1  C   UNL     1      -5.052  30.420  46.872  1.00  0.00     0.000 C 
ENDROOT
BRANCH   1   2
ATOM      2  C   UNL     1      -4.326  29.095  46.594  1.00  0.00     0.000 C 
BRANCH   2   3
ATOM      3  C   UNL     1      -4.888  28.351  45.369  1.00  0.00     0.006 C 
BRANCH   3   4
ATOM      4  C   UNL     1      -4.965  26.825  45.536  1.00  0.00     0.053 C 
BRANCH   4   5
ATOM      5  C   UNL     1      -6.279  26.388  46.107  1.00  0.00     0.041 C 
ATOM      6  O   UNL     1      -7.340  26.981  45.779  1.00  0.00    -0.550 OA
ATOM      7  O   UNL     1      -6.328  25.348  47.025  1.00  0.00    -0.550 OA
ENDBRANCH   4   5
ENDBRANCH   3   4
ENDBRANCH   2   3
ENDBRANCH   1   2
BRANCH   1   8
ATOM      8  C   UNL     1      -6.538  30.177  47.174  1.00  0.00     0.000 C 
BRANCH   8   9
ATOM      9  C   UNL     1      -7.354  31.481  47.259  1.00  0.00     0.000 C 
BRANCH   9  10
ATOM     10  C   UNL     1      -6.558  32.768  46.962  1.00  0.00     0.006 C 
BRANCH  10  11
ATOM     11  C   UNL     1      -6.590  33.813  48.088  1.00  0.00     0.053 C 
BRANCH  11  12
ATOM     12  C   UNL     1      -5.480  33.612  49.072  1.00  0.00     0.041 C 
ATOM     13  O   UNL     1      -4.285  33.565  48.679  1.00  0.00    -0.550 OA
ATOM     14  O   UNL     1      -5.761  33.512  50.430  1.00  0.00    -0.550 OA
ENDBRANCH  11  12
ENDBRANCH  10  11
ENDBRANCH   9  10
ENDBRANCH   8   9
ENDBRANCH   1   8
TORSDOF 9
ENDMDL
MODEL 6
REMARK VINA RESULT:    -3.719     16.685     18.693
REMARK INTER + INTRA:          -6.163
REMARK INTER:                  -5.775
REMARK INTRA:                  -0.387
REMARK UNBOUND:                -0.487
REMARK SMILES O=C([O-])CCCCCCCCC(=O)[O-]
REMARK SMILES IDX 7 1 6 2 5 3 4 4 2 5 1 6 3 7 8 8 9 9 10 10 11 11 12 12 13 13
REMARK SMILES IDX 14 14
REMARK H PARENT
REMARK Flexibility Score: inf
ROOT
ATOM      1  C   UNL     1     -18.000  19.892  42.951  1.00  0.00     0.000 C 
ENDROOT
BRANCH   1   2
ATOM      2  C   UNL     1     -17.388  19.300  41.672  1.00  0.00     0.000 C 
BRANCH   2   3
ATOM      3  C   UNL     1     -17.047  17.805  41.809  1.00  0.00     0.006 C 
BRANCH   3   4
ATOM      4  C   UNL     1     -16.636  17.128  40.492  1.00  0.00     0.053 C 
BRANCH   4   5
ATOM      5  C   UNL     1     -16.359  15.667  40.675  1.00  0.00     0.041 C 
ATOM      6  O   UNL     1     -15.349  15.141  40.138  1.00  0.00    -0.550 OA
ATOM      7  O   UNL     1     -17.233  14.880  41.413  1.00  0.00    -0.550 OA
ENDBRANCH   4   5
ENDBRANCH   3   4
ENDBRANCH   2   3
ENDBRANCH   1   2
BRANCH   1   8
ATOM      8  C   UNL     1     -19.088  20.921  42.613  1.00  0.00     0.000 C 
BRANCH   8   9
ATOM      9  C   UNL     1     -20.074  20.421  41.542  1.00  0.00     0.000 C 
BRANCH   9  10
ATOM     10  C   UNL     1     -20.745  21.530  40.704  1.00  0.00     0.006 C 
BRANCH  10  11
ATOM     11  C   UNL     1     -21.779  22.370  41.470  1.00  0.00     0.053 C 
BRANCH  11  12
ATOM     12  C   UNL     1     -21.403  23.819  41.518  1.00  0.00     0.041 C 
ATOM     13  O   UNL     1     -20.311  24.173  42.034  1.00  0.00    -0.550 OA
ATOM     14  O   UNL     1     -22.243  24.776  40.961  1.00  0.00    -0.550 OA
ENDBRANCH  11  12
ENDBRANCH  10  11
ENDBRANCH   9  10
ENDBRANCH   8   9
ENDBRANCH   1   8
TORSDOF 9
ENDMDL
MODEL 7
REMARK VINA RESULT:    -3.692     16.621     19.690
REMARK INTER + INTRA:          -6.121
REMARK INTER:                  -5.706
REMARK INTRA:                  -0.415
REMARK UNBOUND:                -0.487
REMARK SMILES O=C([O-])CCCCCCCCC(=O)[O-]
REMARK SMILES IDX 7 1 6 2 5 3 4 4 2 5 1 6 3 7 8 8 9 9 10 10 11 11 12 12 13 13
REMARK SMILES IDX 14 14
REMARK H PARENT
REMARK Flexibility Score: inf
ROOT
ATOM      1  C   UNL     1     -21.801  21.766  38.715  1.00  0.00     0.000 C 
ENDROOT
BRANCH   1   2
ATOM      2  C   UNL     1     -22.981  21.356  37.821  1.00  0.00     0.000 C 
BRANCH   2   3
ATOM      3  C   UNL     1     -22.539  20.918  36.412  1.00  0.00     0.006 C 
BRANCH   3   4
ATOM      4  C   UNL     1     -22.547  22.047  35.369  1.00  0.00     0.053 C 
BRANCH   4   5
ATOM      5  C   UNL     1     -21.164  22.395  34.910  1.00  0.00     0.041 C 
ATOM      6  O   UNL     1     -20.273  21.508  34.852  1.00  0.00    -0.550 OA
ATOM      7  O   UNL     1     -20.851  23.707  34.577  1.00  0.00    -0.550 OA
ENDBRANCH   4   5
ENDBRANCH   3   4
ENDBRANCH   2   3
ENDBRANCH   1   2
BRANCH   1   8
ATOM      8  C   UNL     1     -22.277  22.649  39.878  1.00  0.00     0.000 C 
BRANCH   8   9
ATOM      9  C   UNL     1     -21.831  22.121  41.254  1.00  0.00     0.000 C 
BRANCH   9  10
ATOM     10  C   UNL     1     -20.656  21.121  41.219  1.00  0.00     0.006 C 
BRANCH  10  11
ATOM     11  C   UNL     1     -19.320  21.689  41.722  1.00  0.00     0.053 C 
BRANCH  11  12
ATOM     12  C   UNL     1     -18.201  20.705  41.576  1.00  0.00     0.041 C 
ATOM     13  O   UNL     1     -18.441  19.470  41.564  1.00  0.00    -0.550 OA
ATOM     14  O   UNL     1     -16.895  21.153  41.420  1.00  0.00    -0.550 OA
ENDBRANCH  11  12
ENDBRANCH  10  11
ENDBRANCH   9  10
ENDBRANCH   8   9
ENDBRANCH   1   8
TORSDOF 9
ENDMDL
MODEL 8
REMARK VINA RESULT:    -3.680      1.447      6.810
REMARK INTER + INTRA:          -6.103
REMARK INTER:                  -5.480
REMARK INTRA:                  -0.624
REMARK UNBOUND:                -0.487
REMARK SMILES O=C([O-])CCCCCCCCC(=O)[O-]
REMARK SMILES IDX 7 1 6 2 5 3 4 4 2 5 1 6 3 7 8 8 9 9 10 10 11 11 12 12 13 13
REMARK SMILES IDX 14 14
REMARK H PARENT
REMARK Flexibility Score: inf
ROOT
ATOM      1  C   UNL     1      -6.513  30.242  47.270  1.00  0.00     0.000 C 
ENDROOT
BRANCH   1   2
ATOM      2  C   UNL     1      -7.960  30.652  46.959  1.00  0.00     0.000 C 
BRANCH   2   3
ATOM      3  C   UNL     1      -8.514  29.975  45.692  1.00  0.00     0.006 C 
BRANCH   3   4
ATOM      4  C   UNL     1      -7.462  29.212  44.872  1.00  0.00     0.053 C 
BRANCH   4   5
ATOM      5  C   UNL     1      -7.777  27.751  44.775  1.00  0.00     0.041 C 
ATOM      6  O   UNL     1      -7.478  26.974  45.719  1.00  0.00    -0.550 OA
ATOM      7  O   UNL     1      -8.374  27.243  43.629  1.00  0.00    -0.550 OA
ENDBRANCH   4   5
ENDBRANCH   3   4
ENDBRANCH   2   3
ENDBRANCH   1   2
BRANCH   1   8
ATOM      8  C   UNL     1      -5.593  31.471  47.312  1.00  0.00     0.000 C 
BRANCH   8   9
ATOM      9  C   UNL     1      -6.277  32.751  46.798  1.00  0.00     0.000 C 
BRANCH   9  10
ATOM     10  C   UNL     1      -6.041  34.008  47.661  1.00  0.00     0.006 C 
BRANCH  10  11
ATOM     11  C   UNL     1      -5.227  33.759  48.941  1.00  0.00     0.053 C 
BRANCH  11  12
ATOM     12  C   UNL     1      -6.026  34.035  50.177  1.00  0.00     0.041 C 
ATOM     13  O   UNL     1      -7.126  34.640  50.098  1.00  0.00    -0.550 OA
ATOM     14  O   UNL     1      -5.571  33.592  51.414  1.00  0.00    -0.550 OA
ENDBRANCH  11  12
ENDBRANCH  10  11
ENDBRANCH   9  10
ENDBRANCH   8   9
ENDBRANCH   1   8
TORSDOF 9
ENDMDL
MODEL 9
REMARK VINA RESULT:    -3.607      1.884      2.466
REMARK INTER + INTRA:          -5.992
REMARK INTER:                  -5.149
REMARK INTRA:                  -0.843
REMARK UNBOUND:                -0.487
REMARK SMILES O=C([O-])CCCCCCCCC(=O)[O-]
REMARK SMILES IDX 7 1 6 2 5 3 4 4 2 5 1 6 3 7 8 8 9 9 10 10 11 11 12 12 13 13
REMARK SMILES IDX 14 14
REMARK H PARENT
REMARK Flexibility Score: inf
ROOT
ATOM      1  C   UNL     1      -4.076  30.943  46.914  1.00  0.00     0.000 C 
ENDROOT
BRANCH   1   2
ATOM      2  C   UNL     1      -4.468  32.118  46.007  1.00  0.00     0.000 C 
BRANCH   2   3
ATOM      3  C   UNL     1      -4.713  33.422  46.789  1.00  0.00     0.006 C 
BRANCH   3   4
ATOM      4  C   UNL     1      -4.486  33.301  48.305  1.00  0.00     0.053 C 
BRANCH   4   5
ATOM      5  C   UNL     1      -5.757  33.476  49.078  1.00  0.00     0.041 C 
ATOM      6  O   UNL     1      -6.860  33.546  48.476  1.00  0.00    -0.550 OA
ATOM      7  O   UNL     1      -5.719  33.594  50.461  1.00  0.00    -0.550 OA
ENDBRANCH   4   5
ENDBRANCH   3   4
ENDBRANCH   2   3
ENDBRANCH   1   2
BRANCH   1   8
ATOM      8  C   UNL     1      -5.081  29.789  46.779  1.00  0.00     0.000 C 
BRANCH   8   9
ATOM      9  C   UNL     1      -6.485  30.152  47.296  1.00  0.00     0.000 C 
BRANCH   9  10
ATOM     10  C   UNL     1      -7.602  30.107  46.233  1.00  0.00     0.006 C 
BRANCH  10  11
ATOM     11  C   UNL     1      -7.296  29.213  45.022  1.00  0.00     0.053 C 
BRANCH  11  12
ATOM     12  C   UNL     1      -7.919  27.857  45.153  1.00  0.00     0.041 C 
ATOM     13  O   UNL     1      -7.322  26.944  45.780  1.00  0.00    -0.550 OA
ATOM     14  O   UNL     1      -9.175  27.613  44.610  1.00  0.00    -0.550 OA
ENDBRANCH  11  12
ENDBRANCH  10  11
ENDBRANCH   9  10
ENDBRANCH   8   9
ENDBRANCH   1   8
TORSDOF 9
ENDMDL
