MODEL 1
REMARK VINA RESULT:    -4.817      0.000      0.000
REMARK INTER + INTRA:          -6.090
REMARK INTER:                  -5.803
REMARK INTRA:                  -0.288
REMARK UNBOUND:                -0.288
REMARK SMILES O=c1c(O)c(-c2ccc(O)c(O)c2)oc2cc(O)cc(O)c12
REMARK SMILES IDX 5 1 3 2 2 3 1 4 22 5 20 6 19 7 17 8 16 9 15 10 14 11 6 12
REMARK SMILES IDX 7 13 8 14 9 15 13 16 11 17 10 18 12 20 4 22 21 24 18 26
REMARK H PARENT 10 19 12 21 4 23 21 25 18 27
REMARK Flexibility Score: inf
ROOT
ATOM      1  C   UNL     1      13.079   8.895  17.720  1.00  0.00     0.180 A 
ATOM      2  C   UNL     1      11.838   9.104  17.090  1.00  0.00     0.208 A 
ATOM      3  C   UNL     1      11.816   9.438  15.727  1.00  0.00     0.238 A 
ATOM      4  O   UNL     1      10.708   9.616  15.149  1.00  0.00    -0.285 OA
ATOM      5  C   UNL     1      13.030   9.578  15.024  1.00  0.00     0.111 A 
ATOM      6  C   UNL     1      13.095   9.917  13.651  1.00  0.00     0.134 A 
ATOM      7  C   UNL     1      14.344  10.047  13.025  1.00  0.00     0.093 A 
ATOM      8  C   UNL     1      15.527   9.846  13.746  1.00  0.00     0.123 A 
ATOM      9  C   UNL     1      15.467   9.512  15.100  1.00  0.00     0.094 A 
ATOM     10  C   UNL     1      14.232   9.376  15.741  1.00  0.00     0.146 A 
ATOM     11  O   UNL     1      14.205   9.051  17.029  1.00  0.00    -0.452 OA
ENDROOT
BRANCH   1  12
ATOM     12  C   UNL     1      13.184   8.522  19.148  1.00  0.00     0.025 A 
ATOM     13  C   UNL     1      13.617   9.477  20.082  1.00  0.00     0.016 A 
ATOM     14  C   UNL     1      13.744   9.141  21.432  1.00  0.00     0.051 A 
ATOM     15  C   UNL     1      13.453   7.841  21.866  1.00  0.00     0.157 A 
ATOM     16  C   UNL     1      12.914   7.212  19.585  1.00  0.00     0.062 A 
ATOM     17  C   UNL     1      13.042   6.874  20.941  1.00  0.00     0.158 A 
BRANCH  15  18
ATOM     18  O   UNL     1      13.576   7.502  23.213  1.00  0.00    -0.504 OA
ATOM     19  H   UNL     1      12.854   7.732  23.885  1.00  0.00     0.293 HD
ENDBRANCH  15  18
BRANCH  17  20
ATOM     20  O   UNL     1      12.768   5.577  21.372  1.00  0.00    -0.504 OA
ATOM     21  H   UNL     1      11.837   5.300  21.662  1.00  0.00     0.293 HD
ENDBRANCH  17  20
ENDBRANCH   1  12
BRANCH   2  22
ATOM     22  O   UNL     1      10.650   9.007  17.820  1.00  0.00    -0.502 OA
ATOM     23  H   UNL     1       9.770   8.745  17.392  1.00  0.00     0.293 HD
ENDBRANCH   2  22
BRANCH   6  24
ATOM     24  O   UNL     1      11.934  10.125  12.907  1.00  0.00    -0.507 OA
ATOM     25  H   UNL     1      11.107  10.546  13.315  1.00  0.00     0.293 HD
ENDBRANCH   6  24
BRANCH   8  26
ATOM     26  O   UNL     1      16.767   9.975  13.126  1.00  0.00    -0.508 OA
ATOM     27  H   UNL     1      17.310  10.829  13.200  1.00  0.00     0.293 HD
ENDBRANCH   8  26
TORSDOF 6
ENDMDL
MODEL 2
REMARK VINA RESULT:    -4.447      5.816     11.078
REMARK INTER + INTRA:          -5.644
REMARK INTER:                  -5.328
REMARK INTRA:                  -0.316
REMARK UNBOUND:                -0.288
REMARK SMILES O=c1c(O)c(-c2ccc(O)c(O)c2)oc2cc(O)cc(O)c12
REMARK SMILES IDX 5 1 3 2 2 3 1 4 22 5 20 6 19 7 17 8 16 9 15 10 14 11 6 12
REMARK SMILES IDX 7 13 8 14 9 15 13 16 11 17 10 18 12 20 4 22 21 24 18 26
REMARK H PARENT 10 19 12 21 4 23 21 25 18 27
REMARK Flexibility Score: inf
ROOT
ATOM      1  C   UNL     1      12.046   8.187  25.667  1.00  0.00     0.180 A 
ATOM      2  C   UNL     1      10.694   8.554  25.807  1.00  0.00     0.208 A 
ATOM      3  C   UNL     1      10.021   8.225  26.994  1.00  0.00     0.238 A 
ATOM      4  O   UNL     1       8.813   8.559  27.135  1.00  0.00    -0.285 OA
ATOM      5  C   UNL     1      10.700   7.517  28.007  1.00  0.00     0.111 A 
ATOM      6  C   UNL     1      10.092   7.142  29.230  1.00  0.00     0.134 A 
ATOM      7  C   UNL     1      10.833   6.431  30.185  1.00  0.00     0.093 A 
ATOM      8  C   UNL     1      12.168   6.087  29.940  1.00  0.00     0.123 A 
ATOM      9  C   UNL     1      12.771   6.454  28.736  1.00  0.00     0.094 A 
ATOM     10  C   UNL     1      12.049   7.164  27.772  1.00  0.00     0.146 A 
ATOM     11  O   UNL     1      12.650   7.507  26.638  1.00  0.00    -0.452 OA
ENDROOT
BRANCH   1  12
ATOM     12  C   UNL     1      12.829   8.515  24.455  1.00  0.00     0.025 A 
ATOM     13  C   UNL     1      13.420   9.783  24.337  1.00  0.00     0.016 A 
ATOM     14  C   UNL     1      14.146  10.123  23.192  1.00  0.00     0.051 A 
ATOM     15  C   UNL     1      14.278   9.205  22.143  1.00  0.00     0.157 A 
ATOM     16  C   UNL     1      12.947   7.604  23.389  1.00  0.00     0.062 A 
ATOM     17  C   UNL     1      13.674   7.945  22.239  1.00  0.00     0.158 A 
BRANCH  15  18
ATOM     18  O   UNL     1      15.003   9.538  20.999  1.00  0.00    -0.504 OA
ATOM     19  H   UNL     1      14.839  10.406  20.503  1.00  0.00     0.293 HD
ENDBRANCH  15  18
BRANCH  17  20
ATOM     20  O   UNL     1      13.796   7.038  21.188  1.00  0.00    -0.504 OA
ATOM     21  H   UNL     1      13.242   7.126  20.344  1.00  0.00     0.293 HD
ENDBRANCH  17  20
ENDBRANCH   1  12
BRANCH   2  22
ATOM     22  O   UNL     1      10.030   9.212  24.769  1.00  0.00    -0.502 OA
ATOM     23  H   UNL     1      10.160  10.199  24.581  1.00  0.00     0.293 HD
ENDBRANCH   2  22
BRANCH   6  24
ATOM     24  O   UNL     1       8.764   7.470  29.502  1.00  0.00    -0.507 OA
ATOM     25  H   UNL     1       7.999   7.101  28.948  1.00  0.00     0.293 HD
ENDBRANCH   6  24
BRANCH   8  26
ATOM     26  O   UNL     1      12.904   5.379  30.888  1.00  0.00    -0.508 OA
ATOM     27  H   UNL     1      12.465   4.980  31.710  1.00  0.00     0.293 HD
ENDBRANCH   8  26
TORSDOF 6
ENDMDL
MODEL 3
REMARK VINA RESULT:    -4.425     12.232     15.466
REMARK INTER + INTRA:          -5.618
REMARK INTER:                  -5.390
REMARK INTRA:                  -0.228
REMARK UNBOUND:                -0.288
REMARK SMILES O=c1c(O)c(-c2ccc(O)c(O)c2)oc2cc(O)cc(O)c12
REMARK SMILES IDX 5 1 3 2 2 3 1 4 22 5 20 6 19 7 17 8 16 9 15 10 14 11 6 12
REMARK SMILES IDX 7 13 8 14 9 15 13 16 11 17 10 18 12 20 4 22 21 24 18 26
REMARK H PARENT 10 19 12 21 4 23 21 25 18 27
REMARK Flexibility Score: inf
ROOT
ATOM      1  C   UNL     1      13.235  -4.937  20.434  1.00  0.00     0.180 A 
ATOM      2  C   UNL     1      12.684  -6.135  19.942  1.00  0.00     0.208 A 
ATOM      3  C   UNL     1      13.409  -7.327  20.089  1.00  0.00     0.238 A 
ATOM      4  O   UNL     1      12.919  -8.408  19.662  1.00  0.00    -0.285 OA
ATOM      5  C   UNL     1      14.678  -7.300  20.703  1.00  0.00     0.111 A 
ATOM      6  C   UNL     1      15.475  -8.455  20.886  1.00  0.00     0.134 A 
ATOM      7  C   UNL     1      16.732  -8.344  21.498  1.00  0.00     0.093 A 
ATOM      8  C   UNL     1      17.206  -7.100  21.931  1.00  0.00     0.123 A 
ATOM      9  C   UNL     1      16.423  -5.957  21.753  1.00  0.00     0.094 A 
ATOM     10  C   UNL     1      15.168  -6.049  21.145  1.00  0.00     0.146 A 
ATOM     11  O   UNL     1      14.441  -4.947  20.995  1.00  0.00    -0.452 OA
ENDROOT
BRANCH   1  12
ATOM     12  C   UNL     1      12.523  -3.643  20.334  1.00  0.00     0.025 A 
ATOM     13  C   UNL     1      13.053  -2.624  19.526  1.00  0.00     0.016 A 
ATOM     14  C   UNL     1      12.410  -1.387  19.433  1.00  0.00     0.051 A 
ATOM     15  C   UNL     1      11.235  -1.147  20.158  1.00  0.00     0.157 A 
ATOM     16  C   UNL     1      11.355  -3.390  21.076  1.00  0.00     0.062 A 
ATOM     17  C   UNL     1      10.710  -2.148  20.984  1.00  0.00     0.158 A 
BRANCH  15  18
ATOM     18  O   UNL     1      10.588   0.085  20.067  1.00  0.00    -0.504 OA
ATOM     19  H   UNL     1      10.883   0.880  20.621  1.00  0.00     0.293 HD
ENDBRANCH  15  18
BRANCH  17  20
ATOM     20  O   UNL     1       9.549  -1.902  21.715  1.00  0.00    -0.504 OA
ATOM     21  H   UNL     1       8.644  -2.235  21.404  1.00  0.00     0.293 HD
ENDBRANCH  17  20
ENDBRANCH   1  12
BRANCH   2  22
ATOM     22  O   UNL     1      11.446  -6.128  19.293  1.00  0.00    -0.502 OA
ATOM     23  H   UNL     1      10.742  -6.837  19.459  1.00  0.00     0.293 HD
ENDBRANCH   2  22
BRANCH   6  24
ATOM     24  O   UNL     1      15.030  -9.709  20.464  1.00  0.00    -0.507 OA
ATOM     25  H   UNL     1      15.469 -10.565  20.782  1.00  0.00     0.293 HD
ENDBRANCH   6  24
BRANCH   8  26
ATOM     26  O   UNL     1      18.454  -6.988  22.539  1.00  0.00    -0.508 OA
ATOM     27  H   UNL     1      19.027  -7.803  22.726  1.00  0.00     0.293 HD
ENDBRANCH   8  26
TORSDOF 6
ENDMDL
MODEL 4
REMARK VINA RESULT:    -4.339      4.088      6.048
REMARK INTER + INTRA:          -5.515
REMARK INTER:                  -5.842
REMARK INTRA:                   0.327
REMARK UNBOUND:                -0.288
REMARK SMILES O=c1c(O)c(-c2ccc(O)c(O)c2)oc2cc(O)cc(O)c12
REMARK SMILES IDX 5 1 3 2 2 3 1 4 22 5 20 6 19 7 17 8 16 9 15 10 14 11 6 12
REMARK SMILES IDX 7 13 8 14 9 15 13 16 11 17 10 18 12 20 4 22 21 24 18 26
REMARK H PARENT 10 19 12 21 4 23 21 25 18 27
REMARK Flexibility Score: inf
ROOT
ATOM      1  C   UNL     1      13.937   8.170  22.229  1.00  0.00     0.180 A 
ATOM      2  C   UNL     1      12.669   8.211  22.841  1.00  0.00     0.208 A 
ATOM      3  C   UNL     1      11.556   7.742  22.126  1.00  0.00     0.238 A 
ATOM      4  O   UNL     1      10.417   7.763  22.668  1.00  0.00    -0.285 OA
ATOM      5  C   UNL     1      11.723   7.264  20.810  1.00  0.00     0.111 A 
ATOM      6  C   UNL     1      10.653   6.779  20.021  1.00  0.00     0.134 A 
ATOM      7  C   UNL     1      10.899   6.328  18.716  1.00  0.00     0.093 A 
ATOM      8  C   UNL     1      12.195   6.353  18.186  1.00  0.00     0.123 A 
ATOM      9  C   UNL     1      13.253   6.831  18.961  1.00  0.00     0.094 A 
ATOM     10  C   UNL     1      13.027   7.283  20.264  1.00  0.00     0.146 A 
ATOM     11  O   UNL     1      14.054   7.726  20.981  1.00  0.00    -0.452 OA
ENDROOT
BRANCH   1  12
ATOM     12  C   UNL     1      15.160   8.628  22.925  1.00  0.00     0.025 A 
ATOM     13  C   UNL     1      15.070   9.655  23.879  1.00  0.00     0.016 A 
ATOM     14  C   UNL     1      16.215  10.118  24.532  1.00  0.00     0.051 A 
ATOM     15  C   UNL     1      17.469   9.571  24.230  1.00  0.00     0.157 A 
ATOM     16  C   UNL     1      16.424   8.097  22.610  1.00  0.00     0.062 A 
ATOM     17  C   UNL     1      17.575   8.563  23.264  1.00  0.00     0.158 A 
BRANCH  15  18
ATOM     18  O   UNL     1      18.614  10.028  24.881  1.00  0.00    -0.504 OA
ATOM     19  H   UNL     1      18.782  11.017  25.024  1.00  0.00     0.293 HD
ENDBRANCH  15  18
BRANCH  17  20
ATOM     20  O   UNL     1      18.825   8.031  22.955  1.00  0.00    -0.504 OA
ATOM     21  H   UNL     1      19.616   8.133  23.581  1.00  0.00     0.293 HD
ENDBRANCH  17  20
ENDBRANCH   1  12
BRANCH   2  22
ATOM     22  O   UNL     1      12.522   8.735  24.128  1.00  0.00    -0.502 OA
ATOM     23  H   UNL     1      11.651   8.678  24.641  1.00  0.00     0.293 HD
ENDBRANCH   2  22
BRANCH   6  24
ATOM     24  O   UNL     1       9.351   6.742  20.521  1.00  0.00    -0.507 OA
ATOM     25  H   UNL     1       8.884   7.577  20.857  1.00  0.00     0.293 HD
ENDBRANCH   6  24
BRANCH   8  26
ATOM     26  O   UNL     1      12.441   5.906  16.890  1.00  0.00    -0.508 OA
ATOM     27  H   UNL     1      13.110   5.168  16.702  1.00  0.00     0.293 HD
ENDBRANCH   8  26
TORSDOF 6
ENDMDL
MODEL 5
REMARK VINA RESULT:    -4.298     13.898     16.774
REMARK INTER + INTRA:          -5.466
REMARK INTER:                  -5.136
REMARK INTRA:                  -0.329
REMARK UNBOUND:                -0.288
REMARK SMILES O=c1c(O)c(-c2ccc(O)c(O)c2)oc2cc(O)cc(O)c12
REMARK SMILES IDX 5 1 3 2 2 3 1 4 22 5 20 6 19 7 17 8 16 9 15 10 14 11 6 12
REMARK SMILES IDX 7 13 8 14 9 15 13 16 11 17 10 18 12 20 4 22 21 24 18 26
REMARK H PARENT 10 19 12 21 4 23 21 25 18 27
REMARK Flexibility Score: inf
ROOT
ATOM      1  C   UNL     1      10.184  -7.135  21.071  1.00  0.00     0.180 A 
ATOM      2  C   UNL     1      11.237  -7.731  20.352  1.00  0.00     0.208 A 
ATOM      3  C   UNL     1      12.246  -6.912  19.822  1.00  0.00     0.238 A 
ATOM      4  O   UNL     1      13.200  -7.437  19.185  1.00  0.00    -0.285 OA
ATOM      5  C   UNL     1      12.174  -5.515  19.999  1.00  0.00     0.111 A 
ATOM      6  C   UNL     1      13.147  -4.620  19.492  1.00  0.00     0.134 A 
ATOM      7  C   UNL     1      12.999  -3.241  19.703  1.00  0.00     0.093 A 
ATOM      8  C   UNL     1      11.899  -2.742  20.410  1.00  0.00     0.123 A 
ATOM      9  C   UNL     1      10.937  -3.621  20.911  1.00  0.00     0.094 A 
ATOM     10  C   UNL     1      11.067  -4.999  20.712  1.00  0.00     0.146 A 
ATOM     11  O   UNL     1      10.141  -5.813  21.206  1.00  0.00    -0.452 OA
ENDROOT
BRANCH   1  12
ATOM     12  C   UNL     1       9.094  -7.933  21.677  1.00  0.00     0.025 A 
ATOM     13  C   UNL     1       7.876  -8.070  20.992  1.00  0.00     0.016 A 
ATOM     14  C   UNL     1       6.825  -8.801  21.554  1.00  0.00     0.051 A 
ATOM     15  C   UNL     1       6.974  -9.393  22.815  1.00  0.00     0.157 A 
ATOM     16  C   UNL     1       9.231  -8.512  22.952  1.00  0.00     0.062 A 
ATOM     17  C   UNL     1       8.176  -9.244  23.517  1.00  0.00     0.158 A 
BRANCH  15  18
ATOM     18  O   UNL     1       5.929 -10.124  23.379  1.00  0.00    -0.504 OA
ATOM     19  H   UNL     1       5.603  -9.942  24.320  1.00  0.00     0.293 HD
ENDBRANCH  15  18
BRANCH  17  20
ATOM     20  O   UNL     1       8.316  -9.822  24.778  1.00  0.00    -0.504 OA
ATOM     21  H   UNL     1       8.077 -10.792  24.947  1.00  0.00     0.293 HD
ENDBRANCH  17  20
ENDBRANCH   1  12
BRANCH   2  22
ATOM     22  O   UNL     1      11.259  -9.114  20.148  1.00  0.00    -0.502 OA
ATOM     23  H   UNL     1      12.084  -9.600  19.818  1.00  0.00     0.293 HD
ENDBRANCH   2  22
BRANCH   6  24
ATOM     24  O   UNL     1      14.254  -5.087  18.784  1.00  0.00    -0.507 OA
ATOM     25  H   UNL     1      15.145  -4.605  18.807  1.00  0.00     0.293 HD
ENDBRANCH   6  24
BRANCH   8  26
ATOM     26  O   UNL     1      11.751  -1.372  20.619  1.00  0.00    -0.508 OA
ATOM     27  H   UNL     1      12.466  -0.828  21.089  1.00  0.00     0.293 HD
ENDBRANCH   8  26
TORSDOF 6
ENDMDL
MODEL 6
REMARK VINA RESULT:    -4.170      2.829      8.371
REMARK INTER + INTRA:          -5.311
REMARK INTER:                  -5.130
REMARK INTRA:                  -0.181
REMARK UNBOUND:                -0.288
REMARK SMILES O=c1c(O)c(-c2ccc(O)c(O)c2)oc2cc(O)cc(O)c12
REMARK SMILES IDX 5 1 3 2 2 3 1 4 22 5 20 6 19 7 17 8 16 9 15 10 14 11 6 12
REMARK SMILES IDX 7 13 8 14 9 15 13 16 11 17 10 18 12 20 4 22 21 24 18 26
REMARK H PARENT 10 19 12 21 4 23 21 25 18 27
REMARK Flexibility Score: inf
ROOT
ATOM      1  C   UNL     1      13.137   8.908  21.379  1.00  0.00     0.180 A 
ATOM      2  C   UNL     1      14.259   9.172  22.188  1.00  0.00     0.208 A 
ATOM      3  C   UNL     1      14.093   9.234  23.580  1.00  0.00     0.238 A 
ATOM      4  O   UNL     1      15.094   9.458  24.314  1.00  0.00    -0.285 OA
ATOM      5  C   UNL     1      12.810   9.054  24.138  1.00  0.00     0.111 A 
ATOM      6  C   UNL     1      12.558   9.106  25.530  1.00  0.00     0.134 A 
ATOM      7  C   UNL     1      11.251   8.926  26.006  1.00  0.00     0.093 A 
ATOM      8  C   UNL     1      10.194   8.696  25.118  1.00  0.00     0.123 A 
ATOM      9  C   UNL     1      10.438   8.644  23.745  1.00  0.00     0.094 A 
ATOM     10  C   UNL     1      11.734   8.820  23.250  1.00  0.00     0.146 A 
ATOM     11  O   UNL     1      11.939   8.759  21.940  1.00  0.00    -0.452 OA
ENDROOT
BRANCH   1  12
ATOM     12  C   UNL     1      13.234   8.809  19.906  1.00  0.00     0.025 A 
ATOM     13  C   UNL     1      13.525   9.958  19.153  1.00  0.00     0.016 A 
ATOM     14  C   UNL     1      13.601   9.892  17.760  1.00  0.00     0.051 A 
ATOM     15  C   UNL     1      13.373   8.679  17.098  1.00  0.00     0.157 A 
ATOM     16  C   UNL     1      12.985   7.598  19.235  1.00  0.00     0.062 A 
ATOM     17  C   UNL     1      13.059   7.531  17.836  1.00  0.00     0.158 A 
BRANCH  15  18
ATOM     18  O   UNL     1      13.449   8.608  15.707  1.00  0.00    -0.504 OA
ATOM     19  H   UNL     1      14.315   8.377  15.236  1.00  0.00     0.293 HD
ENDBRANCH  15  18
BRANCH  17  20
ATOM     20  O   UNL     1      12.818   6.328  17.174  1.00  0.00    -0.504 OA
ATOM     21  H   UNL     1      12.552   6.304  16.196  1.00  0.00     0.293 HD
ENDBRANCH  17  20
ENDBRANCH   1  12
BRANCH   2  22
ATOM     22  O   UNL     1      15.510   9.395  21.607  1.00  0.00    -0.502 OA
ATOM     23  H   UNL     1      16.371   9.354  22.140  1.00  0.00     0.293 HD
ENDBRANCH   2  22
BRANCH   6  24
ATOM     24  O   UNL     1      13.591   9.334  26.439  1.00  0.00    -0.507 OA
ATOM     25  H   UNL     1      13.479   9.152  27.430  1.00  0.00     0.293 HD
ENDBRANCH   6  24
BRANCH   8  26
ATOM     26  O   UNL     1       8.895   8.518  25.590  1.00  0.00    -0.508 OA
ATOM     27  H   UNL     1       8.701   8.418  26.580  1.00  0.00     0.293 HD
ENDBRANCH   8  26
TORSDOF 6
ENDMDL
MODEL 7
REMARK VINA RESULT:    -4.136     11.525     12.800
REMARK INTER + INTRA:          -5.270
REMARK INTER:                  -4.947
REMARK INTRA:                  -0.323
REMARK UNBOUND:                -0.288
REMARK SMILES O=c1c(O)c(-c2ccc(O)c(O)c2)oc2cc(O)cc(O)c12
REMARK SMILES IDX 5 1 3 2 2 3 1 4 22 5 20 6 19 7 17 8 16 9 15 10 14 11 6 12
REMARK SMILES IDX 7 13 8 14 9 15 13 16 11 17 10 18 12 20 4 22 21 24 18 26
REMARK H PARENT 10 19 12 21 4 23 21 25 18 27
REMARK Flexibility Score: inf
ROOT
ATOM      1  C   UNL     1      10.576  -1.528  13.927  1.00  0.00     0.180 A 
ATOM      2  C   UNL     1      11.844  -1.389  14.523  1.00  0.00     0.208 A 
ATOM      3  C   UNL     1      12.832  -2.347  14.247  1.00  0.00     0.238 A 
ATOM      4  O   UNL     1      13.975  -2.227  14.766  1.00  0.00    -0.285 OA
ATOM      5  C   UNL     1      12.531  -3.435  13.401  1.00  0.00     0.111 A 
ATOM      6  C   UNL     1      13.468  -4.445  13.076  1.00  0.00     0.134 A 
ATOM      7  C   UNL     1      13.089  -5.500  12.234  1.00  0.00     0.093 A 
ATOM      8  C   UNL     1      11.792  -5.564  11.711  1.00  0.00     0.123 A 
ATOM      9  C   UNL     1      10.865  -4.570  12.029  1.00  0.00     0.094 A 
ATOM     10  C   UNL     1      11.224  -3.510  12.866  1.00  0.00     0.146 A 
ATOM     11  O   UNL     1      10.324  -2.574  13.146  1.00  0.00    -0.452 OA
ENDROOT
BRANCH   1  12
ATOM     12  C   UNL     1       9.489  -0.549  14.154  1.00  0.00     0.025 A 
ATOM     13  C   UNL     1       9.355   0.548  13.288  1.00  0.00     0.016 A 
ATOM     14  C   UNL     1       8.350   1.496  13.495  1.00  0.00     0.051 A 
ATOM     15  C   UNL     1       7.473   1.368  14.581  1.00  0.00     0.157 A 
ATOM     16  C   UNL     1       8.619  -0.662  15.254  1.00  0.00     0.062 A 
ATOM     17  C   UNL     1       7.611   0.291  15.464  1.00  0.00     0.158 A 
BRANCH  15  18
ATOM     18  O   UNL     1       6.467   2.310  14.791  1.00  0.00    -0.504 OA
ATOM     19  H   UNL     1       6.496   2.949  15.576  1.00  0.00     0.293 HD
ENDBRANCH  15  18
BRANCH  17  20
ATOM     20  O   UNL     1       6.746   0.173  16.551  1.00  0.00    -0.504 OA
ATOM     21  H   UNL     1       5.763  -0.035  16.427  1.00  0.00     0.293 HD
ENDBRANCH  17  20
ENDBRANCH   1  12
BRANCH   2  22
ATOM     22  O   UNL     1      12.102  -0.329  15.396  1.00  0.00    -0.502 OA
ATOM     23  H   UNL     1      12.322   0.603  15.067  1.00  0.00     0.293 HD
ENDBRANCH   2  22
BRANCH   6  24
ATOM     24  O   UNL     1      14.768  -4.408  13.582  1.00  0.00    -0.507 OA
ATOM     25  H   UNL     1      15.515  -4.958  13.173  1.00  0.00     0.293 HD
ENDBRANCH   6  24
BRANCH   8  26
ATOM     26  O   UNL     1      11.414  -6.613  10.875  1.00  0.00    -0.508 OA
ATOM     27  H   UNL     1      11.976  -6.881  10.075  1.00  0.00     0.293 HD
ENDBRANCH   8  26
TORSDOF 6
ENDMDL
MODEL 8
REMARK VINA RESULT:    -4.071      9.765     10.970
REMARK INTER + INTRA:          -5.192
REMARK INTER:                  -4.862
REMARK INTRA:                  -0.330
REMARK UNBOUND:                -0.288
REMARK SMILES O=c1c(O)c(-c2ccc(O)c(O)c2)oc2cc(O)cc(O)c12
REMARK SMILES IDX 5 1 3 2 2 3 1 4 22 5 20 6 19 7 17 8 16 9 15 10 14 11 6 12
REMARK SMILES IDX 7 13 8 14 9 15 13 16 11 17 10 18 12 20 4 22 21 24 18 26
REMARK H PARENT 10 19 12 21 4 23 21 25 18 27
REMARK Flexibility Score: inf
ROOT
ATOM      1  C   UNL     1       8.613   0.521  14.363  1.00  0.00     0.180 A 
ATOM      2  C   UNL     1       7.622   0.395  15.355  1.00  0.00     0.208 A 
ATOM      3  C   UNL     1       6.499   1.236  15.302  1.00  0.00     0.238 A 
ATOM      4  O   UNL     1       5.599   1.124  16.179  1.00  0.00    -0.285 OA
ATOM      5  C   UNL     1       6.397   2.199  14.277  1.00  0.00     0.111 A 
ATOM      6  C   UNL     1       5.302   3.087  14.156  1.00  0.00     0.134 A 
ATOM      7  C   UNL     1       5.278   4.025  13.113  1.00  0.00     0.093 A 
ATOM      8  C   UNL     1       6.329   4.090  12.190  1.00  0.00     0.123 A 
ATOM      9  C   UNL     1       7.411   3.216  12.306  1.00  0.00     0.094 A 
ATOM     10  C   UNL     1       7.452   2.275  13.338  1.00  0.00     0.146 A 
ATOM     11  O   UNL     1       8.491   1.451  13.420  1.00  0.00    -0.452 OA
ENDROOT
BRANCH   1  12
ATOM     12  C   UNL     1       9.816  -0.342  14.340  1.00  0.00     0.025 A 
ATOM     13  C   UNL     1      10.977   0.073  15.012  1.00  0.00     0.016 A 
ATOM     14  C   UNL     1      12.131  -0.715  14.986  1.00  0.00     0.051 A 
ATOM     15  C   UNL     1      12.144  -1.922  14.274  1.00  0.00     0.157 A 
ATOM     16  C   UNL     1       9.842  -1.544  13.609  1.00  0.00     0.062 A 
ATOM     17  C   UNL     1      11.000  -2.334  13.581  1.00  0.00     0.158 A 
BRANCH  15  18
ATOM     18  O   UNL     1      13.293  -2.712  14.246  1.00  0.00    -0.504 OA
ATOM     19  H   UNL     1      14.211  -2.307  14.112  1.00  0.00     0.293 HD
ENDBRANCH  15  18
BRANCH  17  20
ATOM     20  O   UNL     1      11.021  -3.528  12.862  1.00  0.00    -0.504 OA
ATOM     21  H   UNL     1      11.594  -4.312  13.150  1.00  0.00     0.293 HD
ENDBRANCH  17  20
ENDBRANCH   1  12
BRANCH   2  22
ATOM     22  O   UNL     1       7.770  -0.534  16.388  1.00  0.00    -0.502 OA
ATOM     23  H   UNL     1       8.558  -0.517  17.024  1.00  0.00     0.293 HD
ENDBRANCH   2  22
BRANCH   6  24
ATOM     24  O   UNL     1       4.241   3.047  15.061  1.00  0.00    -0.507 OA
ATOM     25  H   UNL     1       3.446   3.671  14.980  1.00  0.00     0.293 HD
ENDBRANCH   6  24
BRANCH   8  26
ATOM     26  O   UNL     1       6.307   5.021  11.154  1.00  0.00    -0.508 OA
ATOM     27  H   UNL     1       5.573   5.019  10.455  1.00  0.00     0.293 HD
ENDBRANCH   8  26
TORSDOF 6
ENDMDL
MODEL 9
REMARK VINA RESULT:    -4.052      8.711      9.708
REMARK INTER + INTRA:          -5.169
REMARK INTER:                  -4.844
REMARK INTRA:                  -0.324
REMARK UNBOUND:                -0.288
REMARK SMILES O=c1c(O)c(-c2ccc(O)c(O)c2)oc2cc(O)cc(O)c12
REMARK SMILES IDX 5 1 3 2 2 3 1 4 22 5 20 6 19 7 17 8 16 9 15 10 14 11 6 12
REMARK SMILES IDX 7 13 8 14 9 15 13 16 11 17 10 18 12 20 4 22 21 24 18 26
REMARK H PARENT 10 19 12 21 4 23 21 25 18 27
REMARK Flexibility Score: inf
ROOT
ATOM      1  C   UNL     1      10.756   0.485  14.090  1.00  0.00     0.180 A 
ATOM      2  C   UNL     1       9.394   0.340  14.413  1.00  0.00     0.208 A 
ATOM      3  C   UNL     1       8.477   1.286  13.929  1.00  0.00     0.238 A 
ATOM      4  O   UNL     1       7.252   1.159  14.203  1.00  0.00    -0.285 OA
ATOM      5  C   UNL     1       8.937   2.369  13.152  1.00  0.00     0.111 A 
ATOM      6  C   UNL     1       8.080   3.367  12.631  1.00  0.00     0.134 A 
ATOM      7  C   UNL     1       8.616   4.419  11.873  1.00  0.00     0.093 A 
ATOM      8  C   UNL     1       9.993   4.490  11.629  1.00  0.00     0.123 A 
ATOM      9  C   UNL     1      10.842   3.508  12.141  1.00  0.00     0.094 A 
ATOM     10  C   UNL     1      10.326   2.452  12.897  1.00  0.00     0.146 A 
ATOM     11  O   UNL     1      11.156   1.527  13.367  1.00  0.00    -0.452 OA
ENDROOT
BRANCH   1  12
ATOM     12  C   UNL     1      11.780  -0.481  14.547  1.00  0.00     0.025 A 
ATOM     13  C   UNL     1      12.067  -1.608  13.759  1.00  0.00     0.016 A 
ATOM     14  C   UNL     1      13.014  -2.545  14.180  1.00  0.00     0.051 A 
ATOM     15  C   UNL     1      13.678  -2.375  15.402  1.00  0.00     0.157 A 
ATOM     16  C   UNL     1      12.435  -0.326  15.782  1.00  0.00     0.062 A 
ATOM     17  C   UNL     1      13.385  -1.267  16.206  1.00  0.00     0.158 A 
BRANCH  15  18
ATOM     18  O   UNL     1      14.626  -3.306  15.826  1.00  0.00    -0.504 OA
ATOM     19  H   UNL     1      14.860  -4.116  15.265  1.00  0.00     0.293 HD
ENDBRANCH  15  18
BRANCH  17  20
ATOM     20  O   UNL     1      14.037  -1.108  17.428  1.00  0.00    -0.504 OA
ATOM     21  H   UNL     1      14.243  -0.190  17.805  1.00  0.00     0.293 HD
ENDBRANCH  17  20
ENDBRANCH   1  12
BRANCH   2  22
ATOM     22  O   UNL     1       8.970  -0.715  15.226  1.00  0.00    -0.502 OA
ATOM     23  H   UNL     1       9.582  -1.478  15.488  1.00  0.00     0.293 HD
ENDBRANCH   2  22
BRANCH   6  24
ATOM     24  O   UNL     1       6.704   3.323  12.858  1.00  0.00    -0.507 OA
ATOM     25  H   UNL     1       6.096   2.703  12.334  1.00  0.00     0.293 HD
ENDBRANCH   6  24
BRANCH   8  26
ATOM     26  O   UNL     1      10.527   5.535  10.877  1.00  0.00    -0.508 OA
ATOM     27  H   UNL     1      10.913   6.362  11.319  1.00  0.00     0.293 HD
ENDBRANCH   8  26
TORSDOF 6
ENDMDL
