MODEL 1
REMARK VINA RESULT:    -3.919      0.000      0.000
REMARK INTER + INTRA:          -4.723
REMARK INTER:                  -4.606
REMARK INTRA:                  -0.118
REMARK UNBOUND:                -0.118
REMARK SMILES O=C([O-])CCC(=O)[O-]
REMARK SMILES IDX 4 1 2 2 1 3 3 4 5 5 6 6 7 7 8 8
REMARK H PARENT
REMARK Flexibility Score: inf
ROOT
ATOM      1  C   UNL     1      23.385 -36.550 -29.464  1.00  0.00     0.059 C 
ENDROOT
BRANCH   1   2
ATOM      2  C   UNL     1      21.926 -36.379 -29.763  1.00  0.00     0.042 C 
ATOM      3  O   UNL     1      21.389 -37.040 -30.690  1.00  0.00    -0.550 OA
ATOM      4  O   UNL     1      21.171 -35.460 -29.044  1.00  0.00    -0.550 OA
ENDBRANCH   1   2
BRANCH   1   5
ATOM      5  C   UNL     1      23.610 -37.490 -28.274  1.00  0.00     0.059 C 
BRANCH   5   6
ATOM      6  C   UNL     1      24.134 -36.753 -27.080  1.00  0.00     0.042 C 
ATOM      7  O   UNL     1      23.959 -35.511 -26.975  1.00  0.00    -0.550 OA
ATOM      8  O   UNL     1      24.779 -37.446 -26.063  1.00  0.00    -0.550 OA
ENDBRANCH   5   6
ENDBRANCH   1   5
TORSDOF 3
ENDMDL
MODEL 2
REMARK VINA RESULT:    -3.883      0.238      3.975
REMARK INTER + INTRA:          -4.681
REMARK INTER:                  -4.567
REMARK INTRA:                  -0.115
REMARK UNBOUND:                -0.118
REMARK SMILES O=C([O-])CCC(=O)[O-]
REMARK SMILES IDX 4 1 2 2 1 3 3 4 5 5 6 6 7 7 8 8
REMARK H PARENT
REMARK Flexibility Score: inf
ROOT
ATOM      1  C   UNL     1      23.530 -37.635 -28.386  1.00  0.00     0.059 C 
ENDROOT
BRANCH   1   2
ATOM      2  C   UNL     1      24.163 -36.961 -27.206  1.00  0.00     0.042 C 
ATOM      3  O   UNL     1      24.025 -35.721 -27.037  1.00  0.00    -0.550 OA
ATOM      4  O   UNL     1      24.936 -37.696 -26.316  1.00  0.00    -0.550 OA
ENDBRANCH   1   2
BRANCH   1   5
ATOM      5  C   UNL     1      23.406 -36.682 -29.580  1.00  0.00     0.059 C 
BRANCH   5   6
ATOM      6  C   UNL     1      21.978 -36.313 -29.845  1.00  0.00     0.042 C 
ATOM      7  O   UNL     1      21.299 -36.966 -30.679  1.00  0.00    -0.550 OA
ATOM      8  O   UNL     1      21.387 -35.272 -29.139  1.00  0.00    -0.550 OA
ENDBRANCH   5   6
ENDBRANCH   1   5
TORSDOF 3
ENDMDL
MODEL 3
REMARK VINA RESULT:    -3.803     18.036     18.965
REMARK INTER + INTRA:          -4.588
REMARK INTER:                  -4.472
REMARK INTRA:                  -0.116
REMARK UNBOUND:                -0.118
REMARK SMILES O=C([O-])CCC(=O)[O-]
REMARK SMILES IDX 4 1 2 2 1 3 3 4 5 5 6 6 7 7 8 8
REMARK H PARENT
REMARK Flexibility Score: inf
ROOT
ATOM      1  C   UNL     1      16.454 -18.270 -26.311  1.00  0.00     0.059 C 
ENDROOT
BRANCH   1   2
ATOM      2  C   UNL     1      16.387 -18.872 -24.940  1.00  0.00     0.042 C 
ATOM      3  O   UNL     1      16.644 -20.093 -24.773  1.00  0.00    -0.550 OA
ATOM      4  O   UNL     1      16.003 -18.094 -23.855  1.00  0.00    -0.550 OA
ENDBRANCH   1   2
BRANCH   1   5
ATOM      5  C   UNL     1      17.026 -19.257 -27.334  1.00  0.00     0.059 C 
BRANCH   5   6
ATOM      6  C   UNL     1      18.446 -18.929 -27.684  1.00  0.00     0.042 C 
ATOM      7  O   UNL     1      19.394 -19.459 -27.047  1.00  0.00    -0.550 OA
ATOM      8  O   UNL     1      18.720 -18.070 -28.740  1.00  0.00    -0.550 OA
ENDBRANCH   5   6
ENDBRANCH   1   5
TORSDOF 3
ENDMDL
MODEL 4
REMARK VINA RESULT:    -3.721     17.920     18.568
REMARK INTER + INTRA:          -4.492
REMARK INTER:                  -4.383
REMARK INTRA:                  -0.108
REMARK UNBOUND:                -0.118
REMARK SMILES O=C([O-])CCC(=O)[O-]
REMARK SMILES IDX 4 1 2 2 1 3 3 4 5 5 6 6 7 7 8 8
REMARK H PARENT
REMARK Flexibility Score: inf
ROOT
ATOM      1  C   UNL     1      17.114 -19.310 -27.336  1.00  0.00     0.059 C 
ENDROOT
BRANCH   1   2
ATOM      2  C   UNL     1      18.492 -18.907 -27.768  1.00  0.00     0.042 C 
ATOM      3  O   UNL     1      18.644 -18.071 -28.697  1.00  0.00    -0.550 OA
ATOM      4  O   UNL     1      19.606 -19.485 -27.172  1.00  0.00    -0.550 OA
ENDBRANCH   1   2
BRANCH   1   5
ATOM      5  C   UNL     1      16.682 -18.569 -26.066  1.00  0.00     0.059 C 
BRANCH   5   6
ATOM      6  C   UNL     1      16.560 -19.500 -24.898  1.00  0.00     0.042 C 
ATOM      7  O   UNL     1      16.870 -20.714 -25.020  1.00  0.00    -0.550 OA
ATOM      8  O   UNL     1      16.144 -19.016 -23.664  1.00  0.00    -0.550 OA
ENDBRANCH   5   6
ENDBRANCH   1   5
TORSDOF 3
ENDMDL
MODEL 5
REMARK VINA RESULT:    -3.381      8.656     10.219
REMARK INTER + INTRA:          -4.091
REMARK INTER:                  -3.983
REMARK INTRA:                  -0.108
REMARK UNBOUND:                -0.118
REMARK SMILES O=C([O-])CCC(=O)[O-]
REMARK SMILES IDX 4 1 2 2 1 3 3 4 5 5 6 6 7 7 8 8
REMARK H PARENT
REMARK Flexibility Score: inf
ROOT
ATOM      1  C   UNL     1      15.251 -30.079 -29.867  1.00  0.00     0.059 C 
ENDROOT
BRANCH   1   2
ATOM      2  C   UNL     1      14.704 -28.694 -29.692  1.00  0.00     0.042 C 
ATOM      3  O   UNL     1      14.874 -27.828 -30.590  1.00  0.00    -0.550 OA
ATOM      4  O   UNL     1      14.042 -28.350 -28.520  1.00  0.00    -0.550 OA
ENDBRANCH   1   2
BRANCH   1   5
ATOM      5  C   UNL     1      16.508 -30.300 -29.019  1.00  0.00     0.059 C 
BRANCH   5   6
ATOM      6  C   UNL     1      17.755 -30.200 -29.843  1.00  0.00     0.042 C 
ATOM      7  O   UNL     1      18.476 -31.215 -30.028  1.00  0.00    -0.550 OA
ATOM      8  O   UNL     1      18.098 -28.994 -30.441  1.00  0.00    -0.550 OA
ENDBRANCH   5   6
ENDBRANCH   1   5
TORSDOF 3
ENDMDL
MODEL 6
REMARK VINA RESULT:    -3.374      8.751     10.620
REMARK INTER + INTRA:          -4.084
REMARK INTER:                  -3.968
REMARK INTRA:                  -0.116
REMARK UNBOUND:                -0.118
REMARK SMILES O=C([O-])CCC(=O)[O-]
REMARK SMILES IDX 4 1 2 2 1 3 3 4 5 5 6 6 7 7 8 8
REMARK H PARENT
REMARK Flexibility Score: inf
ROOT
ATOM      1  C   UNL     1      16.523 -30.189 -28.923  1.00  0.00     0.059 C 
ENDROOT
BRANCH   1   2
ATOM      2  C   UNL     1      17.695 -30.084 -29.850  1.00  0.00     0.042 C 
ATOM      3  O   UNL     1      18.418 -31.091 -30.074  1.00  0.00    -0.550 OA
ATOM      4  O   UNL     1      18.014 -28.865 -30.435  1.00  0.00    -0.550 OA
ENDBRANCH   1   2
BRANCH   1   5
ATOM      5  C   UNL     1      15.195 -30.034 -29.673  1.00  0.00     0.059 C 
BRANCH   5   6
ATOM      6  C   UNL     1      14.612 -28.667 -29.486  1.00  0.00     0.042 C 
ATOM      7  O   UNL     1      14.039 -28.364 -28.407  1.00  0.00    -0.550 OA
ATOM      8  O   UNL     1      14.738 -27.714 -30.489  1.00  0.00    -0.550 OA
ENDBRANCH   5   6
ENDBRANCH   1   5
TORSDOF 3
ENDMDL
MODEL 7
REMARK VINA RESULT:    -3.370      8.745     10.240
REMARK INTER + INTRA:          -4.079
REMARK INTER:                  -3.974
REMARK INTRA:                  -0.105
REMARK UNBOUND:                -0.118
REMARK SMILES O=C([O-])CCC(=O)[O-]
REMARK SMILES IDX 4 1 2 2 1 3 3 4 5 5 6 6 7 7 8 8
REMARK H PARENT
REMARK Flexibility Score: inf
ROOT
ATOM      1  C   UNL     1      15.190 -30.019 -29.667  1.00  0.00     0.059 C 
ENDROOT
BRANCH   1   2
ATOM      2  C   UNL     1      14.639 -28.628 -29.582  1.00  0.00     0.042 C 
ATOM      3  O   UNL     1      14.840 -27.809 -30.517  1.00  0.00    -0.550 OA
ATOM      4  O   UNL     1      13.938 -28.225 -28.452  1.00  0.00    -0.550 OA
ENDBRANCH   1   2
BRANCH   1   5
ATOM      5  C   UNL     1      16.511 -30.150 -28.901  1.00  0.00     0.059 C 
BRANCH   5   6
ATOM      6  C   UNL     1      17.692 -30.068 -29.819  1.00  0.00     0.042 C 
ATOM      7  O   UNL     1      18.002 -28.973 -30.356  1.00  0.00    -0.550 OA
ATOM      8  O   UNL     1      18.474 -31.193 -30.048  1.00  0.00    -0.550 OA
ENDBRANCH   5   6
ENDBRANCH   1   5
TORSDOF 3
ENDMDL
MODEL 8
REMARK VINA RESULT:    -3.295      8.231      9.278
REMARK INTER + INTRA:          -3.991
REMARK INTER:                  -3.837
REMARK INTRA:                  -0.155
REMARK UNBOUND:                -0.118
REMARK SMILES O=C([O-])CCC(=O)[O-]
REMARK SMILES IDX 4 1 2 2 1 3 3 4 5 5 6 6 7 7 8 8
REMARK H PARENT
REMARK Flexibility Score: inf
ROOT
ATOM      1  C   UNL     1      18.408 -31.126 -30.690  1.00  0.00     0.059 C 
ENDROOT
BRANCH   1   2
ATOM      2  C   UNL     1      17.805 -31.421 -32.030  1.00  0.00     0.042 C 
ATOM      3  O   UNL     1      18.517 -31.381 -33.068  1.00  0.00    -0.550 OA
ATOM      4  O   UNL     1      16.448 -31.700 -32.137  1.00  0.00    -0.550 OA
ENDBRANCH   1   2
BRANCH   1   5
ATOM      5  C   UNL     1      17.554 -30.135 -29.893  1.00  0.00     0.059 C 
BRANCH   5   6
ATOM      6  C   UNL     1      17.426 -28.821 -30.603  1.00  0.00     0.042 C 
ATOM      7  O   UNL     1      18.454 -28.150 -30.885  1.00  0.00    -0.550 OA
ATOM      8  O   UNL     1      16.175 -28.358 -30.988  1.00  0.00    -0.550 OA
ENDBRANCH   5   6
ENDBRANCH   1   5
TORSDOF 3
ENDMDL
MODEL 9
REMARK VINA RESULT:    -3.270      8.297      9.454
REMARK INTER + INTRA:          -3.961
REMARK INTER:                  -3.783
REMARK INTRA:                  -0.178
REMARK UNBOUND:                -0.118
REMARK SMILES O=C([O-])CCC(=O)[O-]
REMARK SMILES IDX 4 1 2 2 1 3 3 4 5 5 6 6 7 7 8 8
REMARK H PARENT
REMARK Flexibility Score: inf
ROOT
ATOM      1  C   UNL     1      17.602 -30.074 -29.992  1.00  0.00     0.059 C 
ENDROOT
BRANCH   1   2
ATOM      2  C   UNL     1      17.512 -28.788 -30.758  1.00  0.00     0.042 C 
ATOM      3  O   UNL     1      18.553 -28.127 -31.010  1.00  0.00    -0.550 OA
ATOM      4  O   UNL     1      16.273 -28.301 -31.156  1.00  0.00    -0.550 OA
ENDBRANCH   1   2
BRANCH   1   5
ATOM      5  C   UNL     1      18.381 -31.140 -30.771  1.00  0.00     0.059 C 
BRANCH   5   6
ATOM      6  C   UNL     1      17.768 -31.401 -32.113  1.00  0.00     0.042 C 
ATOM      7  O   UNL     1      18.471 -31.334 -33.155  1.00  0.00    -0.550 OA
ATOM      8  O   UNL     1      16.428 -31.757 -32.207  1.00  0.00    -0.550 OA
ENDBRANCH   5   6
ENDBRANCH   1   5
TORSDOF 3
ENDMDL
