MODEL 1
REMARK VINA RESULT:    -5.713      0.000      0.000
REMARK INTER + INTRA:          -7.194
REMARK INTER:                  -6.882
REMARK INTRA:                  -0.312
REMARK UNBOUND:                -0.312
REMARK SMILES O=c1c(O)c(-c2ccc(O)c(O)c2)oc2cc(O)cc(O)c12
REMARK SMILES IDX 5 1 3 2 2 3 1 4 22 5 20 6 19 7 17 8 16 9 15 10 14 11 6 12
REMARK SMILES IDX 7 13 8 14 9 15 13 16 11 17 10 18 12 20 4 22 21 24 18 26
REMARK H PARENT 10 19 12 21 4 23 21 25 18 27
REMARK Flexibility Score: inf
ROOT
ATOM      1  C   UNL     1    -105.912  44.584  54.221  1.00  0.00     0.180 A 
ATOM      2  C   UNL     1    -107.007  43.764  54.545  1.00  0.00     0.208 A 
ATOM      3  C   UNL     1    -106.864  42.805  55.559  1.00  0.00     0.238 A 
ATOM      4  O   UNL     1    -107.869  42.126  55.894  1.00  0.00    -0.285 OA
ATOM      5  C   UNL     1    -105.613  42.639  56.202  1.00  0.00     0.111 A 
ATOM      6  C   UNL     1    -105.341  41.668  57.213  1.00  0.00     0.134 A 
ATOM      7  C   UNL     1    -104.094  41.666  57.851  1.00  0.00     0.093 A 
ATOM      8  C   UNL     1    -103.089  42.556  57.474  1.00  0.00     0.123 A 
ATOM      9  C   UNL     1    -103.326  43.473  56.449  1.00  0.00     0.094 A 
ATOM     10  C   UNL     1    -104.571  43.524  55.819  1.00  0.00     0.146 A 
ATOM     11  O   UNL     1    -104.760  44.426  54.863  1.00  0.00    -0.452 OA
ENDROOT
BRANCH   1  12
ATOM     12  C   UNL     1    -105.991  45.627  53.173  1.00  0.00     0.025 A 
ATOM     13  C   UNL     1    -105.595  45.366  51.850  1.00  0.00     0.016 A 
ATOM     14  C   UNL     1    -105.701  46.359  50.873  1.00  0.00     0.051 A 
ATOM     15  C   UNL     1    -106.218  47.621  51.199  1.00  0.00     0.157 A 
ATOM     16  C   UNL     1    -106.529  46.885  53.491  1.00  0.00     0.062 A 
ATOM     17  C   UNL     1    -106.636  47.882  52.514  1.00  0.00     0.158 A 
BRANCH  15  18
ATOM     18  O   UNL     1    -106.322  48.610  50.222  1.00  0.00    -0.504 OA
ATOM     19  H   UNL     1    -105.645  49.361  50.154  1.00  0.00     0.293 HD
ENDBRANCH  15  18
BRANCH  17  20
ATOM     20  O   UNL     1    -107.161  49.124  52.870  1.00  0.00    -0.504 OA
ATOM     21  H   UNL     1    -107.562  49.754  52.186  1.00  0.00     0.293 HD
ENDBRANCH  17  20
ENDBRANCH   1  12
BRANCH   2  22
ATOM     22  O   UNL     1    -108.211  43.891  53.847  1.00  0.00    -0.502 OA
ATOM     23  H   UNL     1    -108.399  44.664  53.220  1.00  0.00     0.293 HD
ENDBRANCH   2  22
BRANCH   6  24
ATOM     24  O   UNL     1    -106.242  40.673  57.607  1.00  0.00    -0.507 OA
ATOM     25  H   UNL     1    -106.624  39.967  56.998  1.00  0.00     0.293 HD
ENDBRANCH   6  24
BRANCH   8  26
ATOM     26  O   UNL     1    -101.856  42.515  58.120  1.00  0.00    -0.508 OA
ATOM     27  H   UNL     1    -101.135  41.860  57.842  1.00  0.00     0.293 HD
ENDBRANCH   8  26
TORSDOF 6
ENDMDL
MODEL 2
REMARK VINA RESULT:    -5.199      2.616      4.711
REMARK INTER + INTRA:          -6.574
REMARK INTER:                  -6.243
REMARK INTRA:                  -0.331
REMARK UNBOUND:                -0.312
REMARK SMILES O=c1c(O)c(-c2ccc(O)c(O)c2)oc2cc(O)cc(O)c12
REMARK SMILES IDX 5 1 3 2 2 3 1 4 22 5 20 6 19 7 17 8 16 9 15 10 14 11 6 12
REMARK SMILES IDX 7 13 8 14 9 15 13 16 11 17 10 18 12 20 4 22 21 24 18 26
REMARK H PARENT 10 19 12 21 4 23 21 25 18 27
REMARK Flexibility Score: inf
ROOT
ATOM      1  C   UNL     1    -107.052  47.735  53.436  1.00  0.00     0.180 A 
ATOM      2  C   UNL     1    -106.422  47.348  52.241  1.00  0.00     0.208 A 
ATOM      3  C   UNL     1    -105.870  46.061  52.148  1.00  0.00     0.238 A 
ATOM      4  O   UNL     1    -105.375  45.694  51.050  1.00  0.00    -0.285 OA
ATOM      5  C   UNL     1    -105.905  45.196  53.268  1.00  0.00     0.111 A 
ATOM      6  C   UNL     1    -105.336  43.886  53.302  1.00  0.00     0.134 A 
ATOM      7  C   UNL     1    -105.524  43.080  54.433  1.00  0.00     0.093 A 
ATOM      8  C   UNL     1    -106.203  43.557  55.553  1.00  0.00     0.123 A 
ATOM      9  C   UNL     1    -106.714  44.855  55.553  1.00  0.00     0.094 A 
ATOM     10  C   UNL     1    -106.576  45.669  54.426  1.00  0.00     0.146 A 
ATOM     11  O   UNL     1    -107.096  46.891  54.460  1.00  0.00    -0.452 OA
ENDROOT
BRANCH   1  12
ATOM     12  C   UNL     1    -107.669  49.070  53.605  1.00  0.00     0.025 A 
ATOM     13  C   UNL     1    -109.019  49.298  53.287  1.00  0.00     0.016 A 
ATOM     14  C   UNL     1    -109.586  50.561  53.478  1.00  0.00     0.051 A 
ATOM     15  C   UNL     1    -108.818  51.610  54.003  1.00  0.00     0.157 A 
ATOM     16  C   UNL     1    -106.909  50.118  54.151  1.00  0.00     0.062 A 
ATOM     17  C   UNL     1    -107.474  51.385  54.344  1.00  0.00     0.158 A 
BRANCH  15  18
ATOM     18  O   UNL     1    -109.386  52.869  54.191  1.00  0.00    -0.504 OA
ATOM     19  H   UNL     1    -108.846  53.717  54.070  1.00  0.00     0.293 HD
ENDBRANCH  15  18
BRANCH  17  20
ATOM     20  O   UNL     1    -106.684  52.403  54.874  1.00  0.00    -0.504 OA
ATOM     21  H   UNL     1    -105.673  52.383  54.821  1.00  0.00     0.293 HD
ENDBRANCH  17  20
ENDBRANCH   1  12
BRANCH   2  22
ATOM     22  O   UNL     1    -106.331  48.243  51.171  1.00  0.00    -0.502 OA
ATOM     23  H   UNL     1    -105.563  48.226  50.511  1.00  0.00     0.293 HD
ENDBRANCH   2  22
BRANCH   6  24
ATOM     24  O   UNL     1    -104.563  43.340  52.272  1.00  0.00    -0.507 OA
ATOM     25  H   UNL     1    -104.055  43.876  51.586  1.00  0.00     0.293 HD
ENDBRANCH   6  24
BRANCH   8  26
ATOM     26  O   UNL     1    -106.356  42.734  56.666  1.00  0.00    -0.508 OA
ATOM     27  H   UNL     1    -105.740  41.947  56.832  1.00  0.00     0.293 HD
ENDBRANCH   8  26
TORSDOF 6
ENDMDL
MODEL 3
REMARK VINA RESULT:    -5.022      1.835      3.674
REMARK INTER + INTRA:          -6.361
REMARK INTER:                  -6.059
REMARK INTRA:                  -0.303
REMARK UNBOUND:                -0.312
REMARK SMILES O=c1c(O)c(-c2ccc(O)c(O)c2)oc2cc(O)cc(O)c12
REMARK SMILES IDX 5 1 3 2 2 3 1 4 22 5 20 6 19 7 17 8 16 9 15 10 14 11 6 12
REMARK SMILES IDX 7 13 8 14 9 15 13 16 11 17 10 18 12 20 4 22 21 24 18 26
REMARK H PARENT 10 19 12 21 4 23 21 25 18 27
REMARK Flexibility Score: inf
ROOT
ATOM      1  C   UNL     1    -106.244  44.029  53.906  1.00  0.00     0.180 A 
ATOM      2  C   UNL     1    -105.346  43.831  54.969  1.00  0.00     0.208 A 
ATOM      3  C   UNL     1    -105.441  42.657  55.732  1.00  0.00     0.238 A 
ATOM      4  O   UNL     1    -104.587  42.452  56.634  1.00  0.00    -0.285 OA
ATOM      5  C   UNL     1    -106.467  41.719  55.459  1.00  0.00     0.111 A 
ATOM      6  C   UNL     1    -106.685  40.516  56.197  1.00  0.00     0.134 A 
ATOM      7  C   UNL     1    -107.667  39.613  55.770  1.00  0.00     0.093 A 
ATOM      8  C   UNL     1    -108.478  39.895  54.672  1.00  0.00     0.123 A 
ATOM      9  C   UNL     1    -108.311  41.094  53.978  1.00  0.00     0.094 A 
ATOM     10  C   UNL     1    -107.315  41.998  54.356  1.00  0.00     0.146 A 
ATOM     11  O   UNL     1    -107.176  43.116  53.654  1.00  0.00    -0.452 OA
ENDROOT
BRANCH   1  12
ATOM     12  C   UNL     1    -106.198  45.234  53.048  1.00  0.00     0.025 A 
ATOM     13  C   UNL     1    -106.770  46.450  53.462  1.00  0.00     0.016 A 
ATOM     14  C   UNL     1    -106.691  47.581  52.646  1.00  0.00     0.051 A 
ATOM     15  C   UNL     1    -106.028  47.519  51.412  1.00  0.00     0.157 A 
ATOM     16  C   UNL     1    -105.515  45.182  51.822  1.00  0.00     0.062 A 
ATOM     17  C   UNL     1    -105.435  46.314  51.001  1.00  0.00     0.158 A 
BRANCH  15  18
ATOM     18  O   UNL     1    -105.953  48.648  50.599  1.00  0.00    -0.504 OA
ATOM     19  H   UNL     1    -105.420  48.647  49.737  1.00  0.00     0.293 HD
ENDBRANCH  15  18
BRANCH  17  20
ATOM     20  O   UNL     1    -104.762  46.220  49.784  1.00  0.00    -0.504 OA
ATOM     21  H   UNL     1    -105.055  45.580  49.055  1.00  0.00     0.293 HD
ENDBRANCH  17  20
ENDBRANCH   1  12
BRANCH   2  22
ATOM     22  O   UNL     1    -104.389  44.804  55.272  1.00  0.00    -0.502 OA
ATOM     23  H   UNL     1    -103.467  44.571  55.621  1.00  0.00     0.293 HD
ENDBRANCH   2  22
BRANCH   6  24
ATOM     24  O   UNL     1    -105.991  40.174  57.362  1.00  0.00    -0.507 OA
ATOM     25  H   UNL     1    -106.423  39.923  58.238  1.00  0.00     0.293 HD
ENDBRANCH   6  24
BRANCH   8  26
ATOM     26  O   UNL     1    -109.455  38.981  54.286  1.00  0.00    -0.508 OA
ATOM     27  H   UNL     1    -109.962  39.083  53.415  1.00  0.00     0.293 HD
ENDBRANCH   8  26
TORSDOF 6
ENDMDL
MODEL 4
REMARK VINA RESULT:    -4.930      2.708      5.009
REMARK INTER + INTRA:          -6.250
REMARK INTER:                  -6.008
REMARK INTRA:                  -0.243
REMARK UNBOUND:                -0.312
REMARK SMILES O=c1c(O)c(-c2ccc(O)c(O)c2)oc2cc(O)cc(O)c12
REMARK SMILES IDX 5 1 3 2 2 3 1 4 22 5 20 6 19 7 17 8 16 9 15 10 14 11 6 12
REMARK SMILES IDX 7 13 8 14 9 15 13 16 11 17 10 18 12 20 4 22 21 24 18 26
REMARK H PARENT 10 19 12 21 4 23 21 25 18 27
REMARK Flexibility Score: inf
ROOT
ATOM      1  C   UNL     1    -107.483  44.531  53.296  1.00  0.00     0.180 A 
ATOM      2  C   UNL     1    -106.640  43.571  53.882  1.00  0.00     0.208 A 
ATOM      3  C   UNL     1    -107.053  42.229  53.912  1.00  0.00     0.238 A 
ATOM      4  O   UNL     1    -106.262  41.365  54.371  1.00  0.00    -0.285 OA
ATOM      5  C   UNL     1    -108.326  41.872  53.405  1.00  0.00     0.111 A 
ATOM      6  C   UNL     1    -108.865  40.549  53.424  1.00  0.00     0.134 A 
ATOM      7  C   UNL     1    -110.093  40.296  52.798  1.00  0.00     0.093 A 
ATOM      8  C   UNL     1    -110.829  41.323  52.210  1.00  0.00     0.123 A 
ATOM      9  C   UNL     1    -110.337  42.629  52.235  1.00  0.00     0.094 A 
ATOM     10  C   UNL     1    -109.098  42.907  52.817  1.00  0.00     0.146 A 
ATOM     11  O   UNL     1    -108.658  44.160  52.800  1.00  0.00    -0.452 OA
ENDROOT
BRANCH   1  12
ATOM     12  C   UNL     1    -107.111  45.962  53.214  1.00  0.00     0.025 A 
ATOM     13  C   UNL     1    -107.100  46.781  54.356  1.00  0.00     0.016 A 
ATOM     14  C   UNL     1    -106.721  48.123  54.258  1.00  0.00     0.051 A 
ATOM     15  C   UNL     1    -106.334  48.661  53.023  1.00  0.00     0.157 A 
ATOM     16  C   UNL     1    -106.701  46.499  51.983  1.00  0.00     0.062 A 
ATOM     17  C   UNL     1    -106.322  47.843  51.881  1.00  0.00     0.158 A 
BRANCH  15  18
ATOM     18  O   UNL     1    -105.959  50.000  52.928  1.00  0.00    -0.504 OA
ATOM     19  H   UNL     1    -106.521  50.674  52.422  1.00  0.00     0.293 HD
ENDBRANCH  15  18
BRANCH  17  20
ATOM     20  O   UNL     1    -105.936  48.345  50.639  1.00  0.00    -0.504 OA
ATOM     21  H   UNL     1    -105.620  49.299  50.519  1.00  0.00     0.293 HD
ENDBRANCH  17  20
ENDBRANCH   1  12
BRANCH   2  22
ATOM     22  O   UNL     1    -105.421  43.956  54.446  1.00  0.00    -0.502 OA
ATOM     23  H   UNL     1    -105.194  43.790  55.420  1.00  0.00     0.293 HD
ENDBRANCH   2  22
BRANCH   6  24
ATOM     24  O   UNL     1    -108.257  39.463  54.061  1.00  0.00    -0.507 OA
ATOM     25  H   UNL     1    -108.172  38.538  53.669  1.00  0.00     0.293 HD
ENDBRANCH   6  24
BRANCH   8  26
ATOM     26  O   UNL     1    -112.053  41.037  51.611  1.00  0.00    -0.508 OA
ATOM     27  H   UNL     1    -112.653  40.299  51.959  1.00  0.00     0.293 HD
ENDBRANCH   8  26
TORSDOF 6
ENDMDL
MODEL 5
REMARK VINA RESULT:    -4.899      3.086      4.545
REMARK INTER + INTRA:          -6.213
REMARK INTER:                  -5.905
REMARK INTRA:                  -0.308
REMARK UNBOUND:                -0.312
REMARK SMILES O=c1c(O)c(-c2ccc(O)c(O)c2)oc2cc(O)cc(O)c12
REMARK SMILES IDX 5 1 3 2 2 3 1 4 22 5 20 6 19 7 17 8 16 9 15 10 14 11 6 12
REMARK SMILES IDX 7 13 8 14 9 15 13 16 11 17 10 18 12 20 4 22 21 24 18 26
REMARK H PARENT 10 19 12 21 4 23 21 25 18 27
REMARK Flexibility Score: inf
ROOT
ATOM      1  C   UNL     1    -106.243  47.855  55.448  1.00  0.00     0.180 A 
ATOM      2  C   UNL     1    -105.661  47.608  56.704  1.00  0.00     0.208 A 
ATOM      3  C   UNL     1    -105.267  46.300  57.026  1.00  0.00     0.238 A 
ATOM      4  O   UNL     1    -104.679  46.099  58.120  1.00  0.00    -0.285 OA
ATOM      5  C   UNL     1    -105.509  45.245  56.112  1.00  0.00     0.111 A 
ATOM      6  C   UNL     1    -105.192  43.873  56.353  1.00  0.00     0.134 A 
ATOM      7  C   UNL     1    -105.381  42.932  55.333  1.00  0.00     0.093 A 
ATOM      8  C   UNL     1    -105.933  43.299  54.106  1.00  0.00     0.123 A 
ATOM      9  C   UNL     1    -106.298  44.626  53.880  1.00  0.00     0.094 A 
ATOM     10  C   UNL     1    -106.086  45.596  54.864  1.00  0.00     0.146 A 
ATOM     11  O   UNL     1    -106.428  46.851  54.599  1.00  0.00    -0.452 OA
ENDROOT
BRANCH   1  12
ATOM     12  C   UNL     1    -106.671  49.210  55.031  1.00  0.00     0.025 A 
ATOM     13  C   UNL     1    -107.912  49.739  55.424  1.00  0.00     0.016 A 
ATOM     14  C   UNL     1    -108.283  51.030  55.039  1.00  0.00     0.051 A 
ATOM     15  C   UNL     1    -107.415  51.816  54.268  1.00  0.00     0.157 A 
ATOM     16  C   UNL     1    -105.794  50.009  54.278  1.00  0.00     0.062 A 
ATOM     17  C   UNL     1    -106.164  51.302  53.889  1.00  0.00     0.158 A 
BRANCH  15  18
ATOM     18  O   UNL     1    -107.789  53.102  53.883  1.00  0.00    -0.504 OA
ATOM     19  H   UNL     1    -108.454  53.260  53.135  1.00  0.00     0.293 HD
ENDBRANCH  15  18
BRANCH  17  20
ATOM     20  O   UNL     1    -105.274  52.060  53.130  1.00  0.00    -0.504 OA
ATOM     21  H   UNL     1    -104.919  51.737  52.237  1.00  0.00     0.293 HD
ENDBRANCH  17  20
ENDBRANCH   1  12
BRANCH   2  22
ATOM     22  O   UNL     1    -105.500  48.649  57.622  1.00  0.00    -0.502 OA
ATOM     23  H   UNL     1    -106.272  49.023  58.161  1.00  0.00     0.293 HD
ENDBRANCH   2  22
BRANCH   6  24
ATOM     24  O   UNL     1    -104.718  43.380  57.573  1.00  0.00    -0.507 OA
ATOM     25  H   UNL     1    -105.298  43.007  58.309  1.00  0.00     0.293 HD
ENDBRANCH   6  24
BRANCH   8  26
ATOM     26  O   UNL     1    -106.122  42.333  53.121  1.00  0.00    -0.508 OA
ATOM     27  H   UNL     1    -106.809  42.452  52.386  1.00  0.00     0.293 HD
ENDBRANCH   8  26
TORSDOF 6
ENDMDL
MODEL 6
REMARK VINA RESULT:    -4.818      1.702      7.008
REMARK INTER + INTRA:          -6.116
REMARK INTER:                  -5.792
REMARK INTRA:                  -0.324
REMARK UNBOUND:                -0.312
REMARK SMILES O=c1c(O)c(-c2ccc(O)c(O)c2)oc2cc(O)cc(O)c12
REMARK SMILES IDX 5 1 3 2 2 3 1 4 22 5 20 6 19 7 17 8 16 9 15 10 14 11 6 12
REMARK SMILES IDX 7 13 8 14 9 15 13 16 11 17 10 18 12 20 4 22 21 24 18 26
REMARK H PARENT 10 19 12 21 4 23 21 25 18 27
REMARK Flexibility Score: inf
ROOT
ATOM      1  C   UNL     1    -105.725  45.103  54.549  1.00  0.00     0.180 A 
ATOM      2  C   UNL     1    -105.635  44.988  53.151  1.00  0.00     0.208 A 
ATOM      3  C   UNL     1    -106.322  45.910  52.346  1.00  0.00     0.238 A 
ATOM      4  O   UNL     1    -106.176  45.847  51.097  1.00  0.00    -0.285 OA
ATOM      5  C   UNL     1    -107.136  46.902  52.946  1.00  0.00     0.111 A 
ATOM      6  C   UNL     1    -107.913  47.860  52.227  1.00  0.00     0.134 A 
ATOM      7  C   UNL     1    -108.597  48.860  52.929  1.00  0.00     0.093 A 
ATOM      8  C   UNL     1    -108.585  48.901  54.322  1.00  0.00     0.123 A 
ATOM      9  C   UNL     1    -107.875  47.936  55.037  1.00  0.00     0.094 A 
ATOM     10  C   UNL     1    -107.151  46.948  54.365  1.00  0.00     0.146 A 
ATOM     11  O   UNL     1    -106.471  46.062  55.083  1.00  0.00    -0.452 OA
ENDROOT
BRANCH   1  12
ATOM     12  C   UNL     1    -105.018  44.177  55.463  1.00  0.00     0.025 A 
ATOM     13  C   UNL     1    -103.756  44.494  55.994  1.00  0.00     0.016 A 
ATOM     14  C   UNL     1    -103.120  43.616  56.874  1.00  0.00     0.051 A 
ATOM     15  C   UNL     1    -103.739  42.415  57.248  1.00  0.00     0.157 A 
ATOM     16  C   UNL     1    -105.646  42.984  55.857  1.00  0.00     0.062 A 
ATOM     17  C   UNL     1    -105.010  42.101  56.739  1.00  0.00     0.158 A 
BRANCH  15  18
ATOM     18  O   UNL     1    -103.101  41.540  58.125  1.00  0.00    -0.504 OA
ATOM     19  H   UNL     1    -102.607  41.876  58.943  1.00  0.00     0.293 HD
ENDBRANCH  15  18
BRANCH  17  20
ATOM     20  O   UNL     1    -105.658  40.919  57.096  1.00  0.00    -0.504 OA
ATOM     21  H   UNL     1    -106.150  40.820  57.975  1.00  0.00     0.293 HD
ENDBRANCH  17  20
ENDBRANCH   1  12
BRANCH   2  22
ATOM     22  O   UNL     1    -104.888  43.956  52.576  1.00  0.00    -0.502 OA
ATOM     23  H   UNL     1    -105.230  43.004  52.516  1.00  0.00     0.293 HD
ENDBRANCH   2  22
BRANCH   6  24
ATOM     24  O   UNL     1    -108.067  47.860  50.837  1.00  0.00    -0.507 OA
ATOM     25  H   UNL     1    -108.733  47.297  50.330  1.00  0.00     0.293 HD
ENDBRANCH   6  24
BRANCH   8  26
ATOM     26  O   UNL     1    -109.292  49.900  54.987  1.00  0.00    -0.508 OA
ATOM     27  H   UNL     1    -110.007  49.679  55.669  1.00  0.00     0.293 HD
ENDBRANCH   8  26
TORSDOF 6
ENDMDL
MODEL 7
REMARK VINA RESULT:    -4.801      4.099      6.277
REMARK INTER + INTRA:          -6.095
REMARK INTER:                  -5.945
REMARK INTRA:                  -0.150
REMARK UNBOUND:                -0.312
REMARK SMILES O=c1c(O)c(-c2ccc(O)c(O)c2)oc2cc(O)cc(O)c12
REMARK SMILES IDX 5 1 3 2 2 3 1 4 22 5 20 6 19 7 17 8 16 9 15 10 14 11 6 12
REMARK SMILES IDX 7 13 8 14 9 15 13 16 11 17 10 18 12 20 4 22 21 24 18 26
REMARK H PARENT 10 19 12 21 4 23 21 25 18 27
REMARK Flexibility Score: inf
ROOT
ATOM      1  C   UNL     1    -107.680  48.258  53.805  1.00  0.00     0.180 A 
ATOM      2  C   UNL     1    -108.775  48.685  53.033  1.00  0.00     0.208 A 
ATOM      3  C   UNL     1    -109.550  47.728  52.362  1.00  0.00     0.238 A 
ATOM      4  O   UNL     1    -110.572  48.110  51.734  1.00  0.00    -0.285 OA
ATOM      5  C   UNL     1    -109.191  46.359  52.425  1.00  0.00     0.111 A 
ATOM      6  C   UNL     1    -109.879  45.306  51.748  1.00  0.00     0.134 A 
ATOM      7  C   UNL     1    -109.495  43.977  51.968  1.00  0.00     0.093 A 
ATOM      8  C   UNL     1    -108.413  43.666  52.790  1.00  0.00     0.123 A 
ATOM      9  C   UNL     1    -107.699  44.690  53.412  1.00  0.00     0.094 A 
ATOM     10  C   UNL     1    -108.080  46.023  53.242  1.00  0.00     0.146 A 
ATOM     11  O   UNL     1    -107.386  46.965  53.871  1.00  0.00    -0.452 OA
ENDROOT
BRANCH   1  12
ATOM     12  C   UNL     1    -106.824  49.208  54.552  1.00  0.00     0.025 A 
ATOM     13  C   UNL     1    -106.727  49.159  55.953  1.00  0.00     0.016 A 
ATOM     14  C   UNL     1    -105.894  50.049  56.635  1.00  0.00     0.051 A 
ATOM     15  C   UNL     1    -105.135  50.991  55.927  1.00  0.00     0.157 A 
ATOM     16  C   UNL     1    -106.045  50.138  53.845  1.00  0.00     0.062 A 
ATOM     17  C   UNL     1    -105.209  51.033  54.524  1.00  0.00     0.158 A 
BRANCH  15  18
ATOM     18  O   UNL     1    -104.305  51.880  56.609  1.00  0.00    -0.504 OA
ATOM     19  H   UNL     1    -103.546  51.553  57.194  1.00  0.00     0.293 HD
ENDBRANCH  15  18
BRANCH  17  20
ATOM     20  O   UNL     1    -104.463  51.952  53.789  1.00  0.00    -0.504 OA
ATOM     21  H   UNL     1    -104.307  52.899  54.112  1.00  0.00     0.293 HD
ENDBRANCH  17  20
ENDBRANCH   1  12
BRANCH   2  22
ATOM     22  O   UNL     1    -109.068  50.047  52.921  1.00  0.00    -0.502 OA
ATOM     23  H   UNL     1    -109.541  50.565  53.652  1.00  0.00     0.293 HD
ENDBRANCH   2  22
BRANCH   6  24
ATOM     24  O   UNL     1    -110.918  45.509  50.835  1.00  0.00    -0.507 OA
ATOM     25  H   UNL     1    -111.161  44.878  50.087  1.00  0.00     0.293 HD
ENDBRANCH   6  24
BRANCH   8  26
ATOM     26  O   UNL     1    -108.050  42.334  52.973  1.00  0.00    -0.508 OA
ATOM     27  H   UNL     1    -107.606  41.799  52.236  1.00  0.00     0.293 HD
ENDBRANCH   8  26
TORSDOF 6
ENDMDL
MODEL 8
REMARK VINA RESULT:    -4.763     12.230     14.905
REMARK INTER + INTRA:          -6.050
REMARK INTER:                  -5.727
REMARK INTRA:                  -0.323
REMARK UNBOUND:                -0.312
REMARK SMILES O=c1c(O)c(-c2ccc(O)c(O)c2)oc2cc(O)cc(O)c12
REMARK SMILES IDX 5 1 3 2 2 3 1 4 22 5 20 6 19 7 17 8 16 9 15 10 14 11 6 12
REMARK SMILES IDX 7 13 8 14 9 15 13 16 11 17 10 18 12 20 4 22 21 24 18 26
REMARK H PARENT 10 19 12 21 4 23 21 25 18 27
REMARK Flexibility Score: inf
ROOT
ATOM      1  C   UNL     1    -107.166  43.532  41.208  1.00  0.00     0.180 A 
ATOM      2  C   UNL     1    -106.532  43.535  39.954  1.00  0.00     0.208 A 
ATOM      3  C   UNL     1    -105.961  44.727  39.482  1.00  0.00     0.238 A 
ATOM      4  O   UNL     1    -105.330  44.705  38.393  1.00  0.00    -0.285 OA
ATOM      5  C   UNL     1    -106.078  45.915  40.244  1.00  0.00     0.111 A 
ATOM      6  C   UNL     1    -105.576  47.191  39.842  1.00  0.00     0.134 A 
ATOM      7  C   UNL     1    -105.658  48.275  40.727  1.00  0.00     0.093 A 
ATOM      8  C   UNL     1    -106.277  48.147  41.969  1.00  0.00     0.123 A 
ATOM      9  C   UNL     1    -106.821  46.919  42.348  1.00  0.00     0.094 A 
ATOM     10  C   UNL     1    -106.721  45.810  41.505  1.00  0.00     0.146 A 
ATOM     11  O   UNL     1    -107.232  44.655  41.915  1.00  0.00    -0.452 OA
ENDROOT
BRANCH   1  12
ATOM     12  C   UNL     1    -107.779  42.311  41.779  1.00  0.00     0.025 A 
ATOM     13  C   UNL     1    -109.112  41.963  41.502  1.00  0.00     0.016 A 
ATOM     14  C   UNL     1    -109.661  40.793  42.032  1.00  0.00     0.051 A 
ATOM     15  C   UNL     1    -108.883  39.946  42.833  1.00  0.00     0.157 A 
ATOM     16  C   UNL     1    -106.996  41.449  42.563  1.00  0.00     0.062 A 
ATOM     17  C   UNL     1    -107.543  40.275  43.097  1.00  0.00     0.158 A 
BRANCH  15  18
ATOM     18  O   UNL     1    -109.433  38.779  43.362  1.00  0.00    -0.504 OA
ATOM     19  H   UNL     1    -109.256  37.873  42.945  1.00  0.00     0.293 HD
ENDBRANCH  15  18
BRANCH  17  20
ATOM     20  O   UNL     1    -106.739  39.451  43.883  1.00  0.00    -0.504 OA
ATOM     21  H   UNL     1    -107.101  38.620  44.336  1.00  0.00     0.293 HD
ENDBRANCH  17  20
ENDBRANCH   1  12
BRANCH   2  22
ATOM     22  O   UNL     1    -106.494  42.371  39.182  1.00  0.00    -0.502 OA
ATOM     23  H   UNL     1    -107.076  41.566  39.381  1.00  0.00     0.293 HD
ENDBRANCH   2  22
BRANCH   6  24
ATOM     24  O   UNL     1    -105.017  47.454  38.588  1.00  0.00    -0.507 OA
ATOM     25  H   UNL     1    -104.297  46.901  38.150  1.00  0.00     0.293 HD
ENDBRANCH   6  24
BRANCH   8  26
ATOM     26  O   UNL     1    -106.355  49.250  42.815  1.00  0.00    -0.508 OA
ATOM     27  H   UNL     1    -107.221  49.506  43.274  1.00  0.00     0.293 HD
ENDBRANCH   8  26
TORSDOF 6
ENDMDL
