MODEL 1
REMARK VINA RESULT:    -5.947      0.000      0.000
REMARK INTER + INTRA:         -12.583
REMARK INTER:                 -10.814
REMARK INTRA:                  -1.769
REMARK UNBOUND:                -1.769
REMARK SMILES CCCCCCCCCCCCCC[C@H](C)C(=O)[O-]
REMARK SMILES IDX 9 1 10 2 11 3 12 4 13 5 14 6 15 7 16 8 17 9 18 10 19 11 8 12
REMARK SMILES IDX 7 13 6 14 5 15 4 16 3 17 2 18 1 19
REMARK H PARENT
REMARK Flexibility Score: inf
ROOT
ATOM      1  C   UNL     1     -17.208  -8.628  -7.770  1.00  0.00     0.000 C 
ENDROOT
BRANCH   1   2
ATOM      2  C   UNL     1     -16.185  -8.418  -6.639  1.00  0.00     0.000 C 
BRANCH   2   3
ATOM      3  C   UNL     1     -14.838  -7.886  -7.155  1.00  0.00     0.000 C 
BRANCH   3   4
ATOM      4  C   UNL     1     -13.879  -9.018  -7.569  1.00  0.00     0.000 C 
BRANCH   4   5
ATOM      5  C   UNL     1     -13.511  -9.938  -6.394  1.00  0.00     0.001 C 
BRANCH   5   6
ATOM      6  C   UNL     1     -13.822 -11.420  -6.688  1.00  0.00     0.009 C 
BRANCH   6   7
ATOM      7  C   UNL     1     -15.087 -11.643  -7.545  1.00  0.00     0.032 C 
ATOM      8  C   UNL     1     -16.325 -11.969  -6.698  1.00  0.00     0.014 C 
BRANCH   7   9
ATOM      9  C   UNL     1     -14.858 -12.678  -8.617  1.00  0.00     0.044 C 
ATOM     10  O   UNL     1     -15.216 -13.870  -8.424  1.00  0.00    -0.550 OA
ATOM     11  O   UNL     1     -14.309 -12.322  -9.844  1.00  0.00    -0.550 OA
ENDBRANCH   7   9
ENDBRANCH   6   7
ENDBRANCH   5   6
ENDBRANCH   4   5
ENDBRANCH   3   4
ENDBRANCH   2   3
ENDBRANCH   1   2
BRANCH   1  12
ATOM     12  C   UNL     1     -16.717  -8.082  -9.121  1.00  0.00     0.000 C 
BRANCH  12  13
ATOM     13  C   UNL     1     -16.652  -9.170 -10.207  1.00  0.00    -0.000 C 
BRANCH  13  14
ATOM     14  C   UNL     1     -17.594 -10.350  -9.919  1.00  0.00    -0.000 C 
BRANCH  14  15
ATOM     15  C   UNL     1     -17.467 -11.479 -10.955  1.00  0.00    -0.000 C 
BRANCH  15  16
ATOM     16  C   UNL     1     -18.720 -11.551 -11.840  1.00  0.00    -0.000 C 
BRANCH  16  17
ATOM     17  C   UNL     1     -19.579 -10.279 -11.759  1.00  0.00    -0.000 C 
BRANCH  17  18
ATOM     18  C   UNL     1     -20.824 -10.348 -12.654  1.00  0.00    -0.003 C 
ATOM     19  C   UNL     1     -20.737 -11.522 -13.626  1.00  0.00     0.004 C 
ENDBRANCH  17  18
ENDBRANCH  16  17
ENDBRANCH  15  16
ENDBRANCH  14  15
ENDBRANCH  13  14
ENDBRANCH  12  13
ENDBRANCH   1  12
TORSDOF 14
ENDMDL
MODEL 2
REMARK VINA RESULT:    -5.929      1.890      3.357
REMARK INTER + INTRA:         -12.551
REMARK INTER:                 -11.012
REMARK INTRA:                  -1.540
REMARK UNBOUND:                -1.769
REMARK SMILES CCCCCCCCCCCCCC[C@H](C)C(=O)[O-]
REMARK SMILES IDX 9 1 10 2 11 3 12 4 13 5 14 6 15 7 16 8 17 9 18 10 19 11 8 12
REMARK SMILES IDX 7 13 6 14 5 15 4 16 3 17 2 18 1 19
REMARK H PARENT
REMARK Flexibility Score: inf
ROOT
ATOM      1  C   UNL     1     -15.137 -12.911  -8.560  1.00  0.00     0.000 C 
ENDROOT
BRANCH   1   2
ATOM      2  C   UNL     1     -14.860 -12.137  -7.259  1.00  0.00     0.000 C 
BRANCH   2   3
ATOM      3  C   UNL     1     -13.610 -11.247  -7.357  1.00  0.00     0.000 C 
BRANCH   3   4
ATOM      4  C   UNL     1     -13.685 -10.024  -6.426  1.00  0.00     0.000 C 
BRANCH   4   5
ATOM      5  C   UNL     1     -13.883  -8.708  -7.196  1.00  0.00     0.001 C 
BRANCH   5   6
ATOM      6  C   UNL     1     -15.319  -8.161  -7.066  1.00  0.00     0.009 C 
BRANCH   6   7
ATOM      7  C   UNL     1     -16.364  -8.921  -7.912  1.00  0.00     0.032 C 
ATOM      8  C   UNL     1     -17.045  -8.023  -8.955  1.00  0.00     0.014 C 
BRANCH   7   9
ATOM      9  C   UNL     1     -17.374  -9.629  -7.045  1.00  0.00     0.044 C 
ATOM     10  O   UNL     1     -18.486  -9.969  -7.527  1.00  0.00    -0.550 OA
ATOM     11  O   UNL     1     -17.071  -9.966  -5.730  1.00  0.00    -0.550 OA
ENDBRANCH   7   9
ENDBRANCH   6   7
ENDBRANCH   5   6
ENDBRANCH   4   5
ENDBRANCH   3   4
ENDBRANCH   2   3
ENDBRANCH   1   2
BRANCH   1  12
ATOM     12  C   UNL     1     -14.602 -12.185  -9.805  1.00  0.00     0.000 C 
BRANCH  12  13
ATOM     13  C   UNL     1     -15.666 -12.046 -10.908  1.00  0.00    -0.000 C 
BRANCH  13  14
ATOM     14  C   UNL     1     -16.810 -11.099 -10.510  1.00  0.00    -0.000 C 
BRANCH  14  15
ATOM     15  C   UNL     1     -18.141 -11.454 -11.194  1.00  0.00    -0.000 C 
BRANCH  15  16
ATOM     16  C   UNL     1     -19.136 -10.288 -11.090  1.00  0.00    -0.000 C 
BRANCH  16  17
ATOM     17  C   UNL     1     -20.192 -10.308 -12.207  1.00  0.00    -0.000 C 
BRANCH  17  18
ATOM     18  C   UNL     1     -20.034 -11.512 -13.148  1.00  0.00    -0.003 C 
ATOM     19  C   UNL     1     -21.297 -11.732 -13.975  1.00  0.00     0.004 C 
ENDBRANCH  17  18
ENDBRANCH  16  17
ENDBRANCH  15  16
ENDBRANCH  14  15
ENDBRANCH  13  14
ENDBRANCH  12  13
ENDBRANCH   1  12
TORSDOF 14
ENDMDL
MODEL 3
REMARK VINA RESULT:    -5.908      2.532      6.251
REMARK INTER + INTRA:         -12.513
REMARK INTER:                 -10.744
REMARK INTRA:                  -1.769
REMARK UNBOUND:                -1.769
REMARK SMILES CCCCCCCCCCCCCC[C@H](C)C(=O)[O-]
REMARK SMILES IDX 9 1 10 2 11 3 12 4 13 5 14 6 15 7 16 8 17 9 18 10 19 11 8 12
REMARK SMILES IDX 7 13 6 14 5 15 4 16 3 17 2 18 1 19
REMARK H PARENT
REMARK Flexibility Score: inf
ROOT
ATOM      1  C   UNL     1     -15.365 -11.960  -7.086  1.00  0.00     0.000 C 
ENDROOT
BRANCH   1   2
ATOM      2  C   UNL     1     -15.374 -12.784  -8.386  1.00  0.00     0.000 C 
BRANCH   2   3
ATOM      3  C   UNL     1     -14.485 -12.169  -9.480  1.00  0.00     0.000 C 
BRANCH   3   4
ATOM      4  C   UNL     1     -15.304 -11.640 -10.672  1.00  0.00     0.000 C 
BRANCH   4   5
ATOM      5  C   UNL     1     -16.677 -11.094 -10.248  1.00  0.00     0.001 C 
BRANCH   5   6
ATOM      6  C   UNL     1     -17.781 -11.418 -11.275  1.00  0.00     0.009 C 
BRANCH   6   7
ATOM      7  C   UNL     1     -18.794 -10.273 -11.497  1.00  0.00     0.032 C 
ATOM      8  C   UNL     1     -19.203  -9.584 -10.187  1.00  0.00     0.014 C 
BRANCH   7   9
ATOM      9  C   UNL     1     -19.996 -10.737 -12.279  1.00  0.00     0.044 C 
ATOM     10  O   UNL     1     -20.929  -9.931 -12.533  1.00  0.00    -0.550 OA
ATOM     11  O   UNL     1     -20.063 -12.034 -12.778  1.00  0.00    -0.550 OA
ENDBRANCH   7   9
ENDBRANCH   6   7
ENDBRANCH   5   6
ENDBRANCH   4   5
ENDBRANCH   3   4
ENDBRANCH   2   3
ENDBRANCH   1   2
BRANCH   1  12
ATOM     12  C   UNL     1     -16.775 -11.737  -6.517  1.00  0.00     0.000 C 
BRANCH  12  13
ATOM     13  C   UNL     1     -17.002 -10.287  -6.055  1.00  0.00    -0.000 C 
BRANCH  13  14
ATOM     14  C   UNL     1     -17.636  -9.411  -7.148  1.00  0.00    -0.000 C 
BRANCH  14  15
ATOM     15  C   UNL     1     -16.650  -8.389  -7.738  1.00  0.00    -0.000 C 
BRANCH  15  16
ATOM     16  C   UNL     1     -15.423  -8.226  -6.828  1.00  0.00    -0.000 C 
BRANCH  16  17
ATOM     17  C   UNL     1     -14.104  -8.557  -7.545  1.00  0.00    -0.000 C 
BRANCH  17  18
ATOM     18  C   UNL     1     -13.223  -9.526  -6.742  1.00  0.00    -0.003 C 
ATOM     19  C   UNL     1     -11.751  -9.134  -6.835  1.00  0.00     0.004 C 
ENDBRANCH  17  18
ENDBRANCH  16  17
ENDBRANCH  15  16
ENDBRANCH  14  15
ENDBRANCH  13  14
ENDBRANCH  12  13
ENDBRANCH   1  12
TORSDOF 14
ENDMDL
MODEL 4
REMARK VINA RESULT:    -5.889      2.034      2.933
REMARK INTER + INTRA:         -12.478
REMARK INTER:                 -10.689
REMARK INTRA:                  -1.789
REMARK UNBOUND:                -1.769
REMARK SMILES CCCCCCCCCCCCCC[C@H](C)C(=O)[O-]
REMARK SMILES IDX 9 1 10 2 11 3 12 4 13 5 14 6 15 7 16 8 17 9 18 10 19 11 8 12
REMARK SMILES IDX 7 13 6 14 5 15 4 16 3 17 2 18 1 19
REMARK H PARENT
REMARK Flexibility Score: inf
ROOT
ATOM      1  C   UNL     1     -16.709  -8.729 -10.169  1.00  0.00     0.000 C 
ENDROOT
BRANCH   1   2
ATOM      2  C   UNL     1     -17.817  -8.820  -9.106  1.00  0.00     0.000 C 
BRANCH   2   3
ATOM      3  C   UNL     1     -17.337  -8.374  -7.715  1.00  0.00     0.000 C 
BRANCH   3   4
ATOM      4  C   UNL     1     -17.313  -9.533  -6.702  1.00  0.00     0.000 C 
BRANCH   4   5
ATOM      5  C   UNL     1     -15.935  -9.713  -6.044  1.00  0.00     0.001 C 
BRANCH   5   6
ATOM      6  C   UNL     1     -14.802  -9.067  -6.867  1.00  0.00     0.009 C 
BRANCH   6   7
ATOM      7  C   UNL     1     -13.695 -10.053  -7.302  1.00  0.00     0.032 C 
ATOM      8  C   UNL     1     -14.166 -11.514  -7.286  1.00  0.00     0.014 C 
BRANCH   7   9
ATOM      9  C   UNL     1     -12.435  -9.866  -6.496  1.00  0.00     0.044 C 
ATOM     10  O   UNL     1     -11.575  -9.023  -6.864  1.00  0.00    -0.550 OA
ATOM     11  O   UNL     1     -12.234 -10.572  -5.314  1.00  0.00    -0.550 OA
ENDBRANCH   7   9
ENDBRANCH   6   7
ENDBRANCH   5   6
ENDBRANCH   4   5
ENDBRANCH   3   4
ENDBRANCH   2   3
ENDBRANCH   1   2
BRANCH   1  12
ATOM     12  C   UNL     1     -15.788  -9.960 -10.171  1.00  0.00     0.000 C 
BRANCH  12  13
ATOM     13  C   UNL     1     -16.557 -11.272  -9.936  1.00  0.00    -0.000 C 
BRANCH  13  14
ATOM     14  C   UNL     1     -16.977 -11.954 -11.248  1.00  0.00    -0.000 C 
BRANCH  14  15
ATOM     15  C   UNL     1     -18.495 -11.903 -11.486  1.00  0.00    -0.000 C 
BRANCH  15  16
ATOM     16  C   UNL     1     -18.879 -10.662 -12.305  1.00  0.00    -0.000 C 
BRANCH  16  17
ATOM     17  C   UNL     1     -20.400 -10.466 -12.409  1.00  0.00    -0.000 C 
BRANCH  17  18
ATOM     18  C   UNL     1     -20.978 -11.011 -13.723  1.00  0.00    -0.003 C 
ATOM     19  C   UNL     1     -21.192 -12.520 -13.644  1.00  0.00     0.004 C 
ENDBRANCH  17  18
ENDBRANCH  16  17
ENDBRANCH  15  16
ENDBRANCH  14  15
ENDBRANCH  13  14
ENDBRANCH  12  13
ENDBRANCH   1  12
TORSDOF 14
ENDMDL
MODEL 5
REMARK VINA RESULT:    -5.874      1.910      2.813
REMARK INTER + INTRA:         -12.452
REMARK INTER:                 -10.522
REMARK INTRA:                  -1.930
REMARK UNBOUND:                -1.769
REMARK SMILES CCCCCCCCCCCCCC[C@H](C)C(=O)[O-]
REMARK SMILES IDX 9 1 10 2 11 3 12 4 13 5 14 6 15 7 16 8 17 9 18 10 19 11 8 12
REMARK SMILES IDX 7 13 6 14 5 15 4 16 3 17 2 18 1 19
REMARK H PARENT
REMARK Flexibility Score: inf
ROOT
ATOM      1  C   UNL     1     -17.863  -9.010  -9.039  1.00  0.00     0.000 C 
ENDROOT
BRANCH   1   2
ATOM      2  C   UNL     1     -17.590  -8.876  -7.531  1.00  0.00     0.000 C 
BRANCH   2   3
ATOM      3  C   UNL     1     -17.828 -10.191  -6.770  1.00  0.00     0.000 C 
BRANCH   3   4
ATOM      4  C   UNL     1     -16.546 -10.725  -6.106  1.00  0.00     0.000 C 
BRANCH   4   5
ATOM      5  C   UNL     1     -15.815 -11.758  -6.980  1.00  0.00     0.001 C 
BRANCH   5   6
ATOM      6  C   UNL     1     -14.371 -11.331  -7.311  1.00  0.00     0.009 C 
BRANCH   6   7
ATOM      7  C   UNL     1     -13.900 -10.062  -6.569  1.00  0.00     0.032 C 
ATOM      8  C   UNL     1     -14.065  -8.789  -7.411  1.00  0.00     0.014 C 
BRANCH   7   9
ATOM      9  C   UNL     1     -12.491 -10.209  -6.054  1.00  0.00     0.044 C 
ATOM     10  O   UNL     1     -11.561  -9.535  -6.570  1.00  0.00    -0.550 OA
ATOM     11  O   UNL     1     -12.211 -11.038  -4.973  1.00  0.00    -0.550 OA
ENDBRANCH   7   9
ENDBRANCH   6   7
ENDBRANCH   5   6
ENDBRANCH   4   5
ENDBRANCH   3   4
ENDBRANCH   2   3
ENDBRANCH   1   2
BRANCH   1  12
ATOM     12  C   UNL     1     -16.610  -8.754  -9.892  1.00  0.00     0.000 C 
BRANCH  12  13
ATOM     13  C   UNL     1     -15.949 -10.058 -10.374  1.00  0.00    -0.000 C 
BRANCH  13  14
ATOM     14  C   UNL     1     -16.847 -11.288 -10.164  1.00  0.00    -0.000 C 
BRANCH  14  15
ATOM     15  C   UNL     1     -17.370 -11.875 -11.485  1.00  0.00    -0.000 C 
BRANCH  15  16
ATOM     16  C   UNL     1     -18.895 -11.724 -11.584  1.00  0.00    -0.000 C 
BRANCH  16  17
ATOM     17  C   UNL     1     -19.321 -10.365 -12.163  1.00  0.00    -0.000 C 
BRANCH  17  18
ATOM     18  C   UNL     1     -20.772 -10.365 -12.664  1.00  0.00    -0.003 C 
ATOM     19  C   UNL     1     -21.008 -11.493 -13.664  1.00  0.00     0.004 C 
ENDBRANCH  17  18
ENDBRANCH  16  17
ENDBRANCH  15  16
ENDBRANCH  14  15
ENDBRANCH  13  14
ENDBRANCH  12  13
ENDBRANCH   1  12
TORSDOF 14
ENDMDL
MODEL 6
REMARK VINA RESULT:    -5.849      3.428      7.946
REMARK INTER + INTRA:         -12.405
REMARK INTER:                 -10.851
REMARK INTRA:                  -1.554
REMARK UNBOUND:                -1.769
REMARK SMILES CCCCCCCCCCCCCC[C@H](C)C(=O)[O-]
REMARK SMILES IDX 9 1 10 2 11 3 12 4 13 5 14 6 15 7 16 8 17 9 18 10 19 11 8 12
REMARK SMILES IDX 7 13 6 14 5 15 4 16 3 17 2 18 1 19
REMARK H PARENT
REMARK Flexibility Score: inf
ROOT
ATOM      1  C   UNL     1     -14.090 -11.280  -7.257  1.00  0.00     0.000 C 
ENDROOT
BRANCH   1   2
ATOM      2  C   UNL     1     -15.559 -11.361  -6.807  1.00  0.00     0.000 C 
BRANCH   2   3
ATOM      3  C   UNL     1     -16.136  -9.986  -6.430  1.00  0.00     0.000 C 
BRANCH   3   4
ATOM      4  C   UNL     1     -17.286  -9.557  -7.360  1.00  0.00     0.000 C 
BRANCH   4   5
ATOM      5  C   UNL     1     -16.861  -8.467  -8.358  1.00  0.00     0.001 C 
BRANCH   5   6
ATOM      6  C   UNL     1     -16.616  -9.029  -9.773  1.00  0.00     0.009 C 
BRANCH   6   7
ATOM      7  C   UNL     1     -17.064 -10.495  -9.958  1.00  0.00     0.032 C 
ATOM      8  C   UNL     1     -15.939 -11.394 -10.490  1.00  0.00     0.014 C 
BRANCH   7   9
ATOM      9  C   UNL     1     -18.305 -10.596 -10.808  1.00  0.00     0.044 C 
ATOM     10  O   UNL     1     -18.416 -11.527 -11.649  1.00  0.00    -0.550 OA
ATOM     11  O   UNL     1     -19.359  -9.705 -10.637  1.00  0.00    -0.550 OA
ENDBRANCH   7   9
ENDBRANCH   6   7
ENDBRANCH   5   6
ENDBRANCH   4   5
ENDBRANCH   3   4
ENDBRANCH   2   3
ENDBRANCH   1   2
BRANCH   1  12
ATOM     12  C   UNL     1     -13.467  -9.898  -7.000  1.00  0.00     0.000 C 
BRANCH  12  13
ATOM     13  C   UNL     1     -12.243  -9.967  -6.070  1.00  0.00    -0.000 C 
BRANCH  13  14
ATOM     14  C   UNL     1     -12.207 -11.257  -5.236  1.00  0.00    -0.000 C 
BRANCH  14  15
ATOM     15  C   UNL     1     -12.195 -10.988  -3.722  1.00  0.00    -0.000 C 
BRANCH  15  16
ATOM     16  C   UNL     1     -11.765 -12.242  -2.947  1.00  0.00    -0.000 C 
BRANCH  16  17
ATOM     17  C   UNL     1     -11.598 -11.981  -1.441  1.00  0.00    -0.000 C 
BRANCH  17  18
ATOM     18  C   UNL     1     -10.286 -12.555  -0.884  1.00  0.00    -0.003 C 
ATOM     19  C   UNL     1      -9.452 -13.193  -1.992  1.00  0.00     0.004 C 
ENDBRANCH  17  18
ENDBRANCH  16  17
ENDBRANCH  15  16
ENDBRANCH  14  15
ENDBRANCH  13  14
ENDBRANCH  12  13
ENDBRANCH   1  12
TORSDOF 14
ENDMDL
MODEL 7
REMARK VINA RESULT:    -5.823      4.415      5.950
REMARK INTER + INTRA:         -12.357
REMARK INTER:                 -10.980
REMARK INTRA:                  -1.378
REMARK UNBOUND:                -1.769
REMARK SMILES CCCCCCCCCCCCCC[C@H](C)C(=O)[O-]
REMARK SMILES IDX 9 1 10 2 11 3 12 4 13 5 14 6 15 7 16 8 17 9 18 10 19 11 8 12
REMARK SMILES IDX 7 13 6 14 5 15 4 16 3 17 2 18 1 19
REMARK H PARENT
REMARK Flexibility Score: inf
ROOT
ATOM      1  C   UNL     1     -14.561 -11.788  -7.513  1.00  0.00     0.000 C 
ENDROOT
BRANCH   1   2
ATOM      2  C   UNL     1     -13.482 -10.743  -7.180  1.00  0.00     0.000 C 
BRANCH   2   3
ATOM      3  C   UNL     1     -13.288 -10.558  -5.666  1.00  0.00     0.000 C 
BRANCH   3   4
ATOM      4  C   UNL     1     -12.072 -11.335  -5.130  1.00  0.00     0.000 C 
BRANCH   4   5
ATOM      5  C   UNL     1     -12.094 -11.481  -3.599  1.00  0.00     0.001 C 
BRANCH   5   6
ATOM      6  C   UNL     1     -11.099 -12.547  -3.096  1.00  0.00     0.009 C 
BRANCH   6   7
ATOM      7  C   UNL     1     -10.969 -12.616  -1.559  1.00  0.00     0.032 C 
ATOM      8  C   UNL     1     -11.455 -11.334  -0.868  1.00  0.00     0.014 C 
BRANCH   7   9
ATOM      9  C   UNL     1      -9.570 -12.980  -1.134  1.00  0.00     0.044 C 
ATOM     10  O   UNL     1      -8.959 -12.259  -0.302  1.00  0.00    -0.550 OA
ATOM     11  O   UNL     1      -8.962 -14.138  -1.607  1.00  0.00    -0.550 OA
ENDBRANCH   7   9
ENDBRANCH   6   7
ENDBRANCH   5   6
ENDBRANCH   4   5
ENDBRANCH   3   4
ENDBRANCH   2   3
ENDBRANCH   1   2
BRANCH   1  12
ATOM     12  C   UNL     1     -14.578 -12.167  -9.003  1.00  0.00     0.000 C 
BRANCH  12  13
ATOM     13  C   UNL     1     -15.131 -11.038  -9.892  1.00  0.00    -0.000 C 
BRANCH  13  14
ATOM     14  C   UNL     1     -16.600 -11.261 -10.285  1.00  0.00    -0.000 C 
BRANCH  14  15
ATOM     15  C   UNL     1     -17.428  -9.966 -10.249  1.00  0.00    -0.000 C 
BRANCH  15  16
ATOM     16  C   UNL     1     -16.630  -8.825  -9.601  1.00  0.00    -0.000 C 
BRANCH  16  17
ATOM     17  C   UNL     1     -17.321  -8.251  -8.354  1.00  0.00    -0.000 C 
BRANCH  17  18
ATOM     18  C   UNL     1     -16.804  -8.879  -7.051  1.00  0.00    -0.003 C 
ATOM     19  C   UNL     1     -17.614 -10.118  -6.680  1.00  0.00     0.004 C 
ENDBRANCH  17  18
ENDBRANCH  16  17
ENDBRANCH  15  16
ENDBRANCH  14  15
ENDBRANCH  13  14
ENDBRANCH  12  13
ENDBRANCH   1  12
TORSDOF 14
ENDMDL
MODEL 8
REMARK VINA RESULT:    -5.814      4.095      5.490
REMARK INTER + INTRA:         -12.342
REMARK INTER:                 -10.787
REMARK INTRA:                  -1.555
REMARK UNBOUND:                -1.769
REMARK SMILES CCCCCCCCCCCCCC[C@H](C)C(=O)[O-]
REMARK SMILES IDX 9 1 10 2 11 3 12 4 13 5 14 6 15 7 16 8 17 9 18 10 19 11 8 12
REMARK SMILES IDX 7 13 6 14 5 15 4 16 3 17 2 18 1 19
REMARK H PARENT
REMARK Flexibility Score: inf
ROOT
ATOM      1  C   UNL     1     -14.903 -10.129  -6.661  1.00  0.00     0.000 C 
ENDROOT
BRANCH   1   2
ATOM      2  C   UNL     1     -13.600  -9.536  -7.226  1.00  0.00     0.000 C 
BRANCH   2   3
ATOM      3  C   UNL     1     -12.377  -9.865  -6.354  1.00  0.00     0.000 C 
BRANCH   3   4
ATOM      4  C   UNL     1     -12.549 -11.181  -5.574  1.00  0.00     0.000 C 
BRANCH   4   5
ATOM      5  C   UNL     1     -12.085 -11.064  -4.112  1.00  0.00     0.001 C 
BRANCH   5   6
ATOM      6  C   UNL     1     -11.274 -12.292  -3.652  1.00  0.00     0.009 C 
BRANCH   6   7
ATOM      7  C   UNL     1     -11.306 -12.537  -2.128  1.00  0.00     0.032 C 
ATOM      8  C   UNL     1     -11.931 -11.367  -1.355  1.00  0.00     0.014 C 
BRANCH   7   9
ATOM      9  C   UNL     1      -9.942 -12.892  -1.592  1.00  0.00     0.044 C 
ATOM     10  O   UNL     1      -9.480 -12.275  -0.597  1.00  0.00    -0.550 OA
ATOM     11  O   UNL     1      -9.208 -13.934  -2.148  1.00  0.00    -0.550 OA
ENDBRANCH   7   9
ENDBRANCH   6   7
ENDBRANCH   5   6
ENDBRANCH   4   5
ENDBRANCH   3   4
ENDBRANCH   2   3
ENDBRANCH   1   2
BRANCH   1  12
ATOM     12  C   UNL     1     -15.899  -9.048  -6.212  1.00  0.00     0.000 C 
BRANCH  12  13
ATOM     13  C   UNL     1     -17.361  -9.523  -6.294  1.00  0.00    -0.000 C 
BRANCH  13  14
ATOM     14  C   UNL     1     -17.822  -9.768  -7.740  1.00  0.00    -0.000 C 
BRANCH  14  15
ATOM     15  C   UNL     1     -17.491  -8.595  -8.677  1.00  0.00    -0.000 C 
BRANCH  15  16
ATOM     16  C   UNL     1     -16.696  -9.080  -9.899  1.00  0.00    -0.000 C 
BRANCH  16  17
ATOM     17  C   UNL     1     -16.631 -10.613  -9.994  1.00  0.00    -0.000 C 
BRANCH  17  18
ATOM     18  C   UNL     1     -15.207 -11.128 -10.253  1.00  0.00    -0.003 C 
ATOM     19  C   UNL     1     -14.986 -12.485  -9.590  1.00  0.00     0.004 C 
ENDBRANCH  17  18
ENDBRANCH  16  17
ENDBRANCH  15  16
ENDBRANCH  14  15
ENDBRANCH  13  14
ENDBRANCH  12  13
ENDBRANCH   1  12
TORSDOF 14
ENDMDL
MODEL 9
REMARK VINA RESULT:    -5.625      5.118      6.674
REMARK INTER + INTRA:         -11.997
REMARK INTER:                 -10.747
REMARK INTRA:                  -1.250
REMARK UNBOUND:                -1.769
REMARK SMILES CCCCCCCCCCCCCC[C@H](C)C(=O)[O-]
REMARK SMILES IDX 9 1 10 2 11 3 12 4 13 5 14 6 15 7 16 8 17 9 18 10 19 11 8 12
REMARK SMILES IDX 7 13 6 14 5 15 4 16 3 17 2 18 1 19
REMARK H PARENT
REMARK Flexibility Score: inf
ROOT
ATOM      1  C   UNL     1     -12.508  -9.881  -6.533  1.00  0.00     0.000 C 
ENDROOT
BRANCH   1   2
ATOM      2  C   UNL     1     -12.894 -11.022  -5.575  1.00  0.00     0.000 C 
BRANCH   2   3
ATOM      3  C   UNL     1     -11.728 -11.451  -4.670  1.00  0.00     0.000 C 
BRANCH   3   4
ATOM      4  C   UNL     1     -12.088 -11.379  -3.175  1.00  0.00     0.000 C 
BRANCH   4   5
ATOM      5  C   UNL     1     -11.619 -12.618  -2.394  1.00  0.00     0.001 C 
BRANCH   5   6
ATOM      6  C   UNL     1     -10.082 -12.737  -2.348  1.00  0.00     0.009 C 
BRANCH   6   7
ATOM      7  C   UNL     1      -9.531 -13.293  -1.017  1.00  0.00     0.032 C 
ATOM      8  C   UNL     1      -9.296 -12.194   0.030  1.00  0.00     0.014 C 
BRANCH   7   9
ATOM      9  C   UNL     1      -8.295 -14.129  -1.232  1.00  0.00     0.044 C 
ATOM     10  O   UNL     1      -7.188 -13.741  -0.774  1.00  0.00    -0.550 OA
ATOM     11  O   UNL     1      -8.370 -15.356  -1.882  1.00  0.00    -0.550 OA
ENDBRANCH   7   9
ENDBRANCH   6   7
ENDBRANCH   5   6
ENDBRANCH   4   5
ENDBRANCH   3   4
ENDBRANCH   2   3
ENDBRANCH   1   2
BRANCH   1  12
ATOM     12  C   UNL     1     -13.729  -9.236  -7.208  1.00  0.00     0.000 C 
BRANCH  12  13
ATOM     13  C   UNL     1     -15.043  -9.545  -6.469  1.00  0.00    -0.000 C 
BRANCH  13  14
ATOM     14  C   UNL     1     -16.253  -8.829  -7.090  1.00  0.00    -0.000 C 
BRANCH  14  15
ATOM     15  C   UNL     1     -15.976  -8.317  -8.513  1.00  0.00    -0.000 C 
BRANCH  15  16
ATOM     16  C   UNL     1     -16.885  -9.020  -9.533  1.00  0.00    -0.000 C 
BRANCH  16  17
ATOM     17  C   UNL     1     -16.665 -10.541  -9.575  1.00  0.00    -0.000 C 
BRANCH  17  18
ATOM     18  C   UNL     1     -15.279 -10.922 -10.117  1.00  0.00    -0.003 C 
ATOM     19  C   UNL     1     -14.659 -12.049  -9.296  1.00  0.00     0.004 C 
ENDBRANCH  17  18
ENDBRANCH  16  17
ENDBRANCH  15  16
ENDBRANCH  14  15
ENDBRANCH  13  14
ENDBRANCH  12  13
ENDBRANCH   1  12
TORSDOF 14
ENDMDL
