MODEL 1
REMARK VINA RESULT:    -3.213      0.000      0.000
REMARK INTER + INTRA:          -8.739
REMARK INTER:                  -6.219
REMARK INTRA:                  -2.520
REMARK UNBOUND:                -2.520
REMARK SMILES CCCCCCCCCCCCCCCCCC(=O)[O-]
REMARK SMILES IDX 10 1 11 2 12 3 13 4 14 5 15 6 16 7 17 8 18 9 19 10 20 11
REMARK SMILES IDX 9 12 8 13 7 14 6 15 5 16 4 17 3 18 2 19 1 20
REMARK H PARENT
REMARK Flexibility Score: inf
ROOT
ATOM      1  C   UNL     1    -103.114 -26.789 -16.817  1.00  0.00     0.000 C 
ENDROOT
BRANCH   1   2
ATOM      2  C   UNL     1    -102.730 -28.271 -16.656  1.00  0.00     0.000 C 
BRANCH   2   3
ATOM      3  C   UNL     1    -101.559 -28.482 -15.685  1.00  0.00     0.000 C 
BRANCH   3   4
ATOM      4  C   UNL     1    -101.499 -27.352 -14.646  1.00  0.00     0.000 C 
BRANCH   4   5
ATOM      5  C   UNL     1    -100.476 -27.619 -13.526  1.00  0.00     0.000 C 
BRANCH   5   6
ATOM      6  C   UNL     1    -100.908 -28.669 -12.485  1.00  0.00     0.000 C 
BRANCH   6   7
ATOM      7  C   UNL     1     -99.718 -29.423 -11.866  1.00  0.00     0.006 C 
BRANCH   7   8
ATOM      8  C   UNL     1     -98.555 -29.579 -12.854  1.00  0.00     0.053 C 
BRANCH   8   9
ATOM      9  C   UNL     1     -97.275 -29.931 -12.158  1.00  0.00     0.041 C 
ATOM     10  O   UNL     1     -97.202 -29.878 -10.902  1.00  0.00    -0.550 OA
ATOM     11  O   UNL     1     -96.154 -30.286 -12.898  1.00  0.00    -0.550 OA
ENDBRANCH   8   9
ENDBRANCH   7   8
ENDBRANCH   6   7
ENDBRANCH   5   6
ENDBRANCH   4   5
ENDBRANCH   3   4
ENDBRANCH   2   3
ENDBRANCH   1   2
BRANCH   1  12
ATOM     12  C   UNL     1    -104.617 -26.526 -17.046  1.00  0.00     0.000 C 
BRANCH  12  13
ATOM     13  C   UNL     1    -105.176 -25.274 -16.349  1.00  0.00    -0.000 C 
BRANCH  13  14
ATOM     14  C   UNL     1    -104.233 -24.729 -15.262  1.00  0.00    -0.000 C 
BRANCH  14  15
ATOM     15  C   UNL     1    -104.989 -24.138 -14.060  1.00  0.00    -0.000 C 
BRANCH  15  16
ATOM     16  C   UNL     1    -104.570 -24.696 -12.686  1.00  0.00    -0.000 C 
BRANCH  16  17
ATOM     17  C   UNL     1    -104.236 -26.203 -12.702  1.00  0.00    -0.000 C 
BRANCH  17  18
ATOM     18  C   UNL     1    -105.501 -27.077 -12.769  1.00  0.00    -0.000 C 
BRANCH  18  19
ATOM     19  C   UNL     1    -105.432 -28.130 -13.887  1.00  0.00    -0.003 C 
ATOM     20  C   UNL     1    -104.511 -29.299 -13.536  1.00  0.00     0.004 C 
ENDBRANCH  18  19
ENDBRANCH  17  18
ENDBRANCH  16  17
ENDBRANCH  15  16
ENDBRANCH  14  15
ENDBRANCH  13  14
ENDBRANCH  12  13
ENDBRANCH   1  12
TORSDOF 16
ENDMDL
MODEL 2
REMARK VINA RESULT:    -3.185      1.518      2.725
REMARK INTER + INTRA:          -8.684
REMARK INTER:                  -5.944
REMARK INTRA:                  -2.740
REMARK UNBOUND:                -2.520
REMARK SMILES CCCCCCCCCCCCCCCCCC(=O)[O-]
REMARK SMILES IDX 10 1 11 2 12 3 13 4 14 5 15 6 16 7 17 8 18 9 19 10 20 11
REMARK SMILES IDX 9 12 8 13 7 14 6 15 5 16 4 17 3 18 2 19 1 20
REMARK H PARENT
REMARK Flexibility Score: inf
ROOT
ATOM      1  C   UNL     1    -101.420 -29.744 -16.001  1.00  0.00     0.000 C 
ENDROOT
BRANCH   1   2
ATOM      2  C   UNL     1    -102.717 -30.423 -15.525  1.00  0.00     0.000 C 
BRANCH   2   3
ATOM      3  C   UNL     1    -102.729 -30.693 -14.014  1.00  0.00     0.000 C 
BRANCH   3   4
ATOM      4  C   UNL     1    -103.201 -29.453 -13.240  1.00  0.00     0.000 C 
BRANCH   4   5
ATOM      5  C   UNL     1    -102.140 -28.917 -12.260  1.00  0.00     0.000 C 
BRANCH   5   6
ATOM      6  C   UNL     1    -101.360 -27.685 -12.754  1.00  0.00     0.000 C 
BRANCH   6   7
ATOM      7  C   UNL     1     -99.907 -28.012 -13.141  1.00  0.00     0.006 C 
BRANCH   7   8
ATOM      8  C   UNL     1     -99.481 -29.406 -12.662  1.00  0.00     0.053 C 
BRANCH   8   9
ATOM      9  C   UNL     1     -98.243 -29.882 -13.360  1.00  0.00     0.041 C 
ATOM     10  O   UNL     1     -97.107 -29.576 -12.913  1.00  0.00    -0.550 OA
ATOM     11  O   UNL     1     -98.345 -30.636 -14.522  1.00  0.00    -0.550 OA
ENDBRANCH   8   9
ENDBRANCH   7   8
ENDBRANCH   6   7
ENDBRANCH   5   6
ENDBRANCH   4   5
ENDBRANCH   3   4
ENDBRANCH   2   3
ENDBRANCH   1   2
BRANCH   1  12
ATOM     12  C   UNL     1    -101.569 -28.261 -16.401  1.00  0.00     0.000 C 
BRANCH  12  13
ATOM     13  C   UNL     1    -103.014 -27.794 -16.652  1.00  0.00    -0.000 C 
BRANCH  13  14
ATOM     14  C   UNL     1    -103.243 -26.329 -16.244  1.00  0.00    -0.000 C 
BRANCH  14  15
ATOM     15  C   UNL     1    -103.981 -26.193 -14.902  1.00  0.00    -0.000 C 
BRANCH  15  16
ATOM     16  C   UNL     1    -104.272 -24.746 -14.459  1.00  0.00    -0.000 C 
BRANCH  16  17
ATOM     17  C   UNL     1    -104.845 -24.635 -13.030  1.00  0.00    -0.000 C 
BRANCH  17  18
ATOM     18  C   UNL     1    -104.399 -25.805 -12.134  1.00  0.00    -0.000 C 
BRANCH  18  19
ATOM     19  C   UNL     1    -103.924 -25.338 -10.749  1.00  0.00    -0.003 C 
ATOM     20  C   UNL     1    -103.512 -26.501  -9.847  1.00  0.00     0.004 C 
ENDBRANCH  18  19
ENDBRANCH  17  18
ENDBRANCH  16  17
ENDBRANCH  15  16
ENDBRANCH  14  15
ENDBRANCH  13  14
ENDBRANCH  12  13
ENDBRANCH   1  12
TORSDOF 16
ENDMDL
MODEL 3
REMARK VINA RESULT:    -3.168      3.507      7.008
REMARK INTER + INTRA:          -8.651
REMARK INTER:                  -6.047
REMARK INTRA:                  -2.604
REMARK UNBOUND:                -2.520
REMARK SMILES CCCCCCCCCCCCCCCCCC(=O)[O-]
REMARK SMILES IDX 10 1 11 2 12 3 13 4 14 5 15 6 16 7 17 8 18 9 19 10 20 11
REMARK SMILES IDX 9 12 8 13 7 14 6 15 5 16 4 17 3 18 2 19 1 20
REMARK H PARENT
REMARK Flexibility Score: inf
ROOT
ATOM      1  C   UNL     1     -98.491 -31.262 -15.031  1.00  0.00     0.000 C 
ENDROOT
BRANCH   1   2
ATOM      2  C   UNL     1     -99.757 -31.886 -14.417  1.00  0.00     0.000 C 
BRANCH   2   3
ATOM      3  C   UNL     1    -101.053 -31.277 -14.974  1.00  0.00     0.000 C 
BRANCH   3   4
ATOM      4  C   UNL     1    -100.745 -30.116 -15.931  1.00  0.00     0.000 C 
BRANCH   4   5
ATOM      5  C   UNL     1    -102.014 -29.415 -16.453  1.00  0.00     0.000 C 
BRANCH   5   6
ATOM      6  C   UNL     1    -101.979 -27.876 -16.394  1.00  0.00     0.000 C 
BRANCH   6   7
ATOM      7  C   UNL     1    -103.250 -27.272 -15.770  1.00  0.00     0.006 C 
BRANCH   7   8
ATOM      8  C   UNL     1    -103.581 -25.892 -16.354  1.00  0.00     0.053 C 
BRANCH   8   9
ATOM      9  C   UNL     1    -104.136 -24.965 -15.315  1.00  0.00     0.041 C 
ATOM     10  O   UNL     1    -104.484 -23.798 -15.631  1.00  0.00    -0.550 OA
ATOM     11  O   UNL     1    -104.238 -25.381 -13.994  1.00  0.00    -0.550 OA
ENDBRANCH   8   9
ENDBRANCH   7   8
ENDBRANCH   6   7
ENDBRANCH   5   6
ENDBRANCH   4   5
ENDBRANCH   3   4
ENDBRANCH   2   3
ENDBRANCH   1   2
BRANCH   1  12
ATOM     12  C   UNL     1     -97.162 -31.887 -14.561  1.00  0.00     0.000 C 
BRANCH  12  13
ATOM     13  C   UNL     1     -96.451 -31.133 -13.424  1.00  0.00    -0.000 C 
BRANCH  13  14
ATOM     14  C   UNL     1     -97.165 -29.825 -13.041  1.00  0.00    -0.000 C 
BRANCH  14  15
ATOM     15  C   UNL     1     -97.890 -29.917 -11.688  1.00  0.00    -0.000 C 
BRANCH  15  16
ATOM     16  C   UNL     1     -99.379 -29.520 -11.716  1.00  0.00    -0.000 C 
BRANCH  16  17
ATOM     17  C   UNL     1     -99.729 -28.495 -12.816  1.00  0.00    -0.000 C 
BRANCH  17  18
ATOM     18  C   UNL     1    -101.217 -28.102 -12.790  1.00  0.00    -0.000 C 
BRANCH  18  19
ATOM     19  C   UNL     1    -102.091 -29.150 -12.081  1.00  0.00    -0.003 C 
ATOM     20  C   UNL     1    -103.468 -29.299 -12.727  1.00  0.00     0.004 C 
ENDBRANCH  18  19
ENDBRANCH  17  18
ENDBRANCH  16  17
ENDBRANCH  15  16
ENDBRANCH  14  15
ENDBRANCH  13  14
ENDBRANCH  12  13
ENDBRANCH   1  12
TORSDOF 16
ENDMDL
MODEL 4
REMARK VINA RESULT:    -3.119      1.685      3.604
REMARK INTER + INTRA:          -8.556
REMARK INTER:                  -5.596
REMARK INTRA:                  -2.960
REMARK UNBOUND:                -2.520
REMARK SMILES CCCCCCCCCCCCCCCCCC(=O)[O-]
REMARK SMILES IDX 10 1 11 2 12 3 13 4 14 5 15 6 16 7 17 8 18 9 19 10 20 11
REMARK SMILES IDX 9 12 8 13 7 14 6 15 5 16 4 17 3 18 2 19 1 20
REMARK H PARENT
REMARK Flexibility Score: inf
ROOT
ATOM      1  C   UNL     1    -104.545 -26.200 -14.250  1.00  0.00     0.000 C 
ENDROOT
BRANCH   1   2
ATOM      2  C   UNL     1    -104.392 -25.240 -13.057  1.00  0.00     0.000 C 
BRANCH   2   3
ATOM      3  C   UNL     1    -104.220 -25.973 -11.719  1.00  0.00     0.000 C 
BRANCH   3   4
ATOM      4  C   UNL     1    -103.542 -27.336 -11.924  1.00  0.00     0.000 C 
BRANCH   4   5
ATOM      5  C   UNL     1    -102.064 -27.344 -11.491  1.00  0.00     0.000 C 
BRANCH   5   6
ATOM      6  C   UNL     1    -101.106 -28.067 -12.456  1.00  0.00     0.000 C 
BRANCH   6   7
ATOM      7  C   UNL     1    -100.394 -29.267 -11.807  1.00  0.00     0.006 C 
BRANCH   7   8
ATOM      8  C   UNL     1    -100.133 -30.398 -12.811  1.00  0.00     0.053 C 
BRANCH   8   9
ATOM      9  C   UNL     1     -99.028 -30.055 -13.763  1.00  0.00     0.041 C 
ATOM     10  O   UNL     1     -99.072 -30.457 -14.955  1.00  0.00    -0.550 OA
ATOM     11  O   UNL     1     -97.935 -29.318 -13.325  1.00  0.00    -0.550 OA
ENDBRANCH   8   9
ENDBRANCH   7   8
ENDBRANCH   6   7
ENDBRANCH   5   6
ENDBRANCH   4   5
ENDBRANCH   3   4
ENDBRANCH   2   3
ENDBRANCH   1   2
BRANCH   1  12
ATOM     12  C   UNL     1    -104.121 -25.617 -15.614  1.00  0.00     0.000 C 
BRANCH  12  13
ATOM     13  C   UNL     1    -103.175 -26.507 -16.440  1.00  0.00    -0.000 C 
BRANCH  13  14
ATOM     14  C   UNL     1    -102.095 -27.184 -15.579  1.00  0.00    -0.000 C 
BRANCH  14  15
ATOM     15  C   UNL     1    -101.643 -28.540 -16.148  1.00  0.00    -0.000 C 
BRANCH  15  16
ATOM     16  C   UNL     1    -102.706 -29.655 -16.101  1.00  0.00    -0.000 C 
BRANCH  16  17
ATOM     17  C   UNL     1    -103.379 -29.816 -14.722  1.00  0.00    -0.000 C 
BRANCH  17  18
ATOM     18  C   UNL     1    -104.915 -29.803 -14.821  1.00  0.00    -0.000 C 
BRANCH  18  19
ATOM     19  C   UNL     1    -105.411 -29.602 -16.262  1.00  0.00    -0.003 C 
ATOM     20  C   UNL     1    -106.482 -28.517 -16.368  1.00  0.00     0.004 C 
ENDBRANCH  18  19
ENDBRANCH  17  18
ENDBRANCH  16  17
ENDBRANCH  15  16
ENDBRANCH  14  15
ENDBRANCH  13  14
ENDBRANCH  12  13
ENDBRANCH   1  12
TORSDOF 16
ENDMDL
MODEL 5
REMARK VINA RESULT:    -3.114      2.823      6.340
REMARK INTER + INTRA:          -8.546
REMARK INTER:                  -6.242
REMARK INTRA:                  -2.304
REMARK UNBOUND:                -2.520
REMARK SMILES CCCCCCCCCCCCCCCCCC(=O)[O-]
REMARK SMILES IDX 10 1 11 2 12 3 13 4 14 5 15 6 16 7 17 8 18 9 19 10 20 11
REMARK SMILES IDX 9 12 8 13 7 14 6 15 5 16 4 17 3 18 2 19 1 20
REMARK H PARENT
REMARK Flexibility Score: inf
ROOT
ATOM      1  C   UNL     1    -104.434 -27.399 -12.778  1.00  0.00     0.000 C 
ENDROOT
BRANCH   1   2
ATOM      2  C   UNL     1    -105.266 -26.367 -13.561  1.00  0.00     0.000 C 
BRANCH   2   3
ATOM      3  C   UNL     1    -104.599 -24.985 -13.623  1.00  0.00     0.000 C 
BRANCH   3   4
ATOM      4  C   UNL     1    -104.369 -24.553 -15.079  1.00  0.00     0.000 C 
BRANCH   4   5
ATOM      5  C   UNL     1    -104.562 -25.703 -16.085  1.00  0.00     0.000 C 
BRANCH   5   6
ATOM      6  C   UNL     1    -103.275 -26.186 -16.778  1.00  0.00     0.000 C 
BRANCH   6   7
ATOM      7  C   UNL     1    -102.434 -27.123 -15.892  1.00  0.00     0.006 C 
BRANCH   7   8
ATOM      8  C   UNL     1    -102.446 -28.569 -16.406  1.00  0.00     0.053 C 
BRANCH   8   9
ATOM      9  C   UNL     1    -103.456 -29.410 -15.686  1.00  0.00     0.041 C 
ATOM     10  O   UNL     1    -104.682 -29.290 -15.949  1.00  0.00    -0.550 OA
ATOM     11  O   UNL     1    -103.047 -30.302 -14.703  1.00  0.00    -0.550 OA
ENDBRANCH   8   9
ENDBRANCH   7   8
ENDBRANCH   6   7
ENDBRANCH   5   6
ENDBRANCH   4   5
ENDBRANCH   3   4
ENDBRANCH   2   3
ENDBRANCH   1   2
BRANCH   1  12
ATOM     12  C   UNL     1    -103.105 -26.864 -12.204  1.00  0.00     0.000 C 
BRANCH  12  13
ATOM     13  C   UNL     1    -102.531 -27.671 -11.026  1.00  0.00    -0.000 C 
BRANCH  13  14
ATOM     14  C   UNL     1    -101.333 -28.546 -11.434  1.00  0.00    -0.000 C 
BRANCH  14  15
ATOM     15  C   UNL     1    -100.777 -28.185 -12.822  1.00  0.00    -0.000 C 
BRANCH  15  16
ATOM     16  C   UNL     1     -99.922 -29.281 -13.488  1.00  0.00    -0.000 C 
BRANCH  16  17
ATOM     17  C   UNL     1     -98.408 -29.134 -13.227  1.00  0.00    -0.000 C 
BRANCH  17  18
ATOM     18  C   UNL     1     -97.840 -30.323 -12.431  1.00  0.00    -0.000 C 
BRANCH  18  19
ATOM     19  C   UNL     1     -97.291 -29.904 -11.058  1.00  0.00    -0.003 C 
ATOM     20  C   UNL     1     -98.280 -30.173  -9.924  1.00  0.00     0.004 C 
ENDBRANCH  18  19
ENDBRANCH  17  18
ENDBRANCH  16  17
ENDBRANCH  15  16
ENDBRANCH  14  15
ENDBRANCH  13  14
ENDBRANCH  12  13
ENDBRANCH   1  12
TORSDOF 16
ENDMDL
MODEL 6
REMARK VINA RESULT:    -3.095      1.545      4.250
REMARK INTER + INTRA:          -8.510
REMARK INTER:                  -5.882
REMARK INTRA:                  -2.627
REMARK UNBOUND:                -2.520
REMARK SMILES CCCCCCCCCCCCCCCCCC(=O)[O-]
REMARK SMILES IDX 10 1 11 2 12 3 13 4 14 5 15 6 16 7 17 8 18 9 19 10 20 11
REMARK SMILES IDX 9 12 8 13 7 14 6 15 5 16 4 17 3 18 2 19 1 20
REMARK H PARENT
REMARK Flexibility Score: inf
ROOT
ATOM      1  C   UNL     1    -103.386 -31.411 -13.436  1.00  0.00     0.000 C 
ENDROOT
BRANCH   1   2
ATOM      2  C   UNL     1    -102.828 -30.283 -12.550  1.00  0.00     0.000 C 
BRANCH   2   3
ATOM      3  C   UNL     1    -103.490 -28.925 -12.824  1.00  0.00     0.000 C 
BRANCH   3   4
ATOM      4  C   UNL     1    -102.456 -27.791 -12.770  1.00  0.00     0.000 C 
BRANCH   4   5
ATOM      5  C   UNL     1    -101.063 -28.267 -12.318  1.00  0.00     0.000 C 
BRANCH   5   6
ATOM      6  C   UNL     1     -99.920 -27.966 -13.304  1.00  0.00     0.000 C 
BRANCH   6   7
ATOM      7  C   UNL     1     -98.802 -29.023 -13.266  1.00  0.00     0.006 C 
BRANCH   7   8
ATOM      8  C   UNL     1     -98.723 -29.732 -11.907  1.00  0.00     0.053 C 
BRANCH   8   9
ATOM      9  C   UNL     1     -97.368 -30.326 -11.665  1.00  0.00     0.041 C 
ATOM     10  O   UNL     1     -96.337 -29.748 -12.099  1.00  0.00    -0.550 OA
ATOM     11  O   UNL     1     -97.247 -31.533 -10.989  1.00  0.00    -0.550 OA
ENDBRANCH   8   9
ENDBRANCH   7   8
ENDBRANCH   6   7
ENDBRANCH   5   6
ENDBRANCH   4   5
ENDBRANCH   3   4
ENDBRANCH   2   3
ENDBRANCH   1   2
BRANCH   1  12
ATOM     12  C   UNL     1    -102.852 -31.430 -14.883  1.00  0.00     0.000 C 
BRANCH  12  13
ATOM     13  C   UNL     1    -101.338 -31.194 -15.024  1.00  0.00    -0.000 C 
BRANCH  13  14
ATOM     14  C   UNL     1    -100.998 -30.144 -16.095  1.00  0.00    -0.000 C 
BRANCH  14  15
ATOM     15  C   UNL     1    -102.204 -29.270 -16.477  1.00  0.00    -0.000 C 
BRANCH  15  16
ATOM     16  C   UNL     1    -101.960 -27.750 -16.401  1.00  0.00    -0.000 C 
BRANCH  16  17
ATOM     17  C   UNL     1    -103.212 -26.902 -16.715  1.00  0.00    -0.000 C 
BRANCH  17  18
ATOM     18  C   UNL     1    -103.472 -25.833 -15.639  1.00  0.00    -0.000 C 
BRANCH  18  19
ATOM     19  C   UNL     1    -104.675 -24.938 -15.977  1.00  0.00    -0.003 C 
ATOM     20  C   UNL     1    -104.808 -23.750 -15.025  1.00  0.00     0.004 C 
ENDBRANCH  18  19
ENDBRANCH  17  18
ENDBRANCH  16  17
ENDBRANCH  15  16
ENDBRANCH  14  15
ENDBRANCH  13  14
ENDBRANCH  12  13
ENDBRANCH   1  12
TORSDOF 16
ENDMDL
MODEL 7
REMARK VINA RESULT:    -3.088      3.724      6.899
REMARK INTER + INTRA:          -8.495
REMARK INTER:                  -6.077
REMARK INTRA:                  -2.419
REMARK UNBOUND:                -2.520
REMARK SMILES CCCCCCCCCCCCCCCCCC(=O)[O-]
REMARK SMILES IDX 10 1 11 2 12 3 13 4 14 5 15 6 16 7 17 8 18 9 19 10 20 11
REMARK SMILES IDX 9 12 8 13 7 14 6 15 5 16 4 17 3 18 2 19 1 20
REMARK H PARENT
REMARK Flexibility Score: inf
ROOT
ATOM      1  C   UNL     1    -101.877 -29.677 -16.396  1.00  0.00     0.000 C 
ENDROOT
BRANCH   1   2
ATOM      2  C   UNL     1    -101.909 -28.138 -16.378  1.00  0.00     0.000 C 
BRANCH   2   3
ATOM      3  C   UNL     1    -103.333 -27.572 -16.284  1.00  0.00     0.000 C 
BRANCH   3   4
ATOM      4  C   UNL     1    -103.336 -26.054 -16.514  1.00  0.00     0.000 C 
BRANCH   4   5
ATOM      5  C   UNL     1    -103.963 -25.269 -15.346  1.00  0.00     0.000 C 
BRANCH   5   6
ATOM      6  C   UNL     1    -104.482 -26.136 -14.184  1.00  0.00     0.000 C 
BRANCH   6   7
ATOM      7  C   UNL     1    -104.519 -25.380 -12.844  1.00  0.00     0.006 C 
BRANCH   7   8
ATOM      8  C   UNL     1    -105.623 -24.314 -12.811  1.00  0.00     0.053 C 
BRANCH   8   9
ATOM      9  C   UNL     1    -105.070 -22.945 -12.553  1.00  0.00     0.041 C 
ATOM     10  O   UNL     1    -105.293 -22.010 -13.365  1.00  0.00    -0.550 OA
ATOM     11  O   UNL     1    -104.283 -22.712 -11.433  1.00  0.00    -0.550 OA
ENDBRANCH   8   9
ENDBRANCH   7   8
ENDBRANCH   6   7
ENDBRANCH   5   6
ENDBRANCH   4   5
ENDBRANCH   3   4
ENDBRANCH   2   3
ENDBRANCH   1   2
BRANCH   1  12
ATOM     12  C   UNL     1    -100.524 -30.307 -16.004  1.00  0.00     0.000 C 
BRANCH  12  13
ATOM     13  C   UNL     1    -100.619 -31.554 -15.108  1.00  0.00    -0.000 C 
BRANCH  13  14
ATOM     14  C   UNL     1     -99.463 -31.648 -14.097  1.00  0.00    -0.000 C 
BRANCH  14  15
ATOM     15  C   UNL     1     -98.377 -30.585 -14.333  1.00  0.00    -0.000 C 
BRANCH  15  16
ATOM     16  C   UNL     1     -98.171 -29.593 -13.172  1.00  0.00    -0.000 C 
BRANCH  16  17
ATOM     17  C   UNL     1     -99.478 -29.186 -12.460  1.00  0.00    -0.000 C 
BRANCH  17  18
ATOM     18  C   UNL     1    -100.173 -28.001 -13.157  1.00  0.00    -0.000 C 
BRANCH  18  19
ATOM     19  C   UNL     1    -101.613 -27.790 -12.663  1.00  0.00    -0.003 C 
ATOM     20  C   UNL     1    -102.468 -29.051 -12.790  1.00  0.00     0.004 C 
ENDBRANCH  18  19
ENDBRANCH  17  18
ENDBRANCH  16  17
ENDBRANCH  15  16
ENDBRANCH  14  15
ENDBRANCH  13  14
ENDBRANCH  12  13
ENDBRANCH   1  12
TORSDOF 16
ENDMDL
MODEL 8
REMARK VINA RESULT:    -3.038      1.607      3.988
REMARK INTER + INTRA:          -8.399
REMARK INTER:                  -5.616
REMARK INTRA:                  -2.783
REMARK UNBOUND:                -2.520
REMARK SMILES CCCCCCCCCCCCCCCCCC(=O)[O-]
REMARK SMILES IDX 10 1 11 2 12 3 13 4 14 5 15 6 16 7 17 8 18 9 19 10 20 11
REMARK SMILES IDX 9 12 8 13 7 14 6 15 5 16 4 17 3 18 2 19 1 20
REMARK H PARENT
REMARK Flexibility Score: inf
ROOT
ATOM      1  C   UNL     1    -104.871 -28.637 -13.297  1.00  0.00     0.000 C 
ENDROOT
BRANCH   1   2
ATOM      2  C   UNL     1    -103.935 -29.371 -12.320  1.00  0.00     0.000 C 
BRANCH   2   3
ATOM      3  C   UNL     1    -103.258 -28.426 -11.317  1.00  0.00     0.000 C 
BRANCH   3   4
ATOM      4  C   UNL     1    -101.729 -28.489 -11.450  1.00  0.00     0.000 C 
BRANCH   4   5
ATOM      5  C   UNL     1    -101.204 -27.760 -12.701  1.00  0.00     0.000 C 
BRANCH   5   6
ATOM      6  C   UNL     1     -99.786 -28.166 -13.145  1.00  0.00     0.000 C 
BRANCH   6   7
ATOM      7  C   UNL     1     -99.300 -29.465 -12.478  1.00  0.00     0.006 C 
BRANCH   7   8
ATOM      8  C   UNL     1     -97.858 -29.813 -12.872  1.00  0.00     0.053 C 
BRANCH   8   9
ATOM      9  C   UNL     1     -96.953 -29.878 -11.678  1.00  0.00     0.041 C 
ATOM     10  O   UNL     1     -95.704 -29.896 -11.832  1.00  0.00    -0.550 OA
ATOM     11  O   UNL     1     -97.491 -29.949 -10.400  1.00  0.00    -0.550 OA
ENDBRANCH   8   9
ENDBRANCH   7   8
ENDBRANCH   6   7
ENDBRANCH   5   6
ENDBRANCH   4   5
ENDBRANCH   3   4
ENDBRANCH   2   3
ENDBRANCH   1   2
BRANCH   1  12
ATOM     12  C   UNL     1    -104.871 -27.100 -13.170  1.00  0.00     0.000 C 
BRANCH  12  13
ATOM     13  C   UNL     1    -104.220 -26.347 -14.343  1.00  0.00    -0.000 C 
BRANCH  13  14
ATOM     14  C   UNL     1    -103.914 -27.262 -15.540  1.00  0.00    -0.000 C 
BRANCH  14  15
ATOM     15  C   UNL     1    -102.502 -27.047 -16.109  1.00  0.00    -0.000 C 
BRANCH  15  16
ATOM     16  C   UNL     1    -101.706 -28.337 -16.389  1.00  0.00    -0.000 C 
BRANCH  16  17
ATOM     17  C   UNL     1    -102.277 -29.585 -15.683  1.00  0.00    -0.000 C 
BRANCH  17  18
ATOM     18  C   UNL     1    -101.452 -30.849 -15.985  1.00  0.00    -0.000 C 
BRANCH  18  19
ATOM     19  C   UNL     1     -99.941 -30.569 -16.033  1.00  0.00    -0.003 C 
ATOM     20  C   UNL     1     -99.103 -31.812 -15.732  1.00  0.00     0.004 C 
ENDBRANCH  18  19
ENDBRANCH  17  18
ENDBRANCH  16  17
ENDBRANCH  15  16
ENDBRANCH  14  15
ENDBRANCH  13  14
ENDBRANCH  12  13
ENDBRANCH   1  12
TORSDOF 16
ENDMDL
MODEL 9
REMARK VINA RESULT:    -3.016      1.633      3.944
REMARK INTER + INTRA:          -8.356
REMARK INTER:                  -5.410
REMARK INTRA:                  -2.946
REMARK UNBOUND:                -2.520
REMARK SMILES CCCCCCCCCCCCCCCCCC(=O)[O-]
REMARK SMILES IDX 10 1 11 2 12 3 13 4 14 5 15 6 16 7 17 8 18 9 19 10 20 11
REMARK SMILES IDX 9 12 8 13 7 14 6 15 5 16 4 17 3 18 2 19 1 20
REMARK H PARENT
REMARK Flexibility Score: inf
ROOT
ATOM      1  C   UNL     1    -104.593 -29.108 -13.746  1.00  0.00     0.000 C 
ENDROOT
BRANCH   1   2
ATOM      2  C   UNL     1    -104.031 -28.471 -12.463  1.00  0.00     0.000 C 
BRANCH   2   3
ATOM      3  C   UNL     1    -102.919 -27.448 -12.741  1.00  0.00     0.000 C 
BRANCH   3   4
ATOM      4  C   UNL     1    -101.579 -27.925 -12.162  1.00  0.00     0.000 C 
BRANCH   4   5
ATOM      5  C   UNL     1    -100.393 -27.686 -13.115  1.00  0.00     0.000 C 
BRANCH   5   6
ATOM      6  C   UNL     1     -99.612 -28.952 -13.513  1.00  0.00     0.000 C 
BRANCH   6   7
ATOM      7  C   UNL     1    -100.240 -30.243 -12.958  1.00  0.00     0.006 C 
BRANCH   7   8
ATOM      8  C   UNL     1     -99.956 -31.456 -13.853  1.00  0.00     0.053 C 
BRANCH   8   9
ATOM      9  C   UNL     1     -98.489 -31.630 -14.109  1.00  0.00     0.041 C 
ATOM     10  O   UNL     1     -98.033 -31.519 -15.277  1.00  0.00    -0.550 OA
ATOM     11  O   UNL     1     -97.632 -31.944 -13.062  1.00  0.00    -0.550 OA
ENDBRANCH   8   9
ENDBRANCH   7   8
ENDBRANCH   6   7
ENDBRANCH   5   6
ENDBRANCH   4   5
ENDBRANCH   3   4
ENDBRANCH   2   3
ENDBRANCH   1   2
BRANCH   1  12
ATOM     12  C   UNL     1    -103.699 -30.191 -14.383  1.00  0.00     0.000 C 
BRANCH  12  13
ATOM     13  C   UNL     1    -103.450 -30.029 -15.893  1.00  0.00    -0.000 C 
BRANCH  13  14
ATOM     14  C   UNL     1    -102.026 -29.545 -16.212  1.00  0.00    -0.000 C 
BRANCH  14  15
ATOM     15  C   UNL     1    -101.945 -28.022 -16.413  1.00  0.00    -0.000 C 
BRANCH  15  16
ATOM     16  C   UNL     1    -103.275 -27.341 -16.789  1.00  0.00    -0.000 C 
BRANCH  16  17
ATOM     17  C   UNL     1    -103.430 -25.917 -16.215  1.00  0.00    -0.000 C 
BRANCH  17  18
ATOM     18  C   UNL     1    -104.762 -25.736 -15.464  1.00  0.00    -0.000 C 
BRANCH  18  19
ATOM     19  C   UNL     1    -104.777 -24.473 -14.588  1.00  0.00    -0.003 C 
ATOM     20  C   UNL     1    -104.915 -23.191 -15.409  1.00  0.00     0.004 C 
ENDBRANCH  18  19
ENDBRANCH  17  18
ENDBRANCH  16  17
ENDBRANCH  15  16
ENDBRANCH  14  15
ENDBRANCH  13  14
ENDBRANCH  12  13
ENDBRANCH   1  12
TORSDOF 16
ENDMDL
