MODEL 1
REMARK VINA RESULT:    -3.920      0.000      0.000
REMARK INTER + INTRA:         -14.029
REMARK INTER:                 -10.338
REMARK INTRA:                  -3.691
REMARK UNBOUND:                -3.691
REMARK SMILES CCCCCCCCCCCCCCCCCCCCCCCCCCCCCC(=O)[O-]
REMARK SMILES IDX 16 1 17 2 18 3 19 4 20 5 21 6 22 7 23 8 24 9 25 10 26 11
REMARK SMILES IDX 27 12 28 13 29 14 30 15 31 16 32 17 15 18 14 19 13 20 12 21
REMARK SMILES IDX 11 22 10 23 9 24 8 25 7 26 6 27 5 28 4 29 3 30 2 31 1 32
REMARK H PARENT
REMARK Flexibility Score: inf
ROOT
ATOM      1  C   UNL     1     -51.938  13.701 -29.278  1.00  0.00     0.000 C 
ENDROOT
BRANCH   1   2
ATOM      2  C   UNL     1     -51.607  12.256 -28.876  1.00  0.00     0.000 C 
BRANCH   2   3
ATOM      3  C   UNL     1     -51.919  11.282 -30.023  1.00  0.00     0.000 C 
BRANCH   3   4
ATOM      4  C   UNL     1     -52.774  10.088 -29.569  1.00  0.00     0.000 C 
BRANCH   4   5
ATOM      5  C   UNL     1     -54.283  10.380 -29.638  1.00  0.00     0.000 C 
BRANCH   5   6
ATOM      6  C   UNL     1     -54.933   9.858 -30.931  1.00  0.00     0.000 C 
BRANCH   6   7
ATOM      7  C   UNL     1     -54.773   8.343 -31.172  1.00  0.00     0.000 C 
BRANCH   7   8
ATOM      8  C   UNL     1     -55.076   7.876 -32.610  1.00  0.00     0.000 C 
BRANCH   8   9
ATOM      9  C   UNL     1     -54.244   8.565 -33.709  1.00  0.00     0.000 C 
BRANCH   9  10
ATOM     10  C   UNL     1     -52.789   8.077 -33.819  1.00  0.00     0.000 C 
BRANCH  10  11
ATOM     11  C   UNL     1     -51.853   8.764 -32.810  1.00  0.00     0.000 C 
BRANCH  11  12
ATOM     12  C   UNL     1     -50.624   7.908 -32.457  1.00  0.00     0.000 C 
BRANCH  12  13
ATOM     13  C   UNL     1     -49.555   8.625 -31.608  1.00  0.00     0.006 C 
BRANCH  13  14
ATOM     14  C   UNL     1     -49.655   8.361 -30.097  1.00  0.00     0.053 C 
BRANCH  14  15
ATOM     15  C   UNL     1     -48.504   8.953 -29.344  1.00  0.00     0.041 C 
ATOM     16  O   UNL     1     -47.825   8.239 -28.560  1.00  0.00    -0.550 OA
ATOM     17  O   UNL     1     -48.166  10.289 -29.523  1.00  0.00    -0.550 OA
ENDBRANCH  14  15
ENDBRANCH  13  14
ENDBRANCH  12  13
ENDBRANCH  11  12
ENDBRANCH  10  11
ENDBRANCH   9  10
ENDBRANCH   8   9
ENDBRANCH   7   8
ENDBRANCH   6   7
ENDBRANCH   5   6
ENDBRANCH   4   5
ENDBRANCH   3   4
ENDBRANCH   2   3
ENDBRANCH   1   2
BRANCH   1  18
ATOM     18  C   UNL     1     -53.110  14.289 -28.476  1.00  0.00     0.000 C 
BRANCH  18  19
ATOM     19  C   UNL     1     -54.439  13.521 -28.611  1.00  0.00     0.000 C 
BRANCH  19  20
ATOM     20  C   UNL     1     -55.676  14.326 -28.158  1.00  0.00     0.000 C 
BRANCH  20  21
ATOM     21  C   UNL     1     -55.511  15.840 -28.384  1.00  0.00     0.000 C 
BRANCH  21  22
ATOM     22  C   UNL     1     -55.283  16.603 -27.062  1.00  0.00     0.000 C 
BRANCH  22  23
ATOM     23  C   UNL     1     -55.580  18.111 -27.162  1.00  0.00     0.000 C 
BRANCH  23  24
ATOM     24  C   UNL     1     -56.013  18.539 -28.572  1.00  0.00    -0.000 C 
BRANCH  24  25
ATOM     25  C   UNL     1     -54.917  19.307 -29.333  1.00  0.00    -0.000 C 
BRANCH  25  26
ATOM     26  C   UNL     1     -54.451  18.659 -30.650  1.00  0.00    -0.000 C 
BRANCH  26  27
ATOM     27  C   UNL     1     -52.920  18.600 -30.780  1.00  0.00    -0.000 C 
BRANCH  27  28
ATOM     28  C   UNL     1     -52.406  17.183 -31.086  1.00  0.00    -0.000 C 
BRANCH  28  29
ATOM     29  C   UNL     1     -53.501  16.268 -31.661  1.00  0.00    -0.000 C 
BRANCH  29  30
ATOM     30  C   UNL     1     -52.987  14.851 -31.962  1.00  0.00    -0.000 C 
BRANCH  30  31
ATOM     31  C   UNL     1     -54.121  13.825 -32.092  1.00  0.00    -0.003 C 
ATOM     32  C   UNL     1     -53.593  12.481 -32.588  1.00  0.00     0.004 C 
ENDBRANCH  30  31
ENDBRANCH  29  30
ENDBRANCH  28  29
ENDBRANCH  27  28
ENDBRANCH  26  27
ENDBRANCH  25  26
ENDBRANCH  24  25
ENDBRANCH  23  24
ENDBRANCH  22  23
ENDBRANCH  21  22
ENDBRANCH  20  21
ENDBRANCH  19  20
ENDBRANCH  18  19
ENDBRANCH   1  18
TORSDOF 28
ENDMDL
MODEL 2
REMARK VINA RESULT:    -3.792      3.011      8.514
REMARK INTER + INTRA:         -13.691
REMARK INTER:                 -10.111
REMARK INTRA:                  -3.580
REMARK UNBOUND:                -3.691
REMARK SMILES CCCCCCCCCCCCCCCCCCCCCCCCCCCCCC(=O)[O-]
REMARK SMILES IDX 16 1 17 2 18 3 19 4 20 5 21 6 22 7 23 8 24 9 25 10 26 11
REMARK SMILES IDX 27 12 28 13 29 14 30 15 31 16 32 17 15 18 14 19 13 20 12 21
REMARK SMILES IDX 11 22 10 23 9 24 8 25 7 26 6 27 5 28 4 29 3 30 2 31 1 32
REMARK H PARENT
REMARK Flexibility Score: inf
ROOT
ATOM      1  C   UNL     1     -53.404   8.914 -29.339  1.00  0.00     0.000 C 
ENDROOT
BRANCH   1   2
ATOM      2  C   UNL     1     -53.858   7.899 -30.398  1.00  0.00     0.000 C 
BRANCH   2   3
ATOM      3  C   UNL     1     -55.391   7.876 -30.514  1.00  0.00     0.000 C 
BRANCH   3   4
ATOM      4  C   UNL     1     -56.034   9.211 -30.108  1.00  0.00     0.000 C 
BRANCH   4   5
ATOM      5  C   UNL     1     -55.487  10.401 -30.915  1.00  0.00     0.000 C 
BRANCH   5   6
ATOM      6  C   UNL     1     -56.011  11.756 -30.406  1.00  0.00     0.000 C 
BRANCH   6   7
ATOM      7  C   UNL     1     -55.245  12.336 -29.200  1.00  0.00     0.000 C 
BRANCH   7   8
ATOM      8  C   UNL     1     -55.774  13.688 -28.680  1.00  0.00     0.000 C 
BRANCH   8   9
ATOM      9  C   UNL     1     -56.073  14.734 -29.772  1.00  0.00     0.000 C 
BRANCH   9  10
ATOM     10  C   UNL     1     -55.802  16.192 -29.361  1.00  0.00     0.000 C 
BRANCH  10  11
ATOM     11  C   UNL     1     -55.011  16.303 -28.046  1.00  0.00     0.000 C 
BRANCH  11  12
ATOM     12  C   UNL     1     -55.303  17.604 -27.280  1.00  0.00     0.000 C 
BRANCH  12  13
ATOM     13  C   UNL     1     -55.325  18.878 -28.149  1.00  0.00     0.006 C 
BRANCH  13  14
ATOM     14  C   UNL     1     -53.994  19.195 -28.851  1.00  0.00     0.053 C 
BRANCH  14  15
ATOM     15  C   UNL     1     -54.112  19.121 -30.342  1.00  0.00     0.041 C 
ATOM     16  O   UNL     1     -53.378  18.335 -30.998  1.00  0.00    -0.550 OA
ATOM     17  O   UNL     1     -55.047  19.905 -31.008  1.00  0.00    -0.550 OA
ENDBRANCH  14  15
ENDBRANCH  13  14
ENDBRANCH  12  13
ENDBRANCH  11  12
ENDBRANCH  10  11
ENDBRANCH   9  10
ENDBRANCH   8   9
ENDBRANCH   7   8
ENDBRANCH   6   7
ENDBRANCH   5   6
ENDBRANCH   4   5
ENDBRANCH   3   4
ENDBRANCH   2   3
ENDBRANCH   1   2
BRANCH   1  18
ATOM     18  C   UNL     1     -51.912   9.268 -29.454  1.00  0.00     0.000 C 
BRANCH  18  19
ATOM     19  C   UNL     1     -50.946   8.084 -29.263  1.00  0.00     0.000 C 
BRANCH  19  20
ATOM     20  C   UNL     1     -49.455   8.468 -29.376  1.00  0.00     0.000 C 
BRANCH  20  21
ATOM     21  C   UNL     1     -49.246   9.832 -30.057  1.00  0.00     0.000 C 
BRANCH  21  22
ATOM     22  C   UNL     1     -48.685   9.687 -31.489  1.00  0.00     0.000 C 
BRANCH  22  23
ATOM     23  C   UNL     1     -49.012   8.333 -32.144  1.00  0.00     0.000 C 
BRANCH  23  24
ATOM     24  C   UNL     1     -50.023   8.458 -33.294  1.00  0.00    -0.000 C 
BRANCH  24  25
ATOM     25  C   UNL     1     -51.459   8.090 -32.877  1.00  0.00    -0.000 C 
BRANCH  25  26
ATOM     26  C   UNL     1     -52.554   9.060 -33.358  1.00  0.00    -0.000 C 
BRANCH  26  27
ATOM     27  C   UNL     1     -52.161  10.538 -33.193  1.00  0.00    -0.000 C 
BRANCH  27  28
ATOM     28  C   UNL     1     -52.175  10.996 -31.726  1.00  0.00    -0.000 C 
BRANCH  28  29
ATOM     29  C   UNL     1     -52.146  12.528 -31.584  1.00  0.00    -0.000 C 
BRANCH  29  30
ATOM     30  C   UNL     1     -52.066  12.982 -30.118  1.00  0.00    -0.000 C 
BRANCH  30  31
ATOM     31  C   UNL     1     -52.302  14.490 -29.951  1.00  0.00    -0.003 C 
ATOM     32  C   UNL     1     -51.666  15.276 -31.094  1.00  0.00     0.004 C 
ENDBRANCH  30  31
ENDBRANCH  29  30
ENDBRANCH  28  29
ENDBRANCH  27  28
ENDBRANCH  26  27
ENDBRANCH  25  26
ENDBRANCH  24  25
ENDBRANCH  23  24
ENDBRANCH  22  23
ENDBRANCH  21  22
ENDBRANCH  20  21
ENDBRANCH  19  20
ENDBRANCH  18  19
ENDBRANCH   1  18
TORSDOF 28
ENDMDL
MODEL 3
REMARK VINA RESULT:    -3.739      1.335      3.952
REMARK INTER + INTRA:         -13.550
REMARK INTER:                  -9.843
REMARK INTRA:                  -3.707
REMARK UNBOUND:                -3.691
REMARK SMILES CCCCCCCCCCCCCCCCCCCCCCCCCCCCCC(=O)[O-]
REMARK SMILES IDX 16 1 17 2 18 3 19 4 20 5 21 6 22 7 23 8 24 9 25 10 26 11
REMARK SMILES IDX 27 12 28 13 29 14 30 15 31 16 32 17 15 18 14 19 13 20 12 21
REMARK SMILES IDX 11 22 10 23 9 24 8 25 7 26 6 27 5 28 4 29 3 30 2 31 1 32
REMARK H PARENT
REMARK Flexibility Score: inf
ROOT
ATOM      1  C   UNL     1     -51.885  15.273 -30.006  1.00  0.00     0.000 C 
ENDROOT
BRANCH   1   2
ATOM      2  C   UNL     1     -52.139  15.945 -31.364  1.00  0.00     0.000 C 
BRANCH   2   3
ATOM      3  C   UNL     1     -53.016  15.055 -32.260  1.00  0.00     0.000 C 
BRANCH   3   4
ATOM      4  C   UNL     1     -54.118  14.328 -31.474  1.00  0.00     0.000 C 
BRANCH   4   5
ATOM      5  C   UNL     1     -54.421  12.928 -32.035  1.00  0.00     0.000 C 
BRANCH   5   6
ATOM      6  C   UNL     1     -53.160  12.058 -32.178  1.00  0.00     0.000 C 
BRANCH   6   7
ATOM      7  C   UNL     1     -53.420  10.610 -32.640  1.00  0.00     0.000 C 
BRANCH   7   8
ATOM      8  C   UNL     1     -53.261   9.537 -31.544  1.00  0.00     0.000 C 
BRANCH   8   9
ATOM      9  C   UNL     1     -52.925   8.124 -32.059  1.00  0.00     0.000 C 
BRANCH   9  10
ATOM     10  C   UNL     1     -52.459   8.064 -33.525  1.00  0.00     0.000 C 
BRANCH  10  11
ATOM     11  C   UNL     1     -50.938   7.876 -33.659  1.00  0.00     0.000 C 
BRANCH  11  12
ATOM     12  C   UNL     1     -50.140   9.101 -33.180  1.00  0.00     0.000 C 
BRANCH  12  13
ATOM     13  C   UNL     1     -49.363   8.896 -31.864  1.00  0.00     0.006 C 
BRANCH  13  14
ATOM     14  C   UNL     1     -49.447  10.076 -30.882  1.00  0.00     0.053 C 
BRANCH  14  15
ATOM     15  C   UNL     1     -49.154   9.658 -29.473  1.00  0.00     0.041 C 
ATOM     16  O   UNL     1     -49.428  10.427 -28.514  1.00  0.00    -0.550 OA
ATOM     17  O   UNL     1     -48.595   8.412 -29.218  1.00  0.00    -0.550 OA
ENDBRANCH  14  15
ENDBRANCH  13  14
ENDBRANCH  12  13
ENDBRANCH  11  12
ENDBRANCH  10  11
ENDBRANCH   9  10
ENDBRANCH   8   9
ENDBRANCH   7   8
ENDBRANCH   6   7
ENDBRANCH   5   6
ENDBRANCH   4   5
ENDBRANCH   3   4
ENDBRANCH   2   3
ENDBRANCH   1   2
BRANCH   1  18
ATOM     18  C   UNL     1     -50.502  14.607 -29.922  1.00  0.00     0.000 C 
BRANCH  18  19
ATOM     19  C   UNL     1     -50.366  13.530 -28.829  1.00  0.00     0.000 C 
BRANCH  19  20
ATOM     20  C   UNL     1     -51.706  13.125 -28.178  1.00  0.00     0.000 C 
BRANCH  20  21
ATOM     21  C   UNL     1     -52.487  12.101 -29.021  1.00  0.00     0.000 C 
BRANCH  21  22
ATOM     22  C   UNL     1     -54.008  12.183 -28.773  1.00  0.00     0.000 C 
BRANCH  22  23
ATOM     23  C   UNL     1     -54.419  13.336 -27.838  1.00  0.00     0.000 C 
BRANCH  23  24
ATOM     24  C   UNL     1     -55.841  13.848 -28.116  1.00  0.00    -0.000 C 
BRANCH  24  25
ATOM     25  C   UNL     1     -55.863  15.245 -28.764  1.00  0.00    -0.000 C 
BRANCH  25  26
ATOM     26  C   UNL     1     -56.006  16.423 -27.783  1.00  0.00    -0.000 C 
BRANCH  26  27
ATOM     27  C   UNL     1     -54.936  17.509 -27.990  1.00  0.00    -0.000 C 
BRANCH  27  28
ATOM     28  C   UNL     1     -55.460  18.923 -27.687  1.00  0.00    -0.000 C 
BRANCH  28  29
ATOM     29  C   UNL     1     -56.067  19.606 -28.925  1.00  0.00    -0.000 C 
BRANCH  29  30
ATOM     30  C   UNL     1     -55.577  18.982 -30.241  1.00  0.00    -0.000 C 
BRANCH  30  31
ATOM     31  C   UNL     1     -54.307  19.657 -30.780  1.00  0.00    -0.003 C 
ATOM     32  C   UNL     1     -54.642  20.956 -31.509  1.00  0.00     0.004 C 
ENDBRANCH  30  31
ENDBRANCH  29  30
ENDBRANCH  28  29
ENDBRANCH  27  28
ENDBRANCH  26  27
ENDBRANCH  25  26
ENDBRANCH  24  25
ENDBRANCH  23  24
ENDBRANCH  22  23
ENDBRANCH  21  22
ENDBRANCH  20  21
ENDBRANCH  19  20
ENDBRANCH  18  19
ENDBRANCH   1  18
TORSDOF 28
ENDMDL
MODEL 4
REMARK VINA RESULT:    -3.678      3.555      9.172
REMARK INTER + INTRA:         -13.390
REMARK INTER:                 -11.559
REMARK INTRA:                  -1.831
REMARK UNBOUND:                -3.691
REMARK SMILES CCCCCCCCCCCCCCCCCCCCCCCCCCCCCC(=O)[O-]
REMARK SMILES IDX 16 1 17 2 18 3 19 4 20 5 21 6 22 7 23 8 24 9 25 10 26 11
REMARK SMILES IDX 27 12 28 13 29 14 30 15 31 16 32 17 15 18 14 19 13 20 12 21
REMARK SMILES IDX 11 22 10 23 9 24 8 25 7 26 6 27 5 28 4 29 3 30 2 31 1 32
REMARK H PARENT
REMARK Flexibility Score: inf
ROOT
ATOM      1  C   UNL     1     -50.333  13.258 -29.259  1.00  0.00     0.000 C 
ENDROOT
BRANCH   1   2
ATOM      2  C   UNL     1     -51.828  13.523 -29.025  1.00  0.00     0.000 C 
BRANCH   2   3
ATOM      3  C   UNL     1     -52.201  14.958 -29.434  1.00  0.00     0.000 C 
BRANCH   3   4
ATOM      4  C   UNL     1     -52.646  15.056 -30.902  1.00  0.00     0.000 C 
BRANCH   4   5
ATOM      5  C   UNL     1     -53.565  13.896 -31.322  1.00  0.00     0.000 C 
BRANCH   5   6
ATOM      6  C   UNL     1     -55.052  14.188 -31.056  1.00  0.00     0.000 C 
BRANCH   6   7
ATOM      7  C   UNL     1     -55.323  15.181 -29.907  1.00  0.00     0.000 C 
BRANCH   7   8
ATOM      8  C   UNL     1     -55.170  14.595 -28.489  1.00  0.00     0.000 C 
BRANCH   8   9
ATOM      9  C   UNL     1     -56.051  15.258 -27.412  1.00  0.00     0.000 C 
BRANCH   9  10
ATOM     10  C   UNL     1     -56.125  16.793 -27.492  1.00  0.00     0.000 C 
BRANCH  10  11
ATOM     11  C   UNL     1     -54.743  17.461 -27.388  1.00  0.00     0.000 C 
BRANCH  11  12
ATOM     12  C   UNL     1     -54.569  18.630 -28.373  1.00  0.00     0.000 C 
BRANCH  12  13
ATOM     13  C   UNL     1     -54.028  18.235 -29.762  1.00  0.00     0.006 C 
BRANCH  13  14
ATOM     14  C   UNL     1     -53.582  19.419 -30.634  1.00  0.00     0.053 C 
BRANCH  14  15
ATOM     15  C   UNL     1     -54.746  20.174 -31.198  1.00  0.00     0.041 C 
ATOM     16  O   UNL     1     -54.560  21.251 -31.825  1.00  0.00    -0.550 OA
ATOM     17  O   UNL     1     -56.036  19.680 -31.049  1.00  0.00    -0.550 OA
ENDBRANCH  14  15
ENDBRANCH  13  14
ENDBRANCH  12  13
ENDBRANCH  11  12
ENDBRANCH  10  11
ENDBRANCH   9  10
ENDBRANCH   8   9
ENDBRANCH   7   8
ENDBRANCH   6   7
ENDBRANCH   5   6
ENDBRANCH   4   5
ENDBRANCH   3   4
ENDBRANCH   2   3
ENDBRANCH   1   2
BRANCH   1  18
ATOM     18  C   UNL     1     -49.892  11.868 -28.772  1.00  0.00     0.000 C 
BRANCH  18  19
ATOM     19  C   UNL     1     -48.757  11.224 -29.589  1.00  0.00     0.000 C 
BRANCH  19  20
ATOM     20  C   UNL     1     -48.722   9.683 -29.505  1.00  0.00     0.000 C 
BRANCH  20  21
ATOM     21  C   UNL     1     -49.429   9.009 -30.694  1.00  0.00     0.000 C 
BRANCH  21  22
ATOM     22  C   UNL     1     -49.790  10.020 -31.804  1.00  0.00     0.000 C 
BRANCH  22  23
ATOM     23  C   UNL     1     -50.472   9.378 -33.025  1.00  0.00     0.000 C 
BRANCH  23  24
ATOM     24  C   UNL     1     -51.479   8.283 -32.637  1.00  0.00    -0.000 C 
BRANCH  24  25
ATOM     25  C   UNL     1     -52.418   7.891 -33.791  1.00  0.00    -0.000 C 
BRANCH  25  26
ATOM     26  C   UNL     1     -53.610   8.837 -34.022  1.00  0.00    -0.000 C 
BRANCH  26  27
ATOM     27  C   UNL     1     -54.966   8.110 -34.010  1.00  0.00    -0.000 C 
BRANCH  27  28
ATOM     28  C   UNL     1     -55.535   7.940 -32.591  1.00  0.00    -0.000 C 
BRANCH  28  29
ATOM     29  C   UNL     1     -54.718   8.701 -31.532  1.00  0.00    -0.000 C 
BRANCH  29  30
ATOM     30  C   UNL     1     -55.176   8.389 -30.099  1.00  0.00    -0.000 C 
BRANCH  30  31
ATOM     31  C   UNL     1     -55.700   9.630 -29.361  1.00  0.00    -0.003 C 
ATOM     32  C   UNL     1     -54.904  10.874 -29.743  1.00  0.00     0.004 C 
ENDBRANCH  30  31
ENDBRANCH  29  30
ENDBRANCH  28  29
ENDBRANCH  27  28
ENDBRANCH  26  27
ENDBRANCH  25  26
ENDBRANCH  24  25
ENDBRANCH  23  24
ENDBRANCH  22  23
ENDBRANCH  21  22
ENDBRANCH  20  21
ENDBRANCH  19  20
ENDBRANCH  18  19
ENDBRANCH   1  18
TORSDOF 28
ENDMDL
MODEL 5
REMARK VINA RESULT:    -3.657      3.219      8.153
REMARK INTER + INTRA:         -13.336
REMARK INTER:                 -10.159
REMARK INTRA:                  -3.177
REMARK UNBOUND:                -3.691
REMARK SMILES CCCCCCCCCCCCCCCCCCCCCCCCCCCCCC(=O)[O-]
REMARK SMILES IDX 16 1 17 2 18 3 19 4 20 5 21 6 22 7 23 8 24 9 25 10 26 11
REMARK SMILES IDX 27 12 28 13 29 14 30 15 31 16 32 17 15 18 14 19 13 20 12 21
REMARK SMILES IDX 11 22 10 23 9 24 8 25 7 26 6 27 5 28 4 29 3 30 2 31 1 32
REMARK H PARENT
REMARK Flexibility Score: inf
ROOT
ATOM      1  C   UNL     1     -49.726  11.328 -28.724  1.00  0.00     0.000 C 
ENDROOT
BRANCH   1   2
ATOM      2  C   UNL     1     -51.249  11.232 -28.897  1.00  0.00     0.000 C 
BRANCH   2   3
ATOM      3  C   UNL     1     -51.625  10.049 -29.805  1.00  0.00     0.000 C 
BRANCH   3   4
ATOM      4  C   UNL     1     -52.540   9.033 -29.104  1.00  0.00     0.000 C 
BRANCH   4   5
ATOM      5  C   UNL     1     -53.779   8.675 -29.942  1.00  0.00     0.000 C 
BRANCH   5   6
ATOM      6  C   UNL     1     -54.630   9.904 -30.303  1.00  0.00     0.000 C 
BRANCH   6   7
ATOM      7  C   UNL     1     -55.346  10.571 -29.111  1.00  0.00     0.000 C 
BRANCH   7   8
ATOM      8  C   UNL     1     -55.431  12.109 -29.179  1.00  0.00     0.000 C 
BRANCH   8   9
ATOM      9  C   UNL     1     -54.457  12.858 -28.248  1.00  0.00     0.000 C 
BRANCH   9  10
ATOM     10  C   UNL     1     -55.016  14.153 -27.634  1.00  0.00     0.000 C 
BRANCH  10  11
ATOM     11  C   UNL     1     -55.252  15.255 -28.682  1.00  0.00     0.000 C 
BRANCH  11  12
ATOM     12  C   UNL     1     -54.627  16.602 -28.284  1.00  0.00     0.000 C 
BRANCH  12  13
ATOM     13  C   UNL     1     -55.630  17.663 -27.787  1.00  0.00     0.006 C 
BRANCH  13  14
ATOM     14  C   UNL     1     -55.540  19.016 -28.510  1.00  0.00     0.053 C 
BRANCH  14  15
ATOM     15  C   UNL     1     -55.049  18.871 -29.918  1.00  0.00     0.041 C 
ATOM     16  O   UNL     1     -54.013  19.481 -30.294  1.00  0.00    -0.550 OA
ATOM     17  O   UNL     1     -55.724  18.047 -30.810  1.00  0.00    -0.550 OA
ENDBRANCH  14  15
ENDBRANCH  13  14
ENDBRANCH  12  13
ENDBRANCH  11  12
ENDBRANCH  10  11
ENDBRANCH   9  10
ENDBRANCH   8   9
ENDBRANCH   7   8
ENDBRANCH   6   7
ENDBRANCH   5   6
ENDBRANCH   4   5
ENDBRANCH   3   4
ENDBRANCH   2   3
ENDBRANCH   1   2
BRANCH   1  18
ATOM     18  C   UNL     1     -48.957  10.420 -29.698  1.00  0.00     0.000 C 
BRANCH  18  19
ATOM     19  C   UNL     1     -48.131   9.304 -29.031  1.00  0.00     0.000 C 
BRANCH  19  20
ATOM     20  C   UNL     1     -48.577   7.878 -29.420  1.00  0.00     0.000 C 
BRANCH  20  21
ATOM     21  C   UNL     1     -49.677   7.875 -30.495  1.00  0.00     0.000 C 
BRANCH  21  22
ATOM     22  C   UNL     1     -49.096   7.975 -31.922  1.00  0.00     0.000 C 
BRANCH  22  23
ATOM     23  C   UNL     1     -49.817   9.003 -32.811  1.00  0.00     0.000 C 
BRANCH  23  24
ATOM     24  C   UNL     1     -51.023   8.406 -33.554  1.00  0.00    -0.000 C 
BRANCH  24  25
ATOM     25  C   UNL     1     -52.361   9.049 -33.148  1.00  0.00    -0.000 C 
BRANCH  25  26
ATOM     26  C   UNL     1     -52.324  10.575 -32.947  1.00  0.00    -0.000 C 
BRANCH  26  27
ATOM     27  C   UNL     1     -53.726  11.202 -32.847  1.00  0.00    -0.000 C 
BRANCH  27  28
ATOM     28  C   UNL     1     -53.684  12.685 -32.443  1.00  0.00    -0.000 C 
BRANCH  28  29
ATOM     29  C   UNL     1     -52.739  12.948 -31.257  1.00  0.00    -0.000 C 
BRANCH  29  30
ATOM     30  C   UNL     1     -51.929  14.243 -31.427  1.00  0.00    -0.000 C 
BRANCH  30  31
ATOM     31  C   UNL     1     -52.814  15.459 -31.734  1.00  0.00    -0.003 C 
ATOM     32  C   UNL     1     -52.191  16.744 -31.194  1.00  0.00     0.004 C 
ENDBRANCH  30  31
ENDBRANCH  29  30
ENDBRANCH  28  29
ENDBRANCH  27  28
ENDBRANCH  26  27
ENDBRANCH  25  26
ENDBRANCH  24  25
ENDBRANCH  23  24
ENDBRANCH  22  23
ENDBRANCH  21  22
ENDBRANCH  20  21
ENDBRANCH  19  20
ENDBRANCH  18  19
ENDBRANCH   1  18
TORSDOF 28
ENDMDL
MODEL 6
REMARK VINA RESULT:    -3.614      1.240      3.564
REMARK INTER + INTRA:         -13.221
REMARK INTER:                 -10.051
REMARK INTRA:                  -3.171
REMARK UNBOUND:                -3.691
REMARK SMILES CCCCCCCCCCCCCCCCCCCCCCCCCCCCCC(=O)[O-]
REMARK SMILES IDX 16 1 17 2 18 3 19 4 20 5 21 6 22 7 23 8 24 9 25 10 26 11
REMARK SMILES IDX 27 12 28 13 29 14 30 15 31 16 32 17 15 18 14 19 13 20 12 21
REMARK SMILES IDX 11 22 10 23 9 24 8 25 7 26 6 27 5 28 4 29 3 30 2 31 1 32
REMARK H PARENT
REMARK Flexibility Score: inf
ROOT
ATOM      1  C   UNL     1     -52.762  16.160 -31.222  1.00  0.00     0.000 C 
ENDROOT
BRANCH   1   2
ATOM      2  C   UNL     1     -53.241  15.093 -32.217  1.00  0.00     0.000 C 
BRANCH   2   3
ATOM      3  C   UNL     1     -53.089  13.682 -31.625  1.00  0.00     0.000 C 
BRANCH   3   4
ATOM      4  C   UNL     1     -54.153  12.704 -32.149  1.00  0.00     0.000 C 
BRANCH   4   5
ATOM      5  C   UNL     1     -55.459  12.759 -31.339  1.00  0.00     0.000 C 
BRANCH   5   6
ATOM      6  C   UNL     1     -55.933  11.370 -30.877  1.00  0.00     0.000 C 
BRANCH   6   7
ATOM      7  C   UNL     1     -54.806  10.410 -30.445  1.00  0.00     0.000 C 
BRANCH   7   8
ATOM      8  C   UNL     1     -54.616   9.178 -31.352  1.00  0.00     0.000 C 
BRANCH   8   9
ATOM      9  C   UNL     1     -53.151   8.831 -31.681  1.00  0.00     0.000 C 
BRANCH   9  10
ATOM     10  C   UNL     1     -52.604   9.487 -32.961  1.00  0.00     0.000 C 
BRANCH  10  11
ATOM     11  C   UNL     1     -51.363  10.359 -32.699  1.00  0.00     0.000 C 
BRANCH  11  12
ATOM     12  C   UNL     1     -50.044   9.625 -32.996  1.00  0.00     0.000 C 
BRANCH  12  13
ATOM     13  C   UNL     1     -49.037   9.601 -31.829  1.00  0.00     0.006 C 
BRANCH  13  14
ATOM     14  C   UNL     1     -49.153   8.374 -30.909  1.00  0.00     0.053 C 
BRANCH  14  15
ATOM     15  C   UNL     1     -49.461   8.758 -29.495  1.00  0.00     0.041 C 
ATOM     16  O   UNL     1     -48.537   8.828 -28.641  1.00  0.00    -0.550 OA
ATOM     17  O   UNL     1     -50.766   9.057 -29.122  1.00  0.00    -0.550 OA
ENDBRANCH  14  15
ENDBRANCH  13  14
ENDBRANCH  12  13
ENDBRANCH  11  12
ENDBRANCH  10  11
ENDBRANCH   9  10
ENDBRANCH   8   9
ENDBRANCH   7   8
ENDBRANCH   6   7
ENDBRANCH   5   6
ENDBRANCH   4   5
ENDBRANCH   3   4
ENDBRANCH   2   3
ENDBRANCH   1   2
BRANCH   1  18
ATOM     18  C   UNL     1     -53.824  17.237 -30.946  1.00  0.00     0.000 C 
BRANCH  18  19
ATOM     19  C   UNL     1     -53.457  18.651 -31.432  1.00  0.00     0.000 C 
BRANCH  19  20
ATOM     20  C   UNL     1     -54.309  19.772 -30.800  1.00  0.00     0.000 C 
BRANCH  20  21
ATOM     21  C   UNL     1     -55.274  19.244 -29.723  1.00  0.00     0.000 C 
BRANCH  21  22
ATOM     22  C   UNL     1     -54.556  18.970 -28.384  1.00  0.00     0.000 C 
BRANCH  22  23
ATOM     23  C   UNL     1     -55.513  18.599 -27.237  1.00  0.00     0.000 C 
BRANCH  23  24
ATOM     24  C   UNL     1     -55.489  17.099 -26.904  1.00  0.00    -0.000 C 
BRANCH  24  25
ATOM     25  C   UNL     1     -55.033  16.226 -28.087  1.00  0.00    -0.000 C 
BRANCH  25  26
ATOM     26  C   UNL     1     -56.042  15.155 -28.543  1.00  0.00    -0.000 C 
BRANCH  26  27
ATOM     27  C   UNL     1     -55.567  13.721 -28.252  1.00  0.00    -0.000 C 
BRANCH  27  28
ATOM     28  C   UNL     1     -54.136  13.673 -27.690  1.00  0.00    -0.000 C 
BRANCH  28  29
ATOM     29  C   UNL     1     -53.123  13.109 -28.702  1.00  0.00    -0.000 C 
BRANCH  29  30
ATOM     30  C   UNL     1     -51.692  13.607 -28.442  1.00  0.00    -0.000 C 
BRANCH  30  31
ATOM     31  C   UNL     1     -50.723  12.469 -28.094  1.00  0.00    -0.003 C 
ATOM     32  C   UNL     1     -49.705  12.252 -29.210  1.00  0.00     0.004 C 
ENDBRANCH  30  31
ENDBRANCH  29  30
ENDBRANCH  28  29
ENDBRANCH  27  28
ENDBRANCH  26  27
ENDBRANCH  25  26
ENDBRANCH  24  25
ENDBRANCH  23  24
ENDBRANCH  22  23
ENDBRANCH  21  22
ENDBRANCH  20  21
ENDBRANCH  19  20
ENDBRANCH  18  19
ENDBRANCH   1  18
TORSDOF 28
ENDMDL
MODEL 7
REMARK VINA RESULT:    -3.590      5.500     11.081
REMARK INTER + INTRA:         -13.157
REMARK INTER:                 -10.985
REMARK INTRA:                  -2.172
REMARK UNBOUND:                -3.691
REMARK SMILES CCCCCCCCCCCCCCCCCCCCCCCCCCCCCC(=O)[O-]
REMARK SMILES IDX 16 1 17 2 18 3 19 4 20 5 21 6 22 7 23 8 24 9 25 10 26 11
REMARK SMILES IDX 27 12 28 13 29 14 30 15 31 16 32 17 15 18 14 19 13 20 12 21
REMARK SMILES IDX 11 22 10 23 9 24 8 25 7 26 6 27 5 28 4 29 3 30 2 31 1 32
REMARK H PARENT
REMARK Flexibility Score: inf
ROOT
ATOM      1  C   UNL     1     -52.551  14.009 -31.303  1.00  0.00     0.000 C 
ENDROOT
BRANCH   1   2
ATOM      2  C   UNL     1     -52.275  15.496 -31.567  1.00  0.00     0.000 C 
BRANCH   2   3
ATOM      3  C   UNL     1     -53.533  16.342 -31.309  1.00  0.00     0.000 C 
BRANCH   3   4
ATOM      4  C   UNL     1     -53.949  16.345 -29.830  1.00  0.00     0.000 C 
BRANCH   4   5
ATOM      5  C   UNL     1     -55.432  16.704 -29.632  1.00  0.00     0.000 C 
BRANCH   5   6
ATOM      6  C   UNL     1     -55.629  18.064 -28.940  1.00  0.00     0.000 C 
BRANCH   6   7
ATOM      7  C   UNL     1     -55.923  19.241 -29.892  1.00  0.00     0.000 C 
BRANCH   7   8
ATOM      8  C   UNL     1     -54.713  19.738 -30.708  1.00  0.00     0.000 C 
BRANCH   8   9
ATOM      9  C   UNL     1     -54.856  21.160 -31.285  1.00  0.00     0.000 C 
BRANCH   9  10
ATOM     10  C   UNL     1     -55.877  21.294 -32.429  1.00  0.00     0.000 C 
BRANCH  10  11
ATOM     11  C   UNL     1     -55.210  21.445 -33.807  1.00  0.00     0.000 C 
BRANCH  11  12
ATOM     12  C   UNL     1     -55.706  22.680 -34.578  1.00  0.00     0.000 C 
BRANCH  12  13
ATOM     13  C   UNL     1     -55.604  22.573 -36.113  1.00  0.00     0.006 C 
BRANCH  13  14
ATOM     14  C   UNL     1     -56.099  23.813 -36.875  1.00  0.00     0.053 C 
BRANCH  14  15
ATOM     15  C   UNL     1     -55.393  23.987 -38.185  1.00  0.00     0.041 C 
ATOM     16  O   UNL     1     -55.107  22.983 -38.889  1.00  0.00    -0.550 OA
ATOM     17  O   UNL     1     -55.069  25.260 -38.639  1.00  0.00    -0.550 OA
ENDBRANCH  14  15
ENDBRANCH  13  14
ENDBRANCH  12  13
ENDBRANCH  11  12
ENDBRANCH  10  11
ENDBRANCH   9  10
ENDBRANCH   8   9
ENDBRANCH   7   8
ENDBRANCH   6   7
ENDBRANCH   5   6
ENDBRANCH   4   5
ENDBRANCH   3   4
ENDBRANCH   2   3
ENDBRANCH   1   2
BRANCH   1  18
ATOM     18  C   UNL     1     -53.918  13.553 -31.839  1.00  0.00     0.000 C 
BRANCH  18  19
ATOM     19  C   UNL     1     -54.501  12.304 -31.151  1.00  0.00     0.000 C 
BRANCH  19  20
ATOM     20  C   UNL     1     -53.659  11.026 -31.355  1.00  0.00     0.000 C 
BRANCH  20  21
ATOM     21  C   UNL     1     -53.900  10.372 -32.726  1.00  0.00     0.000 C 
BRANCH  21  22
ATOM     22  C   UNL     1     -53.133   9.041 -32.878  1.00  0.00     0.000 C 
BRANCH  22  23
ATOM     23  C   UNL     1     -52.812   8.358 -31.536  1.00  0.00     0.000 C 
BRANCH  23  24
ATOM     24  C   UNL     1     -51.353   7.884 -31.444  1.00  0.00    -0.000 C 
BRANCH  24  25
ATOM     25  C   UNL     1     -50.634   7.875 -32.806  1.00  0.00    -0.000 C 
BRANCH  25  26
ATOM     26  C   UNL     1     -49.842   9.152 -33.142  1.00  0.00    -0.000 C 
BRANCH  26  27
ATOM     27  C   UNL     1     -49.844  10.179 -31.996  1.00  0.00    -0.000 C 
BRANCH  27  28
ATOM     28  C   UNL     1     -48.873   9.806 -30.864  1.00  0.00    -0.000 C 
BRANCH  28  29
ATOM     29  C   UNL     1     -49.156  10.578 -29.564  1.00  0.00    -0.000 C 
BRANCH  29  30
ATOM     30  C   UNL     1     -50.579  11.159 -29.522  1.00  0.00    -0.000 C 
BRANCH  30  31
ATOM     31  C   UNL     1     -50.817  12.056 -28.298  1.00  0.00    -0.003 C 
ATOM     32  C   UNL     1     -50.369  13.489 -28.571  1.00  0.00     0.004 C 
ENDBRANCH  30  31
ENDBRANCH  29  30
ENDBRANCH  28  29
ENDBRANCH  27  28
ENDBRANCH  26  27
ENDBRANCH  25  26
ENDBRANCH  24  25
ENDBRANCH  23  24
ENDBRANCH  22  23
ENDBRANCH  21  22
ENDBRANCH  20  21
ENDBRANCH  19  20
ENDBRANCH  18  19
ENDBRANCH   1  18
TORSDOF 28
ENDMDL
MODEL 8
REMARK VINA RESULT:    -3.564      1.246      2.775
REMARK INTER + INTRA:         -13.088
REMARK INTER:                 -10.562
REMARK INTRA:                  -2.526
REMARK UNBOUND:                -3.691
REMARK SMILES CCCCCCCCCCCCCCCCCCCCCCCCCCCCCC(=O)[O-]
REMARK SMILES IDX 16 1 17 2 18 3 19 4 20 5 21 6 22 7 23 8 24 9 25 10 26 11
REMARK SMILES IDX 27 12 28 13 29 14 30 15 31 16 32 17 15 18 14 19 13 20 12 21
REMARK SMILES IDX 11 22 10 23 9 24 8 25 7 26 6 27 5 28 4 29 3 30 2 31 1 32
REMARK H PARENT
REMARK Flexibility Score: inf
ROOT
ATOM      1  C   UNL     1     -56.097  11.612 -29.526  1.00  0.00     0.000 C 
ENDROOT
BRANCH   1   2
ATOM      2  C   UNL     1     -56.124  10.664 -30.734  1.00  0.00     0.000 C 
BRANCH   2   3
ATOM      3  C   UNL     1     -54.699  10.354 -31.220  1.00  0.00     0.000 C 
BRANCH   3   4
ATOM      4  C   UNL     1     -54.524   8.886 -31.640  1.00  0.00     0.000 C 
BRANCH   4   5
ATOM      5  C   UNL     1     -54.095   8.736 -33.109  1.00  0.00     0.000 C 
BRANCH   5   6
ATOM      6  C   UNL     1     -52.780   7.953 -33.269  1.00  0.00     0.000 C 
BRANCH   6   7
ATOM      7  C   UNL     1     -51.913   7.875 -31.997  1.00  0.00     0.000 C 
BRANCH   7   8
ATOM      8  C   UNL     1     -50.391   7.907 -32.242  1.00  0.00     0.000 C 
BRANCH   8   9
ATOM      9  C   UNL     1     -49.893   9.089 -33.096  1.00  0.00     0.000 C 
BRANCH   9  10
ATOM     10  C   UNL     1     -49.924  10.456 -32.389  1.00  0.00     0.000 C 
BRANCH  10  11
ATOM     11  C   UNL     1     -51.349  10.900 -32.015  1.00  0.00     0.000 C 
BRANCH  11  12
ATOM     12  C   UNL     1     -51.547  11.057 -30.497  1.00  0.00     0.000 C 
BRANCH  12  13
ATOM     13  C   UNL     1     -51.046   9.870 -29.650  1.00  0.00     0.006 C 
BRANCH  13  14
ATOM     14  C   UNL     1     -49.875  10.204 -28.711  1.00  0.00     0.053 C 
BRANCH  14  15
ATOM     15  C   UNL     1     -48.567   9.700 -29.240  1.00  0.00     0.041 C 
ATOM     16  O   UNL     1     -48.355   8.462 -29.331  1.00  0.00    -0.550 OA
ATOM     17  O   UNL     1     -47.590  10.598 -29.652  1.00  0.00    -0.550 OA
ENDBRANCH  14  15
ENDBRANCH  13  14
ENDBRANCH  12  13
ENDBRANCH  11  12
ENDBRANCH  10  11
ENDBRANCH   9  10
ENDBRANCH   8   9
ENDBRANCH   7   8
ENDBRANCH   6   7
ENDBRANCH   5   6
ENDBRANCH   4   5
ENDBRANCH   3   4
ENDBRANCH   2   3
ENDBRANCH   1   2
BRANCH   1  18
ATOM     18  C   UNL     1     -55.063  12.740 -29.677  1.00  0.00     0.000 C 
BRANCH  18  19
ATOM     19  C   UNL     1     -54.610  13.388 -28.355  1.00  0.00     0.000 C 
BRANCH  19  20
ATOM     20  C   UNL     1     -55.557  14.496 -27.845  1.00  0.00     0.000 C 
BRANCH  20  21
ATOM     21  C   UNL     1     -54.936  15.900 -27.954  1.00  0.00     0.000 C 
BRANCH  21  22
ATOM     22  C   UNL     1     -55.823  16.980 -27.300  1.00  0.00     0.000 C 
BRANCH  22  23
ATOM     23  C   UNL     1     -55.185  18.381 -27.292  1.00  0.00     0.000 C 
BRANCH  23  24
ATOM     24  C   UNL     1     -55.945  19.385 -28.173  1.00  0.00    -0.000 C 
BRANCH  24  25
ATOM     25  C   UNL     1     -55.825  19.079 -29.677  1.00  0.00    -0.000 C 
BRANCH  25  26
ATOM     26  C   UNL     1     -54.727  19.860 -30.423  1.00  0.00    -0.000 C 
BRANCH  26  27
ATOM     27  C   UNL     1     -53.400  19.088 -30.516  1.00  0.00    -0.000 C 
BRANCH  27  28
ATOM     28  C   UNL     1     -53.525  17.790 -31.331  1.00  0.00    -0.000 C 
BRANCH  28  29
ATOM     29  C   UNL     1     -53.546  16.534 -30.441  1.00  0.00    -0.000 C 
BRANCH  29  30
ATOM     30  C   UNL     1     -52.966  15.300 -31.151  1.00  0.00    -0.000 C 
BRANCH  30  31
ATOM     31  C   UNL     1     -51.840  14.630 -30.351  1.00  0.00    -0.003 C 
ATOM     32  C   UNL     1     -50.583  15.496 -30.341  1.00  0.00     0.004 C 
ENDBRANCH  30  31
ENDBRANCH  29  30
ENDBRANCH  28  29
ENDBRANCH  27  28
ENDBRANCH  26  27
ENDBRANCH  25  26
ENDBRANCH  24  25
ENDBRANCH  23  24
ENDBRANCH  22  23
ENDBRANCH  21  22
ENDBRANCH  20  21
ENDBRANCH  19  20
ENDBRANCH  18  19
ENDBRANCH   1  18
TORSDOF 28
ENDMDL
