MODEL 1
REMARK VINA RESULT:    -7.396      0.000      0.000
REMARK INTER + INTRA:          -9.407
REMARK INTER:                  -9.126
REMARK INTRA:                  -0.282
REMARK UNBOUND:                -0.282
REMARK SMILES Oc1cc(O)c2cc(O)c(-c3cc(O)c(O)c(O)c3)[o+]c2c1
REMARK SMILES IDX 10 1 20 2 21 3 22 4 2 5 3 6 4 7 6 8 7 9 8 10 11 11 12 12
REMARK SMILES IDX 13 13 19 14 15 15 17 16 14 17 16 19 18 21 9 23 1 25 5 27
REMARK H PARENT 14 18 16 20 18 22 9 24 1 26 5 28
REMARK Flexibility Score: inf
ROOT
ATOM      1  C   UNL     1      14.620  17.799  30.665  1.00  0.00     0.402 A 
ATOM      2  O   UNL     1      15.054  18.703  29.791  1.00  0.00    -0.202 OA
ATOM      3  C   UNL     1      14.279  19.651  29.277  1.00  0.00     0.368 A 
ATOM      4  C   UNL     1      14.826  20.556  28.363  1.00  0.00     0.162 A 
ATOM      5  C   UNL     1      14.032  21.561  27.803  1.00  0.00     0.128 A 
ATOM      6  C   UNL     1      12.685  21.661  28.157  1.00  0.00     0.093 A 
ATOM      7  C   UNL     1      12.112  20.767  29.070  1.00  0.00     0.136 A 
ATOM      8  C   UNL     1      12.914  19.746  29.643  1.00  0.00     0.125 A 
ATOM      9  C   UNL     1      12.430  18.814  30.575  1.00  0.00     0.078 A 
ATOM     10  C   UNL     1      13.283  17.840  31.101  1.00  0.00     0.223 A 
ENDROOT
BRANCH   1  11
ATOM     11  C   UNL     1      15.581  16.786  31.160  1.00  0.00     0.091 A 
ATOM     12  C   UNL     1      15.982  15.745  30.312  1.00  0.00     0.068 A 
ATOM     13  C   UNL     1      16.875  14.765  30.762  1.00  0.00     0.162 A 
ATOM     14  C   UNL     1      16.057  16.813  32.481  1.00  0.00     0.068 A 
ATOM     15  C   UNL     1      17.367  14.804  32.073  1.00  0.00     0.200 A 
ATOM     16  C   UNL     1      16.947  15.837  32.945  1.00  0.00     0.162 A 
BRANCH  13  17
ATOM     17  O   UNL     1      17.280  13.741  29.906  1.00  0.00    -0.504 OA
ATOM     18  H   UNL     1      17.726  12.901  30.256  1.00  0.00     0.293 HD
ENDBRANCH  13  17
BRANCH  15  19
ATOM     19  O   UNL     1      18.261  13.806  32.469  1.00  0.00    -0.502 OA
ATOM     20  H   UNL     1      18.298  12.884  32.060  1.00  0.00     0.293 HD
ENDBRANCH  15  19
BRANCH  16  21
ATOM     21  O   UNL     1      17.379  15.928  34.270  1.00  0.00    -0.504 OA
ATOM     22  H   UNL     1      17.097  15.293  35.002  1.00  0.00     0.293 HD
ENDBRANCH  16  21
ENDBRANCH   1  11
BRANCH  10  23
ATOM     23  O   UNL     1      12.815  16.946  32.065  1.00  0.00    -0.500 OA
ATOM     24  H   UNL     1      11.825  16.808  32.227  1.00  0.00     0.294 HD
ENDBRANCH  10  23
BRANCH   5  25
ATOM     25  O   UNL     1      14.571  22.467  26.891  1.00  0.00    -0.507 OA
ATOM     26  H   UNL     1      14.023  23.232  26.519  1.00  0.00     0.293 HD
ENDBRANCH   5  25
BRANCH   7  27
ATOM     27  O   UNL     1      10.757  20.931  29.368  1.00  0.00    -0.507 OA
ATOM     28  H   UNL     1      10.102  20.171  29.487  1.00  0.00     0.293 HD
ENDBRANCH   7  27
TORSDOF 7
ENDMDL
MODEL 2
REMARK VINA RESULT:    -7.220      1.795      6.702
REMARK INTER + INTRA:          -9.190
REMARK INTER:                  -8.806
REMARK INTRA:                  -0.384
REMARK UNBOUND:                -0.282
REMARK SMILES Oc1cc(O)c2cc(O)c(-c3cc(O)c(O)c(O)c3)[o+]c2c1
REMARK SMILES IDX 10 1 20 2 21 3 22 4 2 5 3 6 4 7 6 8 7 9 8 10 11 11 12 12
REMARK SMILES IDX 13 13 19 14 15 15 17 16 14 17 16 19 18 21 9 23 1 25 5 27
REMARK H PARENT 14 18 16 20 18 22 9 24 1 26 5 28
REMARK Flexibility Score: inf
ROOT
ATOM      1  C   UNL     1      14.553  17.874  30.333  1.00  0.00     0.402 A 
ATOM      2  O   UNL     1      15.599  17.052  30.363  1.00  0.00    -0.202 OA
ATOM      3  C   UNL     1      15.622  15.927  31.069  1.00  0.00     0.368 A 
ATOM      4  C   UNL     1      16.768  15.128  31.039  1.00  0.00     0.162 A 
ATOM      5  C   UNL     1      16.821  13.941  31.775  1.00  0.00     0.128 A 
ATOM      6  C   UNL     1      15.724  13.551  32.546  1.00  0.00     0.093 A 
ATOM      7  C   UNL     1      14.563  14.334  32.593  1.00  0.00     0.136 A 
ATOM      8  C   UNL     1      14.503  15.539  31.846  1.00  0.00     0.125 A 
ATOM      9  C   UNL     1      13.378  16.379  31.823  1.00  0.00     0.078 A 
ATOM     10  C   UNL     1      13.392  17.548  31.057  1.00  0.00     0.223 A 
ENDROOT
BRANCH   1  11
ATOM     11  C   UNL     1      14.653  19.105  29.514  1.00  0.00     0.091 A 
ATOM     12  C   UNL     1      14.408  19.037  28.137  1.00  0.00     0.068 A 
ATOM     13  C   UNL     1      14.514  20.182  27.338  1.00  0.00     0.162 A 
ATOM     14  C   UNL     1      15.044  20.330  30.080  1.00  0.00     0.068 A 
ATOM     15  C   UNL     1      14.882  21.410  27.906  1.00  0.00     0.200 A 
ATOM     16  C   UNL     1      15.157  21.482  29.292  1.00  0.00     0.162 A 
BRANCH  13  17
ATOM     17  O   UNL     1      14.254  20.108  25.970  1.00  0.00    -0.504 OA
ATOM     18  H   UNL     1      14.905  20.474  25.284  1.00  0.00     0.293 HD
ENDBRANCH  13  17
BRANCH  15  19
ATOM     19  O   UNL     1      14.966  22.523  27.066  1.00  0.00    -0.502 OA
ATOM     20  H   UNL     1      15.664  23.247  27.153  1.00  0.00     0.293 HD
ENDBRANCH  15  19
BRANCH  16  21
ATOM     21  O   UNL     1      15.549  22.664  29.923  1.00  0.00    -0.504 OA
ATOM     22  H   UNL     1      16.501  22.999  29.957  1.00  0.00     0.293 HD
ENDBRANCH  16  21
ENDBRANCH   1  11
BRANCH  10  23
ATOM     23  O   UNL     1      12.256  18.357  30.995  1.00  0.00    -0.500 OA
ATOM     24  H   UNL     1      12.224  19.184  30.411  1.00  0.00     0.294 HD
ENDBRANCH  10  23
BRANCH   5  25
ATOM     25  O   UNL     1      17.961  13.140  31.749  1.00  0.00    -0.507 OA
ATOM     26  H   UNL     1      18.414  12.837  32.603  1.00  0.00     0.293 HD
ENDBRANCH   5  25
BRANCH   7  27
ATOM     27  O   UNL     1      13.511  13.877  33.391  1.00  0.00    -0.507 OA
ATOM     28  H   UNL     1      13.333  12.904  33.600  1.00  0.00     0.293 HD
ENDBRANCH   7  27
TORSDOF 7
ENDMDL
MODEL 3
REMARK VINA RESULT:    -7.149      2.486      3.157
REMARK INTER + INTRA:          -9.103
REMARK INTER:                  -8.752
REMARK INTRA:                  -0.350
REMARK UNBOUND:                -0.282
REMARK SMILES Oc1cc(O)c2cc(O)c(-c3cc(O)c(O)c(O)c3)[o+]c2c1
REMARK SMILES IDX 10 1 20 2 21 3 22 4 2 5 3 6 4 7 6 8 7 9 8 10 11 11 12 12
REMARK SMILES IDX 13 13 19 14 15 15 17 16 14 17 16 19 18 21 9 23 1 25 5 27
REMARK H PARENT 14 18 16 20 18 22 9 24 1 26 5 28
REMARK Flexibility Score: inf
ROOT
ATOM      1  C   UNL     1      14.326  17.146  32.495  1.00  0.00     0.402 A 
ATOM      2  O   UNL     1      13.584  17.518  31.455  1.00  0.00    -0.202 OA
ATOM      3  C   UNL     1      13.221  18.776  31.231  1.00  0.00     0.368 A 
ATOM      4  C   UNL     1      12.438  19.070  30.112  1.00  0.00     0.162 A 
ATOM      5  C   UNL     1      12.039  20.384  29.854  1.00  0.00     0.128 A 
ATOM      6  C   UNL     1      12.423  21.410  30.720  1.00  0.00     0.093 A 
ATOM      7  C   UNL     1      13.206  21.142  31.850  1.00  0.00     0.136 A 
ATOM      8  C   UNL     1      13.617  19.810  32.114  1.00  0.00     0.125 A 
ATOM      9  C   UNL     1      14.413  19.451  33.214  1.00  0.00     0.078 A 
ATOM     10  C   UNL     1      14.782  18.116  33.406  1.00  0.00     0.223 A 
ENDROOT
BRANCH   1  11
ATOM     11  C   UNL     1      14.657  15.709  32.640  1.00  0.00     0.091 A 
ATOM     12  C   UNL     1      15.898  15.240  32.191  1.00  0.00     0.068 A 
ATOM     13  C   UNL     1      16.227  13.883  32.301  1.00  0.00     0.162 A 
ATOM     14  C   UNL     1      13.731  14.795  33.169  1.00  0.00     0.068 A 
ATOM     15  C   UNL     1      15.312  12.974  32.849  1.00  0.00     0.200 A 
ATOM     16  C   UNL     1      14.045  13.435  33.281  1.00  0.00     0.162 A 
BRANCH  13  17
ATOM     17  O   UNL     1      17.471  13.427  31.864  1.00  0.00    -0.504 OA
ATOM     18  H   UNL     1      17.570  12.551  31.365  1.00  0.00     0.293 HD
ENDBRANCH  13  17
BRANCH  15  19
ATOM     19  O   UNL     1      15.693  11.634  32.942  1.00  0.00    -0.502 OA
ATOM     20  H   UNL     1      15.044  10.863  33.010  1.00  0.00     0.293 HD
ENDBRANCH  15  19
BRANCH  16  21
ATOM     21  O   UNL     1      13.076  12.586  33.817  1.00  0.00    -0.504 OA
ATOM     22  H   UNL     1      12.087  12.668  33.633  1.00  0.00     0.293 HD
ENDBRANCH  16  21
ENDBRANCH   1  11
BRANCH  10  23
ATOM     23  O   UNL     1      15.614  17.766  34.470  1.00  0.00    -0.500 OA
ATOM     24  H   UNL     1      16.255  16.984  34.410  1.00  0.00     0.294 HD
ENDBRANCH  10  23
BRANCH   5  25
ATOM     25  O   UNL     1      11.259  20.684  28.738  1.00  0.00    -0.507 OA
ATOM     26  H   UNL     1      10.710  21.533  28.690  1.00  0.00     0.293 HD
ENDBRANCH   5  25
BRANCH   7  27
ATOM     27  O   UNL     1      13.545  22.223  32.669  1.00  0.00    -0.507 OA
ATOM     28  H   UNL     1      13.207  23.166  32.538  1.00  0.00     0.293 HD
ENDBRANCH   7  27
TORSDOF 7
ENDMDL
MODEL 4
REMARK VINA RESULT:    -7.141      6.956     10.439
REMARK INTER + INTRA:          -9.092
REMARK INTER:                  -8.718
REMARK INTRA:                  -0.374
REMARK UNBOUND:                -0.282
REMARK SMILES Oc1cc(O)c2cc(O)c(-c3cc(O)c(O)c(O)c3)[o+]c2c1
REMARK SMILES IDX 10 1 20 2 21 3 22 4 2 5 3 6 4 7 6 8 7 9 8 10 11 11 12 12
REMARK SMILES IDX 13 13 19 14 15 15 17 16 14 17 16 19 18 21 9 23 1 25 5 27
REMARK H PARENT 14 18 16 20 18 22 9 24 1 26 5 28
REMARK Flexibility Score: inf
ROOT
ATOM      1  C   UNL     1      18.191  25.846  30.398  1.00  0.00     0.402 A 
ATOM      2  O   UNL     1      17.790  24.971  29.481  1.00  0.00    -0.202 OA
ATOM      3  C   UNL     1      17.250  23.795  29.782  1.00  0.00     0.368 A 
ATOM      4  C   UNL     1      16.861  22.940  28.747  1.00  0.00     0.162 A 
ATOM      5  C   UNL     1      16.293  21.696  29.035  1.00  0.00     0.128 A 
ATOM      6  C   UNL     1      16.115  21.303  30.364  1.00  0.00     0.093 A 
ATOM      7  C   UNL     1      16.497  22.141  31.419  1.00  0.00     0.136 A 
ATOM      8  C   UNL     1      17.071  23.407  31.132  1.00  0.00     0.125 A 
ATOM      9  C   UNL     1      17.472  24.316  32.124  1.00  0.00     0.078 A 
ATOM     10  C   UNL     1      18.025  25.548  31.763  1.00  0.00     0.223 A 
ENDROOT
BRANCH   1  11
ATOM     11  C   UNL     1      18.788  27.121  29.936  1.00  0.00     0.091 A 
ATOM     12  C   UNL     1      17.950  28.150  29.485  1.00  0.00     0.068 A 
ATOM     13  C   UNL     1      18.490  29.357  29.026  1.00  0.00     0.162 A 
ATOM     14  C   UNL     1      20.180  27.302  29.887  1.00  0.00     0.068 A 
ATOM     15  C   UNL     1      19.879  29.547  28.998  1.00  0.00     0.200 A 
ATOM     16  C   UNL     1      20.733  28.503  29.426  1.00  0.00     0.162 A 
BRANCH  13  17
ATOM     17  O   UNL     1      17.648  30.381  28.593  1.00  0.00    -0.504 OA
ATOM     18  H   UNL     1      18.014  31.271  28.272  1.00  0.00     0.293 HD
ENDBRANCH  13  17
BRANCH  15  19
ATOM     19  O   UNL     1      20.366  30.773  28.538  1.00  0.00    -0.502 OA
ATOM     20  H   UNL     1      19.788  31.496  28.134  1.00  0.00     0.293 HD
ENDBRANCH  15  19
BRANCH  16  21
ATOM     21  O   UNL     1      22.125  28.611  29.407  1.00  0.00    -0.504 OA
ATOM     22  H   UNL     1      22.675  28.688  28.564  1.00  0.00     0.293 HD
ENDBRANCH  16  21
ENDBRANCH   1  11
BRANCH  10  23
ATOM     23  O   UNL     1      18.377  26.473  32.748  1.00  0.00    -0.500 OA
ATOM     24  H   UNL     1      19.107  27.158  32.597  1.00  0.00     0.294 HD
ENDBRANCH  10  23
BRANCH   5  25
ATOM     25  O   UNL     1      15.902  20.838  28.008  1.00  0.00    -0.507 OA
ATOM     26  H   UNL     1      14.985  20.904  27.585  1.00  0.00     0.293 HD
ENDBRANCH   5  25
BRANCH   7  27
ATOM     27  O   UNL     1      16.289  21.674  32.720  1.00  0.00    -0.507 OA
ATOM     28  H   UNL     1      17.024  21.361  33.338  1.00  0.00     0.293 HD
ENDBRANCH   7  27
TORSDOF 7
ENDMDL
MODEL 5
REMARK VINA RESULT:    -7.086      2.584      3.829
REMARK INTER + INTRA:          -9.025
REMARK INTER:                  -8.641
REMARK INTRA:                  -0.384
REMARK UNBOUND:                -0.282
REMARK SMILES Oc1cc(O)c2cc(O)c(-c3cc(O)c(O)c(O)c3)[o+]c2c1
REMARK SMILES IDX 10 1 20 2 21 3 22 4 2 5 3 6 4 7 6 8 7 9 8 10 11 11 12 12
REMARK SMILES IDX 13 13 19 14 15 15 17 16 14 17 16 19 18 21 9 23 1 25 5 27
REMARK H PARENT 14 18 16 20 18 22 9 24 1 26 5 28
REMARK Flexibility Score: inf
ROOT
ATOM      1  C   UNL     1      14.962  18.602  30.781  1.00  0.00     0.402 A 
ATOM      2  O   UNL     1      16.183  19.128  30.824  1.00  0.00    -0.202 OA
ATOM      3  C   UNL     1      16.563  20.153  30.069  1.00  0.00     0.368 A 
ATOM      4  C   UNL     1      17.869  20.635  30.184  1.00  0.00     0.162 A 
ATOM      5  C   UNL     1      18.297  21.710  29.399  1.00  0.00     0.128 A 
ATOM      6  C   UNL     1      17.414  22.305  28.494  1.00  0.00     0.093 A 
ATOM      7  C   UNL     1      16.100  21.840  28.360  1.00  0.00     0.136 A 
ATOM      8  C   UNL     1      15.660  20.751  29.156  1.00  0.00     0.125 A 
ATOM      9  C   UNL     1      14.358  20.227  29.098  1.00  0.00     0.078 A 
ATOM     10  C   UNL     1      13.997  19.155  29.919  1.00  0.00     0.223 A 
ENDROOT
BRANCH   1  11
ATOM     11  C   UNL     1      14.663  17.453  31.667  1.00  0.00     0.091 A 
ATOM     12  C   UNL     1      14.208  17.689  32.971  1.00  0.00     0.068 A 
ATOM     13  C   UNL     1      13.936  16.620  33.834  1.00  0.00     0.162 A 
ATOM     14  C   UNL     1      14.878  16.130  31.247  1.00  0.00     0.068 A 
ATOM     15  C   UNL     1      14.129  15.299  33.407  1.00  0.00     0.200 A 
ATOM     16  C   UNL     1      14.614  15.052  32.100  1.00  0.00     0.162 A 
BRANCH  13  17
ATOM     17  O   UNL     1      13.469  16.864  35.125  1.00  0.00    -0.504 OA
ATOM     18  H   UNL     1      12.532  16.604  35.409  1.00  0.00     0.293 HD
ENDBRANCH  13  17
BRANCH  15  19
ATOM     19  O   UNL     1      13.835  14.270  34.304  1.00  0.00    -0.502 OA
ATOM     20  H   UNL     1      14.017  13.293  34.125  1.00  0.00     0.293 HD
ENDBRANCH  15  19
BRANCH  16  21
ATOM     21  O   UNL     1      14.850  13.766  31.614  1.00  0.00    -0.504 OA
ATOM     22  H   UNL     1      14.331  13.342  30.858  1.00  0.00     0.293 HD
ENDBRANCH  16  21
ENDBRANCH   1  11
BRANCH  10  23
ATOM     23  O   UNL     1      12.690  18.667  29.897  1.00  0.00    -0.500 OA
ATOM     24  H   UNL     1      11.929  19.163  30.346  1.00  0.00     0.294 HD
ENDBRANCH  10  23
BRANCH   5  25
ATOM     25  O   UNL     1      19.598  22.197  29.509  1.00  0.00    -0.507 OA
ATOM     26  H   UNL     1      19.964  22.532  30.391  1.00  0.00     0.293 HD
ENDBRANCH   5  25
BRANCH   7  27
ATOM     27  O   UNL     1      15.281  22.486  27.429  1.00  0.00    -0.507 OA
ATOM     28  H   UNL     1      15.338  23.469  27.204  1.00  0.00     0.293 HD
ENDBRANCH   7  27
TORSDOF 7
ENDMDL
MODEL 6
REMARK VINA RESULT:    -7.023      1.980      2.816
REMARK INTER + INTRA:          -8.947
REMARK INTER:                  -8.564
REMARK INTRA:                  -0.383
REMARK UNBOUND:                -0.282
REMARK SMILES Oc1cc(O)c2cc(O)c(-c3cc(O)c(O)c(O)c3)[o+]c2c1
REMARK SMILES IDX 10 1 20 2 21 3 22 4 2 5 3 6 4 7 6 8 7 9 8 10 11 11 12 12
REMARK SMILES IDX 13 13 19 14 15 15 17 16 14 17 16 19 18 21 9 23 1 25 5 27
REMARK H PARENT 14 18 16 20 18 22 9 24 1 26 5 28
REMARK Flexibility Score: inf
ROOT
ATOM      1  C   UNL     1      15.324  17.071  31.244  1.00  0.00     0.402 A 
ATOM      2  O   UNL     1      14.170  17.452  30.704  1.00  0.00    -0.202 OA
ATOM      3  C   UNL     1      13.938  18.687  30.272  1.00  0.00     0.368 A 
ATOM      4  C   UNL     1      12.691  18.992  29.721  1.00  0.00     0.162 A 
ATOM      5  C   UNL     1      12.419  20.284  29.263  1.00  0.00     0.128 A 
ATOM      6  C   UNL     1      13.397  21.276  29.357  1.00  0.00     0.093 A 
ATOM      7  C   UNL     1      14.655  20.996  29.905  1.00  0.00     0.136 A 
ATOM      8  C   UNL     1      14.938  19.685  30.370  1.00  0.00     0.125 A 
ATOM      9  C   UNL     1      16.173  19.310  30.923  1.00  0.00     0.078 A 
ATOM     10  C   UNL     1      16.379  17.997  31.354  1.00  0.00     0.223 A 
ENDROOT
BRANCH   1  11
ATOM     11  C   UNL     1      15.457  15.667  31.697  1.00  0.00     0.091 A 
ATOM     12  C   UNL     1      15.888  14.689  30.791  1.00  0.00     0.068 A 
ATOM     13  C   UNL     1      16.004  13.352  31.189  1.00  0.00     0.162 A 
ATOM     14  C   UNL     1      15.105  15.283  33.001  1.00  0.00     0.068 A 
ATOM     15  C   UNL     1      15.675  12.972  32.498  1.00  0.00     0.200 A 
ATOM     16  C   UNL     1      15.213  13.948  33.412  1.00  0.00     0.162 A 
BRANCH  13  17
ATOM     17  O   UNL     1      16.449  12.388  30.285  1.00  0.00    -0.504 OA
ATOM     18  H   UNL     1      16.159  12.397  29.314  1.00  0.00     0.293 HD
ENDBRANCH  13  17
BRANCH  15  19
ATOM     19  O   UNL     1      15.816  11.626  32.846  1.00  0.00    -0.502 OA
ATOM     20  H   UNL     1      15.083  11.069  33.260  1.00  0.00     0.293 HD
ENDBRANCH  15  19
BRANCH  16  21
ATOM     21  O   UNL     1      14.847  13.641  34.723  1.00  0.00    -0.504 OA
ATOM     22  H   UNL     1      14.199  14.187  35.273  1.00  0.00     0.293 HD
ENDBRANCH  16  21
ENDBRANCH   1  11
BRANCH  10  23
ATOM     23  O   UNL     1      17.622  17.612  31.857  1.00  0.00    -0.500 OA
ATOM     24  H   UNL     1      17.857  16.638  32.007  1.00  0.00     0.294 HD
ENDBRANCH  10  23
BRANCH   5  25
ATOM     25  O   UNL     1      11.177  20.595  28.711  1.00  0.00    -0.507 OA
ATOM     26  H   UNL     1      10.725  21.482  28.893  1.00  0.00     0.293 HD
ENDBRANCH   5  25
BRANCH   7  27
ATOM     27  O   UNL     1      15.578  22.044  29.968  1.00  0.00    -0.507 OA
ATOM     28  H   UNL     1      15.334  23.011  30.127  1.00  0.00     0.293 HD
ENDBRANCH   7  27
TORSDOF 7
ENDMDL
MODEL 7
REMARK VINA RESULT:    -7.012      2.009      3.293
REMARK INTER + INTRA:          -8.934
REMARK INTER:                  -8.560
REMARK INTRA:                  -0.374
REMARK UNBOUND:                -0.282
REMARK SMILES Oc1cc(O)c2cc(O)c(-c3cc(O)c(O)c(O)c3)[o+]c2c1
REMARK SMILES IDX 10 1 20 2 21 3 22 4 2 5 3 6 4 7 6 8 7 9 8 10 11 11 12 12
REMARK SMILES IDX 13 13 19 14 15 15 17 16 14 17 16 19 18 21 9 23 1 25 5 27
REMARK H PARENT 14 18 16 20 18 22 9 24 1 26 5 28
REMARK Flexibility Score: inf
ROOT
ATOM      1  C   UNL     1      15.289  17.004  31.192  1.00  0.00     0.402 A 
ATOM      2  O   UNL     1      14.149  17.403  30.635  1.00  0.00    -0.202 OA
ATOM      3  C   UNL     1      13.925  18.654  30.248  1.00  0.00     0.368 A 
ATOM      4  C   UNL     1      12.693  18.978  29.674  1.00  0.00     0.162 A 
ATOM      5  C   UNL     1      12.429  20.287  29.260  1.00  0.00     0.128 A 
ATOM      6  C   UNL     1      13.401  21.277  29.423  1.00  0.00     0.093 A 
ATOM      7  C   UNL     1      14.643  20.978  29.996  1.00  0.00     0.136 A 
ATOM      8  C   UNL     1      14.917  19.650  30.415  1.00  0.00     0.125 A 
ATOM      9  C   UNL     1      16.138  19.257  30.987  1.00  0.00     0.078 A 
ATOM     10  C   UNL     1      16.336  17.927  31.370  1.00  0.00     0.223 A 
ENDROOT
BRANCH   1  11
ATOM     11  C   UNL     1      15.414  15.582  31.591  1.00  0.00     0.091 A 
ATOM     12  C   UNL     1      14.999  15.186  32.869  1.00  0.00     0.068 A 
ATOM     13  C   UNL     1      15.123  13.852  33.276  1.00  0.00     0.162 A 
ATOM     14  C   UNL     1      15.992  14.631  30.735  1.00  0.00     0.068 A 
ATOM     15  C   UNL     1      15.680  12.898  32.413  1.00  0.00     0.200 A 
ATOM     16  C   UNL     1      16.127  13.295  31.130  1.00  0.00     0.162 A 
BRANCH  13  17
ATOM     17  O   UNL     1      14.693  13.465  34.544  1.00  0.00    -0.504 OA
ATOM     18  H   UNL     1      13.732  13.192  34.719  1.00  0.00     0.293 HD
ENDBRANCH  13  17
BRANCH  15  19
ATOM     19  O   UNL     1      15.774  11.580  32.866  1.00  0.00    -0.502 OA
ATOM     20  H   UNL     1      16.622  11.033  32.844  1.00  0.00     0.293 HD
ENDBRANCH  15  19
BRANCH  16  21
ATOM     21  O   UNL     1      16.710  12.405  30.226  1.00  0.00    -0.504 OA
ATOM     22  H   UNL     1      17.651  12.049  30.310  1.00  0.00     0.293 HD
ENDBRANCH  16  21
ENDBRANCH   1  11
BRANCH  10  23
ATOM     23  O   UNL     1      17.566  17.525  31.893  1.00  0.00    -0.500 OA
ATOM     24  H   UNL     1      18.142  18.152  32.440  1.00  0.00     0.294 HD
ENDBRANCH  10  23
BRANCH   5  25
ATOM     25  O   UNL     1      11.202  20.617  28.686  1.00  0.00    -0.507 OA
ATOM     26  H   UNL     1      10.572  21.274  29.128  1.00  0.00     0.293 HD
ENDBRANCH   5  25
BRANCH   7  27
ATOM     27  O   UNL     1      15.560  22.025  30.128  1.00  0.00    -0.507 OA
ATOM     28  H   UNL     1      15.451  22.803  30.763  1.00  0.00     0.293 HD
ENDBRANCH   7  27
TORSDOF 7
ENDMDL
MODEL 8
REMARK VINA RESULT:    -6.951      2.112      2.446
REMARK INTER + INTRA:          -8.858
REMARK INTER:                  -8.487
REMARK INTRA:                  -0.370
REMARK UNBOUND:                -0.282
REMARK SMILES Oc1cc(O)c2cc(O)c(-c3cc(O)c(O)c(O)c3)[o+]c2c1
REMARK SMILES IDX 10 1 20 2 21 3 22 4 2 5 3 6 4 7 6 8 7 9 8 10 11 11 12 12
REMARK SMILES IDX 13 13 19 14 15 15 17 16 14 17 16 19 18 21 9 23 1 25 5 27
REMARK H PARENT 14 18 16 20 18 22 9 24 1 26 5 28
REMARK Flexibility Score: inf
ROOT
ATOM      1  C   UNL     1      14.618  17.627  31.370  1.00  0.00     0.402 A 
ATOM      2  O   UNL     1      14.732  17.512  30.050  1.00  0.00    -0.202 OA
ATOM      3  C   UNL     1      14.460  18.500  29.204  1.00  0.00     0.368 A 
ATOM      4  C   UNL     1      14.608  18.282  27.832  1.00  0.00     0.162 A 
ATOM      5  C   UNL     1      14.325  19.302  26.921  1.00  0.00     0.128 A 
ATOM      6  C   UNL     1      13.890  20.547  27.383  1.00  0.00     0.093 A 
ATOM      7  C   UNL     1      13.732  20.790  28.753  1.00  0.00     0.136 A 
ATOM      8  C   UNL     1      14.021  19.759  29.683  1.00  0.00     0.125 A 
ATOM      9  C   UNL     1      13.904  19.916  31.073  1.00  0.00     0.078 A 
ATOM     10  C   UNL     1      14.213  18.854  31.928  1.00  0.00     0.223 A 
ENDROOT
BRANCH   1  11
ATOM     11  C   UNL     1      14.943  16.449  32.207  1.00  0.00     0.091 A 
ATOM     12  C   UNL     1      13.946  15.504  32.483  1.00  0.00     0.068 A 
ATOM     13  C   UNL     1      14.223  14.391  33.286  1.00  0.00     0.162 A 
ATOM     14  C   UNL     1      16.216  16.286  32.778  1.00  0.00     0.068 A 
ATOM     15  C   UNL     1      15.500  14.216  33.837  1.00  0.00     0.200 A 
ATOM     16  C   UNL     1      16.506  15.180  33.586  1.00  0.00     0.162 A 
BRANCH  13  17
ATOM     17  O   UNL     1      13.228  13.448  33.543  1.00  0.00    -0.504 OA
ATOM     18  H   UNL     1      12.585  13.144  32.821  1.00  0.00     0.293 HD
ENDBRANCH  13  17
BRANCH  15  19
ATOM     19  O   UNL     1      15.725  13.085  34.626  1.00  0.00    -0.502 OA
ATOM     20  H   UNL     1      15.151  12.256  34.604  1.00  0.00     0.293 HD
ENDBRANCH  15  19
BRANCH  16  21
ATOM     21  O   UNL     1      17.793  15.083  34.118  1.00  0.00    -0.504 OA
ATOM     22  H   UNL     1      18.349  14.241  34.103  1.00  0.00     0.293 HD
ENDBRANCH  16  21
ENDBRANCH   1  11
BRANCH  10  23
ATOM     23  O   UNL     1      14.145  19.026  33.311  1.00  0.00    -0.500 OA
ATOM     24  H   UNL     1      14.673  18.440  33.946  1.00  0.00     0.294 HD
ENDBRANCH  10  23
BRANCH   5  25
ATOM     25  O   UNL     1      14.471  19.092  25.550  1.00  0.00    -0.507 OA
ATOM     26  H   UNL     1      13.843  19.518  24.880  1.00  0.00     0.293 HD
ENDBRANCH   5  25
BRANCH   7  27
ATOM     27  O   UNL     1      13.289  22.060  29.134  1.00  0.00    -0.507 OA
ATOM     28  H   UNL     1      12.320  22.306  29.284  1.00  0.00     0.293 HD
ENDBRANCH   7  27
TORSDOF 7
ENDMDL
MODEL 9
REMARK VINA RESULT:    -6.944      2.400      2.972
REMARK INTER + INTRA:          -8.849
REMARK INTER:                  -8.473
REMARK INTRA:                  -0.377
REMARK UNBOUND:                -0.282
REMARK SMILES Oc1cc(O)c2cc(O)c(-c3cc(O)c(O)c(O)c3)[o+]c2c1
REMARK SMILES IDX 10 1 20 2 21 3 22 4 2 5 3 6 4 7 6 8 7 9 8 10 11 11 12 12
REMARK SMILES IDX 13 13 19 14 15 15 17 16 14 17 16 19 18 21 9 23 1 25 5 27
REMARK H PARENT 14 18 16 20 18 22 9 24 1 26 5 28
REMARK Flexibility Score: inf
ROOT
ATOM      1  C   UNL     1      15.249  17.146  30.622  1.00  0.00     0.402 A 
ATOM      2  O   UNL     1      15.946  18.104  31.229  1.00  0.00    -0.202 OA
ATOM      3  C   UNL     1      15.919  19.376  30.848  1.00  0.00     0.368 A 
ATOM      4  C   UNL     1      16.688  20.311  31.547  1.00  0.00     0.162 A 
ATOM      5  C   UNL     1      16.682  21.656  31.166  1.00  0.00     0.128 A 
ATOM      6  C   UNL     1      15.906  22.068  30.081  1.00  0.00     0.093 A 
ATOM      7  C   UNL     1      15.128  21.151  29.363  1.00  0.00     0.136 A 
ATOM      8  C   UNL     1      15.128  19.785  29.748  1.00  0.00     0.125 A 
ATOM      9  C   UNL     1      14.370  18.798  29.095  1.00  0.00     0.078 A 
ATOM     10  C   UNL     1      14.417  17.473  29.536  1.00  0.00     0.223 A 
ENDROOT
BRANCH   1  11
ATOM     11  C   UNL     1      15.370  15.761  31.135  1.00  0.00     0.091 A 
ATOM     12  C   UNL     1      16.364  14.920  30.621  1.00  0.00     0.068 A 
ATOM     13  C   UNL     1      16.487  13.601  31.076  1.00  0.00     0.162 A 
ATOM     14  C   UNL     1      14.471  15.254  32.088  1.00  0.00     0.068 A 
ATOM     15  C   UNL     1      15.605  13.102  32.043  1.00  0.00     0.200 A 
ATOM     16  C   UNL     1      14.580  13.936  32.549  1.00  0.00     0.162 A 
BRANCH  13  17
ATOM     17  O   UNL     1      17.490  12.776  30.568  1.00  0.00    -0.504 OA
ATOM     18  H   UNL     1      18.469  12.940  30.776  1.00  0.00     0.293 HD
ENDBRANCH  13  17
BRANCH  15  19
ATOM     19  O   UNL     1      15.775  11.782  32.468  1.00  0.00    -0.502 OA
ATOM     20  H   UNL     1      16.283  11.515  33.299  1.00  0.00     0.293 HD
ENDBRANCH  15  19
BRANCH  16  21
ATOM     21  O   UNL     1      13.653  13.501  33.498  1.00  0.00    -0.504 OA
ATOM     22  H   UNL     1      12.657  13.448  33.334  1.00  0.00     0.293 HD
ENDBRANCH  16  21
ENDBRANCH   1  11
BRANCH  10  23
ATOM     23  O   UNL     1      13.626  16.502  28.920  1.00  0.00    -0.500 OA
ATOM     24  H   UNL     1      12.898  16.749  28.261  1.00  0.00     0.294 HD
ENDBRANCH  10  23
BRANCH   5  25
ATOM     25  O   UNL     1      17.446  22.594  31.859  1.00  0.00    -0.507 OA
ATOM     26  H   UNL     1      17.326  22.742  32.854  1.00  0.00     0.293 HD
ENDBRANCH   5  25
BRANCH   7  27
ATOM     27  O   UNL     1      14.382  21.642  28.288  1.00  0.00    -0.507 OA
ATOM     28  H   UNL     1      14.100  22.606  28.181  1.00  0.00     0.293 HD
ENDBRANCH   7  27
TORSDOF 7
ENDMDL
