MODEL 1
REMARK VINA RESULT:    -5.275      0.000      0.000
REMARK INTER + INTRA:          -7.931
REMARK INTER:                  -7.126
REMARK INTRA:                  -0.805
REMARK UNBOUND:                -0.805
REMARK SMILES O=c1c(-c2ccc(O)cc2)coc2c([C@H]3O[C@H](CO)[C@H](O)[C@@H](O)[C@@H]3O)c(O)ccc12
REMARK SMILES IDX 3 1 11 2 12 3 13 4 30 5 2 6 1 7 29 8 28 9 26 10 14 11 4 12
REMARK SMILES IDX 5 13 6 14 7 15 10 16 9 17 8 18 15 20 24 21 16 22 22 23 17 24
REMARK SMILES IDX 20 25 25 26 23 28 18 30 19 31 21 33 27 35
REMARK H PARENT 8 19 25 27 23 29 19 32 21 34 27 36
REMARK Flexibility Score: inf
ROOT
ATOM      1  C   UNL     1     -22.622  75.353   2.704  1.00  0.00     0.065 A 
ATOM      2  C   UNL     1     -21.933  74.457   3.532  1.00  0.00     0.208 A 
ATOM      3  O   UNL     1     -22.078  73.146   3.387  1.00  0.00    -0.463 OA
ATOM      4  C   UNL     1     -22.869  72.595   2.469  1.00  0.00     0.147 A 
ATOM      5  C   UNL     1     -23.601  73.428   1.591  1.00  0.00     0.066 A 
ATOM      6  C   UNL     1     -23.478  74.823   1.723  1.00  0.00     0.200 A 
ATOM      7  O   UNL     1     -24.144  75.594   0.978  1.00  0.00    -0.288 OA
ATOM      8  C   UNL     1     -24.430  72.852   0.619  1.00  0.00     0.020 A 
ATOM      9  C   UNL     1     -24.517  71.468   0.504  1.00  0.00     0.047 A 
ATOM     10  C   UNL     1     -23.794  70.627   1.353  1.00  0.00     0.125 A 
ATOM     11  C   UNL     1     -22.972  71.183   2.374  1.00  0.00     0.069 A 
ENDROOT
BRANCH   1  12
ATOM     12  C   UNL     1     -22.438  76.816   2.881  1.00  0.00    -0.011 A 
ATOM     13  C   UNL     1     -21.415  77.490   2.192  1.00  0.00     0.013 A 
ATOM     14  C   UNL     1     -21.243  78.869   2.350  1.00  0.00     0.047 A 
ATOM     15  C   UNL     1     -22.096  79.591   3.196  1.00  0.00     0.115 A 
ATOM     16  C   UNL     1     -23.292  77.549   3.723  1.00  0.00     0.013 A 
ATOM     17  C   UNL     1     -23.119  78.928   3.880  1.00  0.00     0.047 A 
BRANCH  15  18
ATOM     18  O   UNL     1     -21.934  80.965   3.362  1.00  0.00    -0.508 OA
ATOM     19  H   UNL     1     -22.649  81.533   3.801  1.00  0.00     0.293 HD
ENDBRANCH  15  18
ENDBRANCH   1  12
BRANCH  11  20
ATOM     20  C   UNL     1     -22.175  70.307   3.338  1.00  0.00     0.188 C 
ATOM     21  C   UNL     1     -21.340  69.269   2.553  1.00  0.00     0.179 C 
ATOM     22  O   UNL     1     -23.064  69.701   4.266  1.00  0.00    -0.362 OA
ATOM     23  C   UNL     1     -20.581  68.363   3.538  1.00  0.00     0.177 C 
ATOM     24  C   UNL     1     -22.399  68.904   5.238  1.00  0.00     0.176 C 
ATOM     25  C   UNL     1     -21.550  67.785   4.581  1.00  0.00     0.177 C 
BRANCH  21  26
ATOM     26  O   UNL     1     -20.422  69.940   1.727  1.00  0.00    -0.387 OA
ATOM     27  H   UNL     1     -19.538  69.512   1.870  1.00  0.00     0.211 HD
ENDBRANCH  21  26
BRANCH  23  28
ATOM     28  O   UNL     1     -19.908  67.332   2.857  1.00  0.00    -0.387 OA
ATOM     29  H   UNL     1     -19.382  67.744   2.124  1.00  0.00     0.211 HD
ENDBRANCH  23  28
BRANCH  24  30
ATOM     30  C   UNL     1     -21.641  69.770   6.273  1.00  0.00     0.191 C 
BRANCH  30  31
ATOM     31  O   UNL     1     -21.748  69.222   7.560  1.00  0.00    -0.394 OA
ATOM     32  H   UNL     1     -21.618  68.243   7.466  1.00  0.00     0.210 HD
ENDBRANCH  30  31
ENDBRANCH  24  30
BRANCH  25  33
ATOM     33  O   UNL     1     -20.827  67.064   5.546  1.00  0.00    -0.388 OA
ATOM     34  H   UNL     1     -19.880  67.350   5.464  1.00  0.00     0.211 HD
ENDBRANCH  25  33
ENDBRANCH  11  20
BRANCH  10  35
ATOM     35  O   UNL     1     -23.922  69.251   1.137  1.00  0.00    -0.507 OA
ATOM     36  H   UNL     1     -23.169  68.642   0.850  1.00  0.00     0.293 HD
ENDBRANCH  10  35
TORSDOF 9
ENDMDL
MODEL 2
REMARK VINA RESULT:    -4.448      2.429      5.363
REMARK INTER + INTRA:          -6.813
REMARK INTER:                  -6.939
REMARK INTRA:                   0.126
REMARK UNBOUND:                -0.805
REMARK SMILES O=c1c(-c2ccc(O)cc2)coc2c([C@H]3O[C@H](CO)[C@H](O)[C@@H](O)[C@@H]3O)c(O)ccc12
REMARK SMILES IDX 3 1 11 2 12 3 13 4 30 5 2 6 1 7 29 8 28 9 26 10 14 11 4 12
REMARK SMILES IDX 5 13 6 14 7 15 10 16 9 17 8 18 15 20 24 21 16 22 22 23 17 24
REMARK SMILES IDX 20 25 25 26 23 28 18 30 19 31 21 33 27 35
REMARK H PARENT 8 19 25 27 23 29 19 32 21 34 27 36
REMARK Flexibility Score: inf
ROOT
ATOM      1  C   UNL     1     -24.514  72.798   0.056  1.00  0.00     0.065 A 
ATOM      2  C   UNL     1     -24.297  71.479   0.476  1.00  0.00     0.208 A 
ATOM      3  O   UNL     1     -23.619  71.221   1.587  1.00  0.00    -0.463 OA
ATOM      4  C   UNL     1     -23.105  72.169   2.367  1.00  0.00     0.147 A 
ATOM      5  C   UNL     1     -23.278  73.528   2.017  1.00  0.00     0.066 A 
ATOM      6  C   UNL     1     -23.985  73.838   0.840  1.00  0.00     0.200 A 
ATOM      7  O   UNL     1     -24.127  75.040   0.481  1.00  0.00    -0.288 OA
ATOM      8  C   UNL     1     -22.744  74.529   2.839  1.00  0.00     0.020 A 
ATOM      9  C   UNL     1     -22.064  74.190   4.005  1.00  0.00     0.047 A 
ATOM     10  C   UNL     1     -21.892  72.855   4.376  1.00  0.00     0.125 A 
ATOM     11  C   UNL     1     -22.392  71.814   3.542  1.00  0.00     0.069 A 
ENDROOT
BRANCH   1  12
ATOM     12  C   UNL     1     -25.282  73.062  -1.187  1.00  0.00    -0.011 A 
ATOM     13  C   UNL     1     -26.665  73.307  -1.127  1.00  0.00     0.013 A 
ATOM     14  C   UNL     1     -27.390  73.564  -2.295  1.00  0.00     0.047 A 
ATOM     15  C   UNL     1     -26.740  73.584  -3.536  1.00  0.00     0.115 A 
ATOM     16  C   UNL     1     -24.637  73.090  -2.436  1.00  0.00     0.013 A 
ATOM     17  C   UNL     1     -25.364  73.347  -3.603  1.00  0.00     0.047 A 
BRANCH  15  18
ATOM     18  O   UNL     1     -27.452  73.838  -4.707  1.00  0.00    -0.508 OA
ATOM     19  H   UNL     1     -27.878  73.091  -5.241  1.00  0.00     0.293 HD
ENDBRANCH  15  18
ENDBRANCH   1  12
BRANCH  11  20
ATOM     20  C   UNL     1     -22.214  70.339   3.894  1.00  0.00     0.188 C 
ATOM     21  C   UNL     1     -21.916  70.181   5.403  1.00  0.00     0.179 C 
ATOM     22  O   UNL     1     -21.196  69.780   3.076  1.00  0.00    -0.362 OA
ATOM     23  C   UNL     1     -21.692  68.695   5.734  1.00  0.00     0.177 C 
ATOM     24  C   UNL     1     -20.998  68.390   3.302  1.00  0.00     0.176 C 
ATOM     25  C   UNL     1     -20.646  68.092   4.783  1.00  0.00     0.177 C 
BRANCH  21  26
ATOM     26  O   UNL     1     -23.004  70.670   6.145  1.00  0.00    -0.387 OA
ATOM     27  H   UNL     1     -22.944  70.263   7.049  1.00  0.00     0.211 HD
ENDBRANCH  21  26
BRANCH  23  28
ATOM     28  O   UNL     1     -21.298  68.532   7.074  1.00  0.00    -0.387 OA
ATOM     29  H   UNL     1     -21.688  69.279   7.599  1.00  0.00     0.211 HD
ENDBRANCH  23  28
BRANCH  24  30
ATOM     30  C   UNL     1     -22.159  67.541   2.728  1.00  0.00     0.191 C 
BRANCH  30  31
ATOM     31  O   UNL     1     -22.706  68.148   1.588  1.00  0.00    -0.394 OA
ATOM     32  H   UNL     1     -22.548  67.528   0.829  1.00  0.00     0.210 HD
ENDBRANCH  30  31
ENDBRANCH  24  30
BRANCH  25  33
ATOM     33  O   UNL     1     -20.543  66.710   5.011  1.00  0.00    -0.388 OA
ATOM     34  H   UNL     1     -21.405  66.309   4.726  1.00  0.00     0.211 HD
ENDBRANCH  25  33
ENDBRANCH  11  20
BRANCH  10  35
ATOM     35  O   UNL     1     -21.225  72.616   5.582  1.00  0.00    -0.507 OA
ATOM     36  H   UNL     1     -21.631  72.740   6.497  1.00  0.00     0.293 HD
ENDBRANCH  10  35
TORSDOF 9
ENDMDL
MODEL 3
REMARK VINA RESULT:    -4.163      0.989      2.192
REMARK INTER + INTRA:          -6.429
REMARK INTER:                  -6.586
REMARK INTRA:                   0.157
REMARK UNBOUND:                -0.805
REMARK SMILES O=c1c(-c2ccc(O)cc2)coc2c([C@H]3O[C@H](CO)[C@H](O)[C@@H](O)[C@@H]3O)c(O)ccc12
REMARK SMILES IDX 3 1 11 2 12 3 13 4 30 5 2 6 1 7 29 8 28 9 26 10 14 11 4 12
REMARK SMILES IDX 5 13 6 14 7 15 10 16 9 17 8 18 15 20 24 21 16 22 22 23 17 24
REMARK SMILES IDX 20 25 25 26 23 28 18 30 19 31 21 33 27 35
REMARK H PARENT 8 19 25 27 23 29 19 32 21 34 27 36
REMARK Flexibility Score: inf
ROOT
ATOM      1  C   UNL     1     -22.657  74.671   2.918  1.00  0.00     0.065 A 
ATOM      2  C   UNL     1     -22.124  73.770   3.850  1.00  0.00     0.208 A 
ATOM      3  O   UNL     1     -22.265  72.460   3.690  1.00  0.00    -0.463 OA
ATOM      4  C   UNL     1     -22.908  71.914   2.660  1.00  0.00     0.147 A 
ATOM      5  C   UNL     1     -23.477  72.751   1.672  1.00  0.00     0.066 A 
ATOM      6  C   UNL     1     -23.353  74.146   1.815  1.00  0.00     0.200 A 
ATOM      7  O   UNL     1     -23.879  74.922   0.970  1.00  0.00    -0.288 OA
ATOM      8  C   UNL     1     -24.148  72.181   0.583  1.00  0.00     0.020 A 
ATOM      9  C   UNL     1     -24.238  70.797   0.462  1.00  0.00     0.047 A 
ATOM     10  C   UNL     1     -23.673  69.952   1.420  1.00  0.00     0.125 A 
ATOM     11  C   UNL     1     -23.016  70.503   2.557  1.00  0.00     0.069 A 
ENDROOT
BRANCH   1  12
ATOM     12  C   UNL     1     -22.481  76.132   3.116  1.00  0.00    -0.011 A 
ATOM     13  C   UNL     1     -21.286  76.760   2.723  1.00  0.00     0.013 A 
ATOM     14  C   UNL     1     -21.119  78.138   2.901  1.00  0.00     0.047 A 
ATOM     15  C   UNL     1     -22.147  78.903   3.468  1.00  0.00     0.115 A 
ATOM     16  C   UNL     1     -23.509  76.908   3.678  1.00  0.00     0.013 A 
ATOM     17  C   UNL     1     -23.340  78.286   3.854  1.00  0.00     0.047 A 
BRANCH  15  18
ATOM     18  O   UNL     1     -21.992  80.276   3.649  1.00  0.00    -0.508 OA
ATOM     19  H   UNL     1     -21.211  80.779   3.244  1.00  0.00     0.293 HD
ENDBRANCH  15  18
ENDBRANCH   1  12
BRANCH  11  20
ATOM     20  C   UNL     1     -22.398  69.623   3.640  1.00  0.00     0.188 C 
ATOM     21  C   UNL     1     -22.395  70.365   4.997  1.00  0.00     0.179 C 
ATOM     22  O   UNL     1     -21.096  69.224   3.235  1.00  0.00    -0.362 OA
ATOM     23  C   UNL     1     -21.726  69.486   6.068  1.00  0.00     0.177 C 
ATOM     24  C   UNL     1     -20.463  68.355   4.167  1.00  0.00     0.176 C 
ATOM     25  C   UNL     1     -20.355  69.000   5.573  1.00  0.00     0.177 C 
BRANCH  21  26
ATOM     26  O   UNL     1     -23.719  70.644   5.376  1.00  0.00    -0.387 OA
ATOM     27  H   UNL     1     -23.818  70.348   6.319  1.00  0.00     0.211 HD
ENDBRANCH  21  26
BRANCH  23  28
ATOM     28  O   UNL     1     -21.599  70.183   7.283  1.00  0.00    -0.387 OA
ATOM     29  H   UNL     1     -22.058  71.057   7.182  1.00  0.00     0.211 HD
ENDBRANCH  23  28
BRANCH  24  30
ATOM     30  C   UNL     1     -21.085  66.938   4.149  1.00  0.00     0.191 C 
BRANCH  30  31
ATOM     31  O   UNL     1     -20.507  66.150   3.143  1.00  0.00    -0.394 OA
ATOM     32  H   UNL     1     -19.807  66.705   2.711  1.00  0.00     0.210 HD
ENDBRANCH  30  31
ENDBRANCH  24  30
BRANCH  25  33
ATOM     33  O   UNL     1     -19.812  68.099   6.504  1.00  0.00    -0.388 OA
ATOM     34  H   UNL     1     -19.461  67.330   5.984  1.00  0.00     0.211 HD
ENDBRANCH  25  33
ENDBRANCH  11  20
BRANCH  10  35
ATOM     35  O   UNL     1     -23.786  68.577   1.194  1.00  0.00    -0.507 OA
ATOM     36  H   UNL     1     -24.328  67.943   1.764  1.00  0.00     0.293 HD
ENDBRANCH  10  35
TORSDOF 9
ENDMDL
MODEL 4
REMARK VINA RESULT:    -3.833      8.385     11.498
REMARK INTER + INTRA:          -5.982
REMARK INTER:                  -6.194
REMARK INTRA:                   0.212
REMARK UNBOUND:                -0.805
REMARK SMILES O=c1c(-c2ccc(O)cc2)coc2c([C@H]3O[C@H](CO)[C@H](O)[C@@H](O)[C@@H]3O)c(O)ccc12
REMARK SMILES IDX 3 1 11 2 12 3 13 4 30 5 2 6 1 7 29 8 28 9 26 10 14 11 4 12
REMARK SMILES IDX 5 13 6 14 7 15 10 16 9 17 8 18 15 20 24 21 16 22 22 23 17 24
REMARK SMILES IDX 20 25 25 26 23 28 18 30 19 31 21 33 27 35
REMARK H PARENT 8 19 25 27 23 29 19 32 21 34 27 36
REMARK Flexibility Score: inf
ROOT
ATOM      1  C   UNL     1     -25.306  80.976   4.688  1.00  0.00     0.065 A 
ATOM      2  C   UNL     1     -26.451  80.275   4.285  1.00  0.00     0.208 A 
ATOM      3  O   UNL     1     -27.579  80.356   4.979  1.00  0.00    -0.463 OA
ATOM      4  C   UNL     1     -27.708  81.090   6.082  1.00  0.00     0.147 A 
ATOM      5  C   UNL     1     -26.601  81.830   6.558  1.00  0.00     0.066 A 
ATOM      6  C   UNL     1     -25.386  81.760   5.852  1.00  0.00     0.200 A 
ATOM      7  O   UNL     1     -24.370  82.381   6.270  1.00  0.00    -0.288 OA
ATOM      8  C   UNL     1     -26.735  82.609   7.715  1.00  0.00     0.020 A 
ATOM      9  C   UNL     1     -27.955  82.671   8.382  1.00  0.00     0.047 A 
ATOM     10  C   UNL     1     -29.063  81.957   7.922  1.00  0.00     0.125 A 
ATOM     11  C   UNL     1     -28.949  81.128   6.770  1.00  0.00     0.069 A 
ENDROOT
BRANCH   1  12
ATOM     12  C   UNL     1     -24.057  80.874   3.891  1.00  0.00    -0.011 A 
ATOM     13  C   UNL     1     -23.314  79.681   3.889  1.00  0.00     0.013 A 
ATOM     14  C   UNL     1     -22.141  79.578   3.133  1.00  0.00     0.047 A 
ATOM     15  C   UNL     1     -21.702  80.666   2.366  1.00  0.00     0.115 A 
ATOM     16  C   UNL     1     -23.613  81.957   3.114  1.00  0.00     0.013 A 
ATOM     17  C   UNL     1     -22.440  81.853   2.358  1.00  0.00     0.047 A 
BRANCH  15  18
ATOM     18  O   UNL     1     -20.536  80.575   1.609  1.00  0.00    -0.508 OA
ATOM     19  H   UNL     1     -19.625  80.752   2.016  1.00  0.00     0.293 HD
ENDBRANCH  15  18
ENDBRANCH   1  12
BRANCH  11  20
ATOM     20  C   UNL     1     -30.126  80.314   6.238  1.00  0.00     0.188 C 
ATOM     21  C   UNL     1     -29.616  79.130   5.385  1.00  0.00     0.179 C 
ATOM     22  O   UNL     1     -30.999  81.170   5.514  1.00  0.00    -0.362 OA
ATOM     23  C   UNL     1     -30.812  78.348   4.816  1.00  0.00     0.177 C 
ATOM     24  C   UNL     1     -32.155  80.502   5.023  1.00  0.00     0.176 C 
ATOM     25  C   UNL     1     -31.784  79.306   4.109  1.00  0.00     0.177 C 
BRANCH  21  26
ATOM     26  O   UNL     1     -28.837  78.279   6.189  1.00  0.00    -0.387 OA
ATOM     27  H   UNL     1     -28.591  78.795   7.001  1.00  0.00     0.211 HD
ENDBRANCH  21  26
BRANCH  23  28
ATOM     28  O   UNL     1     -30.381  77.337   3.937  1.00  0.00    -0.387 OA
ATOM     29  H   UNL     1     -31.057  77.254   3.215  1.00  0.00     0.211 HD
ENDBRANCH  23  28
BRANCH  24  30
ATOM     30  C   UNL     1     -33.153  80.166   6.158  1.00  0.00     0.191 C 
BRANCH  30  31
ATOM     31  O   UNL     1     -34.448  79.987   5.650  1.00  0.00    -0.394 OA
ATOM     32  H   UNL     1     -34.751  79.090   5.946  1.00  0.00     0.210 HD
ENDBRANCH  30  31
ENDBRANCH  24  30
BRANCH  25  33
ATOM     33  O   UNL     1     -32.930  78.601   3.705  1.00  0.00    -0.388 OA
ATOM     34  H   UNL     1     -33.481  79.234   3.175  1.00  0.00     0.211 HD
ENDBRANCH  25  33
ENDBRANCH  11  20
BRANCH  10  35
ATOM     35  O   UNL     1     -30.254  82.109   8.640  1.00  0.00    -0.507 OA
ATOM     36  H   UNL     1     -30.314  82.450   9.588  1.00  0.00     0.293 HD
ENDBRANCH  10  35
TORSDOF 9
ENDMDL
MODEL 5
REMARK VINA RESULT:    -3.613      9.349     11.825
REMARK INTER + INTRA:          -5.686
REMARK INTER:                  -5.690
REMARK INTRA:                   0.004
REMARK UNBOUND:                -0.805
REMARK SMILES O=c1c(-c2ccc(O)cc2)coc2c([C@H]3O[C@H](CO)[C@H](O)[C@@H](O)[C@@H]3O)c(O)ccc12
REMARK SMILES IDX 3 1 11 2 12 3 13 4 30 5 2 6 1 7 29 8 28 9 26 10 14 11 4 12
REMARK SMILES IDX 5 13 6 14 7 15 10 16 9 17 8 18 15 20 24 21 16 22 22 23 17 24
REMARK SMILES IDX 20 25 25 26 23 28 18 30 19 31 21 33 27 35
REMARK H PARENT 8 19 25 27 23 29 19 32 21 34 27 36
REMARK Flexibility Score: inf
ROOT
ATOM      1  C   UNL     1     -24.996  81.520   4.048  1.00  0.00     0.065 A 
ATOM      2  C   UNL     1     -26.249  81.200   3.508  1.00  0.00     0.208 A 
ATOM      3  O   UNL     1     -27.321  81.105   4.284  1.00  0.00    -0.463 OA
ATOM      4  C   UNL     1     -27.291  81.300   5.601  1.00  0.00     0.147 A 
ATOM      5  C   UNL     1     -26.066  81.627   6.228  1.00  0.00     0.066 A 
ATOM      6  C   UNL     1     -24.907  81.728   5.436  1.00  0.00     0.200 A 
ATOM      7  O   UNL     1     -23.792  81.985   5.969  1.00  0.00    -0.288 OA
ATOM      8  C   UNL     1     -26.031  81.840   7.612  1.00  0.00     0.020 A 
ATOM      9  C   UNL     1     -27.198  81.749   8.365  1.00  0.00     0.047 A 
ATOM     10  C   UNL     1     -28.420  81.438   7.764  1.00  0.00     0.125 A 
ATOM     11  C   UNL     1     -28.481  81.181   6.365  1.00  0.00     0.069 A 
ENDROOT
BRANCH   1  12
ATOM     12  C   UNL     1     -23.812  81.628   3.158  1.00  0.00    -0.011 A 
ATOM     13  C   UNL     1     -23.129  80.471   2.746  1.00  0.00     0.013 A 
ATOM     14  C   UNL     1     -22.018  80.568   1.900  1.00  0.00     0.047 A 
ATOM     15  C   UNL     1     -21.581  81.822   1.455  1.00  0.00     0.115 A 
ATOM     16  C   UNL     1     -23.370  82.882   2.701  1.00  0.00     0.013 A 
ATOM     17  C   UNL     1     -22.260  82.976   1.856  1.00  0.00     0.047 A 
BRANCH  15  18
ATOM     18  O   UNL     1     -20.476  81.931   0.613  1.00  0.00    -0.508 OA
ATOM     19  H   UNL     1     -20.397  82.681  -0.063  1.00  0.00     0.293 HD
ENDBRANCH  15  18
ENDBRANCH   1  12
BRANCH  11  20
ATOM     20  C   UNL     1     -29.788  80.820   5.664  1.00  0.00     0.188 C 
ATOM     21  C   UNL     1     -30.996  81.280   6.513  1.00  0.00     0.179 C 
ATOM     22  O   UNL     1     -29.809  79.425   5.398  1.00  0.00    -0.362 OA
ATOM     23  C   UNL     1     -32.305  80.867   5.818  1.00  0.00     0.177 C 
ATOM     24  C   UNL     1     -30.974  79.007   4.697  1.00  0.00     0.176 C 
ATOM     25  C   UNL     1     -32.270  79.371   5.468  1.00  0.00     0.177 C 
BRANCH  21  26
ATOM     26  O   UNL     1     -30.958  82.678   6.655  1.00  0.00    -0.387 OA
ATOM     27  H   UNL     1     -30.830  83.058   5.747  1.00  0.00     0.211 HD
ENDBRANCH  21  26
BRANCH  23  28
ATOM     28  O   UNL     1     -33.418  81.164   6.626  1.00  0.00    -0.387 OA
ATOM     29  H   UNL     1     -33.947  80.331   6.732  1.00  0.00     0.211 HD
ENDBRANCH  23  28
BRANCH  24  30
ATOM     30  C   UNL     1     -30.951  79.459   3.217  1.00  0.00     0.191 C 
BRANCH  30  31
ATOM     31  O   UNL     1     -31.770  78.637   2.429  1.00  0.00    -0.394 OA
ATOM     32  H   UNL     1     -31.345  78.583   1.533  1.00  0.00     0.210 HD
ENDBRANCH  30  31
ENDBRANCH  24  30
BRANCH  25  33
ATOM     33  O   UNL     1     -33.414  79.036   4.724  1.00  0.00    -0.388 OA
ATOM     34  H   UNL     1     -34.084  79.747   4.896  1.00  0.00     0.211 HD
ENDBRANCH  25  33
ENDBRANCH  11  20
BRANCH  10  35
ATOM     35  O   UNL     1     -29.543  81.403   8.598  1.00  0.00    -0.507 OA
ATOM     36  H   UNL     1     -29.513  81.470   9.605  1.00  0.00     0.293 HD
ENDBRANCH  10  35
TORSDOF 9
ENDMDL
MODEL 6
REMARK VINA RESULT:    -2.453      1.752      3.305
REMARK INTER + INTRA:          -4.118
REMARK INTER:                  -4.459
REMARK INTRA:                   0.341
REMARK UNBOUND:                -0.805
REMARK SMILES O=c1c(-c2ccc(O)cc2)coc2c([C@H]3O[C@H](CO)[C@H](O)[C@@H](O)[C@@H]3O)c(O)ccc12
REMARK SMILES IDX 3 1 11 2 12 3 13 4 30 5 2 6 1 7 29 8 28 9 26 10 14 11 4 12
REMARK SMILES IDX 5 13 6 14 7 15 10 16 9 17 8 18 15 20 24 21 16 22 22 23 17 24
REMARK SMILES IDX 20 25 25 26 23 28 18 30 19 31 21 33 27 35
REMARK H PARENT 8 19 25 27 23 29 19 32 21 34 27 36
REMARK Flexibility Score: inf
ROOT
ATOM      1  C   UNL     1     -22.495  72.868   2.757  1.00  0.00     0.065 A 
ATOM      2  C   UNL     1     -21.519  72.094   3.398  1.00  0.00     0.208 A 
ATOM      3  O   UNL     1     -21.553  70.769   3.339  1.00  0.00    -0.463 OA
ATOM      4  C   UNL     1     -22.492  70.090   2.684  1.00  0.00     0.147 A 
ATOM      5  C   UNL     1     -23.516  70.793   2.008  1.00  0.00     0.066 A 
ATOM      6  C   UNL     1     -23.515  72.200   2.058  1.00  0.00     0.200 A 
ATOM      7  O   UNL     1     -24.434  72.857   1.494  1.00  0.00    -0.288 OA
ATOM      8  C   UNL     1     -24.502  70.083   1.312  1.00  0.00     0.020 A 
ATOM      9  C   UNL     1     -24.465  68.692   1.268  1.00  0.00     0.047 A 
ATOM     10  C   UNL     1     -23.457  67.978   1.919  1.00  0.00     0.125 A 
ATOM     11  C   UNL     1     -22.461  68.671   2.664  1.00  0.00     0.069 A 
ENDROOT
BRANCH   1  12
ATOM     12  C   UNL     1     -22.432  74.350   2.832  1.00  0.00    -0.011 A 
ATOM     13  C   UNL     1     -21.484  74.977   3.659  1.00  0.00     0.013 A 
ATOM     14  C   UNL     1     -21.416  76.373   3.727  1.00  0.00     0.047 A 
ATOM     15  C   UNL     1     -22.292  77.157   2.964  1.00  0.00     0.115 A 
ATOM     16  C   UNL     1     -23.302  75.144   2.065  1.00  0.00     0.013 A 
ATOM     17  C   UNL     1     -23.232  76.540   2.134  1.00  0.00     0.047 A 
BRANCH  15  18
ATOM     18  O   UNL     1     -22.233  78.548   3.023  1.00  0.00    -0.508 OA
ATOM     19  H   UNL     1     -23.072  79.111   3.087  1.00  0.00     0.293 HD
ENDBRANCH  15  18
ENDBRANCH   1  12
BRANCH  11  20
ATOM     20  C   UNL     1     -21.348  67.936   3.407  1.00  0.00     0.188 C 
ATOM     21  C   UNL     1     -21.415  68.250   4.919  1.00  0.00     0.179 C 
ATOM     22  O   UNL     1     -20.094  68.281   2.835  1.00  0.00    -0.362 OA
ATOM     23  C   UNL     1     -20.260  67.541   5.648  1.00  0.00     0.177 C 
ATOM     24  C   UNL     1     -18.999  67.599   3.435  1.00  0.00     0.176 C 
ATOM     25  C   UNL     1     -18.923  67.864   4.961  1.00  0.00     0.177 C 
BRANCH  21  26
ATOM     26  O   UNL     1     -22.643  67.798   5.433  1.00  0.00    -0.387 OA
ATOM     27  H   UNL     1     -22.858  68.371   6.215  1.00  0.00     0.211 HD
ENDBRANCH  21  26
BRANCH  23  28
ATOM     28  O   UNL     1     -20.223  67.906   7.006  1.00  0.00    -0.387 OA
ATOM     29  H   UNL     1     -19.282  68.123   7.237  1.00  0.00     0.211 HD
ENDBRANCH  23  28
BRANCH  24  30
ATOM     30  C   UNL     1     -18.961  66.104   3.034  1.00  0.00     0.191 C 
BRANCH  30  31
ATOM     31  O   UNL     1     -17.997  65.877   2.041  1.00  0.00    -0.394 OA
ATOM     32  H   UNL     1     -18.086  66.613   1.381  1.00  0.00     0.210 HD
ENDBRANCH  30  31
ENDBRANCH  24  30
BRANCH  25  33
ATOM     33  O   UNL     1     -17.896  67.114   5.556  1.00  0.00    -0.388 OA
ATOM     34  H   UNL     1     -18.025  67.182   6.538  1.00  0.00     0.211 HD
ENDBRANCH  25  33
ENDBRANCH  11  20
BRANCH  10  35
ATOM     35  O   UNL     1     -23.485  66.586   1.789  1.00  0.00    -0.507 OA
ATOM     36  H   UNL     1     -23.667  66.093   0.927  1.00  0.00     0.293 HD
ENDBRANCH  10  35
TORSDOF 9
ENDMDL
MODEL 7
REMARK VINA RESULT:    -2.286      6.960     10.467
REMARK INTER + INTRA:          -3.892
REMARK INTER:                  -5.170
REMARK INTRA:                   1.278
REMARK UNBOUND:                -0.805
REMARK SMILES O=c1c(-c2ccc(O)cc2)coc2c([C@H]3O[C@H](CO)[C@H](O)[C@@H](O)[C@@H]3O)c(O)ccc12
REMARK SMILES IDX 3 1 11 2 12 3 13 4 30 5 2 6 1 7 29 8 28 9 26 10 14 11 4 12
REMARK SMILES IDX 5 13 6 14 7 15 10 16 9 17 8 18 15 20 24 21 16 22 22 23 17 24
REMARK SMILES IDX 20 25 25 26 23 28 18 30 19 31 21 33 27 35
REMARK H PARENT 8 19 25 27 23 29 19 32 21 34 27 36
REMARK Flexibility Score: inf
ROOT
ATOM      1  C   UNL     1     -25.353  81.173   4.274  1.00  0.00     0.065 A 
ATOM      2  C   UNL     1     -24.712  82.008   3.349  1.00  0.00     0.208 A 
ATOM      3  O   UNL     1     -23.638  81.596   2.687  1.00  0.00    -0.463 OA
ATOM      4  C   UNL     1     -23.101  80.388   2.846  1.00  0.00     0.147 A 
ATOM      5  C   UNL     1     -23.685  79.481   3.759  1.00  0.00     0.066 A 
ATOM      6  C   UNL     1     -24.820  79.889   4.485  1.00  0.00     0.200 A 
ATOM      7  O   UNL     1     -25.345  79.116   5.333  1.00  0.00    -0.288 OA
ATOM      8  C   UNL     1     -23.126  78.207   3.924  1.00  0.00     0.020 A 
ATOM      9  C   UNL     1     -22.014  77.828   3.179  1.00  0.00     0.047 A 
ATOM     10  C   UNL     1     -21.428  78.704   2.263  1.00  0.00     0.125 A 
ATOM     11  C   UNL     1     -21.951  80.019   2.100  1.00  0.00     0.069 A 
ENDROOT
BRANCH   1  12
ATOM     12  C   UNL     1     -26.557  81.655   4.997  1.00  0.00    -0.011 A 
ATOM     13  C   UNL     1     -27.804  81.689   4.351  1.00  0.00     0.013 A 
ATOM     14  C   UNL     1     -28.942  82.135   5.032  1.00  0.00     0.047 A 
ATOM     15  C   UNL     1     -28.846  82.547   6.368  1.00  0.00     0.115 A 
ATOM     16  C   UNL     1     -26.470  82.063   6.339  1.00  0.00     0.013 A 
ATOM     17  C   UNL     1     -27.609  82.509   7.018  1.00  0.00     0.047 A 
BRANCH  15  18
ATOM     18  O   UNL     1     -29.972  82.993   7.056  1.00  0.00    -0.508 OA
ATOM     19  H   UNL     1     -30.851  83.161   6.582  1.00  0.00     0.293 HD
ENDBRANCH  15  18
ENDBRANCH   1  12
BRANCH  11  20
ATOM     20  C   UNL     1     -21.337  81.019   1.125  1.00  0.00     0.188 C 
ATOM     21  C   UNL     1     -20.211  80.347   0.306  1.00  0.00     0.179 C 
ATOM     22  O   UNL     1     -20.881  82.157   1.844  1.00  0.00    -0.362 OA
ATOM     23  C   UNL     1     -19.569  81.379  -0.637  1.00  0.00     0.177 C 
ATOM     24  C   UNL     1     -20.337  83.168   1.005  1.00  0.00     0.176 C 
ATOM     25  C   UNL     1     -19.159  82.634   0.150  1.00  0.00     0.177 C 
BRANCH  21  26
ATOM     26  O   UNL     1     -20.752  79.292  -0.449  1.00  0.00    -0.387 OA
ATOM     27  H   UNL     1     -20.284  78.464  -0.166  1.00  0.00     0.211 HD
ENDBRANCH  21  26
BRANCH  23  28
ATOM     28  O   UNL     1     -18.461  80.828  -1.308  1.00  0.00    -0.387 OA
ATOM     29  H   UNL     1     -18.789  80.081  -1.872  1.00  0.00     0.211 HD
ENDBRANCH  23  28
BRANCH  24  30
ATOM     30  C   UNL     1     -21.438  83.906   0.204  1.00  0.00     0.191 C 
BRANCH  30  31
ATOM     31  O   UNL     1     -22.674  83.826   0.861  1.00  0.00    -0.394 OA
ATOM     32  H   UNL     1     -22.735  84.620   1.453  1.00  0.00     0.210 HD
ENDBRANCH  30  31
ENDBRANCH  24  30
BRANCH  25  33
ATOM     33  O   UNL     1     -18.691  83.615  -0.739  1.00  0.00    -0.388 OA
ATOM     34  H   UNL     1     -17.857  83.260  -1.143  1.00  0.00     0.211 HD
ENDBRANCH  25  33
ENDBRANCH  11  20
BRANCH  10  35
ATOM     35  O   UNL     1     -20.334  78.221   1.537  1.00  0.00    -0.507 OA
ATOM     36  H   UNL     1     -19.538  77.751   1.943  1.00  0.00     0.293 HD
ENDBRANCH  10  35
TORSDOF 9
ENDMDL
