MODEL 1
REMARK VINA RESULT:    -5.159      0.000      0.000
REMARK INTER + INTRA:          -5.988
REMARK INTER:                  -5.913
REMARK INTRA:                  -0.076
REMARK UNBOUND:                -0.076
REMARK SMILES COc1cc(C(=O)[O-])ccc1O
REMARK SMILES IDX 5 1 9 2 4 3 10 4 3 5 11 6 6 7 7 8 8 9 2 10 1 11 12 12
REMARK H PARENT 12 13
REMARK Flexibility Score: inf
ROOT
ATOM      1  C   UNL     1      61.150  -6.981  -2.391  1.00  0.00     0.001 A 
ATOM      2  C   UNL     1      60.744  -5.638  -2.431  1.00  0.00     0.014 A 
ATOM      3  C   UNL     1      61.584  -7.527  -1.168  1.00  0.00     0.060 A 
ATOM      4  C   UNL     1      60.771  -4.855  -1.276  1.00  0.00     0.051 A 
ATOM      5  C   UNL     1      61.614  -6.740   0.002  1.00  0.00     0.161 A 
ATOM      6  C   UNL     1      61.202  -5.397  -0.063  1.00  0.00     0.157 A 
ENDROOT
BRANCH   1   7
ATOM      7  C   UNL     1      61.120  -7.806  -3.618  1.00  0.00     0.072 C 
ATOM      8  O   UNL     1      60.437  -8.864  -3.663  1.00  0.00    -0.545 OA
ATOM      9  O   UNL     1      61.846  -7.426  -4.741  1.00  0.00    -0.545 OA
ENDBRANCH   1   7
BRANCH   5  10
ATOM     10  O   UNL     1      62.042  -7.257   1.235  1.00  0.00    -0.493 OA
ATOM     11  C   UNL     1      62.829  -8.434   1.389  1.00  0.00     0.278 C 
ENDBRANCH   5  10
BRANCH   6  12
ATOM     12  O   UNL     1      61.215  -4.584   1.071  1.00  0.00    -0.504 OA
ATOM     13  H   UNL     1      60.814  -4.879   1.953  1.00  0.00     0.293 HD
ENDBRANCH   6  12
TORSDOF 3
ENDMDL
MODEL 2
REMARK VINA RESULT:    -5.062      1.462      4.213
REMARK INTER + INTRA:          -5.878
REMARK INTER:                  -5.781
REMARK INTRA:                  -0.096
REMARK UNBOUND:                -0.076
REMARK SMILES COc1cc(C(=O)[O-])ccc1O
REMARK SMILES IDX 5 1 9 2 4 3 10 4 3 5 11 6 6 7 7 8 8 9 2 10 1 11 12 12
REMARK H PARENT 12 13
REMARK Flexibility Score: inf
ROOT
ATOM      1  C   UNL     1      61.129  -5.128  -0.478  1.00  0.00     0.001 A 
ATOM      2  C   UNL     1      60.356  -4.816  -1.608  1.00  0.00     0.014 A 
ATOM      3  C   UNL     1      61.695  -6.412  -0.371  1.00  0.00     0.060 A 
ATOM      4  C   UNL     1      60.151  -5.767  -2.609  1.00  0.00     0.051 A 
ATOM      5  C   UNL     1      61.490  -7.377  -1.379  1.00  0.00     0.161 A 
ATOM      6  C   UNL     1      60.712  -7.042  -2.502  1.00  0.00     0.157 A 
ENDROOT
BRANCH   1   7
ATOM      7  C   UNL     1      61.344  -4.117   0.580  1.00  0.00     0.072 C 
ATOM      8  O   UNL     1      62.014  -3.076   0.346  1.00  0.00    -0.545 OA
ATOM      9  O   UNL     1      60.808  -4.302   1.850  1.00  0.00    -0.545 OA
ENDBRANCH   1   7
BRANCH   5  10
ATOM     10  O   UNL     1      62.041  -8.665  -1.298  1.00  0.00    -0.493 OA
ATOM     11  C   UNL     1      63.411  -8.975  -1.537  1.00  0.00     0.278 C 
ENDBRANCH   5  10
BRANCH   6  12
ATOM     12  O   UNL     1      60.485  -7.965  -3.522  1.00  0.00    -0.504 OA
ATOM     13  H   UNL     1      59.649  -8.536  -3.558  1.00  0.00     0.293 HD
ENDBRANCH   6  12
TORSDOF 3
ENDMDL
MODEL 3
REMARK VINA RESULT:    -4.996      1.821      4.716
REMARK INTER + INTRA:          -5.802
REMARK INTER:                  -5.704
REMARK INTRA:                  -0.098
REMARK UNBOUND:                -0.076
REMARK SMILES COc1cc(C(=O)[O-])ccc1O
REMARK SMILES IDX 5 1 9 2 4 3 10 4 3 5 11 6 6 7 7 8 8 9 2 10 1 11 12 12
REMARK H PARENT 12 13
REMARK Flexibility Score: inf
ROOT
ATOM      1  C   UNL     1      61.710  -5.834  -1.923  1.00  0.00     0.001 A 
ATOM      2  C   UNL     1      63.100  -5.637  -1.964  1.00  0.00     0.014 A 
ATOM      3  C   UNL     1      61.112  -6.682  -2.874  1.00  0.00     0.060 A 
ATOM      4  C   UNL     1      63.876  -6.272  -2.934  1.00  0.00     0.051 A 
ATOM      5  C   UNL     1      61.892  -7.325  -3.858  1.00  0.00     0.161 A 
ATOM      6  C   UNL     1      63.282  -7.113  -3.879  1.00  0.00     0.157 A 
ENDROOT
BRANCH   1   7
ATOM      7  C   UNL     1      60.891  -5.159  -0.892  1.00  0.00     0.072 C 
ATOM      8  O   UNL     1      59.949  -4.392  -1.222  1.00  0.00    -0.545 OA
ATOM      9  O   UNL     1      61.152  -5.364   0.458  1.00  0.00    -0.545 OA
ENDBRANCH   1   7
BRANCH   5  10
ATOM     10  O   UNL     1      61.323  -8.176  -4.819  1.00  0.00    -0.493 OA
ATOM     11  C   UNL     1      61.003  -9.546  -4.599  1.00  0.00     0.278 C 
ENDBRANCH   5  10
BRANCH   6  12
ATOM     12  O   UNL     1      64.090  -7.730  -4.834  1.00  0.00    -0.504 OA
ATOM     13  H   UNL     1      63.882  -7.692  -5.824  1.00  0.00     0.293 HD
ENDBRANCH   6  12
TORSDOF 3
ENDMDL
MODEL 4
REMARK VINA RESULT:    -4.966      2.141      3.259
REMARK INTER + INTRA:          -5.768
REMARK INTER:                  -5.692
REMARK INTRA:                  -0.075
REMARK UNBOUND:                -0.076
REMARK SMILES COc1cc(C(=O)[O-])ccc1O
REMARK SMILES IDX 5 1 9 2 4 3 10 4 3 5 11 6 6 7 7 8 8 9 2 10 1 11 12 12
REMARK H PARENT 12 13
REMARK Flexibility Score: inf
ROOT
ATOM      1  C   UNL     1      61.791  -7.475  -0.863  1.00  0.00     0.001 A 
ATOM      2  C   UNL     1      61.161  -7.526  -2.116  1.00  0.00     0.014 A 
ATOM      3  C   UNL     1      61.689  -6.301  -0.094  1.00  0.00     0.060 A 
ATOM      4  C   UNL     1      60.443  -6.428  -2.592  1.00  0.00     0.051 A 
ATOM      5  C   UNL     1      60.965  -5.187  -0.571  1.00  0.00     0.161 A 
ATOM      6  C   UNL     1      60.342  -5.262  -1.829  1.00  0.00     0.157 A 
ENDROOT
BRANCH   1   7
ATOM      7  C   UNL     1      62.550  -8.642  -0.362  1.00  0.00     0.072 C 
ATOM      8  O   UNL     1      61.968  -9.561   0.272  1.00  0.00    -0.545 OA
ATOM      9  O   UNL     1      63.919  -8.739  -0.585  1.00  0.00    -0.545 OA
ENDBRANCH   1   7
BRANCH   5  10
ATOM     10  O   UNL     1      60.846  -4.004   0.174  1.00  0.00    -0.493 OA
ATOM     11  C   UNL     1      60.858  -3.938   1.597  1.00  0.00     0.278 C 
ENDBRANCH   5  10
BRANCH   6  12
ATOM     12  O   UNL     1      59.617  -4.185  -2.339  1.00  0.00    -0.504 OA
ATOM     13  H   UNL     1      58.924  -3.690  -1.789  1.00  0.00     0.293 HD
ENDBRANCH   6  12
TORSDOF 3
ENDMDL
MODEL 5
REMARK VINA RESULT:    -4.922      1.592      4.517
REMARK INTER + INTRA:          -5.717
REMARK INTER:                  -5.666
REMARK INTRA:                  -0.051
REMARK UNBOUND:                -0.076
REMARK SMILES COc1cc(C(=O)[O-])ccc1O
REMARK SMILES IDX 5 1 9 2 4 3 10 4 3 5 11 6 6 7 7 8 8 9 2 10 1 11 12 12
REMARK H PARENT 12 13
REMARK Flexibility Score: inf
ROOT
ATOM      1  C   UNL     1      60.901  -5.927  -1.441  1.00  0.00     0.001 A 
ATOM      2  C   UNL     1      61.555  -6.668  -0.444  1.00  0.00     0.014 A 
ATOM      3  C   UNL     1      60.747  -6.490  -2.721  1.00  0.00     0.060 A 
ATOM      4  C   UNL     1      62.044  -7.946  -0.719  1.00  0.00     0.051 A 
ATOM      5  C   UNL     1      61.241  -7.781  -3.005  1.00  0.00     0.161 A 
ATOM      6  C   UNL     1      61.891  -8.505  -1.990  1.00  0.00     0.157 A 
ENDROOT
BRANCH   1   7
ATOM      7  C   UNL     1      60.383  -4.573  -1.144  1.00  0.00     0.072 C 
ATOM      8  O   UNL     1      59.593  -4.000  -1.940  1.00  0.00    -0.545 OA
ATOM      9  O   UNL     1      60.762  -3.914   0.020  1.00  0.00    -0.545 OA
ENDBRANCH   1   7
BRANCH   5  10
ATOM     10  O   UNL     1      61.101  -8.368  -4.272  1.00  0.00    -0.493 OA
ATOM     11  C   UNL     1      62.113  -8.382  -5.273  1.00  0.00     0.278 C 
ENDBRANCH   5  10
BRANCH   6  12
ATOM     12  O   UNL     1      62.395  -9.784  -2.228  1.00  0.00    -0.504 OA
ATOM     13  H   UNL     1      62.038 -10.603  -1.750  1.00  0.00     0.293 HD
ENDBRANCH   6  12
TORSDOF 3
ENDMDL
MODEL 6
REMARK VINA RESULT:    -4.799      1.471      2.952
REMARK INTER + INTRA:          -5.576
REMARK INTER:                  -5.496
REMARK INTRA:                  -0.080
REMARK UNBOUND:                -0.076
REMARK SMILES COc1cc(C(=O)[O-])ccc1O
REMARK SMILES IDX 5 1 9 2 4 3 10 4 3 5 11 6 6 7 7 8 8 9 2 10 1 11 12 12
REMARK H PARENT 12 13
REMARK Flexibility Score: inf
ROOT
ATOM      1  C   UNL     1      61.568  -7.753  -2.582  1.00  0.00     0.001 A 
ATOM      2  C   UNL     1      62.279  -8.022  -1.401  1.00  0.00     0.014 A 
ATOM      3  C   UNL     1      60.781  -6.589  -2.655  1.00  0.00     0.060 A 
ATOM      4  C   UNL     1      62.204  -7.148  -0.316  1.00  0.00     0.051 A 
ATOM      5  C   UNL     1      60.701  -5.702  -1.561  1.00  0.00     0.161 A 
ATOM      6  C   UNL     1      61.422  -5.993  -0.389  1.00  0.00     0.157 A 
ENDROOT
BRANCH   1   7
ATOM      7  C   UNL     1      61.651  -8.682  -3.730  1.00  0.00     0.072 C 
ATOM      8  O   UNL     1      60.782  -8.654  -4.642  1.00  0.00    -0.545 OA
ATOM      9  O   UNL     1      62.690  -9.602  -3.818  1.00  0.00    -0.545 OA
ENDBRANCH   1   7
BRANCH   5  10
ATOM     10  O   UNL     1      59.924  -4.534  -1.605  1.00  0.00    -0.493 OA
ATOM     11  C   UNL     1      59.085  -4.162  -2.693  1.00  0.00     0.278 C 
ENDBRANCH   5  10
BRANCH   6  12
ATOM     12  O   UNL     1      61.372  -5.143   0.717  1.00  0.00    -0.504 OA
ATOM     13  H   UNL     1      60.532  -4.637   0.972  1.00  0.00     0.293 HD
ENDBRANCH   6  12
TORSDOF 3
ENDMDL
MODEL 7
REMARK VINA RESULT:    -4.685      1.496      4.143
REMARK INTER + INTRA:          -5.445
REMARK INTER:                  -5.370
REMARK INTRA:                  -0.075
REMARK UNBOUND:                -0.076
REMARK SMILES COc1cc(C(=O)[O-])ccc1O
REMARK SMILES IDX 5 1 9 2 4 3 10 4 3 5 11 6 6 7 7 8 8 9 2 10 1 11 12 12
REMARK H PARENT 12 13
REMARK Flexibility Score: inf
ROOT
ATOM      1  C   UNL     1      62.069  -7.378  -0.271  1.00  0.00     0.001 A 
ATOM      2  C   UNL     1      61.559  -6.098  -0.002  1.00  0.00     0.014 A 
ATOM      3  C   UNL     1      61.753  -7.995  -1.496  1.00  0.00     0.060 A 
ATOM      4  C   UNL     1      60.750  -5.448  -0.935  1.00  0.00     0.051 A 
ATOM      5  C   UNL     1      60.935  -7.343  -2.442  1.00  0.00     0.161 A 
ATOM      6  C   UNL     1      60.436  -6.061  -2.151  1.00  0.00     0.157 A 
ENDROOT
BRANCH   1   7
ATOM      7  C   UNL     1      62.926  -8.063   0.721  1.00  0.00     0.072 C 
ATOM      8  O   UNL     1      64.103  -8.403   0.425  1.00  0.00    -0.545 OA
ATOM      9  O   UNL     1      62.444  -8.341   1.995  1.00  0.00    -0.545 OA
ENDBRANCH   1   7
BRANCH   5  10
ATOM     10  O   UNL     1      60.603  -7.934  -3.672  1.00  0.00    -0.493 OA
ATOM     11  C   UNL     1      61.341  -8.984  -4.289  1.00  0.00     0.278 C 
ENDBRANCH   5  10
BRANCH   6  12
ATOM     12  O   UNL     1      59.624  -5.380  -3.058  1.00  0.00    -0.504 OA
ATOM     13  H   UNL     1      58.614  -5.378  -2.984  1.00  0.00     0.293 HD
ENDBRANCH   6  12
TORSDOF 3
ENDMDL
MODEL 8
REMARK VINA RESULT:    -4.153      1.576      4.688
REMARK INTER + INTRA:          -4.836
REMARK INTER:                  -4.750
REMARK INTRA:                  -0.086
REMARK UNBOUND:                -0.076
REMARK SMILES COc1cc(C(=O)[O-])ccc1O
REMARK SMILES IDX 5 1 9 2 4 3 10 4 3 5 11 6 6 7 7 8 8 9 2 10 1 11 12 12
REMARK H PARENT 12 13
REMARK Flexibility Score: inf
ROOT
ATOM      1  C   UNL     1      62.232  -7.977   0.164  1.00  0.00     0.001 A 
ATOM      2  C   UNL     1      62.135  -9.040  -0.748  1.00  0.00     0.014 A 
ATOM      3  C   UNL     1      61.923  -6.674  -0.270  1.00  0.00     0.060 A 
ATOM      4  C   UNL     1      61.738  -8.808  -2.065  1.00  0.00     0.051 A 
ATOM      5  C   UNL     1      61.523  -6.434  -1.601  1.00  0.00     0.161 A 
ATOM      6  C   UNL     1      61.432  -7.514  -2.496  1.00  0.00     0.157 A 
ENDROOT
BRANCH   1   7
ATOM      7  C   UNL     1      62.653  -8.228   1.560  1.00  0.00     0.072 C 
ATOM      8  O   UNL     1      63.704  -8.878   1.806  1.00  0.00    -0.545 OA
ATOM      9  O   UNL     1      61.892  -7.750   2.621  1.00  0.00    -0.545 OA
ENDBRANCH   1   7
BRANCH   5  10
ATOM     10  O   UNL     1      61.208  -5.146  -2.061  1.00  0.00    -0.493 OA
ATOM     11  C   UNL     1      59.909  -4.564  -2.013  1.00  0.00     0.278 C 
ENDBRANCH   5  10
BRANCH   6  12
ATOM     12  O   UNL     1      61.039  -7.321  -3.820  1.00  0.00    -0.504 OA
ATOM     13  H   UNL     1      60.992  -6.401  -4.242  1.00  0.00     0.293 HD
ENDBRANCH   6  12
TORSDOF 3
ENDMDL
