MODEL 1
REMARK VINA RESULT:    -2.467      0.000      0.000
REMARK INTER + INTRA:          -4.395
REMARK INTER:                  -3.765
REMARK INTRA:                  -0.629
REMARK UNBOUND:                -0.629
REMARK SMILES CCCCCCCCCCC(=O)[O-]
REMARK SMILES IDX 7 1 8 2 9 3 10 4 11 5 12 6 13 7 6 8 5 9 4 10 3 11 2 12 1 13
REMARK H PARENT
REMARK Flexibility Score: inf
ROOT
ATOM      1  C   UNL     1     -10.792 -19.819  20.284  1.00  0.00     0.000 C 
ENDROOT
BRANCH   1   2
ATOM      2  C   UNL     1      -9.997 -20.138  21.563  1.00  0.00     0.000 C 
BRANCH   2   3
ATOM      3  C   UNL     1     -10.784 -21.004  22.558  1.00  0.00     0.006 C 
BRANCH   3   4
ATOM      4  C   UNL     1     -10.329 -22.465  22.492  1.00  0.00     0.053 C 
BRANCH   4   5
ATOM      5  C   UNL     1      -8.849 -22.561  22.691  1.00  0.00     0.041 C 
ATOM      6  O   UNL     1      -8.349 -22.357  23.828  1.00  0.00    -0.550 OA
ATOM      7  O   UNL     1      -8.019 -22.828  21.610  1.00  0.00    -0.550 OA
ENDBRANCH   4   5
ENDBRANCH   3   4
ENDBRANCH   2   3
ENDBRANCH   1   2
BRANCH   1   8
ATOM      8  C   UNL     1     -10.863 -20.967  19.259  1.00  0.00     0.000 C 
BRANCH   8   9
ATOM      9  C   UNL     1      -9.483 -21.375  18.720  1.00  0.00    -0.000 C 
BRANCH   9  10
ATOM     10  C   UNL     1      -9.570 -21.789  17.246  1.00  0.00    -0.000 C 
BRANCH  10  11
ATOM     11  C   UNL     1     -10.869 -21.278  16.607  1.00  0.00    -0.000 C 
BRANCH  11  12
ATOM     12  C   UNL     1     -10.624 -20.159  15.583  1.00  0.00    -0.003 C 
ATOM     13  C   UNL     1      -9.533 -20.513  14.573  1.00  0.00     0.004 C 
ENDBRANCH  11  12
ENDBRANCH  10  11
ENDBRANCH   9  10
ENDBRANCH   8   9
ENDBRANCH   1   8
TORSDOF 9
ENDMDL
MODEL 2
REMARK VINA RESULT:    -2.461      3.222      5.600
REMARK INTER + INTRA:          -4.386
REMARK INTER:                  -3.463
REMARK INTRA:                  -0.922
REMARK UNBOUND:                -0.629
REMARK SMILES CCCCCCCCCCC(=O)[O-]
REMARK SMILES IDX 7 1 8 2 9 3 10 4 11 5 12 6 13 7 6 8 5 9 4 10 3 11 2 12 1 13
REMARK H PARENT
REMARK Flexibility Score: inf
ROOT
ATOM      1  C   UNL     1     -10.774 -21.990  18.448  1.00  0.00     0.000 C 
ENDROOT
BRANCH   1   2
ATOM      2  C   UNL     1      -9.488 -22.798  18.197  1.00  0.00     0.000 C 
BRANCH   2   3
ATOM      3  C   UNL     1      -8.210 -21.969  18.398  1.00  0.00     0.006 C 
BRANCH   3   4
ATOM      4  C   UNL     1      -6.960 -22.837  18.221  1.00  0.00     0.053 C 
BRANCH   4   5
ATOM      5  C   UNL     1      -6.211 -22.430  16.992  1.00  0.00     0.041 C 
ATOM      6  O   UNL     1      -6.831 -21.991  15.989  1.00  0.00    -0.550 OA
ATOM      7  O   UNL     1      -4.832 -22.582  16.936  1.00  0.00    -0.550 OA
ENDBRANCH   4   5
ENDBRANCH   3   4
ENDBRANCH   2   3
ENDBRANCH   1   2
BRANCH   1   8
ATOM      8  C   UNL     1     -11.125 -21.771  19.932  1.00  0.00     0.000 C 
BRANCH   8   9
ATOM      9  C   UNL     1     -10.953 -20.311  20.379  1.00  0.00    -0.000 C 
BRANCH   9  10
ATOM     10  C   UNL     1      -9.785 -20.172  21.363  1.00  0.00    -0.000 C 
BRANCH  10  11
ATOM     11  C   UNL     1     -10.063 -20.949  22.659  1.00  0.00    -0.000 C 
BRANCH  11  12
ATOM     12  C   UNL     1      -8.827 -21.702  23.173  1.00  0.00    -0.003 C 
ATOM     13  C   UNL     1      -8.247 -22.663  22.137  1.00  0.00     0.004 C 
ENDBRANCH  11  12
ENDBRANCH  10  11
ENDBRANCH   9  10
ENDBRANCH   8   9
ENDBRANCH   1   8
TORSDOF 9
ENDMDL
MODEL 3
REMARK VINA RESULT:    -2.438     17.845     19.592
REMARK INTER + INTRA:          -4.351
REMARK INTER:                  -3.788
REMARK INTRA:                  -0.562
REMARK UNBOUND:                -0.629
REMARK SMILES CCCCCCCCCCC(=O)[O-]
REMARK SMILES IDX 7 1 8 2 9 3 10 4 11 5 12 6 13 7 6 8 5 9 4 10 3 11 2 12 1 13
REMARK H PARENT
REMARK Flexibility Score: inf
ROOT
ATOM      1  C   UNL     1       7.946 -21.615  13.969  1.00  0.00     0.000 C 
ENDROOT
BRANCH   1   2
ATOM      2  C   UNL     1       8.241 -20.915  12.631  1.00  0.00     0.000 C 
BRANCH   2   3
ATOM      3  C   UNL     1       9.124 -21.755  11.697  1.00  0.00     0.006 C 
BRANCH   3   4
ATOM      4  C   UNL     1       8.769 -21.499  10.229  1.00  0.00     0.053 C 
BRANCH   4   5
ATOM      5  C   UNL     1       7.818 -22.541   9.730  1.00  0.00     0.041 C 
ATOM      6  O   UNL     1       7.811 -22.859   8.512  1.00  0.00    -0.550 OA
ATOM      7  O   UNL     1       6.908 -23.125  10.601  1.00  0.00    -0.550 OA
ENDBRANCH   4   5
ENDBRANCH   3   4
ENDBRANCH   2   3
ENDBRANCH   1   2
BRANCH   1   8
ATOM      8  C   UNL     1       8.473 -20.883  15.218  1.00  0.00     0.000 C 
BRANCH   8   9
ATOM      9  C   UNL     1       9.020 -21.841  16.287  1.00  0.00    -0.000 C 
BRANCH   9  10
ATOM     10  C   UNL     1       7.931 -22.811  16.764  1.00  0.00    -0.000 C 
BRANCH  10  11
ATOM     11  C   UNL     1       7.055 -22.163  17.847  1.00  0.00    -0.000 C 
BRANCH  11  12
ATOM     12  C   UNL     1       5.609 -21.937  17.379  1.00  0.00    -0.003 C 
ATOM     13  C   UNL     1       5.250 -22.767  16.147  1.00  0.00     0.004 C 
ENDBRANCH  11  12
ENDBRANCH  10  11
ENDBRANCH   9  10
ENDBRANCH   8   9
ENDBRANCH   1   8
TORSDOF 9
ENDMDL
MODEL 4
REMARK VINA RESULT:    -2.403      3.192      6.291
REMARK INTER + INTRA:          -4.297
REMARK INTER:                  -3.755
REMARK INTRA:                  -0.542
REMARK UNBOUND:                -0.629
REMARK SMILES CCCCCCCCCCC(=O)[O-]
REMARK SMILES IDX 7 1 8 2 9 3 10 4 11 5 12 6 13 7 6 8 5 9 4 10 3 11 2 12 1 13
REMARK H PARENT
REMARK Flexibility Score: inf
ROOT
ATOM      1  C   UNL     1      -8.032 -22.011  18.759  1.00  0.00     0.000 C 
ENDROOT
BRANCH   1   2
ATOM      2  C   UNL     1      -9.460 -21.448  18.867  1.00  0.00     0.000 C 
BRANCH   2   3
ATOM      3  C   UNL     1     -10.357 -21.857  17.689  1.00  0.00     0.006 C 
BRANCH   3   4
ATOM      4  C   UNL     1     -10.760 -20.636  16.857  1.00  0.00     0.053 C 
BRANCH   4   5
ATOM      5  C   UNL     1     -10.118 -20.687  15.507  1.00  0.00     0.041 C 
ATOM      6  O   UNL     1      -8.896 -20.972  15.398  1.00  0.00    -0.550 OA
ATOM      7  O   UNL     1     -10.856 -20.371  14.374  1.00  0.00    -0.550 OA
ENDBRANCH   4   5
ENDBRANCH   3   4
ENDBRANCH   2   3
ENDBRANCH   1   2
BRANCH   1   8
ATOM      8  C   UNL     1      -7.669 -23.074  19.814  1.00  0.00     0.000 C 
BRANCH   8   9
ATOM      9  C   UNL     1      -8.668 -23.125  20.980  1.00  0.00    -0.000 C 
BRANCH   9  10
ATOM     10  C   UNL     1      -8.100 -22.423  22.220  1.00  0.00    -0.000 C 
BRANCH  10  11
ATOM     11  C   UNL     1      -9.003 -22.649  23.441  1.00  0.00    -0.000 C 
BRANCH  11  12
ATOM     12  C   UNL     1     -10.233 -21.730  23.444  1.00  0.00    -0.003 C 
ATOM     13  C   UNL     1      -9.985 -20.408  22.718  1.00  0.00     0.004 C 
ENDBRANCH  11  12
ENDBRANCH  10  11
ENDBRANCH   9  10
ENDBRANCH   8   9
ENDBRANCH   1   8
TORSDOF 9
ENDMDL
MODEL 5
REMARK VINA RESULT:    -2.268      2.155      2.801
REMARK INTER + INTRA:          -4.090
REMARK INTER:                  -3.286
REMARK INTRA:                  -0.804
REMARK UNBOUND:                -0.629
REMARK SMILES CCCCCCCCCCC(=O)[O-]
REMARK SMILES IDX 7 1 8 2 9 3 10 4 11 5 12 6 13 7 6 8 5 9 4 10 3 11 2 12 1 13
REMARK H PARENT
REMARK Flexibility Score: inf
ROOT
ATOM      1  C   UNL     1      -9.533 -20.932  19.407  1.00  0.00     0.000 C 
ENDROOT
BRANCH   1   2
ATOM      2  C   UNL     1     -10.671 -20.974  20.443  1.00  0.00     0.000 C 
BRANCH   2   3
ATOM      3  C   UNL     1     -10.819 -22.347  21.115  1.00  0.00     0.006 C 
BRANCH   3   4
ATOM      4  C   UNL     1      -9.507 -22.777  21.778  1.00  0.00     0.053 C 
BRANCH   4   5
ATOM      5  C   UNL     1      -9.493 -22.376  23.219  1.00  0.00     0.041 C 
ATOM      6  O   UNL     1      -8.421 -22.420  23.877  1.00  0.00    -0.550 OA
ATOM      7  O   UNL     1     -10.673 -22.002  23.848  1.00  0.00    -0.550 OA
ENDBRANCH   4   5
ENDBRANCH   3   4
ENDBRANCH   2   3
ENDBRANCH   1   2
BRANCH   1   8
ATOM      8  C   UNL     1      -9.851 -21.615  18.064  1.00  0.00     0.000 C 
BRANCH   8   9
ATOM      9  C   UNL     1      -8.924 -22.803  17.763  1.00  0.00    -0.000 C 
BRANCH   9  10
ATOM     10  C   UNL     1      -7.636 -22.718  18.591  1.00  0.00    -0.000 C 
BRANCH  10  11
ATOM     11  C   UNL     1      -6.397 -22.878  17.698  1.00  0.00    -0.000 C 
BRANCH  11  12
ATOM     12  C   UNL     1      -6.578 -22.234  16.316  1.00  0.00    -0.003 C 
ATOM     13  C   UNL     1      -5.372 -21.398  15.890  1.00  0.00     0.004 C 
ENDBRANCH  11  12
ENDBRANCH  10  11
ENDBRANCH   9  10
ENDBRANCH   8   9
ENDBRANCH   1   8
TORSDOF 9
ENDMDL
MODEL 6
REMARK VINA RESULT:    -2.267      2.027      3.098
REMARK INTER + INTRA:          -4.089
REMARK INTER:                  -3.733
REMARK INTRA:                  -0.355
REMARK UNBOUND:                -0.629
REMARK SMILES CCCCCCCCCCC(=O)[O-]
REMARK SMILES IDX 7 1 8 2 9 3 10 4 11 5 12 6 13 7 6 8 5 9 4 10 3 11 2 12 1 13
REMARK H PARENT
REMARK Flexibility Score: inf
ROOT
ATOM      1  C   UNL     1      -7.712 -22.371  18.497  1.00  0.00     0.000 C 
ENDROOT
BRANCH   1   2
ATOM      2  C   UNL     1      -7.472 -23.078  19.844  1.00  0.00     0.000 C 
BRANCH   2   3
ATOM      3  C   UNL     1      -8.662 -22.949  20.808  1.00  0.00     0.006 C 
BRANCH   3   4
ATOM      4  C   UNL     1      -8.205 -22.431  22.175  1.00  0.00     0.053 C 
BRANCH   4   5
ATOM      5  C   UNL     1      -9.260 -21.563  22.786  1.00  0.00     0.041 C 
ATOM      6  O   UNL     1      -9.372 -20.360  22.432  1.00  0.00    -0.550 OA
ATOM      7  O   UNL     1     -10.087 -22.070  23.780  1.00  0.00    -0.550 OA
ENDBRANCH   4   5
ENDBRANCH   3   4
ENDBRANCH   2   3
ENDBRANCH   1   2
BRANCH   1   8
ATOM      8  C   UNL     1      -6.679 -22.692  17.401  1.00  0.00     0.000 C 
BRANCH   8   9
ATOM      9  C   UNL     1      -7.058 -22.107  16.032  1.00  0.00    -0.000 C 
BRANCH   9  10
ATOM     10  C   UNL     1      -8.455 -21.477  16.072  1.00  0.00    -0.000 C 
BRANCH  10  11
ATOM     11  C   UNL     1      -8.668 -20.536  14.877  1.00  0.00    -0.000 C 
BRANCH  11  12
ATOM     12  C   UNL     1     -10.130 -20.501  14.406  1.00  0.00    -0.003 C 
ATOM     13  C   UNL     1     -11.125 -20.551  15.565  1.00  0.00     0.004 C 
ENDBRANCH  11  12
ENDBRANCH  10  11
ENDBRANCH   9  10
ENDBRANCH   8   9
ENDBRANCH   1   8
TORSDOF 9
ENDMDL
MODEL 7
REMARK VINA RESULT:    -2.187     17.251     18.744
REMARK INTER + INTRA:          -3.968
REMARK INTER:                  -4.018
REMARK INTRA:                   0.050
REMARK UNBOUND:                -0.629
REMARK SMILES CCCCCCCCCCC(=O)[O-]
REMARK SMILES IDX 7 1 8 2 9 3 10 4 11 5 12 6 13 7 6 8 5 9 4 10 3 11 2 12 1 13
REMARK H PARENT
REMARK Flexibility Score: inf
ROOT
ATOM      1  C   UNL     1       7.764 -21.893  14.992  1.00  0.00     0.000 C 
ENDROOT
BRANCH   1   2
ATOM      2  C   UNL     1       8.888 -22.845  14.544  1.00  0.00     0.000 C 
BRANCH   2   3
ATOM      3  C   UNL     1       9.088 -22.862  13.021  1.00  0.00     0.006 C 
BRANCH   3   4
ATOM      4  C   UNL     1       8.153 -21.861  12.335  1.00  0.00     0.053 C 
BRANCH   4   5
ATOM      5  C   UNL     1       8.459 -21.775  10.874  1.00  0.00     0.041 C 
ATOM      6  O   UNL     1       9.125 -20.806  10.422  1.00  0.00    -0.550 OA
ATOM      7  O   UNL     1       7.969 -22.739  10.003  1.00  0.00    -0.550 OA
ENDBRANCH   4   5
ENDBRANCH   3   4
ENDBRANCH   2   3
ENDBRANCH   1   2
BRANCH   1   8
ATOM      8  C   UNL     1       7.974 -21.241  16.372  1.00  0.00     0.000 C 
BRANCH   8   9
ATOM      9  C   UNL     1       7.324 -22.036  17.514  1.00  0.00    -0.000 C 
BRANCH   9  10
ATOM     10  C   UNL     1       5.795 -21.935  17.452  1.00  0.00    -0.000 C 
BRANCH  10  11
ATOM     11  C   UNL     1       5.236 -22.775  16.294  1.00  0.00    -0.000 C 
BRANCH  11  12
ATOM     12  C   UNL     1       3.708 -22.669  16.171  1.00  0.00    -0.003 C 
ATOM     13  C   UNL     1       3.217 -22.847  14.735  1.00  0.00     0.004 C 
ENDBRANCH  11  12
ENDBRANCH  10  11
ENDBRANCH   9  10
ENDBRANCH   8   9
ENDBRANCH   1   8
TORSDOF 9
ENDMDL
MODEL 8
REMARK VINA RESULT:    -2.171      3.057      6.072
REMARK INTER + INTRA:          -3.942
REMARK INTER:                  -3.367
REMARK INTRA:                  -0.575
REMARK UNBOUND:                -0.629
REMARK SMILES CCCCCCCCCCC(=O)[O-]
REMARK SMILES IDX 7 1 8 2 9 3 10 4 11 5 12 6 13 7 6 8 5 9 4 10 3 11 2 12 1 13
REMARK H PARENT
REMARK Flexibility Score: inf
ROOT
ATOM      1  C   UNL     1      -6.975 -21.105  15.441  1.00  0.00     0.000 C 
ENDROOT
BRANCH   1   2
ATOM      2  C   UNL     1      -8.450 -21.515  15.286  1.00  0.00     0.000 C 
BRANCH   2   3
ATOM      3  C   UNL     1      -9.277 -20.490  14.496  1.00  0.00     0.006 C 
BRANCH   3   4
ATOM      4  C   UNL     1     -10.769 -20.626  14.816  1.00  0.00     0.053 C 
BRANCH   4   5
ATOM      5  C   UNL     1     -10.989 -20.626  16.295  1.00  0.00     0.041 C 
ATOM      6  O   UNL     1     -11.020 -19.540  16.931  1.00  0.00    -0.550 OA
ATOM      7  O   UNL     1     -11.110 -21.828  16.980  1.00  0.00    -0.550 OA
ENDBRANCH   4   5
ENDBRANCH   3   4
ENDBRANCH   2   3
ENDBRANCH   1   2
BRANCH   1   8
ATOM      8  C   UNL     1      -6.109 -22.083  16.258  1.00  0.00     0.000 C 
BRANCH   8   9
ATOM      9  C   UNL     1      -6.941 -23.121  17.025  1.00  0.00    -0.000 C 
BRANCH   9  10
ATOM     10  C   UNL     1      -6.986 -22.791  18.523  1.00  0.00    -0.000 C 
BRANCH  10  11
ATOM     11  C   UNL     1      -8.433 -22.768  19.037  1.00  0.00    -0.000 C 
BRANCH  11  12
ATOM     12  C   UNL     1      -8.920 -21.349  19.367  1.00  0.00    -0.003 C 
ATOM     13  C   UNL     1     -10.058 -21.338  20.387  1.00  0.00     0.004 C 
ENDBRANCH  11  12
ENDBRANCH  10  11
ENDBRANCH   9  10
ENDBRANCH   8   9
ENDBRANCH   1   8
TORSDOF 9
ENDMDL
MODEL 9
REMARK VINA RESULT:     0.090      1.540      2.372
REMARK INTER + INTRA:          -0.492
REMARK INTER:                   0.318
REMARK INTRA:                  -0.810
REMARK UNBOUND:                -0.629
REMARK SMILES CCCCCCCCCCC(=O)[O-]
REMARK SMILES IDX 7 1 8 2 9 3 10 4 11 5 12 6 13 7 6 8 5 9 4 10 3 11 2 12 1 13
REMARK H PARENT
REMARK Flexibility Score: inf
ROOT
ATOM      1  C   UNL     1      -8.124 -22.005  18.664  1.00  0.00     0.000 C 
ENDROOT
BRANCH   1   2
ATOM      2  C   UNL     1      -7.658 -22.810  19.891  1.00  0.00     0.000 C 
BRANCH   2   3
ATOM      3  C   UNL     1      -8.793 -23.101  20.883  1.00  0.00     0.006 C 
BRANCH   3   4
ATOM      4  C   UNL     1      -9.591 -21.830  21.191  1.00  0.00     0.053 C 
BRANCH   4   5
ATOM      5  C   UNL     1      -9.315 -21.364  22.586  1.00  0.00     0.041 C 
ATOM      6  O   UNL     1      -9.959 -20.395  23.068  1.00  0.00    -0.550 OA
ATOM      7  O   UNL     1      -8.314 -21.967  23.335  1.00  0.00    -0.550 OA
ENDBRANCH   4   5
ENDBRANCH   3   4
ENDBRANCH   2   3
ENDBRANCH   1   2
BRANCH   1   8
ATOM      8  C   UNL     1      -8.995 -22.789  17.664  1.00  0.00     0.000 C 
BRANCH   8   9
ATOM      9  C   UNL     1     -10.427 -22.242  17.561  1.00  0.00    -0.000 C 
BRANCH   9  10
ATOM     10  C   UNL     1     -10.458 -20.731  17.824  1.00  0.00    -0.000 C 
BRANCH  10  11
ATOM     11  C   UNL     1     -11.125 -19.984  16.659  1.00  0.00    -0.000 C 
BRANCH  11  12
ATOM     12  C   UNL     1     -11.007 -20.742  15.327  1.00  0.00    -0.003 C 
ATOM     13  C   UNL     1      -9.746 -20.373  14.548  1.00  0.00     0.004 C 
ENDBRANCH  11  12
ENDBRANCH  10  11
ENDBRANCH   9  10
ENDBRANCH   8   9
ENDBRANCH   1   8
TORSDOF 9
ENDMDL
