MODEL 1
REMARK VINA RESULT:    -2.702      0.000      0.000
REMARK INTER + INTRA:          -3.038
REMARK INTER:                  -3.018
REMARK INTRA:                  -0.020
REMARK UNBOUND:                -0.020
REMARK SMILES CCCC(=O)[O-]
REMARK SMILES IDX 3 1 4 2 5 3 6 4 2 5 1 6
REMARK H PARENT
REMARK Flexibility Score: inf
ROOT
ATOM      1  C   UNL     1     -20.300 -11.457 -19.310  1.00  0.00     0.052 C 
ENDROOT
BRANCH   1   2
ATOM      2  C   UNL     1     -19.047 -10.990 -19.985  1.00  0.00     0.041 C 
ATOM      3  O   UNL     1     -18.219 -11.826 -20.432  1.00  0.00    -0.550 OA
ATOM      4  O   UNL     1     -18.776  -9.632 -20.087  1.00  0.00    -0.550 OA
ENDBRANCH   1   2
BRANCH   1   5
ATOM      5  C   UNL     1     -20.244 -12.953 -18.976  1.00  0.00     0.003 C 
ATOM      6  C   UNL     1     -21.599 -13.638 -19.153  1.00  0.00     0.004 C 
ENDBRANCH   1   5
TORSDOF 2
ENDMDL
MODEL 2
REMARK VINA RESULT:    -2.625     20.061     20.644
REMARK INTER + INTRA:          -2.952
REMARK INTER:                  -2.885
REMARK INTRA:                  -0.067
REMARK UNBOUND:                -0.020
REMARK SMILES CCCC(=O)[O-]
REMARK SMILES IDX 3 1 4 2 5 3 6 4 2 5 1 6
REMARK H PARENT
REMARK Flexibility Score: inf
ROOT
ATOM      1  C   UNL     1     -23.232   3.322 -33.795  1.00  0.00     0.052 C 
ENDROOT
BRANCH   1   2
ATOM      2  C   UNL     1     -22.815   2.104 -34.561  1.00  0.00     0.041 C 
ATOM      3  O   UNL     1     -22.400   1.084 -33.951  1.00  0.00    -0.550 OA
ATOM      4  O   UNL     1     -22.851   2.109 -35.949  1.00  0.00    -0.550 OA
ENDBRANCH   1   2
BRANCH   1   5
ATOM      5  C   UNL     1     -24.342   3.008 -32.784  1.00  0.00     0.003 C 
ATOM      6  C   UNL     1     -25.664   2.655 -33.465  1.00  0.00     0.004 C 
ENDBRANCH   1   5
TORSDOF 2
ENDMDL
MODEL 3
REMARK VINA RESULT:    -2.597     20.125     20.874
REMARK INTER + INTRA:          -2.921
REMARK INTER:                  -2.888
REMARK INTRA:                  -0.033
REMARK UNBOUND:                -0.020
REMARK SMILES CCCC(=O)[O-]
REMARK SMILES IDX 3 1 4 2 5 3 6 4 2 5 1 6
REMARK H PARENT
REMARK Flexibility Score: inf
ROOT
ATOM      1  C   UNL     1     -24.280   2.820 -32.836  1.00  0.00     0.052 C 
ENDROOT
BRANCH   1   2
ATOM      2  C   UNL     1     -23.170   2.772 -33.841  1.00  0.00     0.041 C 
ATOM      3  O   UNL     1     -22.834   3.813 -34.463  1.00  0.00    -0.550 OA
ATOM      4  O   UNL     1     -22.532   1.569 -34.117  1.00  0.00    -0.550 OA
ENDBRANCH   1   2
BRANCH   1   5
ATOM      5  C   UNL     1     -25.644   2.545 -33.480  1.00  0.00     0.003 C 
ATOM      6  C   UNL     1     -26.528   3.792 -33.522  1.00  0.00     0.004 C 
ENDBRANCH   1   5
TORSDOF 2
ENDMDL
MODEL 4
REMARK VINA RESULT:    -2.591     20.020     20.643
REMARK INTER + INTRA:          -2.915
REMARK INTER:                  -2.851
REMARK INTRA:                  -0.063
REMARK UNBOUND:                -0.020
REMARK SMILES CCCC(=O)[O-]
REMARK SMILES IDX 3 1 4 2 5 3 6 4 2 5 1 6
REMARK H PARENT
REMARK Flexibility Score: inf
ROOT
ATOM      1  C   UNL     1     -23.311   3.336 -33.851  1.00  0.00     0.052 C 
ENDROOT
BRANCH   1   2
ATOM      2  C   UNL     1     -22.790   2.145 -34.595  1.00  0.00     0.041 C 
ATOM      3  O   UNL     1     -22.756   2.150 -35.854  1.00  0.00    -0.550 OA
ATOM      4  O   UNL     1     -22.376   1.016 -33.900  1.00  0.00    -0.550 OA
ENDBRANCH   1   2
BRANCH   1   5
ATOM      5  C   UNL     1     -24.371   2.943 -32.816  1.00  0.00     0.003 C 
ATOM      6  C   UNL     1     -25.715   2.604 -33.460  1.00  0.00     0.004 C 
ENDBRANCH   1   5
TORSDOF 2
ENDMDL
MODEL 5
REMARK VINA RESULT:    -2.534     20.426     21.226
REMARK INTER + INTRA:          -2.851
REMARK INTER:                  -2.782
REMARK INTRA:                  -0.069
REMARK UNBOUND:                -0.020
REMARK SMILES CCCC(=O)[O-]
REMARK SMILES IDX 3 1 4 2 5 3 6 4 2 5 1 6
REMARK H PARENT
REMARK Flexibility Score: inf
ROOT
ATOM      1  C   UNL     1     -24.460   2.793 -34.491  1.00  0.00     0.052 C 
ENDROOT
BRANCH   1   2
ATOM      2  C   UNL     1     -23.089   3.393 -34.547  1.00  0.00     0.041 C 
ATOM      3  O   UNL     1     -22.119   2.809 -33.996  1.00  0.00    -0.550 OA
ATOM      4  O   UNL     1     -22.889   4.615 -35.176  1.00  0.00    -0.550 OA
ENDBRANCH   1   2
BRANCH   1   5
ATOM      5  C   UNL     1     -24.949   2.622 -33.048  1.00  0.00     0.003 C 
ATOM      6  C   UNL     1     -25.008   3.949 -32.293  1.00  0.00     0.004 C 
ENDBRANCH   1   5
TORSDOF 2
ENDMDL
MODEL 6
REMARK VINA RESULT:    -2.443     20.566     20.963
REMARK INTER + INTRA:          -2.749
REMARK INTER:                  -2.713
REMARK INTRA:                  -0.036
REMARK UNBOUND:                -0.020
REMARK SMILES CCCC(=O)[O-]
REMARK SMILES IDX 3 1 4 2 5 3 6 4 2 5 1 6
REMARK H PARENT
REMARK Flexibility Score: inf
ROOT
ATOM      1  C   UNL     1     -23.088   3.154 -33.729  1.00  0.00     0.052 C 
ENDROOT
BRANCH   1   2
ATOM      2  C   UNL     1     -24.463   3.090 -33.138  1.00  0.00     0.041 C 
ATOM      3  O   UNL     1     -24.699   3.628 -32.025  1.00  0.00    -0.550 OA
ATOM      4  O   UNL     1     -25.474   2.404 -33.799  1.00  0.00    -0.550 OA
ENDBRANCH   1   2
BRANCH   1   5
ATOM      5  C   UNL     1     -22.786   1.932 -34.605  1.00  0.00     0.003 C 
ATOM      6  C   UNL     1     -22.767   2.276 -36.094  1.00  0.00     0.004 C 
ENDBRANCH   1   5
TORSDOF 2
ENDMDL
MODEL 7
REMARK VINA RESULT:    -2.430      2.261      3.408
REMARK INTER + INTRA:          -2.734
REMARK INTER:                  -2.725
REMARK INTRA:                  -0.009
REMARK UNBOUND:                -0.020
REMARK SMILES CCCC(=O)[O-]
REMARK SMILES IDX 3 1 4 2 5 3 6 4 2 5 1 6
REMARK H PARENT
REMARK Flexibility Score: inf
ROOT
ATOM      1  C   UNL     1     -20.304 -11.526 -19.044  1.00  0.00     0.052 C 
ENDROOT
BRANCH   1   2
ATOM      2  C   UNL     1     -20.746 -12.955 -19.124  1.00  0.00     0.041 C 
ATOM      3  O   UNL     1     -19.894 -13.881 -19.135  1.00  0.00    -0.550 OA
ATOM      4  O   UNL     1     -22.097 -13.261 -19.223  1.00  0.00    -0.550 OA
ENDBRANCH   1   2
BRANCH   1   5
ATOM      5  C   UNL     1     -18.923 -11.320 -19.677  1.00  0.00     0.003 C 
ATOM      6  C   UNL     1     -18.691  -9.871 -20.107  1.00  0.00     0.004 C 
ENDBRANCH   1   5
TORSDOF 2
ENDMDL
MODEL 8
REMARK VINA RESULT:    -2.307     20.675     21.679
REMARK INTER + INTRA:          -2.597
REMARK INTER:                  -2.555
REMARK INTRA:                  -0.043
REMARK UNBOUND:                -0.020
REMARK SMILES CCCC(=O)[O-]
REMARK SMILES IDX 3 1 4 2 5 3 6 4 2 5 1 6
REMARK H PARENT
REMARK Flexibility Score: inf
ROOT
ATOM      1  C   UNL     1     -22.767   3.075 -34.177  1.00  0.00     0.052 C 
ENDROOT
BRANCH   1   2
ATOM      2  C   UNL     1     -24.164   2.883 -33.672  1.00  0.00     0.041 C 
ATOM      3  O   UNL     1     -25.052   2.413 -34.431  1.00  0.00    -0.550 OA
ATOM      4  O   UNL     1     -24.494   3.257 -32.376  1.00  0.00    -0.550 OA
ENDBRANCH   1   2
BRANCH   1   5
ATOM      5  C   UNL     1     -22.742   3.422 -35.670  1.00  0.00     0.003 C 
ATOM      6  C   UNL     1     -22.811   4.928 -35.918  1.00  0.00     0.004 C 
ENDBRANCH   1   5
TORSDOF 2
ENDMDL
MODEL 9
REMARK VINA RESULT:    -2.260     20.990     21.999
REMARK INTER + INTRA:          -2.544
REMARK INTER:                  -2.499
REMARK INTRA:                  -0.045
REMARK UNBOUND:                -0.020
REMARK SMILES CCCC(=O)[O-]
REMARK SMILES IDX 3 1 4 2 5 3 6 4 2 5 1 6
REMARK H PARENT
REMARK Flexibility Score: inf
ROOT
ATOM      1  C   UNL     1     -24.393   2.876 -35.101  1.00  0.00     0.052 C 
ENDROOT
BRANCH   1   2
ATOM      2  C   UNL     1     -23.101   2.131 -35.236  1.00  0.00     0.041 C 
ATOM      3  O   UNL     1     -22.614   1.910 -36.376  1.00  0.00    -0.550 OA
ATOM      4  O   UNL     1     -22.453   1.649 -34.106  1.00  0.00    -0.550 OA
ENDBRANCH   1   2
BRANCH   1   5
ATOM      5  C   UNL     1     -24.350   4.229 -35.822  1.00  0.00     0.003 C 
ATOM      6  C   UNL     1     -23.224   5.125 -35.307  1.00  0.00     0.004 C 
ENDBRANCH   1   5
TORSDOF 2
ENDMDL
