MODEL 1
REMARK VINA RESULT:    -3.174      0.000      0.000
REMARK INTER + INTRA:          -5.083
REMARK INTER:                  -4.473
REMARK INTRA:                  -0.609
REMARK UNBOUND:                -0.609
REMARK SMILES C=CCCCCCCC(=O)[O-]
REMARK SMILES IDX 6 1 7 2 8 3 9 4 10 5 11 6 5 7 4 8 3 9 2 10 1 11
REMARK H PARENT
REMARK Flexibility Score: inf
ROOT
ATOM      1  C   UNL     1      -1.861  -6.929  31.195  1.00  0.00     0.000 C 
ENDROOT
BRANCH   1   2
ATOM      2  C   UNL     1      -2.974  -6.920  30.141  1.00  0.00     0.006 C 
BRANCH   2   3
ATOM      3  C   UNL     1      -4.171  -7.760  30.598  1.00  0.00     0.053 C 
BRANCH   3   4
ATOM      4  C   UNL     1      -3.948  -9.206  30.280  1.00  0.00     0.041 C 
ATOM      5  O   UNL     1      -3.620 -10.010  31.191  1.00  0.00    -0.550 OA
ATOM      6  O   UNL     1      -4.052  -9.653  28.970  1.00  0.00    -0.550 OA
ENDBRANCH   3   4
ENDBRANCH   2   3
ENDBRANCH   1   2
BRANCH   1   7
ATOM      7  C   UNL     1      -1.546  -5.508  31.675  1.00  0.00     0.000 C 
BRANCH   7   8
ATOM      8  C   UNL     1      -2.285  -5.192  32.982  1.00  0.00     0.004 C 
BRANCH   8   9
ATOM      9  C   UNL     1      -2.781  -3.740  32.994  1.00  0.00     0.027 C 
BRANCH   9  10
ATOM     10  C   UNL     1      -4.275  -3.674  32.838  1.00  0.00    -0.035 C 
ATOM     11  C   UNL     1      -5.018  -4.777  32.698  1.00  0.00     0.004 C 
ENDBRANCH   9  10
ENDBRANCH   8   9
ENDBRANCH   7   8
ENDBRANCH   1   7
TORSDOF 7
ENDMDL
MODEL 2
REMARK VINA RESULT:    -3.091      1.747      2.672
REMARK INTER + INTRA:          -4.966
REMARK INTER:                  -4.458
REMARK INTRA:                  -0.508
REMARK UNBOUND:                -0.609
REMARK SMILES C=CCCCCCCC(=O)[O-]
REMARK SMILES IDX 6 1 7 2 8 3 9 4 10 5 11 6 5 7 4 8 3 9 2 10 1 11
REMARK H PARENT
REMARK Flexibility Score: inf
ROOT
ATOM      1  C   UNL     1      -1.607  -5.306  32.781  1.00  0.00     0.000 C 
ENDROOT
BRANCH   1   2
ATOM      2  C   UNL     1      -1.550  -5.688  31.297  1.00  0.00     0.006 C 
BRANCH   2   3
ATOM      3  C   UNL     1      -1.613  -7.208  31.119  1.00  0.00     0.053 C 
BRANCH   3   4
ATOM      4  C   UNL     1      -3.023  -7.650  30.882  1.00  0.00     0.041 C 
ATOM      5  O   UNL     1      -3.898  -6.816  30.531  1.00  0.00    -0.550 OA
ATOM      6  O   UNL     1      -3.382  -8.974  31.099  1.00  0.00    -0.550 OA
ENDBRANCH   3   4
ENDBRANCH   2   3
ENDBRANCH   1   2
BRANCH   1   7
ATOM      7  C   UNL     1      -2.751  -4.322  33.052  1.00  0.00     0.000 C 
BRANCH   7   8
ATOM      8  C   UNL     1      -3.161  -3.588  31.770  1.00  0.00     0.004 C 
BRANCH   8   9
ATOM      9  C   UNL     1      -3.642  -2.166  32.082  1.00  0.00     0.027 C 
BRANCH   9  10
ATOM     10  C   UNL     1      -3.394  -1.811  33.522  1.00  0.00    -0.035 C 
ATOM     11  C   UNL     1      -2.849  -0.642  33.876  1.00  0.00     0.004 C 
ENDBRANCH   9  10
ENDBRANCH   8   9
ENDBRANCH   7   8
ENDBRANCH   1   7
TORSDOF 7
ENDMDL
MODEL 3
REMARK VINA RESULT:    -3.058     14.965     16.298
REMARK INTER + INTRA:          -4.919
REMARK INTER:                  -4.372
REMARK INTRA:                  -0.546
REMARK UNBOUND:                -0.609
REMARK SMILES C=CCCCCCCC(=O)[O-]
REMARK SMILES IDX 6 1 7 2 8 3 9 4 10 5 11 6 5 7 4 8 3 9 2 10 1 11
REMARK H PARENT
REMARK Flexibility Score: inf
ROOT
ATOM      1  C   UNL     1     -11.219   6.320  29.332  1.00  0.00     0.000 C 
ENDROOT
BRANCH   1   2
ATOM      2  C   UNL     1     -12.614   6.173  29.952  1.00  0.00     0.006 C 
BRANCH   2   3
ATOM      3  C   UNL     1     -12.519   5.851  31.447  1.00  0.00     0.053 C 
BRANCH   3   4
ATOM      4  C   UNL     1     -13.095   4.499  31.730  1.00  0.00     0.041 C 
ATOM      5  O   UNL     1     -13.265   3.675  30.793  1.00  0.00    -0.550 OA
ATOM      6  O   UNL     1     -13.490   4.168  33.019  1.00  0.00    -0.550 OA
ENDBRANCH   3   4
ENDBRANCH   2   3
ENDBRANCH   1   2
BRANCH   1   7
ATOM      7  C   UNL     1     -11.054   7.694  28.672  1.00  0.00     0.000 C 
BRANCH   7   8
ATOM      8  C   UNL     1     -12.267   8.034  27.797  1.00  0.00     0.004 C 
BRANCH   8   9
ATOM      9  C   UNL     1     -11.891   8.025  26.310  1.00  0.00     0.027 C 
BRANCH   9  10
ATOM     10  C   UNL     1     -12.167   6.684  25.687  1.00  0.00    -0.035 C 
ATOM     11  C   UNL     1     -13.142   5.887  26.134  1.00  0.00     0.004 C 
ENDBRANCH   9  10
ENDBRANCH   8   9
ENDBRANCH   7   8
ENDBRANCH   1   7
TORSDOF 7
ENDMDL
MODEL 4
REMARK VINA RESULT:    -3.049     14.037     14.795
REMARK INTER + INTRA:          -4.907
REMARK INTER:                  -4.524
REMARK INTRA:                  -0.382
REMARK UNBOUND:                -0.609
REMARK SMILES C=CCCCCCCC(=O)[O-]
REMARK SMILES IDX 6 1 7 2 8 3 9 4 10 5 11 6 5 7 4 8 3 9 2 10 1 11
REMARK H PARENT
REMARK Flexibility Score: inf
ROOT
ATOM      1  C   UNL     1     -11.266   4.473  34.052  1.00  0.00     0.000 C 
ENDROOT
BRANCH   1   2
ATOM      2  C   UNL     1     -11.781   5.254  32.837  1.00  0.00     0.006 C 
BRANCH   2   3
ATOM      3  C   UNL     1     -12.931   4.508  32.153  1.00  0.00     0.053 C 
BRANCH   3   4
ATOM      4  C   UNL     1     -13.130   5.017  30.760  1.00  0.00     0.041 C 
ATOM      5  O   UNL     1     -13.610   4.263  29.873  1.00  0.00    -0.550 OA
ATOM      6  O   UNL     1     -12.739   6.307  30.428  1.00  0.00    -0.550 OA
ENDBRANCH   3   4
ENDBRANCH   2   3
ENDBRANCH   1   2
BRANCH   1   7
ATOM      7  C   UNL     1     -10.332   5.338  34.906  1.00  0.00     0.000 C 
BRANCH   7   8
ATOM      8  C   UNL     1     -10.333   4.872  36.367  1.00  0.00     0.004 C 
BRANCH   8   9
ATOM      9  C   UNL     1     -10.846   3.432  36.484  1.00  0.00     0.027 C 
BRANCH   9  10
ATOM     10  C   UNL     1     -11.923   3.319  37.528  1.00  0.00    -0.035 C 
ATOM     11  C   UNL     1     -13.220   3.325  37.205  1.00  0.00     0.004 C 
ENDBRANCH   9  10
ENDBRANCH   8   9
ENDBRANCH   7   8
ENDBRANCH   1   7
TORSDOF 7
ENDMDL
MODEL 5
REMARK VINA RESULT:    -2.990     14.609     15.759
REMARK INTER + INTRA:          -4.823
REMARK INTER:                  -4.125
REMARK INTRA:                  -0.697
REMARK UNBOUND:                -0.609
REMARK SMILES C=CCCCCCCC(=O)[O-]
REMARK SMILES IDX 6 1 7 2 8 3 9 4 10 5 11 6 5 7 4 8 3 9 2 10 1 11
REMARK H PARENT
REMARK Flexibility Score: inf
ROOT
ATOM      1  C   UNL     1     -12.849   5.408  29.333  1.00  0.00     0.000 C 
ENDROOT
BRANCH   1   2
ATOM      2  C   UNL     1     -12.455   6.016  30.685  1.00  0.00     0.006 C 
BRANCH   2   3
ATOM      3  C   UNL     1     -11.491   5.095  31.441  1.00  0.00     0.053 C 
BRANCH   3   4
ATOM      4  C   UNL     1     -11.913   4.956  32.870  1.00  0.00     0.041 C 
ATOM      5  O   UNL     1     -13.026   4.442  33.154  1.00  0.00    -0.550 OA
ATOM      6  O   UNL     1     -11.098   5.438  33.885  1.00  0.00    -0.550 OA
ENDBRANCH   3   4
ENDBRANCH   2   3
ENDBRANCH   1   2
BRANCH   1   7
ATOM      7  C   UNL     1     -12.710   6.437  28.206  1.00  0.00     0.000 C 
BRANCH   7   8
ATOM      8  C   UNL     1     -12.002   7.704  28.702  1.00  0.00     0.004 C 
BRANCH   8   9
ATOM      9  C   UNL     1     -10.692   7.935  27.940  1.00  0.00     0.027 C 
BRANCH   9  10
ATOM     10  C   UNL     1      -9.521   7.351  28.682  1.00  0.00    -0.035 C 
ATOM     11  C   UNL     1      -8.932   6.217  28.287  1.00  0.00     0.004 C 
ENDBRANCH   9  10
ENDBRANCH   8   9
ENDBRANCH   7   8
ENDBRANCH   1   7
TORSDOF 7
ENDMDL
MODEL 6
REMARK VINA RESULT:    -2.982     13.958     14.713
REMARK INTER + INTRA:          -4.812
REMARK INTER:                  -4.453
REMARK INTRA:                  -0.359
REMARK UNBOUND:                -0.609
REMARK SMILES C=CCCCCCCC(=O)[O-]
REMARK SMILES IDX 6 1 7 2 8 3 9 4 10 5 11 6 5 7 4 8 3 9 2 10 1 11
REMARK H PARENT
REMARK Flexibility Score: inf
ROOT
ATOM      1  C   UNL     1     -11.489   4.001  34.244  1.00  0.00     0.000 C 
ENDROOT
BRANCH   1   2
ATOM      2  C   UNL     1     -12.621   4.336  33.266  1.00  0.00     0.006 C 
BRANCH   2   3
ATOM      3  C   UNL     1     -12.194   5.434  32.287  1.00  0.00     0.053 C 
BRANCH   3   4
ATOM      4  C   UNL     1     -12.843   5.229  30.954  1.00  0.00     0.041 C 
ATOM      5  O   UNL     1     -13.250   4.087  30.617  1.00  0.00    -0.550 OA
ATOM      6  O   UNL     1     -12.951   6.289  30.063  1.00  0.00    -0.550 OA
ENDBRANCH   3   4
ENDBRANCH   2   3
ENDBRANCH   1   2
BRANCH   1   7
ATOM      7  C   UNL     1     -10.459   5.135  34.302  1.00  0.00     0.000 C 
BRANCH   7   8
ATOM      8  C   UNL     1     -10.256   5.621  35.742  1.00  0.00     0.004 C 
BRANCH   8   9
ATOM      9  C   UNL     1     -10.131   4.438  36.709  1.00  0.00     0.027 C 
BRANCH   9  10
ATOM     10  C   UNL     1      -8.826   4.481  37.456  1.00  0.00    -0.035 C 
ATOM     11  C   UNL     1      -8.208   5.635  37.727  1.00  0.00     0.004 C 
ENDBRANCH   9  10
ENDBRANCH   8   9
ENDBRANCH   7   8
ENDBRANCH   1   7
TORSDOF 7
ENDMDL
MODEL 7
REMARK VINA RESULT:    -2.971      3.034      5.195
REMARK INTER + INTRA:          -4.797
REMARK INTER:                  -4.413
REMARK INTRA:                  -0.384
REMARK UNBOUND:                -0.609
REMARK SMILES C=CCCCCCCC(=O)[O-]
REMARK SMILES IDX 6 1 7 2 8 3 9 4 10 5 11 6 5 7 4 8 3 9 2 10 1 11
REMARK H PARENT
REMARK Flexibility Score: inf
ROOT
ATOM      1  C   UNL     1      -1.303  -6.368  30.692  1.00  0.00     0.000 C 
ENDROOT
BRANCH   1   2
ATOM      2  C   UNL     1      -1.719  -4.963  31.146  1.00  0.00     0.006 C 
BRANCH   2   3
ATOM      3  C   UNL     1      -1.994  -4.933  32.653  1.00  0.00     0.053 C 
BRANCH   3   4
ATOM      4  C   UNL     1      -3.192  -4.087  32.950  1.00  0.00     0.041 C 
ATOM      5  O   UNL     1      -4.344  -4.593  32.937  1.00  0.00    -0.550 OA
ATOM      6  O   UNL     1      -3.040  -2.728  33.192  1.00  0.00    -0.550 OA
ENDBRANCH   3   4
ENDBRANCH   2   3
ENDBRANCH   1   2
BRANCH   1   7
ATOM      7  C   UNL     1      -2.244  -7.433  31.265  1.00  0.00     0.000 C 
BRANCH   7   8
ATOM      8  C   UNL     1      -3.518  -7.555  30.419  1.00  0.00     0.004 C 
BRANCH   8   9
ATOM      9  C   UNL     1      -4.005  -9.008  30.367  1.00  0.00     0.027 C 
BRANCH   9  10
ATOM     10  C   UNL     1      -4.338  -9.420  28.959  1.00  0.00    -0.035 C 
ATOM     11  C   UNL     1      -4.436  -8.528  27.968  1.00  0.00     0.004 C 
ENDBRANCH   9  10
ENDBRANCH   8   9
ENDBRANCH   7   8
ENDBRANCH   1   7
TORSDOF 7
ENDMDL
MODEL 8
REMARK VINA RESULT:    -2.962      3.228      4.613
REMARK INTER + INTRA:          -4.784
REMARK INTER:                  -3.912
REMARK INTRA:                  -0.872
REMARK UNBOUND:                -0.609
REMARK SMILES C=CCCCCCCC(=O)[O-]
REMARK SMILES IDX 6 1 7 2 8 3 9 4 10 5 11 6 5 7 4 8 3 9 2 10 1 11
REMARK H PARENT
REMARK Flexibility Score: inf
ROOT
ATOM      1  C   UNL     1      -1.238  -5.898  31.932  1.00  0.00     0.000 C 
ENDROOT
BRANCH   1   2
ATOM      2  C   UNL     1      -2.015  -5.342  33.132  1.00  0.00     0.006 C 
BRANCH   2   3
ATOM      3  C   UNL     1      -2.581  -3.952  32.823  1.00  0.00     0.053 C 
BRANCH   3   4
ATOM      4  C   UNL     1      -4.073  -3.956  32.943  1.00  0.00     0.041 C 
ATOM      5  O   UNL     1      -4.749  -4.871  32.404  1.00  0.00    -0.550 OA
ATOM      6  O   UNL     1      -4.719  -2.923  33.608  1.00  0.00    -0.550 OA
ENDBRANCH   3   4
ENDBRANCH   2   3
ENDBRANCH   1   2
BRANCH   1   7
ATOM      7  C   UNL     1      -2.089  -6.899  31.143  1.00  0.00     0.000 C 
BRANCH   7   8
ATOM      8  C   UNL     1      -2.630  -6.267  29.855  1.00  0.00     0.004 C 
BRANCH   8   9
ATOM      9  C   UNL     1      -1.595  -5.324  29.230  1.00  0.00     0.027 C 
BRANCH   9  10
ATOM     10  C   UNL     1      -2.179  -3.959  28.987  1.00  0.00    -0.035 C 
ATOM     11  C   UNL     1      -3.470  -3.695  29.213  1.00  0.00     0.004 C 
ENDBRANCH   9  10
ENDBRANCH   8   9
ENDBRANCH   7   8
ENDBRANCH   1   7
TORSDOF 7
ENDMDL
MODEL 9
REMARK VINA RESULT:    -2.886      3.239      4.797
REMARK INTER + INTRA:          -4.677
REMARK INTER:                  -3.913
REMARK INTRA:                  -0.764
REMARK UNBOUND:                -0.609
REMARK SMILES C=CCCCCCCC(=O)[O-]
REMARK SMILES IDX 6 1 7 2 8 3 9 4 10 5 11 6 5 7 4 8 3 9 2 10 1 11
REMARK H PARENT
REMARK Flexibility Score: inf
ROOT
ATOM      1  C   UNL     1      -2.382  -3.933  30.053  1.00  0.00     0.000 C 
ENDROOT
BRANCH   1   2
ATOM      2  C   UNL     1      -3.803  -3.527  30.462  1.00  0.00     0.006 C 
BRANCH   2   3
ATOM      3  C   UNL     1      -4.179  -4.136  31.817  1.00  0.00     0.053 C 
BRANCH   3   4
ATOM      4  C   UNL     1      -3.171  -3.761  32.858  1.00  0.00     0.041 C 
ATOM      5  O   UNL     1      -2.501  -4.653  33.440  1.00  0.00    -0.550 OA
ATOM      6  O   UNL     1      -3.008  -2.431  33.221  1.00  0.00    -0.550 OA
ENDBRANCH   3   4
ENDBRANCH   2   3
ENDBRANCH   1   2
BRANCH   1   7
ATOM      7  C   UNL     1      -2.335  -5.400  29.610  1.00  0.00     0.000 C 
BRANCH   7   8
ATOM      8  C   UNL     1      -1.345  -6.202  30.464  1.00  0.00     0.004 C 
BRANCH   8   9
ATOM      9  C   UNL     1      -2.064  -7.313  31.238  1.00  0.00     0.027 C 
BRANCH   9  10
ATOM     10  C   UNL     1      -3.438  -7.565  30.680  1.00  0.00    -0.035 C 
ATOM     11  C   UNL     1      -3.896  -8.803  30.468  1.00  0.00     0.004 C 
ENDBRANCH   9  10
ENDBRANCH   8   9
ENDBRANCH   7   8
ENDBRANCH   1   7
TORSDOF 7
ENDMDL
