MODEL 1
REMARK VINA RESULT:    -6.255      0.000      0.000
REMARK INTER + INTRA:         -13.712
REMARK INTER:                 -11.739
REMARK INTRA:                  -1.972
REMARK UNBOUND:                -1.972
REMARK SMILES CCCCCCCCC=CCCCCCCCC(=O)[O-]
REMARK SMILES IDX 10 1 9 2 11 3 12 4 13 5 14 6 15 7 16 8 17 9 18 10 19 11
REMARK SMILES IDX 20 12 8 13 7 14 6 15 5 16 4 17 3 18 2 19 1 20
REMARK H PARENT
REMARK Flexibility Score: inf
ROOT
ATOM      1  C   UNL     1      22.170  11.351  -4.905  1.00  0.00    -0.031 C 
ATOM      2  C   UNL     1      22.160  11.060  -3.591  1.00  0.00    -0.031 C 
ENDROOT
BRANCH   1   3
ATOM      3  C   UNL     1      23.270  12.109  -5.604  1.00  0.00     0.027 C 
BRANCH   3   4
ATOM      4  C   UNL     1      24.219  11.143  -6.328  1.00  0.00     0.004 C 
BRANCH   4   5
ATOM      5  C   UNL     1      25.387  10.680  -5.439  1.00  0.00     0.000 C 
BRANCH   5   6
ATOM      6  C   UNL     1      26.747  11.328  -5.766  1.00  0.00     0.000 C 
BRANCH   6   7
ATOM      7  C   UNL     1      27.564  11.790  -4.542  1.00  0.00     0.000 C 
BRANCH   7   8
ATOM      8  C   UNL     1      26.785  11.820  -3.216  1.00  0.00     0.006 C 
BRANCH   8   9
ATOM      9  C   UNL     1      27.663  12.203  -2.018  1.00  0.00     0.053 C 
BRANCH   9  10
ATOM     10  C   UNL     1      26.847  12.243  -0.765  1.00  0.00     0.041 C 
ATOM     11  O   UNL     1      25.922  13.088  -0.637  1.00  0.00    -0.550 OA
ATOM     12  O   UNL     1      27.074  11.313   0.243  1.00  0.00    -0.550 OA
ENDBRANCH   9  10
ENDBRANCH   8   9
ENDBRANCH   7   8
ENDBRANCH   6   7
ENDBRANCH   5   6
ENDBRANCH   4   5
ENDBRANCH   3   4
ENDBRANCH   1   3
BRANCH   2  13
ATOM     13  C   UNL     1      23.204  11.520  -2.605  1.00  0.00     0.027 C 
BRANCH  13  14
ATOM     14  C   UNL     1      23.763  10.332  -1.814  1.00  0.00     0.004 C 
BRANCH  14  15
ATOM     15  C   UNL     1      23.487  10.496  -0.312  1.00  0.00     0.000 C 
BRANCH  15  16
ATOM     16  C   UNL     1      23.595   9.171   0.459  1.00  0.00     0.000 C 
BRANCH  16  17
ATOM     17  C   UNL     1      23.257   7.951  -0.411  1.00  0.00    -0.000 C 
BRANCH  17  18
ATOM     18  C   UNL     1      24.378   6.906  -0.353  1.00  0.00    -0.000 C 
BRANCH  18  19
ATOM     19  C   UNL     1      25.330   7.185   0.816  1.00  0.00    -0.003 C 
ATOM     20  C   UNL     1      26.777   7.276   0.340  1.00  0.00     0.004 C 
ENDBRANCH  18  19
ENDBRANCH  17  18
ENDBRANCH  16  17
ENDBRANCH  15  16
ENDBRANCH  14  15
ENDBRANCH  13  14
ENDBRANCH   2  13
TORSDOF 15
ENDMDL
MODEL 2
REMARK VINA RESULT:    -6.138      1.555      2.705
REMARK INTER + INTRA:         -13.493
REMARK INTER:                 -11.751
REMARK INTRA:                  -1.742
REMARK UNBOUND:                -1.972
REMARK SMILES CCCCCCCCC=CCCCCCCCC(=O)[O-]
REMARK SMILES IDX 10 1 9 2 11 3 12 4 13 5 14 6 15 7 16 8 17 9 18 10 19 11
REMARK SMILES IDX 20 12 8 13 7 14 6 15 5 16 4 17 3 18 2 19 1 20
REMARK H PARENT
REMARK Flexibility Score: inf
ROOT
ATOM      1  C   UNL     1      22.984  12.118  -2.054  1.00  0.00    -0.031 C 
ATOM      2  C   UNL     1      23.385  11.910  -0.786  1.00  0.00    -0.031 C 
ENDROOT
BRANCH   1   3
ATOM      3  C   UNL     1      22.918  11.050  -3.116  1.00  0.00     0.027 C 
BRANCH   3   4
ATOM      4  C   UNL     1      22.751  11.676  -4.507  1.00  0.00     0.004 C 
BRANCH   4   5
ATOM      5  C   UNL     1      23.971  11.441  -5.415  1.00  0.00     0.000 C 
BRANCH   5   6
ATOM      6  C   UNL     1      25.178  10.778  -4.720  1.00  0.00     0.000 C 
BRANCH   6   7
ATOM      7  C   UNL     1      26.522  10.921  -5.463  1.00  0.00     0.000 C 
BRANCH   7   8
ATOM      8  C   UNL     1      27.580  11.765  -4.733  1.00  0.00     0.006 C 
BRANCH   8   9
ATOM      9  C   UNL     1      27.254  11.977  -3.249  1.00  0.00     0.053 C 
BRANCH   9  10
ATOM     10  C   UNL     1      28.505  12.224  -2.470  1.00  0.00     0.041 C 
ATOM     11  O   UNL     1      28.529  12.020  -1.226  1.00  0.00    -0.550 OA
ATOM     12  O   UNL     1      29.662  12.633  -3.122  1.00  0.00    -0.550 OA
ENDBRANCH   9  10
ENDBRANCH   8   9
ENDBRANCH   7   8
ENDBRANCH   6   7
ENDBRANCH   5   6
ENDBRANCH   4   5
ENDBRANCH   3   4
ENDBRANCH   1   3
BRANCH   2  13
ATOM     13  C   UNL     1      23.908  10.597  -0.259  1.00  0.00     0.027 C 
BRANCH  13  14
ATOM     14  C   UNL     1      25.439  10.561  -0.315  1.00  0.00     0.004 C 
BRANCH  14  15
ATOM     15  C   UNL     1      25.966   9.157   0.020  1.00  0.00     0.000 C 
BRANCH  15  16
ATOM     16  C   UNL     1      24.897   8.262   0.666  1.00  0.00     0.000 C 
BRANCH  16  17
ATOM     17  C   UNL     1      25.108   6.772   0.359  1.00  0.00    -0.000 C 
BRANCH  17  18
ATOM     18  C   UNL     1      24.134   6.290  -0.722  1.00  0.00    -0.000 C 
BRANCH  18  19
ATOM     19  C   UNL     1      22.962   7.266  -0.882  1.00  0.00    -0.003 C 
ATOM     20  C   UNL     1      21.682   6.532  -1.273  1.00  0.00     0.004 C 
ENDBRANCH  18  19
ENDBRANCH  17  18
ENDBRANCH  16  17
ENDBRANCH  15  16
ENDBRANCH  14  15
ENDBRANCH  13  14
ENDBRANCH   2  13
TORSDOF 15
ENDMDL
MODEL 3
REMARK VINA RESULT:    -5.905      2.615      5.789
REMARK INTER + INTRA:         -13.055
REMARK INTER:                 -11.089
REMARK INTRA:                  -1.966
REMARK UNBOUND:                -1.972
REMARK SMILES CCCCCCCCC=CCCCCCCCC(=O)[O-]
REMARK SMILES IDX 10 1 9 2 11 3 12 4 13 5 14 6 15 7 16 8 17 9 18 10 19 11
REMARK SMILES IDX 20 12 8 13 7 14 6 15 5 16 4 17 3 18 2 19 1 20
REMARK H PARENT
REMARK Flexibility Score: inf
ROOT
ATOM      1  C   UNL     1      22.204  10.902  -3.440  1.00  0.00    -0.031 C 
ATOM      2  C   UNL     1      21.841  11.362  -4.652  1.00  0.00    -0.031 C 
ENDROOT
BRANCH   1   3
ATOM      3  C   UNL     1      23.565  11.102  -2.823  1.00  0.00     0.027 C 
BRANCH   3   4
ATOM      4  C   UNL     1      23.476  12.026  -1.600  1.00  0.00     0.004 C 
BRANCH   4   5
ATOM      5  C   UNL     1      24.423  11.600  -0.464  1.00  0.00     0.000 C 
BRANCH   5   6
ATOM      6  C   UNL     1      25.162  10.267  -0.701  1.00  0.00     0.000 C 
BRANCH   6   7
ATOM      7  C   UNL     1      24.999   9.220   0.420  1.00  0.00     0.000 C 
BRANCH   7   8
ATOM      8  C   UNL     1      24.395   7.878  -0.029  1.00  0.00     0.006 C 
BRANCH   8   9
ATOM      9  C   UNL     1      23.104   8.047  -0.840  1.00  0.00     0.053 C 
BRANCH   9  10
ATOM     10  C   UNL     1      22.509   6.713  -1.158  1.00  0.00     0.041 C 
ATOM     11  O   UNL     1      23.253   5.746  -1.474  1.00  0.00    -0.550 OA
ATOM     12  O   UNL     1      21.137   6.520  -1.057  1.00  0.00    -0.550 OA
ENDBRANCH   9  10
ENDBRANCH   8   9
ENDBRANCH   7   8
ENDBRANCH   6   7
ENDBRANCH   5   6
ENDBRANCH   4   5
ENDBRANCH   3   4
ENDBRANCH   1   3
BRANCH   2  13
ATOM     13  C   UNL     1      22.765  12.071  -5.610  1.00  0.00     0.027 C 
BRANCH  13  14
ATOM     14  C   UNL     1      23.572  11.060  -6.433  1.00  0.00     0.004 C 
BRANCH  14  15
ATOM     15  C   UNL     1      25.062  11.437  -6.454  1.00  0.00     0.000 C 
BRANCH  15  16
ATOM     16  C   UNL     1      25.984  10.210  -6.367  1.00  0.00     0.000 C 
BRANCH  16  17
ATOM     17  C   UNL     1      27.024  10.329  -5.244  1.00  0.00    -0.000 C 
BRANCH  17  18
ATOM     18  C   UNL     1      27.172  11.784  -4.784  1.00  0.00    -0.000 C 
BRANCH  18  19
ATOM     19  C   UNL     1      27.060  11.894  -3.259  1.00  0.00    -0.003 C 
ATOM     20  C   UNL     1      28.405  12.251  -2.631  1.00  0.00     0.004 C 
ENDBRANCH  18  19
ENDBRANCH  17  18
ENDBRANCH  16  17
ENDBRANCH  15  16
ENDBRANCH  14  15
ENDBRANCH  13  14
ENDBRANCH   2  13
TORSDOF 15
ENDMDL
MODEL 4
REMARK VINA RESULT:    -5.892      1.394      2.202
REMARK INTER + INTRA:         -13.030
REMARK INTER:                 -11.139
REMARK INTRA:                  -1.891
REMARK UNBOUND:                -1.972
REMARK SMILES CCCCCCCCC=CCCCCCCCC(=O)[O-]
REMARK SMILES IDX 10 1 9 2 11 3 12 4 13 5 14 6 15 7 16 8 17 9 18 10 19 11
REMARK SMILES IDX 20 12 8 13 7 14 6 15 5 16 4 17 3 18 2 19 1 20
REMARK H PARENT
REMARK Flexibility Score: inf
ROOT
ATOM      1  C   UNL     1      23.226  11.784  -3.909  1.00  0.00    -0.031 C 
ATOM      2  C   UNL     1      23.308  11.453  -2.607  1.00  0.00    -0.031 C 
ENDROOT
BRANCH   1   3
ATOM      3  C   UNL     1      23.786  10.955  -5.037  1.00  0.00     0.027 C 
BRANCH   3   4
ATOM      4  C   UNL     1      25.014  11.638  -5.656  1.00  0.00     0.004 C 
BRANCH   4   5
ATOM      5  C   UNL     1      26.341  11.020  -5.180  1.00  0.00     0.000 C 
BRANCH   5   6
ATOM      6  C   UNL     1      26.981  11.719  -3.964  1.00  0.00     0.000 C 
BRANCH   6   7
ATOM      7  C   UNL     1      28.473  12.075  -4.124  1.00  0.00     0.000 C 
BRANCH   7   8
ATOM      8  C   UNL     1      29.195  12.451  -2.818  1.00  0.00     0.006 C 
BRANCH   8   9
ATOM      9  C   UNL     1      28.231  12.665  -1.645  1.00  0.00     0.053 C 
BRANCH   9  10
ATOM     10  C   UNL     1      28.714  11.934  -0.433  1.00  0.00     0.041 C 
ATOM     11  O   UNL     1      29.816  11.324  -0.458  1.00  0.00    -0.550 OA
ATOM     12  O   UNL     1      27.972  11.967   0.742  1.00  0.00    -0.550 OA
ENDBRANCH   9  10
ENDBRANCH   8   9
ENDBRANCH   7   8
ENDBRANCH   6   7
ENDBRANCH   5   6
ENDBRANCH   4   5
ENDBRANCH   3   4
ENDBRANCH   1   3
BRANCH   2  13
ATOM     13  C   UNL     1      24.043  10.250  -2.074  1.00  0.00     0.027 C 
BRANCH  13  14
ATOM     14  C   UNL     1      25.170  10.678  -1.126  1.00  0.00     0.004 C 
BRANCH  14  15
ATOM     15  C   UNL     1      25.196   9.792   0.129  1.00  0.00     0.000 C 
BRANCH  15  16
ATOM     16  C   UNL     1      26.292   8.716   0.072  1.00  0.00     0.000 C 
BRANCH  16  17
ATOM     17  C   UNL     1      25.748   7.303   0.330  1.00  0.00    -0.000 C 
BRANCH  17  18
ATOM     18  C   UNL     1      24.245   7.230   0.036  1.00  0.00    -0.000 C 
BRANCH  18  19
ATOM     19  C   UNL     1      23.929   6.091  -0.939  1.00  0.00    -0.003 C 
ATOM     20  C   UNL     1      22.485   6.167  -1.428  1.00  0.00     0.004 C 
ENDBRANCH  18  19
ENDBRANCH  17  18
ENDBRANCH  16  17
ENDBRANCH  15  16
ENDBRANCH  14  15
ENDBRANCH  13  14
ENDBRANCH   2  13
TORSDOF 15
ENDMDL
MODEL 5
REMARK VINA RESULT:    -5.821      2.610      4.428
REMARK INTER + INTRA:         -12.897
REMARK INTER:                 -11.101
REMARK INTRA:                  -1.796
REMARK UNBOUND:                -1.972
REMARK SMILES CCCCCCCCC=CCCCCCCCC(=O)[O-]
REMARK SMILES IDX 10 1 9 2 11 3 12 4 13 5 14 6 15 7 16 8 17 9 18 10 19 11
REMARK SMILES IDX 20 12 8 13 7 14 6 15 5 16 4 17 3 18 2 19 1 20
REMARK H PARENT
REMARK Flexibility Score: inf
ROOT
ATOM      1  C   UNL     1      26.699  11.706  -3.401  1.00  0.00    -0.031 C 
ATOM      2  C   UNL     1      27.315  11.909  -2.221  1.00  0.00    -0.031 C 
ENDROOT
BRANCH   1   3
ATOM      3  C   UNL     1      25.206  11.750  -3.603  1.00  0.00     0.027 C 
BRANCH   3   4
ATOM      4  C   UNL     1      24.559  10.428  -3.164  1.00  0.00     0.004 C 
BRANCH   4   5
ATOM      5  C   UNL     1      23.097  10.601  -2.716  1.00  0.00     0.000 C 
BRANCH   5   6
ATOM      6  C   UNL     1      22.720  12.029  -2.272  1.00  0.00     0.000 C 
BRANCH   6   7
ATOM      7  C   UNL     1      23.078  12.376  -0.813  1.00  0.00     0.000 C 
BRANCH   7   8
ATOM      8  C   UNL     1      22.432  13.664  -0.275  1.00  0.00     0.006 C 
BRANCH   8   9
ATOM      9  C   UNL     1      23.461  14.676   0.244  1.00  0.00     0.053 C 
BRANCH   9  10
ATOM     10  C   UNL     1      22.851  15.549   1.294  1.00  0.00     0.041 C 
ATOM     11  O   UNL     1      21.806  15.182   1.895  1.00  0.00    -0.550 OA
ATOM     12  O   UNL     1      23.463  16.745   1.647  1.00  0.00    -0.550 OA
ENDBRANCH   9  10
ENDBRANCH   8   9
ENDBRANCH   7   8
ENDBRANCH   6   7
ENDBRANCH   5   6
ENDBRANCH   4   5
ENDBRANCH   3   4
ENDBRANCH   1   3
BRANCH   2  13
ATOM     13  C   UNL     1      26.602  12.126  -0.910  1.00  0.00     0.027 C 
BRANCH  13  14
ATOM     14  C   UNL     1      26.850  10.950   0.043  1.00  0.00     0.004 C 
BRANCH  14  15
ATOM     15  C   UNL     1      25.827   9.829  -0.194  1.00  0.00     0.000 C 
BRANCH  15  16
ATOM     16  C   UNL     1      26.333   8.456   0.277  1.00  0.00     0.000 C 
BRANCH  16  17
ATOM     17  C   UNL     1      25.193   7.458   0.525  1.00  0.00    -0.000 C 
BRANCH  17  18
ATOM     18  C   UNL     1      23.949   7.830  -0.291  1.00  0.00    -0.000 C 
BRANCH  18  19
ATOM     19  C   UNL     1      23.364   6.600  -0.995  1.00  0.00    -0.003 C 
ATOM     20  C   UNL     1      21.847   6.711  -1.129  1.00  0.00     0.004 C 
ENDBRANCH  18  19
ENDBRANCH  17  18
ENDBRANCH  16  17
ENDBRANCH  15  16
ENDBRANCH  14  15
ENDBRANCH  13  14
ENDBRANCH   2  13
TORSDOF 15
ENDMDL
MODEL 6
REMARK VINA RESULT:    -5.791      2.617      5.893
REMARK INTER + INTRA:         -12.841
REMARK INTER:                 -10.643
REMARK INTRA:                  -2.198
REMARK UNBOUND:                -1.972
REMARK SMILES CCCCCCCCC=CCCCCCCCC(=O)[O-]
REMARK SMILES IDX 10 1 9 2 11 3 12 4 13 5 14 6 15 7 16 8 17 9 18 10 19 11
REMARK SMILES IDX 20 12 8 13 7 14 6 15 5 16 4 17 3 18 2 19 1 20
REMARK H PARENT
REMARK Flexibility Score: inf
ROOT
ATOM      1  C   UNL     1      23.831  12.547  -0.723  1.00  0.00    -0.031 C 
ATOM      2  C   UNL     1      22.949  11.909  -1.514  1.00  0.00    -0.031 C 
ENDROOT
BRANCH   1   3
ATOM      3  C   UNL     1      25.250  12.874  -1.114  1.00  0.00     0.027 C 
BRANCH   3   4
ATOM      4  C   UNL     1      26.242  11.983  -0.353  1.00  0.00     0.004 C 
BRANCH   4   5
ATOM      5  C   UNL     1      26.166  10.507  -0.783  1.00  0.00     0.000 C 
BRANCH   5   6
ATOM      6  C   UNL     1      26.193   9.492   0.377  1.00  0.00     0.000 C 
BRANCH   6   7
ATOM      7  C   UNL     1      24.920   8.634   0.527  1.00  0.00     0.000 C 
BRANCH   7   8
ATOM      8  C   UNL     1      24.163   8.362  -0.785  1.00  0.00     0.006 C 
BRANCH   8   9
ATOM      9  C   UNL     1      22.670   8.092  -0.565  1.00  0.00     0.053 C 
BRANCH   9  10
ATOM     10  C   UNL     1      22.283   6.780  -1.170  1.00  0.00     0.041 C 
ATOM     11  O   UNL     1      21.088   6.565  -1.508  1.00  0.00    -0.550 OA
ATOM     12  O   UNL     1      23.250   5.811  -1.409  1.00  0.00    -0.550 OA
ENDBRANCH   9  10
ENDBRANCH   8   9
ENDBRANCH   7   8
ENDBRANCH   6   7
ENDBRANCH   5   6
ENDBRANCH   4   5
ENDBRANCH   3   4
ENDBRANCH   1   3
BRANCH   2  13
ATOM     13  C   UNL     1      23.271  11.351  -2.878  1.00  0.00     0.027 C 
BRANCH  13  14
ATOM     14  C   UNL     1      21.986  11.029  -3.649  1.00  0.00     0.004 C 
BRANCH  14  15
ATOM     15  C   UNL     1      22.097  11.484  -5.113  1.00  0.00     0.000 C 
BRANCH  15  16
ATOM     16  C   UNL     1      23.497  12.013  -5.463  1.00  0.00     0.000 C 
BRANCH  16  17
ATOM     17  C   UNL     1      24.342  10.987  -6.232  1.00  0.00    -0.000 C 
BRANCH  17  18
ATOM     18  C   UNL     1      25.839  11.217  -5.992  1.00  0.00    -0.000 C 
BRANCH  18  19
ATOM     19  C   UNL     1      26.146  11.323  -4.494  1.00  0.00    -0.003 C 
ATOM     20  C   UNL     1      27.556  11.858  -4.256  1.00  0.00     0.004 C 
ENDBRANCH  18  19
ENDBRANCH  17  18
ENDBRANCH  16  17
ENDBRANCH  15  16
ENDBRANCH  14  15
ENDBRANCH  13  14
ENDBRANCH   2  13
TORSDOF 15
ENDMDL
MODEL 7
REMARK VINA RESULT:    -5.747      1.298      5.507
REMARK INTER + INTRA:         -12.758
REMARK INTER:                 -10.971
REMARK INTRA:                  -1.787
REMARK UNBOUND:                -1.972
REMARK SMILES CCCCCCCCC=CCCCCCCCC(=O)[O-]
REMARK SMILES IDX 10 1 9 2 11 3 12 4 13 5 14 6 15 7 16 8 17 9 18 10 19 11
REMARK SMILES IDX 20 12 8 13 7 14 6 15 5 16 4 17 3 18 2 19 1 20
REMARK H PARENT
REMARK Flexibility Score: inf
ROOT
ATOM      1  C   UNL     1      22.296  11.475  -2.996  1.00  0.00    -0.031 C 
ATOM      2  C   UNL     1      22.680  11.401  -4.284  1.00  0.00    -0.031 C 
ENDROOT
BRANCH   1   3
ATOM      3  C   UNL     1      23.172  11.963  -1.871  1.00  0.00     0.027 C 
BRANCH   3   4
ATOM      4  C   UNL     1      23.669  10.786  -1.019  1.00  0.00     0.004 C 
BRANCH   4   5
ATOM      5  C   UNL     1      23.213   9.422  -1.568  1.00  0.00     0.000 C 
BRANCH   5   6
ATOM      6  C   UNL     1      22.922   8.355  -0.493  1.00  0.00     0.000 C 
BRANCH   6   7
ATOM      7  C   UNL     1      23.245   6.905  -0.905  1.00  0.00     0.000 C 
BRANCH   7   8
ATOM      8  C   UNL     1      24.633   6.401  -0.475  1.00  0.00     0.006 C 
BRANCH   8   9
ATOM      9  C   UNL     1      25.187   7.149   0.744  1.00  0.00     0.053 C 
BRANCH   9  10
ATOM     10  C   UNL     1      26.458   7.853   0.391  1.00  0.00     0.041 C 
ATOM     11  O   UNL     1      27.542   7.213   0.332  1.00  0.00    -0.550 OA
ATOM     12  O   UNL     1      26.441   9.207   0.077  1.00  0.00    -0.550 OA
ENDBRANCH   9  10
ENDBRANCH   8   9
ENDBRANCH   7   8
ENDBRANCH   6   7
ENDBRANCH   5   6
ENDBRANCH   4   5
ENDBRANCH   3   4
ENDBRANCH   1   3
BRANCH   2  13
ATOM     13  C   UNL     1      24.068  11.715  -4.782  1.00  0.00     0.027 C 
BRANCH  13  14
ATOM     14  C   UNL     1      24.274  11.163  -6.198  1.00  0.00     0.004 C 
BRANCH  14  15
ATOM     15  C   UNL     1      25.756  10.844  -6.451  1.00  0.00     0.000 C 
BRANCH  15  16
ATOM     16  C   UNL     1      26.567  10.728  -5.151  1.00  0.00     0.000 C 
BRANCH  16  17
ATOM     17  C   UNL     1      27.793  11.654  -5.133  1.00  0.00    -0.000 C 
BRANCH  17  18
ATOM     18  C   UNL     1      28.056  12.190  -3.721  1.00  0.00    -0.000 C 
BRANCH  18  19
ATOM     19  C   UNL     1      26.928  11.794  -2.762  1.00  0.00    -0.003 C 
ATOM     20  C   UNL     1      27.151  12.384  -1.373  1.00  0.00     0.004 C 
ENDBRANCH  18  19
ENDBRANCH  17  18
ENDBRANCH  16  17
ENDBRANCH  15  16
ENDBRANCH  14  15
ENDBRANCH  13  14
ENDBRANCH   2  13
TORSDOF 15
ENDMDL
MODEL 8
REMARK VINA RESULT:    -5.723      1.505      6.049
REMARK INTER + INTRA:         -12.714
REMARK INTER:                 -10.868
REMARK INTRA:                  -1.845
REMARK UNBOUND:                -1.972
REMARK SMILES CCCCCCCCC=CCCCCCCCC(=O)[O-]
REMARK SMILES IDX 10 1 9 2 11 3 12 4 13 5 14 6 15 7 16 8 17 9 18 10 19 11
REMARK SMILES IDX 20 12 8 13 7 14 6 15 5 16 4 17 3 18 2 19 1 20
REMARK H PARENT
REMARK Flexibility Score: inf
ROOT
ATOM      1  C   UNL     1      26.904  12.809  -0.778  1.00  0.00    -0.031 C 
ATOM      2  C   UNL     1      27.417  12.143  -1.830  1.00  0.00    -0.031 C 
ENDROOT
BRANCH   1   3
ATOM      3  C   UNL     1      25.464  13.239  -0.660  1.00  0.00     0.027 C 
BRANCH   3   4
ATOM      4  C   UNL     1      24.610  12.115  -0.054  1.00  0.00     0.004 C 
BRANCH   4   5
ATOM      5  C   UNL     1      23.403  11.745  -0.935  1.00  0.00     0.000 C 
BRANCH   5   6
ATOM      6  C   UNL     1      23.686  10.671  -2.004  1.00  0.00     0.000 C 
BRANCH   6   7
ATOM      7  C   UNL     1      22.967   9.325  -1.786  1.00  0.00     0.000 C 
BRANCH   7   8
ATOM      8  C   UNL     1      23.159   8.705  -0.392  1.00  0.00     0.006 C 
BRANCH   8   9
ATOM      9  C   UNL     1      24.034   7.445  -0.415  1.00  0.00     0.053 C 
BRANCH   9  10
ATOM     10  C   UNL     1      25.348   7.711   0.248  1.00  0.00     0.041 C 
ATOM     11  O   UNL     1      25.850   6.856   1.026  1.00  0.00    -0.550 OA
ATOM     12  O   UNL     1      26.045   8.880  -0.032  1.00  0.00    -0.550 OA
ENDBRANCH   9  10
ENDBRANCH   8   9
ENDBRANCH   7   8
ENDBRANCH   6   7
ENDBRANCH   5   6
ENDBRANCH   4   5
ENDBRANCH   3   4
ENDBRANCH   1   3
BRANCH   2  13
ATOM     13  C   UNL     1      26.650  11.802  -3.083  1.00  0.00     0.027 C 
BRANCH  13  14
ATOM     14  C   UNL     1      27.573  11.824  -4.307  1.00  0.00     0.004 C 
BRANCH  14  15
ATOM     15  C   UNL     1      26.786  11.526  -5.592  1.00  0.00     0.000 C 
BRANCH  15  16
ATOM     16  C   UNL     1      25.272  11.423  -5.348  1.00  0.00     0.000 C 
BRANCH  16  17
ATOM     17  C   UNL     1      24.546  10.642  -6.454  1.00  0.00    -0.000 C 
BRANCH  17  18
ATOM     18  C   UNL     1      23.125  11.178  -6.662  1.00  0.00    -0.000 C 
BRANCH  18  19
ATOM     19  C   UNL     1      22.609  11.878  -5.399  1.00  0.00    -0.003 C 
ATOM     20  C   UNL     1      21.354  11.194  -4.863  1.00  0.00     0.004 C 
ENDBRANCH  18  19
ENDBRANCH  17  18
ENDBRANCH  16  17
ENDBRANCH  15  16
ENDBRANCH  14  15
ENDBRANCH  13  14
ENDBRANCH   2  13
TORSDOF 15
ENDMDL
MODEL 9
REMARK VINA RESULT:    -5.689      2.571      5.673
REMARK INTER + INTRA:         -12.650
REMARK INTER:                 -10.852
REMARK INTRA:                  -1.797
REMARK UNBOUND:                -1.972
REMARK SMILES CCCCCCCCC=CCCCCCCCC(=O)[O-]
REMARK SMILES IDX 10 1 9 2 11 3 12 4 13 5 14 6 15 7 16 8 17 9 18 10 19 11
REMARK SMILES IDX 20 12 8 13 7 14 6 15 5 16 4 17 3 18 2 19 1 20
REMARK H PARENT
REMARK Flexibility Score: inf
ROOT
ATOM      1  C   UNL     1      22.661  11.433  -3.275  1.00  0.00    -0.031 C 
ATOM      2  C   UNL     1      22.884  11.361  -4.601  1.00  0.00    -0.031 C 
ENDROOT
BRANCH   1   3
ATOM      3  C   UNL     1      23.601  12.070  -2.284  1.00  0.00     0.027 C 
BRANCH   3   4
ATOM      4  C   UNL     1      23.119  11.828  -0.846  1.00  0.00     0.004 C 
BRANCH   4   5
ATOM      5  C   UNL     1      24.129  11.026  -0.007  1.00  0.00     0.000 C 
BRANCH   5   6
ATOM      6  C   UNL     1      24.995  10.034  -0.810  1.00  0.00     0.000 C 
BRANCH   6   7
ATOM      7  C   UNL     1      25.532   8.834  -0.004  1.00  0.00     0.000 C 
BRANCH   7   8
ATOM      8  C   UNL     1      24.566   7.642   0.108  1.00  0.00     0.006 C 
BRANCH   8   9
ATOM      9  C   UNL     1      23.248   7.871  -0.641  1.00  0.00     0.053 C 
BRANCH   9  10
ATOM     10  C   UNL     1      22.725   6.580  -1.184  1.00  0.00     0.041 C 
ATOM     11  O   UNL     1      23.459   5.555  -1.200  1.00  0.00    -0.550 OA
ATOM     12  O   UNL     1      21.411   6.492  -1.628  1.00  0.00    -0.550 OA
ENDBRANCH   9  10
ENDBRANCH   8   9
ENDBRANCH   7   8
ENDBRANCH   6   7
ENDBRANCH   5   6
ENDBRANCH   4   5
ENDBRANCH   3   4
ENDBRANCH   1   3
BRANCH   2  13
ATOM     13  C   UNL     1      24.145  11.831  -5.282  1.00  0.00     0.027 C 
BRANCH  13  14
ATOM     14  C   UNL     1      25.263  10.793  -5.132  1.00  0.00     0.004 C 
BRANCH  14  15
ATOM     15  C   UNL     1      26.626  11.478  -4.955  1.00  0.00     0.000 C 
BRANCH  15  16
ATOM     16  C   UNL     1      26.949  11.785  -3.484  1.00  0.00     0.000 C 
BRANCH  16  17
ATOM     17  C   UNL     1      28.428  12.135  -3.263  1.00  0.00    -0.000 C 
BRANCH  17  18
ATOM     18  C   UNL     1      28.625  12.872  -1.933  1.00  0.00    -0.000 C 
BRANCH  18  19
ATOM     19  C   UNL     1      27.432  12.647  -0.997  1.00  0.00    -0.003 C 
ATOM     20  C   UNL     1      27.879  12.039   0.330  1.00  0.00     0.004 C 
ENDBRANCH  18  19
ENDBRANCH  17  18
ENDBRANCH  16  17
ENDBRANCH  15  16
ENDBRANCH  14  15
ENDBRANCH  13  14
ENDBRANCH   2  13
TORSDOF 15
ENDMDL
