MODEL 1
REMARK VINA RESULT:    -2.486      0.000      0.000
REMARK INTER + INTRA:          -3.503
REMARK INTER:                  -3.212
REMARK INTRA:                  -0.291
REMARK UNBOUND:                -0.291
REMARK SMILES C=CC(=O)CCCCC
REMARK SMILES IDX 6 1 7 2 8 3 9 4 5 5 3 6 4 7 2 8 1 9
REMARK H PARENT
REMARK Flexibility Score: inf
ROOT
ATOM      1  C   UNL     1      79.745   2.197  64.514  1.00  0.00     0.008 C 
ENDROOT
BRANCH   1   2
ATOM      2  C   UNL     1      79.676   3.151  63.303  1.00  0.00     0.000 C 
BRANCH   2   3
ATOM      3  C   UNL     1      79.724   4.639  63.690  1.00  0.00    -0.003 C 
ATOM      4  C   UNL     1      78.341   5.283  63.763  1.00  0.00     0.004 C 
ENDBRANCH   2   3
ENDBRANCH   1   2
BRANCH   1   5
ATOM      5  C   UNL     1      80.286   2.891  65.772  1.00  0.00     0.080 C 
BRANCH   5   6
ATOM      6  C   UNL     1      79.269   2.854  66.873  1.00  0.00     0.155 C 
ATOM      7  O   UNL     1      78.044   2.929  66.586  1.00  0.00    -0.295 OA
BRANCH   6   8
ATOM      8  C   UNL     1      79.705   2.685  68.273  1.00  0.00     0.039 C 
ATOM      9  C   UNL     1      80.928   3.016  68.685  1.00  0.00     0.012 C 
ENDBRANCH   6   8
ENDBRANCH   5   6
ENDBRANCH   1   5
TORSDOF 5
ENDMDL
MODEL 2
REMARK VINA RESULT:    -2.459      6.664      8.159
REMARK INTER + INTRA:          -3.469
REMARK INTER:                  -2.926
REMARK INTRA:                  -0.543
REMARK UNBOUND:                -0.291
REMARK SMILES C=CC(=O)CCCCC
REMARK SMILES IDX 6 1 7 2 8 3 9 4 5 5 3 6 4 7 2 8 1 9
REMARK H PARENT
REMARK Flexibility Score: inf
ROOT
ATOM      1  C   UNL     1      82.944   3.948  58.306  1.00  0.00     0.008 C 
ENDROOT
BRANCH   1   2
ATOM      2  C   UNL     1      83.122   4.381  56.836  1.00  0.00     0.000 C 
BRANCH   2   3
ATOM      3  C   UNL     1      81.959   5.234  56.301  1.00  0.00    -0.003 C 
ATOM      4  C   UNL     1      82.359   6.679  56.016  1.00  0.00     0.004 C 
ENDBRANCH   2   3
ENDBRANCH   1   2
BRANCH   1   5
ATOM      5  C   UNL     1      81.684   4.551  58.942  1.00  0.00     0.080 C 
BRANCH   5   6
ATOM      6  C   UNL     1      82.037   5.333  60.172  1.00  0.00     0.155 C 
ATOM      7  O   UNL     1      81.423   5.102  61.249  1.00  0.00    -0.295 OA
BRANCH   6   8
ATOM      8  C   UNL     1      83.125   6.330  60.125  1.00  0.00     0.039 C 
ATOM      9  C   UNL     1      82.978   7.520  59.545  1.00  0.00     0.012 C 
ENDBRANCH   6   8
ENDBRANCH   5   6
ENDBRANCH   1   5
TORSDOF 5
ENDMDL
MODEL 3
REMARK VINA RESULT:    -2.426     18.088     19.468
REMARK INTER + INTRA:          -3.426
REMARK INTER:                  -3.099
REMARK INTRA:                  -0.328
REMARK UNBOUND:                -0.291
REMARK SMILES C=CC(=O)CCCCC
REMARK SMILES IDX 6 1 7 2 8 3 9 4 5 5 3 6 4 7 2 8 1 9
REMARK H PARENT
REMARK Flexibility Score: inf
ROOT
ATOM      1  C   UNL     1      65.116   4.988  52.170  1.00  0.00     0.008 C 
ENDROOT
BRANCH   1   2
ATOM      2  C   UNL     1      64.346   5.046  50.834  1.00  0.00     0.000 C 
BRANCH   2   3
ATOM      3  C   UNL     1      65.190   4.621  49.620  1.00  0.00    -0.003 C 
ATOM      4  C   UNL     1      66.655   4.370  49.967  1.00  0.00     0.004 C 
ENDBRANCH   2   3
ENDBRANCH   1   2
BRANCH   1   5
ATOM      5  C   UNL     1      65.229   6.366  52.836  1.00  0.00     0.080 C 
BRANCH   5   6
ATOM      6  C   UNL     1      66.603   6.566  53.403  1.00  0.00     0.155 C 
ATOM      7  O   UNL     1      66.816   6.300  54.617  1.00  0.00    -0.295 OA
BRANCH   6   8
ATOM      8  C   UNL     1      67.700   7.027  52.531  1.00  0.00     0.039 C 
ATOM      9  C   UNL     1      68.130   8.288  52.529  1.00  0.00     0.012 C 
ENDBRANCH   6   8
ENDBRANCH   5   6
ENDBRANCH   1   5
TORSDOF 5
ENDMDL
MODEL 4
REMARK VINA RESULT:    -2.425      6.867      8.740
REMARK INTER + INTRA:          -3.424
REMARK INTER:                  -2.886
REMARK INTRA:                  -0.538
REMARK UNBOUND:                -0.291
REMARK SMILES C=CC(=O)CCCCC
REMARK SMILES IDX 6 1 7 2 8 3 9 4 5 5 3 6 4 7 2 8 1 9
REMARK H PARENT
REMARK Flexibility Score: inf
ROOT
ATOM      1  C   UNL     1      81.703   3.889  59.658  1.00  0.00     0.008 C 
ENDROOT
BRANCH   1   2
ATOM      2  C   UNL     1      81.653   5.166  60.522  1.00  0.00     0.000 C 
BRANCH   2   3
ATOM      3  C   UNL     1      82.840   6.115  60.286  1.00  0.00    -0.003 C 
ATOM      4  C   UNL     1      82.480   7.322  59.423  1.00  0.00     0.004 C 
ENDBRANCH   2   3
ENDBRANCH   1   2
BRANCH   1   5
ATOM      5  C   UNL     1      83.106   3.621  59.096  1.00  0.00     0.080 C 
BRANCH   5   6
ATOM      6  C   UNL     1      83.064   3.519  57.600  1.00  0.00     0.155 C 
ATOM      7  O   UNL     1      83.124   2.383  57.056  1.00  0.00    -0.295 OA
BRANCH   6   8
ATOM      8  C   UNL     1      82.908   4.738  56.783  1.00  0.00     0.039 C 
ATOM      9  C   UNL     1      81.755   5.068  56.204  1.00  0.00     0.012 C 
ENDBRANCH   6   8
ENDBRANCH   5   6
ENDBRANCH   1   5
TORSDOF 5
ENDMDL
MODEL 5
REMARK VINA RESULT:    -2.420      1.422      4.519
REMARK INTER + INTRA:          -3.418
REMARK INTER:                  -3.224
REMARK INTRA:                  -0.194
REMARK UNBOUND:                -0.291
REMARK SMILES C=CC(=O)CCCCC
REMARK SMILES IDX 6 1 7 2 8 3 9 4 5 5 3 6 4 7 2 8 1 9
REMARK H PARENT
REMARK Flexibility Score: inf
ROOT
ATOM      1  C   UNL     1      78.971   2.595  65.734  1.00  0.00     0.008 C 
ENDROOT
BRANCH   1   2
ATOM      2  C   UNL     1      79.296   2.631  67.242  1.00  0.00     0.000 C 
BRANCH   2   3
ATOM      3  C   UNL     1      80.798   2.755  67.544  1.00  0.00    -0.003 C 
ATOM      4  C   UNL     1      81.087   3.191  68.979  1.00  0.00     0.004 C 
ENDBRANCH   2   3
ENDBRANCH   1   2
BRANCH   1   5
ATOM      5  C   UNL     1      80.068   3.252  64.886  1.00  0.00     0.080 C 
BRANCH   5   6
ATOM      6  C   UNL     1      79.478   4.273  63.960  1.00  0.00     0.155 C 
ATOM      7  O   UNL     1      78.424   4.877  64.296  1.00  0.00    -0.295 OA
BRANCH   6   8
ATOM      8  C   UNL     1      80.157   4.595  62.689  1.00  0.00     0.039 C 
ATOM      9  C   UNL     1      80.081   3.804  61.620  1.00  0.00     0.012 C 
ENDBRANCH   6   8
ENDBRANCH   5   6
ENDBRANCH   1   5
TORSDOF 5
ENDMDL
MODEL 6
REMARK VINA RESULT:    -2.408     20.209     20.992
REMARK INTER + INTRA:          -3.402
REMARK INTER:                  -3.124
REMARK INTRA:                  -0.278
REMARK UNBOUND:                -0.291
REMARK SMILES C=CC(=O)CCCCC
REMARK SMILES IDX 6 1 7 2 8 3 9 4 5 5 3 6 4 7 2 8 1 9
REMARK H PARENT
REMARK Flexibility Score: inf
ROOT
ATOM      1  C   UNL     1      71.055  -8.513  51.860  1.00  0.00     0.008 C 
ENDROOT
BRANCH   1   2
ATOM      2  C   UNL     1      71.462  -8.887  50.419  1.00  0.00     0.000 C 
BRANCH   2   3
ATOM      3  C   UNL     1      72.304 -10.171  50.333  1.00  0.00    -0.003 C 
ATOM      4  C   UNL     1      71.832 -11.125  49.238  1.00  0.00     0.004 C 
ENDBRANCH   2   3
ENDBRANCH   1   2
BRANCH   1   5
ATOM      5  C   UNL     1      71.099  -9.718  52.809  1.00  0.00     0.080 C 
BRANCH   5   6
ATOM      6  C   UNL     1      69.848  -9.786  53.633  1.00  0.00     0.155 C 
ATOM      7  O   UNL     1      69.715 -10.711  54.480  1.00  0.00    -0.295 OA
BRANCH   6   8
ATOM      8  C   UNL     1      68.807  -8.752  53.478  1.00  0.00     0.039 C 
ATOM      9  C   UNL     1      67.507  -9.039  53.497  1.00  0.00     0.012 C 
ENDBRANCH   6   8
ENDBRANCH   5   6
ENDBRANCH   1   5
TORSDOF 5
ENDMDL
MODEL 7
REMARK VINA RESULT:    -2.403     13.307     14.276
REMARK INTER + INTRA:          -3.397
REMARK INTER:                  -3.066
REMARK INTRA:                  -0.330
REMARK UNBOUND:                -0.291
REMARK SMILES C=CC(=O)CCCCC
REMARK SMILES IDX 6 1 7 2 8 3 9 4 5 5 3 6 4 7 2 8 1 9
REMARK H PARENT
REMARK Flexibility Score: inf
ROOT
ATOM      1  C   UNL     1      70.947  -8.906  66.283  1.00  0.00     0.008 C 
ENDROOT
BRANCH   1   2
ATOM      2  C   UNL     1      70.452  -9.542  67.599  1.00  0.00     0.000 C 
BRANCH   2   3
ATOM      3  C   UNL     1      70.225  -8.522  68.728  1.00  0.00    -0.003 C 
ATOM      4  C   UNL     1      71.254  -7.395  68.732  1.00  0.00     0.004 C 
ENDBRANCH   2   3
ENDBRANCH   1   2
BRANCH   1   5
ATOM      5  C   UNL     1      72.271  -9.517  65.803  1.00  0.00     0.080 C 
BRANCH   5   6
ATOM      6  C   UNL     1      73.272  -8.440  65.508  1.00  0.00     0.155 C 
ATOM      7  O   UNL     1      73.272  -7.889  64.374  1.00  0.00    -0.295 OA
BRANCH   6   8
ATOM      8  C   UNL     1      74.216  -8.005  66.556  1.00  0.00     0.039 C 
ATOM      9  C   UNL     1      75.466  -8.459  66.623  1.00  0.00     0.012 C 
ENDBRANCH   6   8
ENDBRANCH   5   6
ENDBRANCH   1   5
TORSDOF 5
ENDMDL
MODEL 8
REMARK VINA RESULT:    -2.364     14.041     15.343
REMARK INTER + INTRA:          -3.347
REMARK INTER:                  -3.026
REMARK INTRA:                  -0.321
REMARK UNBOUND:                -0.291
REMARK SMILES C=CC(=O)CCCCC
REMARK SMILES IDX 6 1 7 2 8 3 9 4 5 5 3 6 4 7 2 8 1 9
REMARK H PARENT
REMARK Flexibility Score: inf
ROOT
ATOM      1  C   UNL     1      80.825  -0.030  52.300  1.00  0.00     0.008 C 
ENDROOT
BRANCH   1   2
ATOM      2  C   UNL     1      80.742  -0.999  51.102  1.00  0.00     0.000 C 
BRANCH   2   3
ATOM      3  C   UNL     1      81.807  -2.109  51.135  1.00  0.00    -0.003 C 
ATOM      4  C   UNL     1      81.633  -3.071  52.307  1.00  0.00     0.004 C 
ENDBRANCH   2   3
ENDBRANCH   1   2
BRANCH   1   5
ATOM      5  C   UNL     1      81.641   1.228  51.976  1.00  0.00     0.080 C 
BRANCH   5   6
ATOM      6  C   UNL     1      80.763   2.287  51.379  1.00  0.00     0.155 C 
ATOM      7  O   UNL     1      79.896   2.851  52.101  1.00  0.00    -0.295 OA
BRANCH   6   8
ATOM      8  C   UNL     1      80.947   2.690  49.971  1.00  0.00     0.039 C 
ATOM      9  C   UNL     1      80.215   2.181  48.981  1.00  0.00     0.012 C 
ENDBRANCH   6   8
ENDBRANCH   5   6
ENDBRANCH   1   5
TORSDOF 5
ENDMDL
