MODEL 1
REMARK VINA RESULT:    -4.252      0.000      0.000
REMARK INTER + INTRA:          -5.783
REMARK INTER:                  -5.619
REMARK INTRA:                  -0.164
REMARK UNBOUND:                -0.164
REMARK SMILES C=CCC[C@H](O)CCC
REMARK SMILES IDX 4 1 5 2 7 3 8 4 9 5 6 6 3 8 2 9 1 10
REMARK H PARENT 6 7
REMARK Flexibility Score: inf
ROOT
ATOM      1  C   UNL     1      10.919 -23.876  21.901  1.00  0.00     0.036 C 
ENDROOT
BRANCH   1   2
ATOM      2  C   UNL     1      11.106 -22.572  21.091  1.00  0.00     0.114 C 
BRANCH   2   3
ATOM      3  C   UNL     1       9.776 -21.976  20.556  1.00  0.00     0.031 C 
BRANCH   3   4
ATOM      4  C   UNL     1       8.532 -22.834  20.851  1.00  0.00    -0.001 C 
ATOM      5  C   UNL     1       7.261 -21.991  20.813  1.00  0.00     0.004 C 
ENDBRANCH   3   4
ENDBRANCH   2   3
BRANCH   2   6
ATOM      6  O   UNL     1      11.844 -21.636  21.834  1.00  0.00    -0.393 OA
ATOM      7  H   UNL     1      11.611 -21.781  22.789  1.00  0.00     0.210 HD
ENDBRANCH   2   6
ENDBRANCH   1   2
BRANCH   1   8
ATOM      8  C   UNL     1      12.095 -24.274  22.811  1.00  0.00     0.029 C 
BRANCH   8   9
ATOM      9  C   UNL     1      11.707 -25.270  23.872  1.00  0.00    -0.035 C 
ATOM     10  C   UNL     1      12.021 -25.088  25.158  1.00  0.00     0.004 C 
ENDBRANCH   8   9
ENDBRANCH   1   8
TORSDOF 6
ENDMDL
MODEL 2
REMARK VINA RESULT:    -4.211     11.268     11.866
REMARK INTER + INTRA:          -5.728
REMARK INTER:                  -5.496
REMARK INTRA:                  -0.232
REMARK UNBOUND:                -0.164
REMARK SMILES C=CCC[C@H](O)CCC
REMARK SMILES IDX 4 1 5 2 7 3 8 4 9 5 6 6 3 8 2 9 1 10
REMARK H PARENT 6 7
REMARK Flexibility Score: inf
ROOT
ATOM      1  C   UNL     1      13.186 -15.416  30.897  1.00  0.00     0.036 C 
ENDROOT
BRANCH   1   2
ATOM      2  C   UNL     1      12.638 -15.137  29.478  1.00  0.00     0.114 C 
BRANCH   2   3
ATOM      3  C   UNL     1      13.309 -13.924  28.779  1.00  0.00     0.031 C 
BRANCH   3   4
ATOM      4  C   UNL     1      12.337 -12.790  28.406  1.00  0.00    -0.001 C 
ATOM      5  C   UNL     1      11.640 -13.078  27.080  1.00  0.00     0.004 C 
ENDBRANCH   3   4
ENDBRANCH   2   3
BRANCH   2   6
ATOM      6  O   UNL     1      12.699 -16.300  28.692  1.00  0.00    -0.393 OA
ATOM      7  H   UNL     1      11.783 -16.685  28.678  1.00  0.00     0.210 HD
ENDBRANCH   2   6
ENDBRANCH   1   2
BRANCH   1   8
ATOM      8  C   UNL     1      12.210 -16.103  31.869  1.00  0.00     0.029 C 
BRANCH   8   9
ATOM      9  C   UNL     1      10.776 -15.703  31.644  1.00  0.00    -0.035 C 
ATOM     10  C   UNL     1       9.878 -15.714  32.634  1.00  0.00     0.004 C 
ENDBRANCH   8   9
ENDBRANCH   1   8
TORSDOF 6
ENDMDL
MODEL 3
REMARK VINA RESULT:    -4.205     11.252     12.194
REMARK INTER + INTRA:          -5.720
REMARK INTER:                  -5.342
REMARK INTRA:                  -0.378
REMARK UNBOUND:                -0.164
REMARK SMILES C=CCC[C@H](O)CCC
REMARK SMILES IDX 4 1 5 2 7 3 8 4 9 5 6 6 3 8 2 9 1 10
REMARK H PARENT 6 7
REMARK Flexibility Score: inf
ROOT
ATOM      1  C   UNL     1      13.490 -15.602  31.006  1.00  0.00     0.036 C 
ENDROOT
BRANCH   1   2
ATOM      2  C   UNL     1      12.956 -16.872  31.708  1.00  0.00     0.114 C 
BRANCH   2   3
ATOM      3  C   UNL     1      11.475 -17.194  31.371  1.00  0.00     0.031 C 
BRANCH   3   4
ATOM      4  C   UNL     1      10.493 -16.951  32.532  1.00  0.00    -0.001 C 
ATOM      5  C   UNL     1       9.906 -15.545  32.470  1.00  0.00     0.004 C 
ENDBRANCH   3   4
ENDBRANCH   2   3
BRANCH   2   6
ATOM      6  O   UNL     1      13.804 -17.964  31.457  1.00  0.00    -0.393 OA
ATOM      7  H   UNL     1      14.646 -17.592  31.081  1.00  0.00     0.210 HD
ENDBRANCH   2   6
ENDBRANCH   1   2
BRANCH   1   8
ATOM      8  C   UNL     1      13.016 -15.388  29.557  1.00  0.00     0.029 C 
BRANCH   8   9
ATOM      9  C   UNL     1      12.305 -14.075  29.359  1.00  0.00    -0.035 C 
ATOM     10  C   UNL     1      11.812 -13.712  28.171  1.00  0.00     0.004 C 
ENDBRANCH   8   9
ENDBRANCH   1   8
TORSDOF 6
ENDMDL
MODEL 4
REMARK VINA RESULT:    -4.181      3.882      5.625
REMARK INTER + INTRA:          -5.688
REMARK INTER:                  -5.604
REMARK INTRA:                  -0.085
REMARK UNBOUND:                -0.164
REMARK SMILES C=CCC[C@H](O)CCC
REMARK SMILES IDX 4 1 5 2 7 3 8 4 9 5 6 6 3 8 2 9 1 10
REMARK H PARENT 6 7
REMARK Flexibility Score: inf
ROOT
ATOM      1  C   UNL     1       7.637 -20.226  20.848  1.00  0.00     0.036 C 
ENDROOT
BRANCH   1   2
ATOM      2  C   UNL     1       7.750 -18.832  21.509  1.00  0.00     0.114 C 
BRANCH   2   3
ATOM      3  C   UNL     1       6.662 -17.830  21.038  1.00  0.00     0.031 C 
BRANCH   3   4
ATOM      4  C   UNL     1       6.479 -16.613  21.962  1.00  0.00    -0.001 C 
ATOM      5  C   UNL     1       6.214 -15.345  21.156  1.00  0.00     0.004 C 
ENDBRANCH   3   4
ENDBRANCH   2   3
BRANCH   2   6
ATOM      6  O   UNL     1       7.786 -18.956  22.908  1.00  0.00    -0.393 OA
ATOM      7  H   UNL     1       8.680 -18.637  23.201  1.00  0.00     0.210 HD
ENDBRANCH   2   6
ENDBRANCH   1   2
BRANCH   1   8
ATOM      8  C   UNL     1       8.932 -21.057  20.808  1.00  0.00     0.029 C 
BRANCH   8   9
ATOM      9  C   UNL     1       8.680 -22.541  20.818  1.00  0.00    -0.035 C 
ATOM     10  C   UNL     1       7.455 -23.047  20.990  1.00  0.00     0.004 C 
ENDBRANCH   8   9
ENDBRANCH   1   8
TORSDOF 6
ENDMDL
MODEL 5
REMARK VINA RESULT:    -4.158     10.776     11.324
REMARK INTER + INTRA:          -5.658
REMARK INTER:                  -5.369
REMARK INTRA:                  -0.289
REMARK UNBOUND:                -0.164
REMARK SMILES C=CCC[C@H](O)CCC
REMARK SMILES IDX 4 1 5 2 7 3 8 4 9 5 6 6 3 8 2 9 1 10
REMARK H PARENT 6 7
REMARK Flexibility Score: inf
ROOT
ATOM      1  C   UNL     1      11.860 -15.319  30.319  1.00  0.00     0.036 C 
ENDROOT
BRANCH   1   2
ATOM      2  C   UNL     1      12.232 -15.051  28.842  1.00  0.00     0.114 C 
BRANCH   2   3
ATOM      3  C   UNL     1      13.210 -13.860  28.653  1.00  0.00     0.031 C 
BRANCH   3   4
ATOM      4  C   UNL     1      12.592 -12.638  27.951  1.00  0.00    -0.001 C 
ATOM      5  C   UNL     1      11.610 -13.065  26.865  1.00  0.00     0.004 C 
ENDBRANCH   3   4
ENDBRANCH   2   3
BRANCH   2   6
ATOM      6  O   UNL     1      12.706 -16.227  28.236  1.00  0.00    -0.393 OA
ATOM      7  H   UNL     1      13.694 -16.223  28.338  1.00  0.00     0.210 HD
ENDBRANCH   2   6
ENDBRANCH   1   2
BRANCH   1   8
ATOM      8  C   UNL     1      13.036 -15.636  31.260  1.00  0.00     0.029 C 
BRANCH   8   9
ATOM      9  C   UNL     1      13.112 -17.093  31.635  1.00  0.00    -0.035 C 
ATOM     10  C   UNL     1      12.022 -17.863  31.695  1.00  0.00     0.004 C 
ENDBRANCH   8   9
ENDBRANCH   1   8
TORSDOF 6
ENDMDL
MODEL 6
REMARK VINA RESULT:    -4.145     10.808     11.987
REMARK INTER + INTRA:          -5.642
REMARK INTER:                  -5.267
REMARK INTRA:                  -0.374
REMARK UNBOUND:                -0.164
REMARK SMILES C=CCC[C@H](O)CCC
REMARK SMILES IDX 4 1 5 2 7 3 8 4 9 5 6 6 3 8 2 9 1 10
REMARK H PARENT 6 7
REMARK Flexibility Score: inf
ROOT
ATOM      1  C   UNL     1      13.529 -14.200  28.820  1.00  0.00     0.036 C 
ENDROOT
BRANCH   1   2
ATOM      2  C   UNL     1      13.002 -15.588  29.255  1.00  0.00     0.114 C 
BRANCH   2   3
ATOM      3  C   UNL     1      11.844 -15.518  30.287  1.00  0.00     0.031 C 
BRANCH   3   4
ATOM      4  C   UNL     1      12.207 -16.054  31.684  1.00  0.00    -0.001 C 
ATOM      5  C   UNL     1      13.293 -17.122  31.597  1.00  0.00     0.004 C 
ENDBRANCH   3   4
ENDBRANCH   2   3
BRANCH   2   6
ATOM      6  O   UNL     1      12.662 -16.356  28.129  1.00  0.00    -0.393 OA
ATOM      7  H   UNL     1      13.431 -16.302  27.502  1.00  0.00     0.210 HD
ENDBRANCH   2   6
ENDBRANCH   1   2
BRANCH   1   8
ATOM      8  C   UNL     1      12.461 -13.111  28.616  1.00  0.00     0.029 C 
BRANCH   8   9
ATOM      9  C   UNL     1      12.281 -12.726  27.172  1.00  0.00    -0.035 C 
ATOM     10  C   UNL     1      11.553 -13.467  26.330  1.00  0.00     0.004 C 
ENDBRANCH   8   9
ENDBRANCH   1   8
TORSDOF 6
ENDMDL
MODEL 7
REMARK VINA RESULT:    -4.089     10.084     11.369
REMARK INTER + INTRA:          -5.567
REMARK INTER:                  -5.407
REMARK INTRA:                  -0.160
REMARK UNBOUND:                -0.164
REMARK SMILES C=CCC[C@H](O)CCC
REMARK SMILES IDX 4 1 5 2 7 3 8 4 9 5 6 6 3 8 2 9 1 10
REMARK H PARENT 6 7
REMARK Flexibility Score: inf
ROOT
ATOM      1  C   UNL     1      10.035 -18.051  32.463  1.00  0.00     0.036 C 
ENDROOT
BRANCH   1   2
ATOM      2  C   UNL     1      10.497 -19.344  31.752  1.00  0.00     0.114 C 
BRANCH   2   3
ATOM      3  C   UNL     1      10.264 -20.631  32.588  1.00  0.00     0.031 C 
BRANCH   3   4
ATOM      4  C   UNL     1       9.596 -21.780  31.811  1.00  0.00    -0.001 C 
ATOM      5  C   UNL     1       9.836 -23.121  32.499  1.00  0.00     0.004 C 
ENDBRANCH   3   4
ENDBRANCH   2   3
BRANCH   2   6
ATOM      6  O   UNL     1       9.920 -19.432  30.474  1.00  0.00    -0.393 OA
ATOM      7  H   UNL     1      10.454 -20.096  29.964  1.00  0.00     0.210 HD
ENDBRANCH   2   6
ENDBRANCH   1   2
BRANCH   1   8
ATOM      8  C   UNL     1      10.880 -16.794  32.185  1.00  0.00     0.029 C 
BRANCH   8   9
ATOM      9  C   UNL     1      12.250 -17.114  31.647  1.00  0.00    -0.035 C 
ATOM     10  C   UNL     1      13.272 -16.261  31.769  1.00  0.00     0.004 C 
ENDBRANCH   8   9
ENDBRANCH   1   8
TORSDOF 6
ENDMDL
MODEL 8
REMARK VINA RESULT:    -4.037     11.083     11.922
REMARK INTER + INTRA:          -5.498
REMARK INTER:                  -5.306
REMARK INTRA:                  -0.192
REMARK UNBOUND:                -0.164
REMARK SMILES C=CCC[C@H](O)CCC
REMARK SMILES IDX 4 1 5 2 7 3 8 4 9 5 6 6 3 8 2 9 1 10
REMARK H PARENT 6 7
REMARK Flexibility Score: inf
ROOT
ATOM      1  C   UNL     1       9.810 -16.972  32.790  1.00  0.00     0.036 C 
ENDROOT
BRANCH   1   2
ATOM      2  C   UNL     1      10.368 -15.659  32.193  1.00  0.00     0.114 C 
BRANCH   2   3
ATOM      3  C   UNL     1      11.729 -15.834  31.468  1.00  0.00     0.031 C 
BRANCH   3   4
ATOM      4  C   UNL     1      11.790 -15.191  30.071  1.00  0.00    -0.001 C 
ATOM      5  C   UNL     1      13.021 -15.663  29.302  1.00  0.00     0.004 C 
ENDBRANCH   3   4
ENDBRANCH   2   3
BRANCH   2   6
ATOM      6  O   UNL     1       9.406 -15.047  31.373  1.00  0.00    -0.393 OA
ATOM      7  H   UNL     1       9.864 -14.303  30.899  1.00  0.00     0.210 HD
ENDBRANCH   2   6
ENDBRANCH   1   2
BRANCH   1   8
ATOM      8  C   UNL     1      10.585 -18.253  32.434  1.00  0.00     0.029 C 
BRANCH   8   9
ATOM      9  C   UNL     1      10.261 -19.409  33.342  1.00  0.00    -0.035 C 
ATOM     10  C   UNL     1      10.241 -20.670  32.900  1.00  0.00     0.004 C 
ENDBRANCH   8   9
ENDBRANCH   1   8
TORSDOF 6
ENDMDL
MODEL 9
REMARK VINA RESULT:    -4.001      3.304      5.019
REMARK INTER + INTRA:          -5.451
REMARK INTER:                  -5.237
REMARK INTRA:                  -0.214
REMARK UNBOUND:                -0.164
REMARK SMILES C=CCC[C@H](O)CCC
REMARK SMILES IDX 4 1 5 2 7 3 8 4 9 5 6 6 3 8 2 9 1 10
REMARK H PARENT 6 7
REMARK Flexibility Score: inf
ROOT
ATOM      1  C   UNL     1       7.869 -20.327  20.897  1.00  0.00     0.036 C 
ENDROOT
BRANCH   1   2
ATOM      2  C   UNL     1       7.544 -19.038  21.688  1.00  0.00     0.114 C 
BRANCH   2   3
ATOM      3  C   UNL     1       6.845 -17.945  20.836  1.00  0.00     0.031 C 
BRANCH   3   4
ATOM      4  C   UNL     1       6.098 -18.483  19.602  1.00  0.00    -0.001 C 
ATOM      5  C   UNL     1       4.618 -18.693  19.905  1.00  0.00     0.004 C 
ENDBRANCH   3   4
ENDBRANCH   2   3
BRANCH   2   6
ATOM      6  O   UNL     1       6.818 -19.348  22.850  1.00  0.00    -0.393 OA
ATOM      7  H   UNL     1       6.366 -20.217  22.683  1.00  0.00     0.210 HD
ENDBRANCH   2   6
ENDBRANCH   1   2
BRANCH   1   8
ATOM      8  C   UNL     1       9.359 -20.700  20.807  1.00  0.00     0.029 C 
BRANCH   8   9
ATOM      9  C   UNL     1       9.595 -22.188  20.819  1.00  0.00    -0.035 C 
ATOM     10  C   UNL     1      10.768 -22.719  20.463  1.00  0.00     0.004 C 
ENDBRANCH   8   9
ENDBRANCH   1   8
TORSDOF 6
ENDMDL
