MODEL 1
REMARK VINA RESULT:    -2.985      0.000      0.000
REMARK INTER + INTRA:          -3.247
REMARK INTER:                  -3.247
REMARK INTRA:                   0.000
REMARK UNBOUND:                 0.000
REMARK SMILES [NH3+]CC(=O)[O-]
REMARK SMILES IDX 2 1 1 2 3 6 4 7 5 8
REMARK H PARENT 1 3 1 4 1 5
REMARK Flexibility Score: inf
ROOT
ATOM      1  C   UNL     1     -17.427  62.056  10.656  1.00  0.00     0.312 C 
ENDROOT
BRANCH   1   2
ATOM      2  N   UNL     1     -18.613  61.329  11.102  1.00  0.00    -0.353 N 
ATOM      3  H   UNL     1     -18.896  61.652  12.057  1.00  0.00     0.344 HD
ATOM      4  H   UNL     1     -18.420  60.301  11.119  1.00  0.00     0.344 HD
ATOM      5  H   UNL     1     -19.399  61.514  10.438  1.00  0.00     0.344 HD
ENDBRANCH   1   2
BRANCH   1   6
ATOM      6  C   UNL     1     -17.215  63.283  11.489  1.00  0.00     0.096 C 
ATOM      7  O   UNL     1     -16.926  63.177  12.710  1.00  0.00    -0.544 OA
ATOM      8  O   UNL     1     -17.286  64.540  10.904  1.00  0.00    -0.544 OA
ENDBRANCH   1   6
TORSDOF 2
ENDMDL
MODEL 2
REMARK VINA RESULT:    -2.968     12.670     13.090
REMARK INTER + INTRA:          -3.229
REMARK INTER:                  -3.229
REMARK INTRA:                   0.000
REMARK UNBOUND:                 0.000
REMARK SMILES [NH3+]CC(=O)[O-]
REMARK SMILES IDX 2 1 1 2 3 6 4 7 5 8
REMARK H PARENT 1 3 1 4 1 5
REMARK Flexibility Score: inf
ROOT
ATOM      1  C   UNL     1     -21.839  68.382  -0.322  1.00  0.00     0.312 C 
ENDROOT
BRANCH   1   2
ATOM      2  N   UNL     1     -23.252  68.011  -0.274  1.00  0.00    -0.353 N 
ATOM      3  H   UNL     1     -23.841  68.790  -0.650  1.00  0.00     0.344 HD
ATOM      4  H   UNL     1     -23.534  67.796   0.709  1.00  0.00     0.344 HD
ATOM      5  H   UNL     1     -23.402  67.160  -0.862  1.00  0.00     0.344 HD
ENDBRANCH   1   2
BRANCH   1   6
ATOM      6  C   UNL     1     -21.456  69.161   0.898  1.00  0.00     0.096 C 
ATOM      7  O   UNL     1     -21.196  68.564   1.976  1.00  0.00    -0.544 OA
ATOM      8  O   UNL     1     -21.336  70.543   0.830  1.00  0.00    -0.544 OA
ENDBRANCH   1   6
TORSDOF 2
ENDMDL
MODEL 3
REMARK VINA RESULT:    -2.960      2.391      2.559
REMARK INTER + INTRA:          -3.220
REMARK INTER:                  -3.220
REMARK INTRA:                   0.000
REMARK UNBOUND:                 0.000
REMARK SMILES [NH3+]CC(=O)[O-]
REMARK SMILES IDX 2 1 1 2 3 6 4 7 5 8
REMARK H PARENT 1 3 1 4 1 5
REMARK Flexibility Score: inf
ROOT
ATOM      1  C   UNL     1     -17.360  63.869  11.124  1.00  0.00     0.312 C 
ENDROOT
BRANCH   1   2
ATOM      2  N   UNL     1     -16.000  64.250  11.500  1.00  0.00    -0.353 N 
ATOM      3  H   UNL     1     -15.902  64.249  12.543  1.00  0.00     0.344 HD
ATOM      4  H   UNL     1     -15.776  65.199  11.124  1.00  0.00     0.344 HD
ATOM      5  H   UNL     1     -15.327  63.559  11.097  1.00  0.00     0.344 HD
ENDBRANCH   1   2
BRANCH   1   6
ATOM      6  C   UNL     1     -17.428  62.410  10.794  1.00  0.00     0.096 C 
ATOM      7  O   UNL     1     -17.125  61.549  11.662  1.00  0.00    -0.544 OA
ATOM      8  O   UNL     1     -17.875  62.000   9.545  1.00  0.00    -0.544 OA
ENDBRANCH   1   6
TORSDOF 2
ENDMDL
MODEL 4
REMARK VINA RESULT:    -2.954     13.224     13.646
REMARK INTER + INTRA:          -3.213
REMARK INTER:                  -3.213
REMARK INTRA:                   0.000
REMARK UNBOUND:                 0.000
REMARK SMILES [NH3+]CC(=O)[O-]
REMARK SMILES IDX 2 1 1 2 3 6 4 7 5 8
REMARK H PARENT 1 3 1 4 1 5
REMARK Flexibility Score: inf
ROOT
ATOM      1  C   UNL     1     -18.628  69.394  -0.930  1.00  0.00     0.312 C 
ENDROOT
BRANCH   1   2
ATOM      2  N   UNL     1     -17.465  70.185  -1.327  1.00  0.00    -0.353 N 
ATOM      3  H   UNL     1     -16.672  69.553  -1.589  1.00  0.00     0.344 HD
ATOM      4  H   UNL     1     -17.173  70.812  -0.543  1.00  0.00     0.344 HD
ATOM      5  H   UNL     1     -17.716  70.772  -2.154  1.00  0.00     0.344 HD
ENDBRANCH   1   2
BRANCH   1   6
ATOM      6  C   UNL     1     -18.238  67.970  -0.679  1.00  0.00     0.096 C 
ATOM      7  O   UNL     1     -17.311  67.700   0.130  1.00  0.00    -0.544 OA
ATOM      8  O   UNL     1     -18.933  66.940  -1.299  1.00  0.00    -0.544 OA
ENDBRANCH   1   6
TORSDOF 2
ENDMDL
MODEL 5
REMARK VINA RESULT:    -2.900     12.945     13.448
REMARK INTER + INTRA:          -3.154
REMARK INTER:                  -3.154
REMARK INTRA:                   0.000
REMARK UNBOUND:                 0.000
REMARK SMILES [NH3+]CC(=O)[O-]
REMARK SMILES IDX 2 1 1 2 3 6 4 7 5 8
REMARK H PARENT 1 3 1 4 1 5
REMARK Flexibility Score: inf
ROOT
ATOM      1  C   UNL     1     -19.112  68.673  -1.180  1.00  0.00     0.312 C 
ENDROOT
BRANCH   1   2
ATOM      2  N   UNL     1     -17.827  69.315  -0.916  1.00  0.00    -0.353 N 
ATOM      3  H   UNL     1     -17.787  70.248  -1.389  1.00  0.00     0.344 HD
ATOM      4  H   UNL     1     -17.045  68.711  -1.258  1.00  0.00     0.344 HD
ATOM      5  H   UNL     1     -17.720  69.455   0.115  1.00  0.00     0.344 HD
ENDBRANCH   1   2
BRANCH   1   6
ATOM      6  C   UNL     1     -19.065  67.223  -0.807  1.00  0.00     0.096 C 
ATOM      7  O   UNL     1     -19.391  66.342  -1.646  1.00  0.00    -0.544 OA
ATOM      8  O   UNL     1     -18.614  66.844   0.450  1.00  0.00    -0.544 OA
ENDBRANCH   1   6
TORSDOF 2
ENDMDL
MODEL 6
REMARK VINA RESULT:    -2.884     12.791     13.250
REMARK INTER + INTRA:          -3.137
REMARK INTER:                  -3.137
REMARK INTRA:                   0.000
REMARK UNBOUND:                 0.000
REMARK SMILES [NH3+]CC(=O)[O-]
REMARK SMILES IDX 2 1 1 2 3 6 4 7 5 8
REMARK H PARENT 1 3 1 4 1 5
REMARK Flexibility Score: inf
ROOT
ATOM      1  C   UNL     1     -19.800  66.757  -1.840  1.00  0.00     0.312 C 
ENDROOT
BRANCH   1   2
ATOM      2  N   UNL     1     -19.420  65.359  -2.033  1.00  0.00    -0.353 N 
ATOM      3  H   UNL     1     -18.497  65.172  -1.576  1.00  0.00     0.344 HD
ATOM      4  H   UNL     1     -19.360  65.140  -3.054  1.00  0.00     0.344 HD
ATOM      5  H   UNL     1     -20.144  64.744  -1.597  1.00  0.00     0.344 HD
ENDBRANCH   1   2
BRANCH   1   6
ATOM      6  C   UNL     1     -18.919  67.409  -0.821  1.00  0.00     0.096 C 
ATOM      7  O   UNL     1     -18.661  66.821   0.263  1.00  0.00    -0.544 OA
ATOM      8  O   UNL     1     -18.341  68.643  -1.089  1.00  0.00    -0.544 OA
ENDBRANCH   1   6
TORSDOF 2
ENDMDL
MODEL 7
REMARK VINA RESULT:    -2.878     13.091     13.560
REMARK INTER + INTRA:          -3.131
REMARK INTER:                  -3.131
REMARK INTRA:                   0.000
REMARK UNBOUND:                 0.000
REMARK SMILES [NH3+]CC(=O)[O-]
REMARK SMILES IDX 2 1 1 2 3 6 4 7 5 8
REMARK H PARENT 1 3 1 4 1 5
REMARK Flexibility Score: inf
ROOT
ATOM      1  C   UNL     1     -20.939  70.558   0.227  1.00  0.00     0.312 C 
ENDROOT
BRANCH   1   2
ATOM      2  N   UNL     1     -21.233  71.745   1.028  1.00  0.00    -0.353 N 
ATOM      3  H   UNL     1     -22.166  71.643   1.492  1.00  0.00     0.344 HD
ATOM      4  H   UNL     1     -21.230  72.597   0.422  1.00  0.00     0.344 HD
ATOM      5  H   UNL     1     -20.500  71.852   1.764  1.00  0.00     0.344 HD
ENDBRANCH   1   2
BRANCH   1   6
ATOM      6  C   UNL     1     -21.666  69.365   0.765  1.00  0.00     0.096 C 
ATOM      7  O   UNL     1     -22.686  68.924   0.172  1.00  0.00    -0.544 OA
ATOM      8  O   UNL     1     -21.187  68.708   1.890  1.00  0.00    -0.544 OA
ENDBRANCH   1   6
TORSDOF 2
ENDMDL
MODEL 8
REMARK VINA RESULT:    -2.850     13.214     13.577
REMARK INTER + INTRA:          -3.100
REMARK INTER:                  -3.100
REMARK INTRA:                   0.000
REMARK UNBOUND:                 0.000
REMARK SMILES [NH3+]CC(=O)[O-]
REMARK SMILES IDX 2 1 1 2 3 6 4 7 5 8
REMARK H PARENT 1 3 1 4 1 5
REMARK Flexibility Score: inf
ROOT
ATOM      1  C   UNL     1     -18.238  67.693  -0.627  1.00  0.00     0.312 C 
ENDROOT
BRANCH   1   2
ATOM      2  N   UNL     1     -17.873  69.094  -0.823  1.00  0.00    -0.353 N 
ATOM      3  H   UNL     1     -16.847  69.225  -0.660  1.00  0.00     0.344 HD
ATOM      4  H   UNL     1     -18.415  69.702  -0.167  1.00  0.00     0.344 HD
ATOM      5  H   UNL     1     -18.097  69.373  -1.805  1.00  0.00     0.344 HD
ENDBRANCH   1   2
BRANCH   1   6
ATOM      6  C   UNL     1     -19.694  67.482  -0.905  1.00  0.00     0.096 C 
ATOM      7  O   UNL     1     -20.561  67.913  -0.101  1.00  0.00    -0.544 OA
ATOM      8  O   UNL     1     -20.094  66.855  -2.078  1.00  0.00    -0.544 OA
ENDBRANCH   1   6
TORSDOF 2
ENDMDL
MODEL 9
REMARK VINA RESULT:    -2.846     13.233     13.631
REMARK INTER + INTRA:          -3.096
REMARK INTER:                  -3.096
REMARK INTRA:                   0.000
REMARK UNBOUND:                 0.000
REMARK SMILES [NH3+]CC(=O)[O-]
REMARK SMILES IDX 2 1 1 2 3 6 4 7 5 8
REMARK H PARENT 1 3 1 4 1 5
REMARK Flexibility Score: inf
ROOT
ATOM      1  C   UNL     1     -18.521  68.667  -0.940  1.00  0.00     0.312 C 
ENDROOT
BRANCH   1   2
ATOM      2  N   UNL     1     -17.747  69.872  -1.230  1.00  0.00    -0.353 N 
ATOM      3  H   UNL     1     -18.382  70.637  -1.558  1.00  0.00     0.344 HD
ATOM      4  H   UNL     1     -17.028  69.671  -1.961  1.00  0.00     0.344 HD
ATOM      5  H   UNL     1     -17.264  70.187  -0.358  1.00  0.00     0.344 HD
ENDBRANCH   1   2
BRANCH   1   6
ATOM      6  C   UNL     1     -19.719  68.996  -0.104  1.00  0.00     0.096 C 
ATOM      7  O   UNL     1     -20.196  70.162  -0.112  1.00  0.00    -0.544 OA
ATOM      8  O   UNL     1     -20.340  68.004   0.642  1.00  0.00    -0.544 OA
ENDBRANCH   1   6
TORSDOF 2
ENDMDL
