MODEL 1
REMARK VINA RESULT:   120.603      0.000      0.000
REMARK INTER + INTRA:         137.847
REMARK INTER:                 138.229
REMARK INTRA:                  -0.382
REMARK UNBOUND:                -0.382
REMARK SMILES C=C(C)[C@H]1CC[C@@]2(C(=O)[O-])CC[C@]3(C)[C@@H](CC[C@H]4[C@@]5(C)CC[C@@H](O)C(C)(C)[C@@H]5CC[C@]43C)[C@@H]12
REMARK SMILES IDX 7 1 6 2 33 3 11 4 5 5 15 6 4 7 12 8 16 9 13 10 17 11 31 12
REMARK SMILES IDX 14 13 18 14 30 15 32 16 19 17 29 18 21 19 20 20 28 21 22 22
REMARK SMILES IDX 25 23 23 24 26 25 27 26 8 27 9 28 10 29 2 30 3 31 1 32 24 33
REMARK H PARENT 24 34
REMARK Flexibility Score: inf
ROOT
ATOM      1  C   UNL     1      -5.032  -1.988   0.993  1.00  0.00     0.014 C 
ATOM      2  C   UNL     1      -5.030  -2.971   2.201  1.00  0.00     0.014 C 
ATOM      3  C   UNL     1      -3.898  -0.953   1.309  1.00  0.00     0.012 C 
ATOM      4  C   UNL     1      -6.446  -1.341   0.869  1.00  0.00     0.014 C 
ATOM      5  C   UNL     1      -4.176  -2.333   3.284  1.00  0.00     0.009 C 
ATOM      6  C   UNL     1      -4.376   0.547   1.404  1.00  0.00     0.000 C 
ATOM      7  C   UNL     1      -3.127  -1.543   2.514  1.00  0.00     0.018 C 
ATOM      8  C   UNL     1      -6.525   0.013   0.124  1.00  0.00     0.008 C 
ATOM      9  C   UNL     1      -5.079   0.919   2.718  1.00  0.00     0.005 C 
ATOM     10  C   UNL     1      -5.258   0.953   0.174  1.00  0.00    -0.024 C 
ATOM     11  C   UNL     1      -5.295   2.415   2.804  1.00  0.00     0.005 C 
ATOM     12  C   UNL     1      -5.689   2.525   0.223  1.00  0.00    -0.024 C 
ATOM     13  C   UNL     1      -4.416   0.676  -1.124  1.00  0.00     0.012 C 
ATOM     14  C   UNL     1      -6.205   2.979   1.674  1.00  0.00     0.002 C 
ATOM     15  C   UNL     1      -4.474   3.435  -0.165  1.00  0.00     0.008 C 
ATOM     16  C   UNL     1      -6.819   2.740  -0.848  1.00  0.00     0.012 C 
ATOM     17  C   UNL     1      -6.449   4.566   1.843  1.00  0.00    -0.026 C 
ATOM     18  C   UNL     1      -4.713   4.948  -0.035  1.00  0.00     0.005 C 
ATOM     19  C   UNL     1      -6.721   4.953   3.340  1.00  0.00     0.010 C 
ATOM     20  C   UNL     1      -7.731   4.965   1.038  1.00  0.00     0.012 C 
ATOM     21  C   UNL     1      -5.155   5.347   1.388  1.00  0.00     0.003 C 
ATOM     22  C   UNL     1      -6.793   6.470   3.602  1.00  0.00     0.033 C 
ATOM     23  C   UNL     1      -5.147   6.910   1.663  1.00  0.00    -0.006 C 
ATOM     24  C   UNL     1      -5.507   7.183   3.162  1.00  0.00     0.120 C 
ATOM     25  C   UNL     1      -3.726   7.488   1.405  1.00  0.00     0.014 C 
ATOM     26  C   UNL     1      -6.108   7.709   0.743  1.00  0.00     0.014 C 
ENDROOT
BRANCH   1  27
ATOM     27  C   UNL     1      -4.684  -2.774  -0.271  1.00  0.00     0.048 C 
ATOM     28  O   UNL     1      -5.572  -3.125  -1.094  1.00  0.00    -0.550 OA
ATOM     29  O   UNL     1      -3.361  -3.118  -0.529  1.00  0.00    -0.550 OA
ENDBRANCH   1  27
BRANCH   7  30
ATOM     30  C   UNL     1      -2.238  -0.581   3.306  1.00  0.00    -0.077 C 
ATOM     31  C   UNL     1      -2.743  -0.022   4.611  1.00  0.00     0.039 C 
ATOM     32  C   UNL     1      -1.076  -0.105   2.824  1.00  0.00     0.008 C 
ENDBRANCH   7  30
BRANCH  24  33
ATOM     33  O   UNL     1      -4.460   6.765   4.008  1.00  0.00    -0.393 OA
ATOM     34  H   UNL     1      -3.620   6.790   3.481  1.00  0.00     0.210 HD
ENDBRANCH  24  33
TORSDOF 3
ENDMDL
MODEL 2
REMARK VINA RESULT:   122.678      1.640      7.696
REMARK INTER + INTRA:         140.226
REMARK INTER:                 139.798
REMARK INTRA:                   0.428
REMARK UNBOUND:                -0.382
REMARK SMILES C=C(C)[C@H]1CC[C@@]2(C(=O)[O-])CC[C@]3(C)[C@@H](CC[C@H]4[C@@]5(C)CC[C@@H](O)C(C)(C)[C@@H]5CC[C@]43C)[C@@H]12
REMARK SMILES IDX 7 1 6 2 33 3 11 4 5 5 15 6 4 7 12 8 16 9 13 10 17 11 31 12
REMARK SMILES IDX 14 13 18 14 30 15 32 16 19 17 29 18 21 19 20 20 28 21 22 22
REMARK SMILES IDX 25 23 23 24 26 25 27 26 8 27 9 28 10 29 2 30 3 31 1 32 24 33
REMARK H PARENT 24 34
REMARK Flexibility Score: inf
ROOT
ATOM      1  C   UNL     1      -7.696   5.829   2.888  1.00  0.00     0.014 C 
ATOM      2  C   UNL     1      -8.223   6.820   1.809  1.00  0.00     0.014 C 
ATOM      3  C   UNL     1      -6.197   5.573   2.509  1.00  0.00     0.012 C 
ATOM      4  C   UNL     1      -8.571   4.539   2.860  1.00  0.00     0.014 C 
ATOM      5  C   UNL     1      -7.181   6.856   0.702  1.00  0.00     0.009 C 
ATOM      6  C   UNL     1      -5.835   4.068   2.211  1.00  0.00     0.000 C 
ATOM      7  C   UNL     1      -5.861   6.625   1.424  1.00  0.00     0.018 C 
ATOM      8  C   UNL     1      -7.928   3.253   3.434  1.00  0.00     0.008 C 
ATOM      9  C   UNL     1      -6.269   3.561   0.827  1.00  0.00     0.005 C 
ATOM     10  C   UNL     1      -6.359   3.112   3.336  1.00  0.00    -0.024 C 
ATOM     11  C   UNL     1      -5.685   2.192   0.551  1.00  0.00     0.005 C 
ATOM     12  C   UNL     1      -5.919   1.563   3.077  1.00  0.00    -0.024 C 
ATOM     13  C   UNL     1      -5.758   3.611   4.699  1.00  0.00     0.012 C 
ATOM     14  C   UNL     1      -6.154   1.100   1.558  1.00  0.00     0.002 C 
ATOM     15  C   UNL     1      -4.402   1.364   3.415  1.00  0.00     0.008 C 
ATOM     16  C   UNL     1      -6.758   0.662   4.055  1.00  0.00     0.012 C 
ATOM     17  C   UNL     1      -5.548  -0.350   1.188  1.00  0.00    -0.026 C 
ATOM     18  C   UNL     1      -3.830  -0.026   3.093  1.00  0.00     0.005 C 
ATOM     19  C   UNL     1      -5.609  -0.625  -0.357  1.00  0.00     0.010 C 
ATOM     20  C   UNL     1      -6.427  -1.450   1.872  1.00  0.00     0.012 C 
ATOM     21  C   UNL     1      -4.029  -0.408   1.611  1.00  0.00     0.003 C 
ATOM     22  C   UNL     1      -4.894  -1.915  -0.803  1.00  0.00     0.033 C 
ATOM     23  C   UNL     1      -3.222  -1.695   1.152  1.00  0.00    -0.006 C 
ATOM     24  C   UNL     1      -3.416  -1.917  -0.385  1.00  0.00     0.120 C 
ATOM     25  C   UNL     1      -1.701  -1.489   1.411  1.00  0.00     0.014 C 
ATOM     26  C   UNL     1      -3.617  -2.984   1.919  1.00  0.00     0.014 C 
ENDROOT
BRANCH   1  27
ATOM     27  C   UNL     1      -7.780   6.512   4.254  1.00  0.00     0.048 C 
ATOM     28  O   UNL     1      -8.879   6.649   4.854  1.00  0.00    -0.550 OA
ATOM     29  O   UNL     1      -6.624   6.998   4.855  1.00  0.00    -0.550 OA
ENDBRANCH   1  27
BRANCH   7  30
ATOM     30  C   UNL     1      -4.619   6.367   0.569  1.00  0.00    -0.077 C 
ATOM     31  C   UNL     1      -3.419   7.266   0.728  1.00  0.00     0.039 C 
ATOM     32  C   UNL     1      -4.595   5.453  -0.418  1.00  0.00     0.008 C 
ENDBRANCH   7  30
BRANCH  24  33
ATOM     33  O   UNL     1      -2.749  -0.916  -1.121  1.00  0.00    -0.393 OA
ATOM     34  H   UNL     1      -2.091  -1.367  -1.711  1.00  0.00     0.210 HD
ENDBRANCH  24  33
TORSDOF 3
ENDMDL
