MODEL 1
REMARK VINA RESULT:    -7.760      0.000      0.000
REMARK INTER + INTRA:          -8.477
REMARK INTER:                  -8.214
REMARK INTRA:                  -0.264
REMARK UNBOUND:                -0.264
REMARK SMILES O=c1cc(-c2ccccc2)oc2ccccc12
REMARK SMILES IDX 4 1 3 2 2 3 1 4 17 5 16 6 15 7 14 8 13 9 12 10 11 11 5 12
REMARK SMILES IDX 8 13 7 14 9 15 6 16 10 17
REMARK H PARENT
REMARK Flexibility Score: inf
ROOT
ATOM      1  C   UNL     1      19.293  34.314  26.109  1.00  0.00     0.138 A 
ATOM      2  C   UNL     1      18.401  33.444  26.770  1.00  0.00     0.100 A 
ATOM      3  C   UNL     1      18.668  32.074  26.796  1.00  0.00     0.193 A 
ATOM      4  O   UNL     1      17.869  31.297  27.387  1.00  0.00    -0.289 OA
ATOM      5  C   UNL     1      19.819  31.582  26.165  1.00  0.00     0.065 A 
ATOM      6  C   UNL     1      20.146  30.214  26.154  1.00  0.00     0.016 A 
ATOM      7  C   UNL     1      21.308  29.777  25.511  1.00  0.00     0.001 A 
ATOM      8  C   UNL     1      22.148  30.697  24.875  1.00  0.00     0.004 A 
ATOM      9  C   UNL     1      21.830  32.058  24.880  1.00  0.00     0.048 A 
ATOM     10  C   UNL     1      20.670  32.506  25.522  1.00  0.00     0.138 A 
ATOM     11  O   UNL     1      20.377  33.802  25.522  1.00  0.00    -0.456 OA
ENDROOT
BRANCH   1  12
ATOM     12  C   UNL     1      19.083  35.793  26.033  1.00  0.00     0.017 A 
ATOM     13  C   UNL     1      18.755  38.589  25.821  1.00  0.00     0.000 A 
ATOM     14  C   UNL     1      17.986  37.862  26.730  1.00  0.00     0.001 A 
ATOM     15  C   UNL     1      19.687  37.932  25.017  1.00  0.00     0.001 A 
ATOM     16  C   UNL     1      18.144  36.476  26.839  1.00  0.00     0.012 A 
ATOM     17  C   UNL     1      19.851  36.548  25.120  1.00  0.00     0.012 A 
ENDBRANCH   1  12
TORSDOF 1
ENDMDL
MODEL 2
REMARK VINA RESULT:    -7.502      3.083      6.296
REMARK INTER + INTRA:          -8.204
REMARK INTER:                  -7.960
REMARK INTRA:                  -0.245
REMARK UNBOUND:                -0.264
REMARK SMILES O=c1cc(-c2ccccc2)oc2ccccc12
REMARK SMILES IDX 4 1 3 2 2 3 1 4 17 5 16 6 15 7 14 8 13 9 12 10 11 11 5 12
REMARK SMILES IDX 8 13 7 14 9 15 6 16 10 17
REMARK H PARENT
REMARK Flexibility Score: inf
ROOT
ATOM      1  C   UNL     1      18.277  33.276  28.806  1.00  0.00     0.138 A 
ATOM      2  C   UNL     1      18.584  32.706  27.552  1.00  0.00     0.100 A 
ATOM      3  C   UNL     1      18.682  33.529  26.429  1.00  0.00     0.193 A 
ATOM      4  O   UNL     1      18.956  33.019  25.308  1.00  0.00    -0.289 OA
ATOM      5  C   UNL     1      18.474  34.909  26.562  1.00  0.00     0.065 A 
ATOM      6  C   UNL     1      18.557  35.792  25.470  1.00  0.00     0.016 A 
ATOM      7  C   UNL     1      18.342  37.161  25.659  1.00  0.00     0.001 A 
ATOM      8  C   UNL     1      18.041  37.656  26.932  1.00  0.00     0.004 A 
ATOM      9  C   UNL     1      17.955  36.785  28.022  1.00  0.00     0.048 A 
ATOM     10  C   UNL     1      18.170  35.414  27.844  1.00  0.00     0.138 A 
ATOM     11  O   UNL     1      18.087  34.594  28.886  1.00  0.00    -0.456 OA
ENDROOT
BRANCH   1  12
ATOM     12  C   UNL     1      18.153  32.468  30.058  1.00  0.00     0.017 A 
ATOM     13  C   UNL     1      17.868  30.878  32.374  1.00  0.00     0.000 A 
ATOM     14  C   UNL     1      18.590  32.071  32.430  1.00  0.00     0.001 A 
ATOM     15  C   UNL     1      17.288  30.473  31.173  1.00  0.00     0.001 A 
ATOM     16  C   UNL     1      18.735  32.862  31.286  1.00  0.00     0.012 A 
ATOM     17  C   UNL     1      17.428  31.258  30.025  1.00  0.00     0.012 A 
ENDBRANCH   1  12
TORSDOF 1
ENDMDL
MODEL 3
REMARK VINA RESULT:    -7.453      4.576      6.455
REMARK INTER + INTRA:          -8.153
REMARK INTER:                  -7.913
REMARK INTRA:                  -0.240
REMARK UNBOUND:                -0.264
REMARK SMILES O=c1cc(-c2ccccc2)oc2ccccc12
REMARK SMILES IDX 4 1 3 2 2 3 1 4 17 5 16 6 15 7 14 8 13 9 12 10 11 11 5 12
REMARK SMILES IDX 8 13 7 14 9 15 6 16 10 17
REMARK H PARENT
REMARK Flexibility Score: inf
ROOT
ATOM      1  C   UNL     1      18.403  33.932  30.687  1.00  0.00     0.138 A 
ATOM      2  C   UNL     1      18.486  32.761  29.905  1.00  0.00     0.100 A 
ATOM      3  C   UNL     1      18.349  32.849  28.518  1.00  0.00     0.193 A 
ATOM      4  O   UNL     1      18.422  31.802  27.819  1.00  0.00    -0.289 OA
ATOM      5  C   UNL     1      18.134  34.100  27.923  1.00  0.00     0.065 A 
ATOM      6  C   UNL     1      17.989  34.258  26.532  1.00  0.00     0.016 A 
ATOM      7  C   UNL     1      17.776  35.529  25.990  1.00  0.00     0.001 A 
ATOM      8  C   UNL     1      17.706  36.647  26.828  1.00  0.00     0.004 A 
ATOM      9  C   UNL     1      17.849  36.499  28.210  1.00  0.00     0.048 A 
ATOM     10  C   UNL     1      18.063  35.232  28.762  1.00  0.00     0.138 A 
ATOM     11  O   UNL     1      18.197  35.102  30.078  1.00  0.00    -0.456 OA
ENDROOT
BRANCH   1  12
ATOM     12  C   UNL     1      18.537  33.927  32.176  1.00  0.00     0.017 A 
ATOM     13  C   UNL     1      18.873  33.868  34.979  1.00  0.00     0.000 A 
ATOM     14  C   UNL     1      17.774  34.520  34.421  1.00  0.00     0.001 A 
ATOM     15  C   UNL     1      19.807  33.245  34.150  1.00  0.00     0.001 A 
ATOM     16  C   UNL     1      17.603  34.553  33.033  1.00  0.00     0.012 A 
ATOM     17  C   UNL     1      19.643  33.273  32.763  1.00  0.00     0.012 A 
ENDBRANCH   1  12
TORSDOF 1
ENDMDL
MODEL 4
REMARK VINA RESULT:    -7.418      5.429      7.691
REMARK INTER + INTRA:          -8.115
REMARK INTER:                  -7.849
REMARK INTRA:                  -0.266
REMARK UNBOUND:                -0.264
REMARK SMILES O=c1cc(-c2ccccc2)oc2ccccc12
REMARK SMILES IDX 4 1 3 2 2 3 1 4 17 5 16 6 15 7 14 8 13 9 12 10 11 11 5 12
REMARK SMILES IDX 8 13 7 14 9 15 6 16 10 17
REMARK H PARENT
REMARK Flexibility Score: inf
ROOT
ATOM      1  C   UNL     1      18.894  33.441  31.060  1.00  0.00     0.138 A 
ATOM      2  C   UNL     1      19.621  32.748  32.051  1.00  0.00     0.100 A 
ATOM      3  C   UNL     1      19.803  33.333  33.305  1.00  0.00     0.193 A 
ATOM      4  O   UNL     1      20.455  32.714  34.190  1.00  0.00    -0.289 OA
ATOM      5  C   UNL     1      19.260  34.599  33.563  1.00  0.00     0.065 A 
ATOM      6  C   UNL     1      19.407  35.244  34.805  1.00  0.00     0.016 A 
ATOM      7  C   UNL     1      18.843  36.507  35.010  1.00  0.00     0.001 A 
ATOM      8  C   UNL     1      18.133  37.134  33.981  1.00  0.00     0.004 A 
ATOM      9  C   UNL     1      17.983  36.502  32.744  1.00  0.00     0.048 A 
ATOM     10  C   UNL     1      18.542  35.237  32.529  1.00  0.00     0.138 A 
ATOM     11  O   UNL     1      18.394  34.644  31.349  1.00  0.00    -0.456 OA
ENDROOT
BRANCH   1  12
ATOM     12  C   UNL     1      18.653  32.888  29.692  1.00  0.00     0.017 A 
ATOM     13  C   UNL     1      18.241  31.763  27.135  1.00  0.00     0.000 A 
ATOM     14  C   UNL     1      17.776  33.047  27.416  1.00  0.00     0.001 A 
ATOM     15  C   UNL     1      18.910  31.035  28.119  1.00  0.00     0.001 A 
ATOM     16  C   UNL     1      17.977  33.610  28.681  1.00  0.00     0.012 A 
ATOM     17  C   UNL     1      19.114  31.590  29.386  1.00  0.00     0.012 A 
ENDBRANCH   1  12
TORSDOF 1
ENDMDL
MODEL 5
REMARK VINA RESULT:    -7.378      4.918      6.479
REMARK INTER + INTRA:          -8.073
REMARK INTER:                  -7.810
REMARK INTRA:                  -0.263
REMARK UNBOUND:                -0.264
REMARK SMILES O=c1cc(-c2ccccc2)oc2ccccc12
REMARK SMILES IDX 4 1 3 2 2 3 1 4 17 5 16 6 15 7 14 8 13 9 12 10 11 11 5 12
REMARK SMILES IDX 8 13 7 14 9 15 6 16 10 17
REMARK H PARENT
REMARK Flexibility Score: inf
ROOT
ATOM      1  C   UNL     1      18.327  34.926  30.033  1.00  0.00     0.138 A 
ATOM      2  C   UNL     1      18.501  33.569  30.376  1.00  0.00     0.100 A 
ATOM      3  C   UNL     1      18.681  33.216  31.715  1.00  0.00     0.193 A 
ATOM      4  O   UNL     1      18.837  32.003  32.022  1.00  0.00    -0.289 OA
ATOM      5  C   UNL     1      18.686  34.215  32.699  1.00  0.00     0.065 A 
ATOM      6  C   UNL     1      18.862  33.926  34.064  1.00  0.00     0.016 A 
ATOM      7  C   UNL     1      18.857  34.961  35.004  1.00  0.00     0.001 A 
ATOM      8  C   UNL     1      18.678  36.286  34.591  1.00  0.00     0.004 A 
ATOM      9  C   UNL     1      18.503  36.581  33.237  1.00  0.00     0.048 A 
ATOM     10  C   UNL     1      18.506  35.553  32.288  1.00  0.00     0.138 A 
ATOM     11  O   UNL     1      18.338  35.844  31.002  1.00  0.00    -0.456 OA
ENDROOT
BRANCH   1  12
ATOM     12  C   UNL     1      18.129  35.390  28.625  1.00  0.00     0.017 A 
ATOM     13  C   UNL     1      17.776  36.358  25.996  1.00  0.00     0.000 A 
ATOM     14  C   UNL     1      17.601  35.002  26.270  1.00  0.00     0.001 A 
ATOM     15  C   UNL     1      18.126  37.235  27.022  1.00  0.00     0.001 A 
ATOM     16  C   UNL     1      17.775  34.517  27.571  1.00  0.00     0.012 A 
ATOM     17  C   UNL     1      18.301  36.759  28.324  1.00  0.00     0.012 A 
ENDBRANCH   1  12
TORSDOF 1
ENDMDL
MODEL 6
REMARK VINA RESULT:    -7.374      5.069      6.550
REMARK INTER + INTRA:          -8.069
REMARK INTER:                  -7.820
REMARK INTRA:                  -0.249
REMARK UNBOUND:                -0.264
REMARK SMILES O=c1cc(-c2ccccc2)oc2ccccc12
REMARK SMILES IDX 4 1 3 2 2 3 1 4 17 5 16 6 15 7 14 8 13 9 12 10 11 11 5 12
REMARK SMILES IDX 8 13 7 14 9 15 6 16 10 17
REMARK H PARENT
REMARK Flexibility Score: inf
ROOT
ATOM      1  C   UNL     1      18.046  34.883  30.089  1.00  0.00     0.138 A 
ATOM      2  C   UNL     1      17.264  35.839  30.771  1.00  0.00     0.100 A 
ATOM      3  C   UNL     1      17.285  35.875  32.166  1.00  0.00     0.193 A 
ATOM      4  O   UNL     1      16.586  36.730  32.775  1.00  0.00    -0.289 OA
ATOM      5  C   UNL     1      18.083  34.963  32.870  1.00  0.00     0.065 A 
ATOM      6  C   UNL     1      18.150  34.947  34.275  1.00  0.00     0.016 A 
ATOM      7  C   UNL     1      18.963  34.016  34.927  1.00  0.00     0.001 A 
ATOM      8  C   UNL     1      19.713  33.096  34.186  1.00  0.00     0.004 A 
ATOM      9  C   UNL     1      19.652  33.104  32.790  1.00  0.00     0.048 A 
ATOM     10  C   UNL     1      18.842  34.033  32.127  1.00  0.00     0.138 A 
ATOM     11  O   UNL     1      18.791  34.033  30.799  1.00  0.00    -0.456 OA
ENDROOT
BRANCH   1  12
ATOM     12  C   UNL     1      18.081  34.774  28.598  1.00  0.00     0.017 A 
ATOM     13  C   UNL     1      18.149  34.665  25.777  1.00  0.00     0.000 A 
ATOM     14  C   UNL     1      18.150  33.486  26.522  1.00  0.00     0.001 A 
ATOM     15  C   UNL     1      18.115  35.898  26.428  1.00  0.00     0.001 A 
ATOM     16  C   UNL     1      18.117  33.534  27.920  1.00  0.00     0.012 A 
ATOM     17  C   UNL     1      18.082  35.955  27.824  1.00  0.00     0.012 A 
ENDBRANCH   1  12
TORSDOF 1
ENDMDL
MODEL 7
REMARK VINA RESULT:    -7.288      3.866      6.198
REMARK INTER + INTRA:          -7.978
REMARK INTER:                  -7.748
REMARK INTRA:                  -0.230
REMARK UNBOUND:                -0.264
REMARK SMILES O=c1cc(-c2ccccc2)oc2ccccc12
REMARK SMILES IDX 4 1 3 2 2 3 1 4 17 5 16 6 15 7 14 8 13 9 12 10 11 11 5 12
REMARK SMILES IDX 8 13 7 14 9 15 6 16 10 17
REMARK H PARENT
REMARK Flexibility Score: inf
ROOT
ATOM      1  C   UNL     1      18.119  35.411  29.510  1.00  0.00     0.138 A 
ATOM      2  C   UNL     1      17.371  34.662  28.578  1.00  0.00     0.100 A 
ATOM      3  C   UNL     1      17.370  35.041  27.235  1.00  0.00     0.193 A 
ATOM      4  O   UNL     1      16.700  34.371  26.401  1.00  0.00    -0.289 OA
ATOM      5  C   UNL     1      18.112  36.159  26.831  1.00  0.00     0.065 A 
ATOM      6  C   UNL     1      18.154  36.594  25.493  1.00  0.00     0.016 A 
ATOM      7  C   UNL     1      18.912  37.716  25.144  1.00  0.00     0.001 A 
ATOM      8  C   UNL     1      19.630  38.411  26.123  1.00  0.00     0.004 A 
ATOM      9  C   UNL     1      19.594  37.986  27.454  1.00  0.00     0.048 A 
ATOM     10  C   UNL     1      18.839  36.864  27.814  1.00  0.00     0.138 A 
ATOM     11  O   UNL     1      18.811  36.469  29.082  1.00  0.00    -0.456 OA
ENDROOT
BRANCH   1  12
ATOM     12  C   UNL     1      18.175  35.076  30.967  1.00  0.00     0.017 A 
ATOM     13  C   UNL     1      18.327  34.359  33.693  1.00  0.00     0.000 A 
ATOM     14  C   UNL     1      17.736  35.566  33.321  1.00  0.00     0.001 A 
ATOM     15  C   UNL     1      18.844  33.507  32.717  1.00  0.00     0.001 A 
ATOM     16  C   UNL     1      17.658  35.926  31.971  1.00  0.00     0.012 A 
ATOM     17  C   UNL     1      18.770  33.859  31.367  1.00  0.00     0.012 A 
ENDBRANCH   1  12
TORSDOF 1
ENDMDL
MODEL 8
REMARK VINA RESULT:    -7.212      3.835      5.089
REMARK INTER + INTRA:          -7.898
REMARK INTER:                  -7.635
REMARK INTRA:                  -0.263
REMARK UNBOUND:                -0.264
REMARK SMILES O=c1cc(-c2ccccc2)oc2ccccc12
REMARK SMILES IDX 4 1 3 2 2 3 1 4 17 5 16 6 15 7 14 8 13 9 12 10 11 11 5 12
REMARK SMILES IDX 8 13 7 14 9 15 6 16 10 17
REMARK H PARENT
REMARK Flexibility Score: inf
ROOT
ATOM      1  C   UNL     1      18.107  34.243  29.378  1.00  0.00     0.138 A 
ATOM      2  C   UNL     1      18.392  34.747  30.664  1.00  0.00     0.100 A 
ATOM      3  C   UNL     1      18.374  33.883  31.761  1.00  0.00     0.193 A 
ATOM      4  O   UNL     1      18.628  34.333  32.911  1.00  0.00    -0.289 OA
ATOM      5  C   UNL     1      18.073  32.527  31.568  1.00  0.00     0.065 A 
ATOM      6  C   UNL     1      18.039  31.604  32.629  1.00  0.00     0.016 A 
ATOM      7  C   UNL     1      17.734  30.262  32.380  1.00  0.00     0.001 A 
ATOM      8  C   UNL     1      17.463  29.833  31.077  1.00  0.00     0.004 A 
ATOM      9  C   UNL     1      17.494  30.743  30.017  1.00  0.00     0.048 A 
ATOM     10  C   UNL     1      17.799  32.088  30.255  1.00  0.00     0.138 A 
ATOM     11  O   UNL     1      17.827  32.945  29.240  1.00  0.00    -0.456 OA
ENDROOT
BRANCH   1  12
ATOM     12  C   UNL     1      18.105  35.098  28.151  1.00  0.00     0.017 A 
ATOM     13  C   UNL     1      18.097  36.791  25.892  1.00  0.00     0.000 A 
ATOM     14  C   UNL     1      18.154  35.408  25.727  1.00  0.00     0.001 A 
ATOM     15  C   UNL     1      18.044  37.338  27.174  1.00  0.00     0.001 A 
ATOM     16  C   UNL     1      18.159  34.564  26.843  1.00  0.00     0.012 A 
ATOM     17  C   UNL     1      18.048  36.502  28.294  1.00  0.00     0.012 A 
ENDBRANCH   1  12
TORSDOF 1
ENDMDL
MODEL 9
REMARK VINA RESULT:    -7.207      4.623      6.228
REMARK INTER + INTRA:          -7.892
REMARK INTER:                  -7.642
REMARK INTRA:                  -0.251
REMARK UNBOUND:                -0.264
REMARK SMILES O=c1cc(-c2ccccc2)oc2ccccc12
REMARK SMILES IDX 4 1 3 2 2 3 1 4 17 5 16 6 15 7 14 8 13 9 12 10 11 11 5 12
REMARK SMILES IDX 8 13 7 14 9 15 6 16 10 17
REMARK H PARENT
REMARK Flexibility Score: inf
ROOT
ATOM      1  C   UNL     1      18.386  34.170  30.668  1.00  0.00     0.138 A 
ATOM      2  C   UNL     1      17.970  35.385  30.085  1.00  0.00     0.100 A 
ATOM      3  C   UNL     1      17.794  35.460  28.703  1.00  0.00     0.193 A 
ATOM      4  O   UNL     1      17.423  36.547  28.182  1.00  0.00    -0.289 OA
ATOM      5  C   UNL     1      18.031  34.326  27.913  1.00  0.00     0.065 A 
ATOM      6  C   UNL     1      17.871  34.335  26.515  1.00  0.00     0.016 A 
ATOM      7  C   UNL     1      18.120  33.175  25.775  1.00  0.00     0.001 A 
ATOM      8  C   UNL     1      18.530  32.003  26.421  1.00  0.00     0.004 A 
ATOM      9  C   UNL     1      18.691  31.987  27.809  1.00  0.00     0.048 A 
ATOM     10  C   UNL     1      18.444  33.141  28.559  1.00  0.00     0.138 A 
ATOM     11  O   UNL     1      18.600  33.115  29.878  1.00  0.00    -0.456 OA
ENDROOT
BRANCH   1  12
ATOM     12  C   UNL     1      18.599  34.003  32.139  1.00  0.00     0.017 A 
ATOM     13  C   UNL     1      18.924  33.745  34.932  1.00  0.00     0.000 A 
ATOM     14  C   UNL     1      19.796  33.088  34.063  1.00  0.00     0.001 A 
ATOM     15  C   UNL     1      17.892  34.530  34.418  1.00  0.00     0.001 A 
ATOM     16  C   UNL     1      19.639  33.212  32.679  1.00  0.00     0.012 A 
ATOM     17  C   UNL     1      17.729  34.659  33.036  1.00  0.00     0.012 A 
ENDBRANCH   1  12
TORSDOF 1
ENDMDL
