MODEL 1
REMARK VINA RESULT:    -3.281      0.000      0.000
REMARK INTER + INTRA:          -4.777
REMARK INTER:                  -4.241
REMARK INTRA:                  -0.537
REMARK UNBOUND:                -0.537
REMARK SMILES C=CC(=O)CCCCC
REMARK SMILES IDX 6 1 7 2 8 3 9 4 5 5 3 6 4 7 2 8 1 9
REMARK H PARENT
REMARK Flexibility Score: inf
ROOT
ATOM      1  C   UNL     1      26.494  -3.561  51.531  1.00  0.00     0.008 C 
ENDROOT
BRANCH   1   2
ATOM      2  C   UNL     1      25.865  -2.797  52.709  1.00  0.00     0.000 C 
BRANCH   2   3
ATOM      3  C   UNL     1      24.639  -3.505  53.322  1.00  0.00    -0.003 C 
ATOM      4  C   UNL     1      24.724  -3.602  54.845  1.00  0.00     0.004 C 
ENDBRANCH   2   3
ENDBRANCH   1   2
BRANCH   1   5
ATOM      5  C   UNL     1      26.538  -5.077  51.760  1.00  0.00     0.080 C 
BRANCH   5   6
ATOM      6  C   UNL     1      27.920  -5.516  52.168  1.00  0.00     0.155 C 
ATOM      7  O   UNL     1      28.797  -5.651  51.273  1.00  0.00    -0.295 OA
BRANCH   6   8
ATOM      8  C   UNL     1      28.291  -5.827  53.565  1.00  0.00     0.039 C 
ATOM      9  C   UNL     1      28.232  -4.948  54.565  1.00  0.00     0.012 C 
ENDBRANCH   6   8
ENDBRANCH   5   6
ENDBRANCH   1   5
TORSDOF 5
ENDMDL
MODEL 2
REMARK VINA RESULT:    -3.276      1.577      2.408
REMARK INTER + INTRA:          -4.770
REMARK INTER:                  -4.237
REMARK INTRA:                  -0.533
REMARK UNBOUND:                -0.537
REMARK SMILES C=CC(=O)CCCCC
REMARK SMILES IDX 6 1 7 2 8 3 9 4 5 5 3 6 4 7 2 8 1 9
REMARK H PARENT
REMARK Flexibility Score: inf
ROOT
ATOM      1  C   UNL     1      24.819  -3.203  53.294  1.00  0.00     0.008 C 
ENDROOT
BRANCH   1   2
ATOM      2  C   UNL     1      24.549  -3.959  54.607  1.00  0.00     0.000 C 
BRANCH   2   3
ATOM      3  C   UNL     1      25.803  -4.134  55.488  1.00  0.00    -0.003 C 
ATOM      4  C   UNL     1      26.041  -5.592  55.879  1.00  0.00     0.004 C 
ENDBRANCH   2   3
ENDBRANCH   1   2
BRANCH   1   5
ATOM      5  C   UNL     1      26.269  -3.338  52.815  1.00  0.00     0.080 C 
BRANCH   5   6
ATOM      6  C   UNL     1      26.407  -4.481  51.844  1.00  0.00     0.155 C 
ATOM      7  O   UNL     1      25.512  -4.639  50.970  1.00  0.00    -0.295 OA
BRANCH   6   8
ATOM      8  C   UNL     1      27.525  -5.448  51.884  1.00  0.00     0.039 C 
ATOM      9  C   UNL     1      28.313  -5.632  52.943  1.00  0.00     0.012 C 
ENDBRANCH   6   8
ENDBRANCH   5   6
ENDBRANCH   1   5
TORSDOF 5
ENDMDL
MODEL 3
REMARK VINA RESULT:    -3.259      1.603      2.130
REMARK INTER + INTRA:          -4.748
REMARK INTER:                  -4.389
REMARK INTRA:                  -0.359
REMARK UNBOUND:                -0.537
REMARK SMILES C=CC(=O)CCCCC
REMARK SMILES IDX 6 1 7 2 8 3 9 4 5 5 3 6 4 7 2 8 1 9
REMARK H PARENT
REMARK Flexibility Score: inf
ROOT
ATOM      1  C   UNL     1      25.669  -3.918  52.138  1.00  0.00     0.008 C 
ENDROOT
BRANCH   1   2
ATOM      2  C   UNL     1      24.931  -3.142  53.242  1.00  0.00     0.000 C 
BRANCH   2   3
ATOM      3  C   UNL     1      24.768  -3.937  54.554  1.00  0.00    -0.003 C 
ATOM      4  C   UNL     1      25.887  -4.958  54.759  1.00  0.00     0.004 C 
ENDBRANCH   2   3
ENDBRANCH   1   2
BRANCH   1   5
ATOM      5  C   UNL     1      26.688  -3.056  51.382  1.00  0.00     0.080 C 
BRANCH   5   6
ATOM      6  C   UNL     1      28.095  -3.489  51.701  1.00  0.00     0.155 C 
ATOM      7  O   UNL     1      29.013  -2.627  51.661  1.00  0.00    -0.295 OA
BRANCH   6   8
ATOM      8  C   UNL     1      28.458  -4.885  52.027  1.00  0.00     0.039 C 
ATOM      9  C   UNL     1      29.301  -5.624  51.307  1.00  0.00     0.012 C 
ENDBRANCH   6   8
ENDBRANCH   5   6
ENDBRANCH   1   5
TORSDOF 5
ENDMDL
MODEL 4
REMARK VINA RESULT:    -3.230      1.675      3.633
REMARK INTER + INTRA:          -4.711
REMARK INTER:                  -4.222
REMARK INTRA:                  -0.489
REMARK UNBOUND:                -0.537
REMARK SMILES C=CC(=O)CCCCC
REMARK SMILES IDX 6 1 7 2 8 3 9 4 5 5 3 6 4 7 2 8 1 9
REMARK H PARENT
REMARK Flexibility Score: inf
ROOT
ATOM      1  C   UNL     1      28.265  -3.141  52.154  1.00  0.00     0.008 C 
ENDROOT
BRANCH   1   2
ATOM      2  C   UNL     1      29.288  -3.958  51.345  1.00  0.00     0.000 C 
BRANCH   2   3
ATOM      3  C   UNL     1      29.122  -5.483  51.501  1.00  0.00    -0.003 C 
ATOM      4  C   UNL     1      28.663  -5.880  52.904  1.00  0.00     0.004 C 
ENDBRANCH   2   3
ENDBRANCH   1   2
BRANCH   1   5
ATOM      5  C   UNL     1      26.982  -2.845  51.368  1.00  0.00     0.080 C 
BRANCH   5   6
ATOM      6  C   UNL     1      25.872  -3.772  51.788  1.00  0.00     0.155 C 
ATOM      7  O   UNL     1      25.573  -4.734  51.030  1.00  0.00    -0.295 OA
BRANCH   6   8
ATOM      8  C   UNL     1      25.094  -3.591  53.032  1.00  0.00     0.039 C 
ATOM      9  C   UNL     1      25.372  -4.207  54.181  1.00  0.00     0.012 C 
ENDBRANCH   6   8
ENDBRANCH   5   6
ENDBRANCH   1   5
TORSDOF 5
ENDMDL
MODEL 5
REMARK VINA RESULT:    -3.215      1.506      2.012
REMARK INTER + INTRA:          -4.691
REMARK INTER:                  -4.253
REMARK INTRA:                  -0.438
REMARK UNBOUND:                -0.537
REMARK SMILES C=CC(=O)CCCCC
REMARK SMILES IDX 6 1 7 2 8 3 9 4 5 5 3 6 4 7 2 8 1 9
REMARK H PARENT
REMARK Flexibility Score: inf
ROOT
ATOM      1  C   UNL     1      26.475  -5.219  51.719  1.00  0.00     0.008 C 
ENDROOT
BRANCH   1   2
ATOM      2  C   UNL     1      25.771  -3.931  52.180  1.00  0.00     0.000 C 
BRANCH   2   3
ATOM      3  C   UNL     1      25.935  -3.642  53.686  1.00  0.00    -0.003 C 
ATOM      4  C   UNL     1      24.605  -3.692  54.438  1.00  0.00     0.004 C 
ENDBRANCH   2   3
ENDBRANCH   1   2
BRANCH   1   5
ATOM      5  C   UNL     1      27.754  -5.515  52.511  1.00  0.00     0.080 C 
BRANCH   5   6
ATOM      6  C   UNL     1      28.973  -5.080  51.739  1.00  0.00     0.155 C 
ATOM      7  O   UNL     1      29.450  -5.864  50.876  1.00  0.00    -0.295 OA
BRANCH   6   8
ATOM      8  C   UNL     1      29.657  -3.789  51.968  1.00  0.00     0.039 C 
ATOM      9  C   UNL     1      29.373  -2.668  51.306  1.00  0.00     0.012 C 
ENDBRANCH   6   8
ENDBRANCH   5   6
ENDBRANCH   1   5
TORSDOF 5
ENDMDL
MODEL 6
REMARK VINA RESULT:    -3.211      1.588      2.852
REMARK INTER + INTRA:          -4.686
REMARK INTER:                  -4.063
REMARK INTRA:                  -0.623
REMARK UNBOUND:                -0.537
REMARK SMILES C=CC(=O)CCCCC
REMARK SMILES IDX 6 1 7 2 8 3 9 4 5 5 3 6 4 7 2 8 1 9
REMARK H PARENT
REMARK Flexibility Score: inf
ROOT
ATOM      1  C   UNL     1      27.485  -5.117  53.660  1.00  0.00     0.008 C 
ENDROOT
BRANCH   1   2
ATOM      2  C   UNL     1      26.164  -5.337  54.418  1.00  0.00     0.000 C 
BRANCH   2   3
ATOM      3  C   UNL     1      25.631  -4.067  55.112  1.00  0.00    -0.003 C 
ATOM      4  C   UNL     1      24.292  -3.606  54.537  1.00  0.00     0.004 C 
ENDBRANCH   2   3
ENDBRANCH   1   2
BRANCH   1   5
ATOM      5  C   UNL     1      27.360  -5.382  52.155  1.00  0.00     0.080 C 
BRANCH   5   6
ATOM      6  C   UNL     1      26.513  -4.327  51.494  1.00  0.00     0.155 C 
ATOM      7  O   UNL     1      25.397  -4.664  51.016  1.00  0.00    -0.295 OA
BRANCH   6   8
ATOM      8  C   UNL     1      26.940  -2.918  51.351  1.00  0.00     0.039 C 
ATOM      9  C   UNL     1      26.464  -1.916  52.090  1.00  0.00     0.012 C 
ENDBRANCH   6   8
ENDBRANCH   5   6
ENDBRANCH   1   5
TORSDOF 5
ENDMDL
MODEL 7
REMARK VINA RESULT:    -3.104      2.283      3.995
REMARK INTER + INTRA:          -4.548
REMARK INTER:                  -4.176
REMARK INTRA:                  -0.372
REMARK UNBOUND:                -0.537
REMARK SMILES C=CC(=O)CCCCC
REMARK SMILES IDX 6 1 7 2 8 3 9 4 5 5 3 6 4 7 2 8 1 9
REMARK H PARENT
REMARK Flexibility Score: inf
ROOT
ATOM      1  C   UNL     1      26.117  -3.639  52.172  1.00  0.00     0.008 C 
ENDROOT
BRANCH   1   2
ATOM      2  C   UNL     1      26.539  -5.068  51.790  1.00  0.00     0.000 C 
BRANCH   2   3
ATOM      3  C   UNL     1      27.862  -5.518  52.443  1.00  0.00    -0.003 C 
ATOM      4  C   UNL     1      29.015  -5.579  51.442  1.00  0.00     0.004 C 
ENDBRANCH   2   3
ENDBRANCH   1   2
BRANCH   1   5
ATOM      5  C   UNL     1      24.765  -3.589  52.894  1.00  0.00     0.080 C 
BRANCH   5   6
ATOM      6  C   UNL     1      24.946  -3.215  54.342  1.00  0.00     0.155 C 
ATOM      7  O   UNL     1      25.130  -2.002  54.631  1.00  0.00    -0.295 OA
BRANCH   6   8
ATOM      8  C   UNL     1      24.949  -4.205  55.440  1.00  0.00     0.039 C 
ATOM      9  C   UNL     1      25.866  -5.163  55.576  1.00  0.00     0.012 C 
ENDBRANCH   6   8
ENDBRANCH   5   6
ENDBRANCH   1   5
TORSDOF 5
ENDMDL
MODEL 8
REMARK VINA RESULT:    -3.088      1.087      2.591
REMARK INTER + INTRA:          -4.527
REMARK INTER:                  -3.976
REMARK INTRA:                  -0.551
REMARK UNBOUND:                -0.537
REMARK SMILES C=CC(=O)CCCCC
REMARK SMILES IDX 6 1 7 2 8 3 9 4 5 5 3 6 4 7 2 8 1 9
REMARK H PARENT
REMARK Flexibility Score: inf
ROOT
ATOM      1  C   UNL     1      26.233  -5.557  54.752  1.00  0.00     0.008 C 
ENDROOT
BRANCH   1   2
ATOM      2  C   UNL     1      25.530  -4.429  55.527  1.00  0.00     0.000 C 
BRANCH   2   3
ATOM      3  C   UNL     1      24.505  -3.644  54.683  1.00  0.00    -0.003 C 
ATOM      4  C   UNL     1      24.929  -2.195  54.449  1.00  0.00     0.004 C 
ENDBRANCH   2   3
ENDBRANCH   1   2
BRANCH   1   5
ATOM      5  C   UNL     1      27.562  -5.114  54.127  1.00  0.00     0.080 C 
BRANCH   5   6
ATOM      6  C   UNL     1      27.573  -5.388  52.646  1.00  0.00     0.155 C 
ATOM      7  O   UNL     1      28.627  -5.846  52.128  1.00  0.00    -0.295 OA
BRANCH   6   8
ATOM      8  C   UNL     1      26.419  -5.115  51.763  1.00  0.00     0.039 C 
ATOM      9  C   UNL     1      26.069  -3.897  51.350  1.00  0.00     0.012 C 
ENDBRANCH   6   8
ENDBRANCH   5   6
ENDBRANCH   1   5
TORSDOF 5
ENDMDL
MODEL 9
REMARK VINA RESULT:    -3.027      1.623      2.139
REMARK INTER + INTRA:          -4.449
REMARK INTER:                  -3.842
REMARK INTRA:                  -0.607
REMARK UNBOUND:                -0.537
REMARK SMILES C=CC(=O)CCCCC
REMARK SMILES IDX 6 1 7 2 8 3 9 4 5 5 3 6 4 7 2 8 1 9
REMARK H PARENT
REMARK Flexibility Score: inf
ROOT
ATOM      1  C   UNL     1      26.091  -3.730  51.424  1.00  0.00     0.008 C 
ENDROOT
BRANCH   1   2
ATOM      2  C   UNL     1      27.307  -2.792  51.337  1.00  0.00     0.000 C 
BRANCH   2   3
ATOM      3  C   UNL     1      27.134  -1.480  52.130  1.00  0.00    -0.003 C 
ATOM      4  C   UNL     1      25.794  -1.413  52.862  1.00  0.00     0.004 C 
ENDBRANCH   2   3
ENDBRANCH   1   2
BRANCH   1   5
ATOM      5  C   UNL     1      26.478  -5.180  51.739  1.00  0.00     0.080 C 
BRANCH   5   6
ATOM      6  C   UNL     1      27.036  -5.294  53.133  1.00  0.00     0.155 C 
ATOM      7  O   UNL     1      28.226  -5.682  53.275  1.00  0.00    -0.295 OA
BRANCH   6   8
ATOM      8  C   UNL     1      26.245  -5.002  54.348  1.00  0.00     0.039 C 
ATOM      9  C   UNL     1      26.615  -4.130  55.286  1.00  0.00     0.012 C 
ENDBRANCH   6   8
ENDBRANCH   5   6
ENDBRANCH   1   5
TORSDOF 5
ENDMDL
