MODEL 1
REMARK VINA RESULT:    -3.872      0.000      0.000
REMARK INTER + INTRA:          -5.625
REMARK INTER:                  -5.230
REMARK INTRA:                  -0.396
REMARK UNBOUND:                -0.396
REMARK SMILES CCCCCCCC(=O)[O-]
REMARK SMILES IDX 5 1 6 2 7 3 8 4 9 5 10 6 4 7 3 8 2 9 1 10
REMARK H PARENT
REMARK Flexibility Score: inf
ROOT
ATOM      1  C   UNL     1      88.993  76.994  73.630  1.00  0.00     0.000 C 
ENDROOT
BRANCH   1   2
ATOM      2  C   UNL     1      87.890  76.018  73.184  1.00  0.00     0.006 C 
BRANCH   2   3
ATOM      3  C   UNL     1      87.069  75.493  74.369  1.00  0.00     0.053 C 
BRANCH   3   4
ATOM      4  C   UNL     1      86.322  76.595  75.056  1.00  0.00     0.041 C 
ATOM      5  O   UNL     1      86.568  76.875  76.259  1.00  0.00    -0.550 OA
ATOM      6  O   UNL     1      85.377  77.336  74.357  1.00  0.00    -0.550 OA
ENDBRANCH   3   4
ENDBRANCH   2   3
ENDBRANCH   1   2
BRANCH   1   7
ATOM      7  C   UNL     1      89.375  77.994  72.528  1.00  0.00     0.000 C 
BRANCH   7   8
ATOM      8  C   UNL     1      88.201  78.311  71.584  1.00  0.00    -0.000 C 
BRANCH   8   9
ATOM      9  C   UNL     1      88.631  78.367  70.109  1.00  0.00    -0.003 C 
ATOM     10  C   UNL     1      90.104  78.012  69.910  1.00  0.00     0.004 C 
ENDBRANCH   8   9
ENDBRANCH   7   8
ENDBRANCH   1   7
TORSDOF 6
ENDMDL
MODEL 2
REMARK VINA RESULT:    -3.793      2.095      4.459
REMARK INTER + INTRA:          -5.519
REMARK INTER:                  -5.037
REMARK INTRA:                  -0.482
REMARK UNBOUND:                -0.396
REMARK SMILES CCCCCCCC(=O)[O-]
REMARK SMILES IDX 5 1 6 2 7 3 8 4 9 5 10 6 4 7 3 8 2 9 1 10
REMARK H PARENT
REMARK Flexibility Score: inf
ROOT
ATOM      1  C   UNL     1      88.731  76.783  73.956  1.00  0.00     0.000 C 
ENDROOT
BRANCH   1   2
ATOM      2  C   UNL     1      88.527  76.279  72.516  1.00  0.00     0.006 C 
BRANCH   2   3
ATOM      3  C   UNL     1      88.899  77.341  71.474  1.00  0.00     0.053 C 
BRANCH   3   4
ATOM      4  C   UNL     1      87.908  78.464  71.450  1.00  0.00     0.041 C 
ATOM      5  O   UNL     1      88.286  79.640  71.204  1.00  0.00    -0.550 OA
ATOM      6  O   UNL     1      86.559  78.206  71.665  1.00  0.00    -0.550 OA
ENDBRANCH   3   4
ENDBRANCH   2   3
ENDBRANCH   1   2
BRANCH   1   7
ATOM      7  C   UNL     1      87.588  76.363  74.894  1.00  0.00     0.000 C 
BRANCH   7   8
ATOM      8  C   UNL     1      86.632  75.347  74.244  1.00  0.00    -0.000 C 
BRANCH   8   9
ATOM      9  C   UNL     1      85.154  75.723  74.437  1.00  0.00    -0.003 C 
ATOM     10  C   UNL     1      84.957  77.210  74.730  1.00  0.00     0.004 C 
ENDBRANCH   8   9
ENDBRANCH   7   8
ENDBRANCH   1   7
TORSDOF 6
ENDMDL
MODEL 3
REMARK VINA RESULT:    -3.780      3.198      4.917
REMARK INTER + INTRA:          -5.501
REMARK INTER:                  -4.906
REMARK INTRA:                  -0.595
REMARK UNBOUND:                -0.396
REMARK SMILES CCCCCCCC(=O)[O-]
REMARK SMILES IDX 5 1 6 2 7 3 8 4 9 5 10 6 4 7 3 8 2 9 1 10
REMARK H PARENT
REMARK Flexibility Score: inf
ROOT
ATOM      1  C   UNL     1      88.364  78.864  71.237  1.00  0.00     0.000 C 
ENDROOT
BRANCH   1   2
ATOM      2  C   UNL     1      88.937  78.179  69.984  1.00  0.00     0.006 C 
BRANCH   2   3
ATOM      3  C   UNL     1      90.413  77.798  70.157  1.00  0.00     0.053 C 
BRANCH   3   4
ATOM      4  C   UNL     1      90.589  76.320  70.324  1.00  0.00     0.041 C 
ATOM      5  O   UNL     1      91.743  75.821  70.390  1.00  0.00    -0.550 OA
ATOM      6  O   UNL     1      89.475  75.497  70.441  1.00  0.00    -0.550 OA
ENDBRANCH   3   4
ENDBRANCH   2   3
ENDBRANCH   1   2
BRANCH   1   7
ATOM      7  C   UNL     1      87.109  78.157  71.773  1.00  0.00     0.000 C 
BRANCH   7   8
ATOM      8  C   UNL     1      87.440  77.076  72.817  1.00  0.00    -0.000 C 
BRANCH   8   9
ATOM      9  C   UNL     1      88.805  77.302  73.486  1.00  0.00    -0.003 C 
ATOM     10  C   UNL     1      89.414  76.011  74.035  1.00  0.00     0.004 C 
ENDBRANCH   8   9
ENDBRANCH   7   8
ENDBRANCH   1   7
TORSDOF 6
ENDMDL
MODEL 4
REMARK VINA RESULT:    -3.760     13.078     14.230
REMARK INTER + INTRA:          -5.475
REMARK INTER:                  -5.231
REMARK INTRA:                  -0.245
REMARK UNBOUND:                -0.396
REMARK SMILES CCCCCCCC(=O)[O-]
REMARK SMILES IDX 5 1 6 2 7 3 8 4 9 5 10 6 4 7 3 8 2 9 1 10
REMARK H PARENT
REMARK Flexibility Score: inf
ROOT
ATOM      1  C   UNL     1      96.613  86.085  79.910  1.00  0.00     0.000 C 
ENDROOT
BRANCH   1   2
ATOM      2  C   UNL     1      97.084  85.239  81.107  1.00  0.00     0.006 C 
BRANCH   2   3
ATOM      3  C   UNL     1      98.613  85.188  81.212  1.00  0.00     0.053 C 
BRANCH   3   4
ATOM      4  C   UNL     1      99.089  83.868  81.738  1.00  0.00     0.041 C 
ATOM      5  O   UNL     1     100.314  83.674  81.952  1.00  0.00    -0.550 OA
ATOM      6  O   UNL     1      98.173  82.863  82.026  1.00  0.00    -0.550 OA
ENDBRANCH   3   4
ENDBRANCH   2   3
ENDBRANCH   1   2
BRANCH   1   7
ATOM      7  C   UNL     1      95.279  85.591  79.328  1.00  0.00     0.000 C 
BRANCH   7   8
ATOM      8  C   UNL     1      94.867  84.215  79.880  1.00  0.00    -0.000 C 
BRANCH   8   9
ATOM      9  C   UNL     1      93.558  83.700  79.261  1.00  0.00    -0.003 C 
ATOM     10  C   UNL     1      92.579  84.827  78.929  1.00  0.00     0.004 C 
ENDBRANCH   8   9
ENDBRANCH   7   8
ENDBRANCH   1   7
TORSDOF 6
ENDMDL
MODEL 5
REMARK VINA RESULT:    -3.755     11.248     12.393
REMARK INTER + INTRA:          -5.468
REMARK INTER:                  -5.219
REMARK INTRA:                  -0.249
REMARK UNBOUND:                -0.396
REMARK SMILES CCCCCCCC(=O)[O-]
REMARK SMILES IDX 5 1 6 2 7 3 8 4 9 5 10 6 4 7 3 8 2 9 1 10
REMARK H PARENT
REMARK Flexibility Score: inf
ROOT
ATOM      1  C   UNL     1      92.610  84.399  79.403  1.00  0.00     0.000 C 
ENDROOT
BRANCH   1   2
ATOM      2  C   UNL     1      94.069  83.961  79.179  1.00  0.00     0.006 C 
BRANCH   2   3
ATOM      3  C   UNL     1      95.025  84.593  80.199  1.00  0.00     0.053 C 
BRANCH   3   4
ATOM      4  C   UNL     1      95.863  85.670  79.580  1.00  0.00     0.041 C 
ATOM      5  O   UNL     1      97.053  85.841  79.952  1.00  0.00    -0.550 OA
ATOM      6  O   UNL     1      95.338  86.462  78.566  1.00  0.00    -0.550 OA
ENDBRANCH   3   4
ENDBRANCH   2   3
ENDBRANCH   1   2
BRANCH   1   7
ATOM      7  C   UNL     1      92.202  84.350  80.884  1.00  0.00     0.000 C 
BRANCH   7   8
ATOM      8  C   UNL     1      90.741  83.906  81.080  1.00  0.00    -0.000 C 
BRANCH   8   9
ATOM      9  C   UNL     1      89.790  84.545  80.056  1.00  0.00    -0.003 C 
ATOM     10  C   UNL     1      88.499  83.747  79.871  1.00  0.00     0.004 C 
ENDBRANCH   8   9
ENDBRANCH   7   8
ENDBRANCH   1   7
TORSDOF 6
ENDMDL
MODEL 6
REMARK VINA RESULT:    -3.744     11.635     12.838
REMARK INTER + INTRA:          -5.454
REMARK INTER:                  -5.170
REMARK INTRA:                  -0.284
REMARK UNBOUND:                -0.396
REMARK SMILES CCCCCCCC(=O)[O-]
REMARK SMILES IDX 5 1 6 2 7 3 8 4 9 5 10 6 4 7 3 8 2 9 1 10
REMARK H PARENT
REMARK Flexibility Score: inf
ROOT
ATOM      1  C   UNL     1      93.049  83.746  79.708  1.00  0.00     0.000 C 
ENDROOT
BRANCH   1   2
ATOM      2  C   UNL     1      94.502  83.998  79.267  1.00  0.00     0.006 C 
BRANCH   2   3
ATOM      3  C   UNL     1      95.286  84.814  80.303  1.00  0.00     0.053 C 
BRANCH   3   4
ATOM      4  C   UNL     1      96.177  85.827  79.651  1.00  0.00     0.041 C 
ATOM      5  O   UNL     1      95.756  86.511  78.681  1.00  0.00    -0.550 OA
ATOM      6  O   UNL     1      97.461  86.040  80.138  1.00  0.00    -0.550 OA
ENDBRANCH   3   4
ENDBRANCH   2   3
ENDBRANCH   1   2
BRANCH   1   7
ATOM      7  C   UNL     1      92.066  84.762  79.106  1.00  0.00     0.000 C 
BRANCH   7   8
ATOM      8  C   UNL     1      90.747  84.848  79.895  1.00  0.00    -0.000 C 
BRANCH   8   9
ATOM      9  C   UNL     1      90.733  83.922  81.121  1.00  0.00    -0.003 C 
ATOM     10  C   UNL     1      90.833  84.688  82.440  1.00  0.00     0.004 C 
ENDBRANCH   8   9
ENDBRANCH   7   8
ENDBRANCH   1   7
TORSDOF 6
ENDMDL
MODEL 7
REMARK VINA RESULT:    -3.723      1.697      2.625
REMARK INTER + INTRA:          -5.425
REMARK INTER:                  -4.800
REMARK INTRA:                  -0.625
REMARK UNBOUND:                -0.396
REMARK SMILES CCCCCCCC(=O)[O-]
REMARK SMILES IDX 5 1 6 2 7 3 8 4 9 5 10 6 4 7 3 8 2 9 1 10
REMARK H PARENT
REMARK Flexibility Score: inf
ROOT
ATOM      1  C   UNL     1      88.060  76.953  75.198  1.00  0.00     0.000 C 
ENDROOT
BRANCH   1   2
ATOM      2  C   UNL     1      86.676  76.452  75.647  1.00  0.00     0.006 C 
BRANCH   2   3
ATOM      3  C   UNL     1      85.536  77.171  74.914  1.00  0.00     0.053 C 
BRANCH   3   4
ATOM      4  C   UNL     1      85.513  76.829  73.455  1.00  0.00     0.041 C 
ATOM      5  O   UNL     1      85.419  77.740  72.591  1.00  0.00    -0.550 OA
ATOM      6  O   UNL     1      85.631  75.505  73.050  1.00  0.00    -0.550 OA
ENDBRANCH   3   4
ENDBRANCH   2   3
ENDBRANCH   1   2
BRANCH   1   7
ATOM      7  C   UNL     1      88.896  75.851  74.527  1.00  0.00     0.000 C 
BRANCH   7   8
ATOM      8  C   UNL     1      89.228  76.173  73.059  1.00  0.00    -0.000 C 
BRANCH   8   9
ATOM      9  C   UNL     1      89.143  77.677  72.752  1.00  0.00    -0.003 C 
ATOM     10  C   UNL     1      88.658  77.962  71.330  1.00  0.00     0.004 C 
ENDBRANCH   8   9
ENDBRANCH   7   8
ENDBRANCH   1   7
TORSDOF 6
ENDMDL
MODEL 8
REMARK VINA RESULT:    -3.709     11.760     12.726
REMARK INTER + INTRA:          -5.405
REMARK INTER:                  -4.902
REMARK INTRA:                  -0.503
REMARK UNBOUND:                -0.396
REMARK SMILES CCCCCCCC(=O)[O-]
REMARK SMILES IDX 5 1 6 2 7 3 8 4 9 5 10 6 4 7 3 8 2 9 1 10
REMARK H PARENT
REMARK Flexibility Score: inf
ROOT
ATOM      1  C   UNL     1      93.187  83.478  79.995  1.00  0.00     0.000 C 
ENDROOT
BRANCH   1   2
ATOM      2  C   UNL     1      94.558  83.970  79.499  1.00  0.00     0.006 C 
BRANCH   2   3
ATOM      3  C   UNL     1      95.107  85.115  80.360  1.00  0.00     0.053 C 
BRANCH   3   4
ATOM      4  C   UNL     1      96.074  85.968  79.597  1.00  0.00     0.041 C 
ATOM      5  O   UNL     1      97.280  86.035  79.953  1.00  0.00    -0.550 OA
ATOM      6  O   UNL     1      95.650  86.662  78.470  1.00  0.00    -0.550 OA
ENDBRANCH   3   4
ENDBRANCH   2   3
ENDBRANCH   1   2
BRANCH   1   7
ATOM      7  C   UNL     1      92.415  84.561  80.765  1.00  0.00     0.000 C 
BRANCH   7   8
ATOM      8  C   UNL     1      91.142  85.015  80.030  1.00  0.00    -0.000 C 
BRANCH   8   9
ATOM      9  C   UNL     1      91.238  86.464  79.527  1.00  0.00    -0.003 C 
ATOM     10  C   UNL     1      92.073  86.592  78.253  1.00  0.00     0.004 C 
ENDBRANCH   8   9
ENDBRANCH   7   8
ENDBRANCH   1   7
TORSDOF 6
ENDMDL
MODEL 9
REMARK VINA RESULT:    -3.642     11.409     12.598
REMARK INTER + INTRA:          -5.315
REMARK INTER:                  -4.972
REMARK INTRA:                  -0.343
REMARK UNBOUND:                -0.396
REMARK SMILES CCCCCCCC(=O)[O-]
REMARK SMILES IDX 5 1 6 2 7 3 8 4 9 5 10 6 4 7 3 8 2 9 1 10
REMARK H PARENT
REMARK Flexibility Score: inf
ROOT
ATOM      1  C   UNL     1      92.058  84.762  79.093  1.00  0.00     0.000 C 
ENDROOT
BRANCH   1   2
ATOM      2  C   UNL     1      93.037  83.917  79.928  1.00  0.00     0.006 C 
BRANCH   2   3
ATOM      3  C   UNL     1      94.459  83.944  79.353  1.00  0.00     0.053 C 
BRANCH   3   4
ATOM      4  C   UNL     1      95.204  85.173  79.775  1.00  0.00     0.041 C 
ATOM      5  O   UNL     1      95.753  85.910  78.914  1.00  0.00    -0.550 OA
ATOM      6  O   UNL     1      95.264  85.523  81.119  1.00  0.00    -0.550 OA
ENDBRANCH   3   4
ENDBRANCH   2   3
ENDBRANCH   1   2
BRANCH   1   7
ATOM      7  C   UNL     1      90.619  84.697  79.629  1.00  0.00     0.000 C 
BRANCH   7   8
ATOM      8  C   UNL     1      90.533  84.028  81.012  1.00  0.00    -0.000 C 
BRANCH   8   9
ATOM      9  C   UNL     1      90.195  85.027  82.129  1.00  0.00    -0.003 C 
ATOM     10  C   UNL     1      91.167  84.946  83.307  1.00  0.00     0.004 C 
ENDBRANCH   8   9
ENDBRANCH   7   8
ENDBRANCH   1   7
TORSDOF 6
ENDMDL
