MODEL 1
REMARK VINA RESULT:    -3.930      0.000      0.000
REMARK INTER + INTRA:          -7.842
REMARK INTER:                  -7.146
REMARK INTRA:                  -0.695
REMARK UNBOUND:                -0.695
REMARK SMILES CCCCCC=CCC=CCCCCCCCC(=O)[O-]
REMARK SMILES IDX 11 1 12 2 13 3 14 4 15 5 16 6 17 7 18 8 19 9 20 10 10 11
REMARK SMILES IDX 9 12 8 13 7 14 6 15 5 16 4 17 3 18 2 19 1 20
REMARK H PARENT
REMARK Flexibility Score: inf
ROOT
ATOM      1  C   UNL     1     120.946  71.700   1.504  1.00  0.00     0.027 C 
ENDROOT
BRANCH   1   2
ATOM      2  C   UNL     1     119.968  71.976   2.660  1.00  0.00     0.004 C 
BRANCH   2   3
ATOM      3  C   UNL     1     119.875  70.843   3.699  1.00  0.00     0.000 C 
BRANCH   3   4
ATOM      4  C   UNL     1     120.531  71.213   5.041  1.00  0.00     0.000 C 
BRANCH   4   5
ATOM      5  C   UNL     1     120.014  72.545   5.613  1.00  0.00     0.000 C 
BRANCH   5   6
ATOM      6  C   UNL     1     119.988  72.640   7.152  1.00  0.00     0.006 C 
BRANCH   6   7
ATOM      7  C   UNL     1     120.620  71.430   7.867  1.00  0.00     0.053 C 
BRANCH   7   8
ATOM      8  C   UNL     1     120.201  71.325   9.302  1.00  0.00     0.041 C 
ATOM      9  O   UNL     1     119.894  70.208   9.796  1.00  0.00    -0.550 OA
ATOM     10  O   UNL     1     120.192  72.456  10.110  1.00  0.00    -0.550 OA
ENDBRANCH   7   8
ENDBRANCH   6   7
ENDBRANCH   5   6
ENDBRANCH   4   5
ENDBRANCH   3   4
ENDBRANCH   2   3
ENDBRANCH   1   2
BRANCH   1  11
ATOM     11  C   UNL     1     120.267  71.101   0.302  1.00  0.00    -0.031 C 
ATOM     12  C   UNL     1     120.557  69.863  -0.126  1.00  0.00    -0.027 C 
BRANCH  12  13
ATOM     13  C   UNL     1     119.875  69.269  -1.327  1.00  0.00     0.054 C 
BRANCH  13  14
ATOM     14  C   UNL     1     120.394  69.875  -2.602  1.00  0.00    -0.027 C 
ATOM     15  C   UNL     1     120.046  69.383  -3.801  1.00  0.00    -0.031 C 
BRANCH  15  16
ATOM     16  C   UNL     1     120.560  69.987  -5.081  1.00  0.00     0.027 C 
BRANCH  16  17
ATOM     17  C   UNL     1     119.988  69.291  -6.325  1.00  0.00     0.004 C 
BRANCH  17  18
ATOM     18  C   UNL     1     120.758  68.004  -6.671  1.00  0.00     0.000 C 
BRANCH  18  19
ATOM     19  C   UNL     1     120.017  66.736  -6.221  1.00  0.00    -0.003 C 
ATOM     20  C   UNL     1     120.967  65.628  -5.765  1.00  0.00     0.004 C 
ENDBRANCH  18  19
ENDBRANCH  17  18
ENDBRANCH  16  17
ENDBRANCH  15  16
ENDBRANCH  13  14
ENDBRANCH  12  13
ENDBRANCH   1  11
TORSDOF 14
ENDMDL
MODEL 2
REMARK VINA RESULT:    -3.653      1.668      2.398
REMARK INTER + INTRA:          -7.339
REMARK INTER:                  -6.559
REMARK INTRA:                  -0.780
REMARK UNBOUND:                -0.695
REMARK SMILES CCCCCC=CCC=CCCCCCCCC(=O)[O-]
REMARK SMILES IDX 11 1 12 2 13 3 14 4 15 5 16 6 17 7 18 8 19 9 20 10 10 11
REMARK SMILES IDX 9 12 8 13 7 14 6 15 5 16 4 17 3 18 2 19 1 20
REMARK H PARENT
REMARK Flexibility Score: inf
ROOT
ATOM      1  C   UNL     1     121.063  70.434   0.199  1.00  0.00     0.027 C 
ENDROOT
BRANCH   1   2
ATOM      2  C   UNL     1     119.899  70.544   1.200  1.00  0.00     0.004 C 
BRANCH   2   3
ATOM      3  C   UNL     1     120.320  70.971   2.620  1.00  0.00     0.000 C 
BRANCH   3   4
ATOM      4  C   UNL     1     120.486  72.495   2.755  1.00  0.00     0.000 C 
BRANCH   4   5
ATOM      5  C   UNL     1     120.635  72.954   4.216  1.00  0.00     0.000 C 
BRANCH   5   6
ATOM      6  C   UNL     1     119.875  72.109   5.258  1.00  0.00     0.006 C 
BRANCH   6   7
ATOM      7  C   UNL     1     120.767  71.543   6.379  1.00  0.00     0.053 C 
BRANCH   7   8
ATOM      8  C   UNL     1     120.566  72.247   7.687  1.00  0.00     0.041 C 
ATOM      9  O   UNL     1     120.881  71.684   8.769  1.00  0.00    -0.550 OA
ATOM     10  O   UNL     1     120.071  73.546   7.711  1.00  0.00    -0.550 OA
ENDBRANCH   7   8
ENDBRANCH   6   7
ENDBRANCH   5   6
ENDBRANCH   4   5
ENDBRANCH   3   4
ENDBRANCH   2   3
ENDBRANCH   1   2
BRANCH   1  11
ATOM     11  C   UNL     1     121.055  69.134  -0.559  1.00  0.00    -0.031 C 
ATOM     12  C   UNL     1     120.399  68.057  -0.103  1.00  0.00    -0.027 C 
BRANCH  12  13
ATOM     13  C   UNL     1     120.392  66.762  -0.865  1.00  0.00     0.054 C 
BRANCH  13  14
ATOM     14  C   UNL     1     119.875  66.956  -2.263  1.00  0.00    -0.027 C 
ATOM     15  C   UNL     1     120.642  66.700  -3.334  1.00  0.00    -0.031 C 
BRANCH  15  16
ATOM     16  C   UNL     1     120.129  66.890  -4.737  1.00  0.00     0.027 C 
BRANCH  16  17
ATOM     17  C   UNL     1     120.417  65.676  -5.633  1.00  0.00     0.004 C 
BRANCH  17  18
ATOM     18  C   UNL     1     121.172  66.070  -6.914  1.00  0.00     0.000 C 
BRANCH  18  19
ATOM     19  C   UNL     1     120.360  67.018  -7.809  1.00  0.00    -0.003 C 
ATOM     20  C   UNL     1     121.238  68.025  -8.550  1.00  0.00     0.004 C 
ENDBRANCH  18  19
ENDBRANCH  17  18
ENDBRANCH  16  17
ENDBRANCH  15  16
ENDBRANCH  13  14
ENDBRANCH  12  13
ENDBRANCH   1  11
TORSDOF 14
ENDMDL
MODEL 3
REMARK VINA RESULT:    -3.622      1.333      2.060
REMARK INTER + INTRA:          -7.282
REMARK INTER:                  -6.552
REMARK INTRA:                  -0.730
REMARK UNBOUND:                -0.695
REMARK SMILES CCCCCC=CCC=CCCCCCCCC(=O)[O-]
REMARK SMILES IDX 11 1 12 2 13 3 14 4 15 5 16 6 17 7 18 8 19 9 20 10 10 11
REMARK SMILES IDX 9 12 8 13 7 14 6 15 5 16 4 17 3 18 2 19 1 20
REMARK H PARENT
REMARK Flexibility Score: inf
ROOT
ATOM      1  C   UNL     1     121.100  69.572   0.554  1.00  0.00     0.027 C 
ENDROOT
BRANCH   1   2
ATOM      2  C   UNL     1     120.386  70.901   0.253  1.00  0.00     0.004 C 
BRANCH   2   3
ATOM      3  C   UNL     1     119.951  71.687   1.505  1.00  0.00     0.000 C 
BRANCH   3   4
ATOM      4  C   UNL     1     120.017  70.841   2.788  1.00  0.00     0.000 C 
BRANCH   4   5
ATOM      5  C   UNL     1     120.331  71.677   4.041  1.00  0.00     0.000 C 
BRANCH   5   6
ATOM      6  C   UNL     1     120.699  70.868   5.302  1.00  0.00     0.006 C 
BRANCH   6   7
ATOM      7  C   UNL     1     119.875  71.240   6.550  1.00  0.00     0.053 C 
BRANCH   7   8
ATOM      8  C   UNL     1     120.538  72.291   7.387  1.00  0.00     0.041 C 
ATOM      9  O   UNL     1     121.411  71.971   8.237  1.00  0.00    -0.550 OA
ATOM     10  O   UNL     1     120.225  73.632   7.200  1.00  0.00    -0.550 OA
ENDBRANCH   7   8
ENDBRANCH   6   7
ENDBRANCH   5   6
ENDBRANCH   4   5
ENDBRANCH   3   4
ENDBRANCH   2   3
ENDBRANCH   1   2
BRANCH   1  11
ATOM     11  C   UNL     1     120.777  68.499  -0.451  1.00  0.00    -0.031 C 
ATOM     12  C   UNL     1     120.311  68.797  -1.673  1.00  0.00    -0.027 C 
BRANCH  12  13
ATOM     13  C   UNL     1     119.991  67.722  -2.674  1.00  0.00     0.054 C 
BRANCH  13  14
ATOM     14  C   UNL     1     119.875  68.289  -4.062  1.00  0.00    -0.027 C 
ATOM     15  C   UNL     1     120.514  69.416  -4.413  1.00  0.00    -0.031 C 
BRANCH  15  16
ATOM     16  C   UNL     1     120.404  69.986  -5.801  1.00  0.00     0.027 C 
BRANCH  16  17
ATOM     17  C   UNL     1     120.091  68.909  -6.852  1.00  0.00     0.004 C 
BRANCH  17  18
ATOM     18  C   UNL     1     121.217  67.868  -6.965  1.00  0.00     0.000 C 
BRANCH  18  19
ATOM     19  C   UNL     1     120.763  66.583  -7.674  1.00  0.00    -0.003 C 
ATOM     20  C   UNL     1     120.982  65.331  -6.826  1.00  0.00     0.004 C 
ENDBRANCH  18  19
ENDBRANCH  17  18
ENDBRANCH  16  17
ENDBRANCH  15  16
ENDBRANCH  13  14
ENDBRANCH  12  13
ENDBRANCH   1  11
TORSDOF 14
ENDMDL
MODEL 4
REMARK VINA RESULT:    -3.542      5.954     12.115
REMARK INTER + INTRA:          -7.136
REMARK INTER:                  -6.512
REMARK INTRA:                  -0.624
REMARK UNBOUND:                -0.695
REMARK SMILES CCCCCC=CCC=CCCCCCCCC(=O)[O-]
REMARK SMILES IDX 11 1 12 2 13 3 14 4 15 5 16 6 17 7 18 8 19 9 20 10 10 11
REMARK SMILES IDX 9 12 8 13 7 14 6 15 5 16 4 17 3 18 2 19 1 20
REMARK H PARENT
REMARK Flexibility Score: inf
ROOT
ATOM      1  C   UNL     1     121.205  69.748  -0.789  1.00  0.00     0.027 C 
ENDROOT
BRANCH   1   2
ATOM      2  C   UNL     1     120.380  70.272  -1.978  1.00  0.00     0.004 C 
BRANCH   2   3
ATOM      3  C   UNL     1     119.964  69.189  -2.991  1.00  0.00     0.000 C 
BRANCH   3   4
ATOM      4  C   UNL     1     120.283  69.581  -4.444  1.00  0.00     0.000 C 
BRANCH   4   5
ATOM      5  C   UNL     1     119.875  68.501  -5.460  1.00  0.00     0.000 C 
BRANCH   5   6
ATOM      6  C   UNL     1     120.543  67.124  -5.268  1.00  0.00     0.006 C 
BRANCH   6   7
ATOM      7  C   UNL     1     120.077  66.054  -6.274  1.00  0.00     0.053 C 
BRANCH   7   8
ATOM      8  C   UNL     1     121.111  65.751  -7.316  1.00  0.00     0.041 C 
ATOM      9  O   UNL     1     121.687  66.687  -7.931  1.00  0.00    -0.550 OA
ATOM     10  O   UNL     1     121.471  64.435  -7.579  1.00  0.00    -0.550 OA
ENDBRANCH   7   8
ENDBRANCH   6   7
ENDBRANCH   5   6
ENDBRANCH   4   5
ENDBRANCH   3   4
ENDBRANCH   2   3
ENDBRANCH   1   2
BRANCH   1  11
ATOM     11  C   UNL     1     120.779  70.351   0.522  1.00  0.00    -0.031 C 
ATOM     12  C   UNL     1     120.382  71.628   0.614  1.00  0.00    -0.027 C 
BRANCH  12  13
ATOM     13  C   UNL     1     119.956  72.225   1.926  1.00  0.00     0.054 C 
BRANCH  13  14
ATOM     14  C   UNL     1     120.294  71.314   3.073  1.00  0.00    -0.027 C 
ATOM     15  C   UNL     1     120.262  71.747   4.343  1.00  0.00    -0.031 C 
BRANCH  15  16
ATOM     16  C   UNL     1     120.597  70.838   5.496  1.00  0.00     0.027 C 
BRANCH  16  17
ATOM     17  C   UNL     1     120.033  71.355   6.828  1.00  0.00     0.004 C 
BRANCH  17  18
ATOM     18  C   UNL     1     121.123  71.478   7.907  1.00  0.00     0.000 C 
BRANCH  18  19
ATOM     19  C   UNL     1     120.606  72.136   9.195  1.00  0.00    -0.003 C 
ATOM     20  C   UNL     1     120.013  73.523   8.952  1.00  0.00     0.004 C 
ENDBRANCH  18  19
ENDBRANCH  17  18
ENDBRANCH  16  17
ENDBRANCH  15  16
ENDBRANCH  13  14
ENDBRANCH  12  13
ENDBRANCH   1  11
TORSDOF 14
ENDMDL
MODEL 5
REMARK VINA RESULT:    -3.473      1.992      3.729
REMARK INTER + INTRA:          -7.011
REMARK INTER:                  -6.436
REMARK INTRA:                  -0.575
REMARK UNBOUND:                -0.695
REMARK SMILES CCCCCC=CCC=CCCCCCCCC(=O)[O-]
REMARK SMILES IDX 11 1 12 2 13 3 14 4 15 5 16 6 17 7 18 8 19 9 20 10 10 11
REMARK SMILES IDX 9 12 8 13 7 14 6 15 5 16 4 17 3 18 2 19 1 20
REMARK H PARENT
REMARK Flexibility Score: inf
ROOT
ATOM      1  C   UNL     1     120.725  69.597  -0.968  1.00  0.00     0.027 C 
ENDROOT
BRANCH   1   2
ATOM      2  C   UNL     1     119.875  69.350   0.291  1.00  0.00     0.004 C 
BRANCH   2   3
ATOM      3  C   UNL     1     120.229  70.258   1.485  1.00  0.00     0.000 C 
BRANCH   3   4
ATOM      4  C   UNL     1     120.596  71.688   1.053  1.00  0.00     0.000 C 
BRANCH   4   5
ATOM      5  C   UNL     1     120.929  72.606   2.242  1.00  0.00     0.000 C 
BRANCH   5   6
ATOM      6  C   UNL     1     119.875  72.641   3.368  1.00  0.00     0.006 C 
BRANCH   6   7
ATOM      7  C   UNL     1     120.473  72.662   4.788  1.00  0.00     0.053 C 
BRANCH   7   8
ATOM      8  C   UNL     1     120.592  71.292   5.384  1.00  0.00     0.041 C 
ATOM      9  O   UNL     1     120.294  70.274   4.704  1.00  0.00    -0.550 OA
ATOM     10  O   UNL     1     121.074  71.134   6.678  1.00  0.00    -0.550 OA
ENDBRANCH   7   8
ENDBRANCH   6   7
ENDBRANCH   5   6
ENDBRANCH   4   5
ENDBRANCH   3   4
ENDBRANCH   2   3
ENDBRANCH   1   2
BRANCH   1  11
ATOM     11  C   UNL     1     120.111  69.004  -2.208  1.00  0.00    -0.031 C 
ATOM     12  C   UNL     1     120.500  69.380  -3.435  1.00  0.00    -0.027 C 
BRANCH  12  13
ATOM     13  C   UNL     1     119.884  68.784  -4.670  1.00  0.00     0.054 C 
BRANCH  13  14
ATOM     14  C   UNL     1     120.571  67.503  -5.055  1.00  0.00    -0.027 C 
ATOM     15  C   UNL     1     120.008  66.638  -5.914  1.00  0.00    -0.031 C 
BRANCH  15  16
ATOM     16  C   UNL     1     120.692  65.356  -6.305  1.00  0.00     0.027 C 
BRANCH  16  17
ATOM     17  C   UNL     1     120.228  64.843  -7.677  1.00  0.00     0.004 C 
BRANCH  17  18
ATOM     18  C   UNL     1     121.309  65.024  -8.757  1.00  0.00     0.000 C 
BRANCH  18  19
ATOM     19  C   UNL     1     121.981  66.404  -8.692  1.00  0.00    -0.003 C 
ATOM     20  C   UNL     1     121.041  67.538  -9.101  1.00  0.00     0.004 C 
ENDBRANCH  18  19
ENDBRANCH  17  18
ENDBRANCH  16  17
ENDBRANCH  15  16
ENDBRANCH  13  14
ENDBRANCH  12  13
ENDBRANCH   1  11
TORSDOF 14
ENDMDL
MODEL 6
REMARK VINA RESULT:    -3.030      1.451      2.840
REMARK INTER + INTRA:          -6.205
REMARK INTER:                  -5.458
REMARK INTRA:                  -0.747
REMARK UNBOUND:                -0.695
REMARK SMILES CCCCCC=CCC=CCCCCCCCC(=O)[O-]
REMARK SMILES IDX 11 1 12 2 13 3 14 4 15 5 16 6 17 7 18 8 19 9 20 10 10 11
REMARK SMILES IDX 9 12 8 13 7 14 6 15 5 16 4 17 3 18 2 19 1 20
REMARK H PARENT
REMARK Flexibility Score: inf
ROOT
ATOM      1  C   UNL     1     120.987  72.954   3.732  1.00  0.00     0.027 C 
ENDROOT
BRANCH   1   2
ATOM      2  C   UNL     1     120.060  72.659   4.925  1.00  0.00     0.004 C 
BRANCH   2   3
ATOM      3  C   UNL     1     120.256  71.266   5.553  1.00  0.00     0.000 C 
BRANCH   3   4
ATOM      4  C   UNL     1     121.356  71.251   6.629  1.00  0.00     0.000 C 
BRANCH   4   5
ATOM      5  C   UNL     1     120.892  70.614   7.951  1.00  0.00     0.000 C 
BRANCH   5   6
ATOM      6  C   UNL     1     119.875  71.439   8.764  1.00  0.00     0.006 C 
BRANCH   6   7
ATOM      7  C   UNL     1     120.045  72.964   8.620  1.00  0.00     0.053 C 
BRANCH   7   8
ATOM      8  C   UNL     1     119.956  73.681   9.933  1.00  0.00     0.041 C 
ATOM      9  O   UNL     1     119.963  73.034  11.014  1.00  0.00    -0.550 OA
ATOM     10  O   UNL     1     119.911  75.070   9.967  1.00  0.00    -0.550 OA
ENDBRANCH   7   8
ENDBRANCH   6   7
ENDBRANCH   5   6
ENDBRANCH   4   5
ENDBRANCH   3   4
ENDBRANCH   2   3
ENDBRANCH   1   2
BRANCH   1  11
ATOM     11  C   UNL     1     120.323  72.702   2.405  1.00  0.00    -0.031 C 
ATOM     12  C   UNL     1     120.714  71.703   1.601  1.00  0.00    -0.027 C 
BRANCH  12  13
ATOM     13  C   UNL     1     120.046  71.454   0.277  1.00  0.00     0.054 C 
BRANCH  13  14
ATOM     14  C   UNL     1     119.894  69.982   0.013  1.00  0.00    -0.027 C 
ATOM     15  C   UNL     1     120.611  69.364  -0.938  1.00  0.00    -0.031 C 
BRANCH  15  16
ATOM     16  C   UNL     1     120.465  67.890  -1.206  1.00  0.00     0.027 C 
BRANCH  16  17
ATOM     17  C   UNL     1     120.024  67.600  -2.648  1.00  0.00     0.004 C 
BRANCH  17  18
ATOM     18  C   UNL     1     120.317  68.780  -3.591  1.00  0.00     0.000 C 
BRANCH  18  19
ATOM     19  C   UNL     1     119.912  68.489  -5.044  1.00  0.00    -0.003 C 
ATOM     20  C   UNL     1     120.445  69.532  -6.025  1.00  0.00     0.004 C 
ENDBRANCH  18  19
ENDBRANCH  17  18
ENDBRANCH  16  17
ENDBRANCH  15  16
ENDBRANCH  13  14
ENDBRANCH  12  13
ENDBRANCH   1  11
TORSDOF 14
ENDMDL
MODEL 7
REMARK VINA RESULT:    -1.970      2.580      3.826
REMARK INTER + INTRA:          -4.279
REMARK INTER:                  -3.415
REMARK INTRA:                  -0.863
REMARK UNBOUND:                -0.695
REMARK SMILES CCCCCC=CCC=CCCCCCCCC(=O)[O-]
REMARK SMILES IDX 11 1 12 2 13 3 14 4 15 5 16 6 17 7 18 8 19 9 20 10 10 11
REMARK SMILES IDX 9 12 8 13 7 14 6 15 5 16 4 17 3 18 2 19 1 20
REMARK H PARENT
REMARK Flexibility Score: inf
ROOT
ATOM      1  C   UNL     1     120.900  72.300   4.637  1.00  0.00     0.027 C 
ENDROOT
BRANCH   1   2
ATOM      2  C   UNL     1     119.907  71.523   5.520  1.00  0.00     0.004 C 
BRANCH   2   3
ATOM      3  C   UNL     1     120.308  70.060   5.792  1.00  0.00     0.000 C 
BRANCH   3   4
ATOM      4  C   UNL     1     120.588  69.790   7.281  1.00  0.00     0.000 C 
BRANCH   4   5
ATOM      5  C   UNL     1     119.876  70.783   8.215  1.00  0.00     0.000 C 
BRANCH   5   6
ATOM      6  C   UNL     1     120.800  71.619   9.124  1.00  0.00     0.006 C 
BRANCH   6   7
ATOM      7  C   UNL     1     120.055  72.611  10.036  1.00  0.00     0.053 C 
BRANCH   7   8
ATOM      8  C   UNL     1     120.138  74.024   9.542  1.00  0.00     0.041 C 
ATOM      9  O   UNL     1     120.106  74.985  10.354  1.00  0.00    -0.550 OA
ATOM     10  O   UNL     1     120.295  74.279   8.185  1.00  0.00    -0.550 OA
ENDBRANCH   7   8
ENDBRANCH   6   7
ENDBRANCH   5   6
ENDBRANCH   4   5
ENDBRANCH   3   4
ENDBRANCH   2   3
ENDBRANCH   1   2
BRANCH   1  11
ATOM     11  C   UNL     1     120.489  72.327   3.189  1.00  0.00    -0.031 C 
ATOM     12  C   UNL     1     120.966  73.250   2.340  1.00  0.00    -0.027 C 
BRANCH  12  13
ATOM     13  C   UNL     1     120.554  73.272   0.895  1.00  0.00     0.054 C 
BRANCH  13  14
ATOM     14  C   UNL     1     119.878  71.987   0.502  1.00  0.00    -0.027 C 
ATOM     15  C   UNL     1     120.575  70.955   0.003  1.00  0.00    -0.031 C 
BRANCH  15  16
ATOM     16  C   UNL     1     119.904  69.665  -0.389  1.00  0.00     0.027 C 
BRANCH  16  17
ATOM     17  C   UNL     1     120.114  69.326  -1.873  1.00  0.00     0.004 C 
BRANCH  17  18
ATOM     18  C   UNL     1     120.170  67.808  -2.116  1.00  0.00     0.000 C 
BRANCH  18  19
ATOM     19  C   UNL     1     120.831  67.049  -0.955  1.00  0.00    -0.003 C 
ATOM     20  C   UNL     1     119.950  65.927  -0.407  1.00  0.00     0.004 C 
ENDBRANCH  18  19
ENDBRANCH  17  18
ENDBRANCH  16  17
ENDBRANCH  15  16
ENDBRANCH  13  14
ENDBRANCH  12  13
ENDBRANCH   1  11
TORSDOF 14
ENDMDL
