MODEL 1
REMARK VINA RESULT:    -2.773      0.000      0.000
REMARK INTER + INTRA:          -3.307
REMARK INTER:                  -3.259
REMARK INTRA:                  -0.048
REMARK UNBOUND:                -0.048
REMARK SMILES O=C([O-])CCC(=O)[O-]
REMARK SMILES IDX 4 1 2 2 1 3 3 4 5 5 6 6 7 7 8 8
REMARK H PARENT
REMARK Flexibility Score: inf
ROOT
ATOM      1  C   UNL     1       4.583  -3.175  -0.156  1.00  0.00     0.059 C 
ENDROOT
BRANCH   1   2
ATOM      2  C   UNL     1       5.109  -1.772  -0.130  1.00  0.00     0.042 C 
ATOM      3  O   UNL     1       5.684  -1.330   0.900  1.00  0.00    -0.550 OA
ATOM      4  O   UNL     1       5.001  -0.967  -1.257  1.00  0.00    -0.550 OA
ENDBRANCH   1   2
BRANCH   1   5
ATOM      5  C   UNL     1       4.111  -3.628   1.230  1.00  0.00     0.059 C 
BRANCH   5   6
ATOM      6  C   UNL     1       2.692  -4.106   1.201  1.00  0.00     0.042 C 
ATOM      7  O   UNL     1       1.993  -4.082   2.248  1.00  0.00    -0.550 OA
ATOM      8  O   UNL     1       2.128  -4.541   0.007  1.00  0.00    -0.550 OA
ENDBRANCH   5   6
ENDBRANCH   1   5
TORSDOF 3
ENDMDL
MODEL 2
REMARK VINA RESULT:    -2.764      1.268      4.048
REMARK INTER + INTRA:          -3.297
REMARK INTER:                  -3.180
REMARK INTRA:                  -0.117
REMARK UNBOUND:                -0.048
REMARK SMILES O=C([O-])CCC(=O)[O-]
REMARK SMILES IDX 4 1 2 2 1 3 3 4 5 5 6 6 7 7 8 8
REMARK H PARENT
REMARK Flexibility Score: inf
ROOT
ATOM      1  C   UNL     1       4.924  -3.275   0.835  1.00  0.00     0.059 C 
ENDROOT
BRANCH   1   2
ATOM      2  C   UNL     1       3.524  -3.811   0.856  1.00  0.00     0.042 C 
ATOM      3  O   UNL     1       3.079  -4.459  -0.127  1.00  0.00    -0.550 OA
ATOM      4  O   UNL     1       2.727  -3.632   1.980  1.00  0.00    -0.550 OA
ENDBRANCH   1   2
BRANCH   1   5
ATOM      5  C   UNL     1       4.958  -1.804   0.406  1.00  0.00     0.059 C 
BRANCH   5   6
ATOM      6  C   UNL     1       5.262  -1.661  -1.053  1.00  0.00     0.042 C 
ATOM      7  O   UNL     1       5.631  -2.660  -1.724  1.00  0.00    -0.550 OA
ATOM      8  O   UNL     1       5.098  -0.432  -1.682  1.00  0.00    -0.550 OA
ENDBRANCH   5   6
ENDBRANCH   1   5
TORSDOF 3
ENDMDL
MODEL 3
REMARK VINA RESULT:    -2.756      2.419      5.178
REMARK INTER + INTRA:          -3.287
REMARK INTER:                  -3.184
REMARK INTRA:                  -0.104
REMARK UNBOUND:                -0.048
REMARK SMILES O=C([O-])CCC(=O)[O-]
REMARK SMILES IDX 4 1 2 2 1 3 3 4 5 5 6 6 7 7 8 8
REMARK H PARENT
REMARK Flexibility Score: inf
ROOT
ATOM      1  C   UNL     1       5.751  -1.837  -1.826  1.00  0.00     0.059 C 
ENDROOT
BRANCH   1   2
ATOM      2  C   UNL     1       5.031  -2.235  -0.572  1.00  0.00     0.042 C 
ATOM      3  O   UNL     1       4.987  -1.449   0.410  1.00  0.00    -0.550 OA
ATOM      4  O   UNL     1       4.374  -3.457  -0.506  1.00  0.00    -0.550 OA
ENDBRANCH   1   2
BRANCH   1   5
ATOM      5  C   UNL     1       5.350  -0.431  -2.284  1.00  0.00     0.059 C 
BRANCH   5   6
ATOM      6  C   UNL     1       6.446   0.562  -2.042  1.00  0.00     0.042 C 
ATOM      7  O   UNL     1       6.460   1.655  -2.666  1.00  0.00    -0.550 OA
ATOM      8  O   UNL     1       7.429   0.296  -1.096  1.00  0.00    -0.550 OA
ENDBRANCH   5   6
ENDBRANCH   1   5
TORSDOF 3
ENDMDL
MODEL 4
REMARK VINA RESULT:    -2.746      0.118      3.909
REMARK INTER + INTRA:          -3.276
REMARK INTER:                  -3.231
REMARK INTRA:                  -0.045
REMARK UNBOUND:                -0.048
REMARK SMILES O=C([O-])CCC(=O)[O-]
REMARK SMILES IDX 4 1 2 2 1 3 3 4 5 5 6 6 7 7 8 8
REMARK H PARENT
REMARK Flexibility Score: inf
ROOT
ATOM      1  C   UNL     1       4.051  -3.684   1.268  1.00  0.00     0.059 C 
ENDROOT
BRANCH   1   2
ATOM      2  C   UNL     1       2.631  -4.154   1.170  1.00  0.00     0.042 C 
ATOM      3  O   UNL     1       1.869  -4.078   2.169  1.00  0.00    -0.550 OA
ATOM      4  O   UNL     1       2.139  -4.636  -0.036  1.00  0.00    -0.550 OA
ENDBRANCH   1   2
BRANCH   1   5
ATOM      5  C   UNL     1       4.585  -3.214  -0.090  1.00  0.00     0.059 C 
BRANCH   5   6
ATOM      6  C   UNL     1       5.102  -1.810  -0.024  1.00  0.00     0.042 C 
ATOM      7  O   UNL     1       5.724  -1.412   0.995  1.00  0.00    -0.550 OA
ATOM      8  O   UNL     1       4.933  -0.953  -1.106  1.00  0.00    -0.550 OA
ENDBRANCH   5   6
ENDBRANCH   1   5
TORSDOF 3
ENDMDL
MODEL 5
REMARK VINA RESULT:    -2.735      1.728      2.540
REMARK INTER + INTRA:          -3.263
REMARK INTER:                  -3.233
REMARK INTRA:                  -0.030
REMARK UNBOUND:                -0.048
REMARK SMILES O=C([O-])CCC(=O)[O-]
REMARK SMILES IDX 4 1 2 2 1 3 3 4 5 5 6 6 7 7 8 8
REMARK H PARENT
REMARK Flexibility Score: inf
ROOT
ATOM      1  C   UNL     1       5.273  -1.224  -0.460  1.00  0.00     0.059 C 
ENDROOT
BRANCH   1   2
ATOM      2  C   UNL     1       5.700  -0.317  -1.574  1.00  0.00     0.042 C 
ATOM      3  O   UNL     1       4.960  -0.160  -2.581  1.00  0.00    -0.550 OA
ATOM      4  O   UNL     1       6.894   0.385  -1.481  1.00  0.00    -0.550 OA
ENDBRANCH   1   2
BRANCH   1   5
ATOM      5  C   UNL     1       5.097  -2.668  -0.942  1.00  0.00     0.059 C 
BRANCH   5   6
ATOM      6  C   UNL     1       4.484  -3.533   0.116  1.00  0.00     0.042 C 
ATOM      7  O   UNL     1       5.024  -3.627   1.249  1.00  0.00    -0.550 OA
ATOM      8  O   UNL     1       3.293  -4.204  -0.137  1.00  0.00    -0.550 OA
ENDBRANCH   5   6
ENDBRANCH   1   5
TORSDOF 3
ENDMDL
MODEL 6
REMARK VINA RESULT:    -2.734      0.123      4.180
REMARK INTER + INTRA:          -3.262
REMARK INTER:                  -3.216
REMARK INTRA:                  -0.046
REMARK UNBOUND:                -0.048
REMARK SMILES O=C([O-])CCC(=O)[O-]
REMARK SMILES IDX 4 1 2 2 1 3 3 4 5 5 6 6 7 7 8 8
REMARK H PARENT
REMARK Flexibility Score: inf
ROOT
ATOM      1  C   UNL     1       4.148  -3.677   1.170  1.00  0.00     0.059 C 
ENDROOT
BRANCH   1   2
ATOM      2  C   UNL     1       2.716  -4.118   1.112  1.00  0.00     0.042 C 
ATOM      3  O   UNL     1       2.240  -4.585   0.045  1.00  0.00    -0.550 OA
ATOM      4  O   UNL     1       1.922  -4.052   2.249  1.00  0.00    -0.550 OA
ENDBRANCH   1   2
BRANCH   1   5
ATOM      5  C   UNL     1       4.645  -3.193  -0.197  1.00  0.00     0.059 C 
BRANCH   5   6
ATOM      6  C   UNL     1       5.176  -1.794  -0.128  1.00  0.00     0.042 C 
ATOM      7  O   UNL     1       4.983  -0.995  -1.082  1.00  0.00    -0.550 OA
ATOM      8  O   UNL     1       5.851  -1.361   1.007  1.00  0.00    -0.550 OA
ENDBRANCH   5   6
ENDBRANCH   1   5
TORSDOF 3
ENDMDL
MODEL 7
REMARK VINA RESULT:    -2.706      2.507      3.830
REMARK INTER + INTRA:          -3.229
REMARK INTER:                  -3.113
REMARK INTRA:                  -0.116
REMARK UNBOUND:                -0.048
REMARK SMILES O=C([O-])CCC(=O)[O-]
REMARK SMILES IDX 4 1 2 2 1 3 3 4 5 5 6 6 7 7 8 8
REMARK H PARENT
REMARK Flexibility Score: inf
ROOT
ATOM      1  C   UNL     1       5.611  -0.222  -2.071  1.00  0.00     0.059 C 
ENDROOT
BRANCH   1   2
ATOM      2  C   UNL     1       6.927   0.460  -1.845  1.00  0.00     0.042 C 
ATOM      3  O   UNL     1       7.180   1.552  -2.419  1.00  0.00    -0.550 OA
ATOM      4  O   UNL     1       7.855  -0.089  -0.970  1.00  0.00    -0.550 OA
ENDBRANCH   1   2
BRANCH   1   5
ATOM      5  C   UNL     1       5.729  -1.743  -1.912  1.00  0.00     0.059 C 
BRANCH   5   6
ATOM      6  C   UNL     1       5.045  -2.222  -0.669  1.00  0.00     0.042 C 
ATOM      7  O   UNL     1       4.558  -3.382  -0.621  1.00  0.00    -0.550 OA
ATOM      8  O   UNL     1       4.981  -1.402   0.452  1.00  0.00    -0.550 OA
ENDBRANCH   5   6
ENDBRANCH   1   5
TORSDOF 3
ENDMDL
MODEL 8
REMARK VINA RESULT:    -2.672      1.283      1.697
REMARK INTER + INTRA:          -3.189
REMARK INTER:                  -3.162
REMARK INTRA:                  -0.027
REMARK UNBOUND:                -0.048
REMARK SMILES O=C([O-])CCC(=O)[O-]
REMARK SMILES IDX 4 1 2 2 1 3 3 4 5 5 6 6 7 7 8 8
REMARK H PARENT
REMARK Flexibility Score: inf
ROOT
ATOM      1  C   UNL     1       4.888  -2.441   0.358  1.00  0.00     0.059 C 
ENDROOT
BRANCH   1   2
ATOM      2  C   UNL     1       5.217  -1.880  -0.993  1.00  0.00     0.042 C 
ATOM      3  O   UNL     1       5.089  -0.647  -1.214  1.00  0.00    -0.550 OA
ATOM      4  O   UNL     1       5.703  -2.712  -1.992  1.00  0.00    -0.550 OA
ENDBRANCH   1   2
BRANCH   1   5
ATOM      5  C   UNL     1       4.130  -3.769   0.249  1.00  0.00     0.059 C 
BRANCH   5   6
ATOM      6  C   UNL     1       3.563  -4.191   1.569  1.00  0.00     0.042 C 
ATOM      7  O   UNL     1       4.250  -4.888   2.361  1.00  0.00    -0.550 OA
ATOM      8  O   UNL     1       2.288  -3.780   1.943  1.00  0.00    -0.550 OA
ENDBRANCH   5   6
ENDBRANCH   1   5
TORSDOF 3
ENDMDL
MODEL 9
REMARK VINA RESULT:    -2.609      3.071      3.811
REMARK INTER + INTRA:          -3.115
REMARK INTER:                  -3.017
REMARK INTRA:                  -0.099
REMARK UNBOUND:                -0.048
REMARK SMILES O=C([O-])CCC(=O)[O-]
REMARK SMILES IDX 4 1 2 2 1 3 3 4 5 5 6 6 7 7 8 8
REMARK H PARENT
REMARK Flexibility Score: inf
ROOT
ATOM      1  C   UNL     1       5.309  -1.658  -1.133  1.00  0.00     0.059 C 
ENDROOT
BRANCH   1   2
ATOM      2  C   UNL     1       5.676  -0.367  -1.802  1.00  0.00     0.042 C 
ATOM      3  O   UNL     1       4.947   0.102  -2.715  1.00  0.00    -0.550 OA
ATOM      4  O   UNL     1       6.798   0.338  -1.387  1.00  0.00    -0.550 OA
ENDBRANCH   1   2
BRANCH   1   5
ATOM      5  C   UNL     1       5.172  -1.488   0.384  1.00  0.00     0.059 C 
BRANCH   5   6
ATOM      6  C   UNL     1       6.341  -2.074   1.114  1.00  0.00     0.042 C 
ATOM      7  O   UNL     1       6.559  -3.313   1.070  1.00  0.00    -0.550 OA
ATOM      8  O   UNL     1       7.215  -1.246   1.809  1.00  0.00    -0.550 OA
ENDBRANCH   5   6
ENDBRANCH   1   5
TORSDOF 3
ENDMDL
