MODEL 1
REMARK VINA RESULT:    -3.611      0.000      0.000
REMARK INTER + INTRA:         -11.367
REMARK INTER:                  -8.255
REMARK INTRA:                  -3.112
REMARK UNBOUND:                -3.112
REMARK SMILES CCCCCCCCCCCCCCCCCCCCCCCC(=O)[O-]
REMARK SMILES IDX 13 1 14 2 15 3 16 4 17 5 18 6 19 7 20 8 21 9 22 10 23 11
REMARK SMILES IDX 24 12 25 13 26 14 12 15 11 16 10 17 9 18 8 19 7 20 6 21 5 22
REMARK SMILES IDX 4 23 3 24 2 25 1 26
REMARK H PARENT
REMARK Flexibility Score: inf
ROOT
ATOM      1  C   UNL     1    -105.440  33.079 -38.004  1.00  0.00     0.000 C 
ENDROOT
BRANCH   1   2
ATOM      2  C   UNL     1    -105.104  31.851 -38.866  1.00  0.00     0.000 C 
BRANCH   2   3
ATOM      3  C   UNL     1    -103.697  31.300 -38.593  1.00  0.00     0.000 C 
BRANCH   3   4
ATOM      4  C   UNL     1    -103.359  31.374 -37.099  1.00  0.00     0.000 C 
BRANCH   4   5
ATOM      5  C   UNL     1    -103.393  29.979 -36.455  1.00  0.00     0.000 C 
BRANCH   5   6
ATOM      6  C   UNL     1    -102.470  29.876 -35.229  1.00  0.00     0.000 C 
BRANCH   6   7
ATOM      7  C   UNL     1    -102.001  31.256 -34.734  1.00  0.00     0.000 C 
BRANCH   7   8
ATOM      8  C   UNL     1    -100.478  31.333 -34.527  1.00  0.00     0.000 C 
BRANCH   8   9
ATOM      9  C   UNL     1     -99.630  31.085 -35.791  1.00  0.00     0.000 C 
BRANCH   9  10
ATOM     10  C   UNL     1     -99.943  32.011 -36.980  1.00  0.00     0.006 C 
BRANCH  10  11
ATOM     11  C   UNL     1     -99.119  31.677 -38.231  1.00  0.00     0.053 C 
BRANCH  11  12
ATOM     12  C   UNL     1     -98.248  32.833 -38.615  1.00  0.00     0.041 C 
ATOM     13  O   UNL     1     -98.504  33.989 -38.186  1.00  0.00    -0.550 OA
ATOM     14  O   UNL     1     -97.152  32.633 -39.445  1.00  0.00    -0.550 OA
ENDBRANCH  11  12
ENDBRANCH  10  11
ENDBRANCH   9  10
ENDBRANCH   8   9
ENDBRANCH   7   8
ENDBRANCH   6   7
ENDBRANCH   5   6
ENDBRANCH   4   5
ENDBRANCH   3   4
ENDBRANCH   2   3
ENDBRANCH   1   2
BRANCH   1  15
ATOM     15  C   UNL     1    -106.947  33.228 -37.746  1.00  0.00     0.000 C 
BRANCH  15  16
ATOM     16  C   UNL     1    -107.660  31.873 -37.603  1.00  0.00     0.000 C 
BRANCH  16  17
ATOM     17  C   UNL     1    -107.867  31.461 -36.134  1.00  0.00     0.000 C 
BRANCH  17  18
ATOM     18  C   UNL     1    -106.795  30.461 -35.651  1.00  0.00    -0.000 C 
BRANCH  18  19
ATOM     19  C   UNL     1    -106.105  30.877 -34.338  1.00  0.00    -0.000 C 
BRANCH  19  20
ATOM     20  C   UNL     1    -105.750  32.371 -34.233  1.00  0.00    -0.000 C 
BRANCH  20  21
ATOM     21  C   UNL     1    -106.338  33.035 -32.977  1.00  0.00    -0.000 C 
BRANCH  21  22
ATOM     22  C   UNL     1    -107.616  33.844 -33.272  1.00  0.00    -0.000 C 
BRANCH  22  23
ATOM     23  C   UNL     1    -107.714  35.197 -32.542  1.00  0.00    -0.000 C 
BRANCH  23  24
ATOM     24  C   UNL     1    -106.586  35.478 -31.530  1.00  0.00    -0.000 C 
BRANCH  24  25
ATOM     25  C   UNL     1    -106.045  36.921 -31.591  1.00  0.00    -0.003 C 
ATOM     26  C   UNL     1    -105.029  37.217 -30.486  1.00  0.00     0.004 C 
ENDBRANCH  24  25
ENDBRANCH  23  24
ENDBRANCH  22  23
ENDBRANCH  21  22
ENDBRANCH  20  21
ENDBRANCH  19  20
ENDBRANCH  18  19
ENDBRANCH  17  18
ENDBRANCH  16  17
ENDBRANCH  15  16
ENDBRANCH   1  15
TORSDOF 22
ENDMDL
MODEL 2
REMARK VINA RESULT:    -3.492      3.223      6.440
REMARK INTER + INTRA:         -11.095
REMARK INTER:                  -7.496
REMARK INTRA:                  -3.600
REMARK UNBOUND:                -3.112
REMARK SMILES CCCCCCCCCCCCCCCCCCCCCCCC(=O)[O-]
REMARK SMILES IDX 13 1 14 2 15 3 16 4 17 5 18 6 19 7 20 8 21 9 22 10 23 11
REMARK SMILES IDX 24 12 25 13 26 14 12 15 11 16 10 17 9 18 8 19 7 20 6 21 5 22
REMARK SMILES IDX 4 23 3 24 2 25 1 26
REMARK H PARENT
REMARK Flexibility Score: inf
ROOT
ATOM      1  C   UNL     1     -99.493  31.687 -38.194  1.00  0.00     0.000 C 
ENDROOT
BRANCH   1   2
ATOM      2  C   UNL     1     -99.750  32.207 -36.771  1.00  0.00     0.000 C 
BRANCH   2   3
ATOM      3  C   UNL     1     -98.723  31.687 -35.753  1.00  0.00     0.000 C 
BRANCH   3   4
ATOM      4  C   UNL     1     -99.383  30.740 -34.743  1.00  0.00     0.000 C 
BRANCH   4   5
ATOM      5  C   UNL     1    -100.812  31.197 -34.410  1.00  0.00     0.000 C 
BRANCH   5   6
ATOM      6  C   UNL     1    -101.344  30.562 -33.114  1.00  0.00     0.000 C 
BRANCH   6   7
ATOM      7  C   UNL     1    -102.755  29.970 -33.292  1.00  0.00     0.000 C 
BRANCH   7   8
ATOM      8  C   UNL     1    -103.823  30.707 -32.465  1.00  0.00     0.000 C 
BRANCH   8   9
ATOM      9  C   UNL     1    -103.770  32.246 -32.547  1.00  0.00     0.000 C 
BRANCH   9  10
ATOM     10  C   UNL     1    -104.990  32.975 -31.956  1.00  0.00     0.006 C 
BRANCH  10  11
ATOM     11  C   UNL     1    -105.478  34.135 -32.835  1.00  0.00     0.053 C 
BRANCH  11  12
ATOM     12  C   UNL     1    -105.772  35.343 -32.000  1.00  0.00     0.041 C 
ATOM     13  O   UNL     1    -104.848  35.911 -31.358  1.00  0.00    -0.550 OA
ATOM     14  O   UNL     1    -107.065  35.846 -31.934  1.00  0.00    -0.550 OA
ENDBRANCH  11  12
ENDBRANCH  10  11
ENDBRANCH   9  10
ENDBRANCH   8   9
ENDBRANCH   7   8
ENDBRANCH   6   7
ENDBRANCH   5   6
ENDBRANCH   4   5
ENDBRANCH   3   4
ENDBRANCH   2   3
ENDBRANCH   1   2
BRANCH   1  15
ATOM     15  C   UNL     1    -100.082  30.287 -38.429  1.00  0.00     0.000 C 
BRANCH  15  16
ATOM     16  C   UNL     1    -101.571  30.329 -38.810  1.00  0.00     0.000 C 
BRANCH  16  17
ATOM     17  C   UNL     1    -102.499  30.017 -37.622  1.00  0.00     0.000 C 
BRANCH  17  18
ATOM     18  C   UNL     1    -103.727  30.952 -37.579  1.00  0.00    -0.000 C 
BRANCH  18  19
ATOM     19  C   UNL     1    -103.781  31.848 -36.327  1.00  0.00    -0.000 C 
BRANCH  19  20
ATOM     20  C   UNL     1    -104.564  33.162 -36.499  1.00  0.00    -0.000 C 
BRANCH  20  21
ATOM     21  C   UNL     1    -105.331  33.227 -37.830  1.00  0.00    -0.000 C 
BRANCH  21  22
ATOM     22  C   UNL     1    -106.856  33.124 -37.647  1.00  0.00    -0.000 C 
BRANCH  22  23
ATOM     23  C   UNL     1    -107.426  31.694 -37.720  1.00  0.00    -0.000 C 
BRANCH  23  24
ATOM     24  C   UNL     1    -108.429  31.332 -36.607  1.00  0.00    -0.000 C 
BRANCH  24  25
ATOM     25  C   UNL     1    -107.974  31.764 -35.198  1.00  0.00    -0.003 C 
ATOM     26  C   UNL     1    -106.887  30.853 -34.625  1.00  0.00     0.004 C 
ENDBRANCH  24  25
ENDBRANCH  23  24
ENDBRANCH  22  23
ENDBRANCH  21  22
ENDBRANCH  20  21
ENDBRANCH  19  20
ENDBRANCH  18  19
ENDBRANCH  17  18
ENDBRANCH  16  17
ENDBRANCH  15  16
ENDBRANCH   1  15
TORSDOF 22
ENDMDL
MODEL 3
REMARK VINA RESULT:    -3.476      3.595      7.008
REMARK INTER + INTRA:         -11.059
REMARK INTER:                  -7.517
REMARK INTRA:                  -3.542
REMARK UNBOUND:                -3.112
REMARK SMILES CCCCCCCCCCCCCCCCCCCCCCCC(=O)[O-]
REMARK SMILES IDX 13 1 14 2 15 3 16 4 17 5 18 6 19 7 20 8 21 9 22 10 23 11
REMARK SMILES IDX 24 12 25 13 26 14 12 15 11 16 10 17 9 18 8 19 7 20 6 21 5 22
REMARK SMILES IDX 4 23 3 24 2 25 1 26
REMARK H PARENT
REMARK Flexibility Score: inf
ROOT
ATOM      1  C   UNL     1     -99.017  32.507 -37.320  1.00  0.00     0.000 C 
ENDROOT
BRANCH   1   2
ATOM      2  C   UNL     1    -100.054  32.116 -36.256  1.00  0.00     0.000 C 
BRANCH   2   3
ATOM      3  C   UNL     1     -99.449  31.293 -35.109  1.00  0.00     0.000 C 
BRANCH   3   4
ATOM      4  C   UNL     1    -100.331  30.083 -34.777  1.00  0.00     0.000 C 
BRANCH   4   5
ATOM      5  C   UNL     1    -100.654  30.031 -33.275  1.00  0.00     0.000 C 
BRANCH   5   6
ATOM      6  C   UNL     1    -102.132  30.339 -32.982  1.00  0.00     0.000 C 
BRANCH   6   7
ATOM      7  C   UNL     1    -102.406  31.852 -32.896  1.00  0.00     0.000 C 
BRANCH   7   8
ATOM      8  C   UNL     1    -103.894  32.202 -33.069  1.00  0.00     0.000 C 
BRANCH   8   9
ATOM      9  C   UNL     1    -104.842  30.993 -33.205  1.00  0.00     0.000 C 
BRANCH   9  10
ATOM     10  C   UNL     1    -106.267  31.216 -32.668  1.00  0.00     0.006 C 
BRANCH  10  11
ATOM     11  C   UNL     1    -106.702  32.688 -32.719  1.00  0.00     0.053 C 
BRANCH  11  12
ATOM     12  C   UNL     1    -107.931  32.848 -33.560  1.00  0.00     0.041 C 
ATOM     13  O   UNL     1    -107.911  33.594 -34.575  1.00  0.00    -0.550 OA
ATOM     14  O   UNL     1    -109.097  32.172 -33.225  1.00  0.00    -0.550 OA
ENDBRANCH  11  12
ENDBRANCH  10  11
ENDBRANCH   9  10
ENDBRANCH   8   9
ENDBRANCH   7   8
ENDBRANCH   6   7
ENDBRANCH   5   6
ENDBRANCH   4   5
ENDBRANCH   3   4
ENDBRANCH   2   3
ENDBRANCH   1   2
BRANCH   1  15
ATOM     15  C   UNL     1     -99.197  31.735 -38.636  1.00  0.00     0.000 C 
BRANCH  15  16
ATOM     16  C   UNL     1     -99.922  30.393 -38.440  1.00  0.00     0.000 C 
BRANCH  16  17
ATOM     17  C   UNL     1    -101.225  30.295 -39.255  1.00  0.00     0.000 C 
BRANCH  17  18
ATOM     18  C   UNL     1    -102.465  30.112 -38.352  1.00  0.00    -0.000 C 
BRANCH  18  19
ATOM     19  C   UNL     1    -103.282  31.403 -38.153  1.00  0.00    -0.000 C 
BRANCH  19  20
ATOM     20  C   UNL     1    -103.656  31.719 -36.694  1.00  0.00    -0.000 C 
BRANCH  20  21
ATOM     21  C   UNL     1    -104.544  32.967 -36.564  1.00  0.00    -0.000 C 
BRANCH  21  22
ATOM     22  C   UNL     1    -105.306  33.294 -37.862  1.00  0.00    -0.000 C 
BRANCH  22  23
ATOM     23  C   UNL     1    -106.832  33.095 -37.791  1.00  0.00    -0.000 C 
BRANCH  23  24
ATOM     24  C   UNL     1    -107.323  31.673 -38.124  1.00  0.00    -0.000 C 
BRANCH  24  25
ATOM     25  C   UNL     1    -107.902  30.918 -36.910  1.00  0.00    -0.003 C 
ATOM     26  C   UNL     1    -106.856  30.057 -36.198  1.00  0.00     0.004 C 
ENDBRANCH  24  25
ENDBRANCH  23  24
ENDBRANCH  22  23
ENDBRANCH  21  22
ENDBRANCH  20  21
ENDBRANCH  19  20
ENDBRANCH  18  19
ENDBRANCH  17  18
ENDBRANCH  16  17
ENDBRANCH  15  16
ENDBRANCH   1  15
TORSDOF 22
ENDMDL
MODEL 4
REMARK VINA RESULT:    -3.465     14.478     17.071
REMARK INTER + INTRA:         -11.033
REMARK INTER:                  -7.865
REMARK INTRA:                  -3.168
REMARK UNBOUND:                -3.112
REMARK SMILES CCCCCCCCCCCCCCCCCCCCCCCC(=O)[O-]
REMARK SMILES IDX 13 1 14 2 15 3 16 4 17 5 18 6 19 7 20 8 21 9 22 10 23 11
REMARK SMILES IDX 24 12 25 13 26 14 12 15 11 16 10 17 9 18 8 19 7 20 6 21 5 22
REMARK SMILES IDX 4 23 3 24 2 25 1 26
REMARK H PARENT
REMARK Flexibility Score: inf
ROOT
ATOM      1  C   UNL     1    -110.246  44.839 -43.533  1.00  0.00     0.000 C 
ENDROOT
BRANCH   1   2
ATOM      2  C   UNL     1    -110.259  46.367 -43.379  1.00  0.00     0.000 C 
BRANCH   2   3
ATOM      3  C   UNL     1    -108.853  46.983 -43.431  1.00  0.00     0.000 C 
BRANCH   3   4
ATOM      4  C   UNL     1    -108.649  47.982 -42.285  1.00  0.00     0.000 C 
BRANCH   4   5
ATOM      5  C   UNL     1    -107.641  47.445 -41.257  1.00  0.00     0.000 C 
BRANCH   5   6
ATOM      6  C   UNL     1    -108.306  47.072 -39.922  1.00  0.00     0.000 C 
BRANCH   6   7
ATOM      7  C   UNL     1    -108.043  45.607 -39.528  1.00  0.00     0.000 C 
BRANCH   7   8
ATOM      8  C   UNL     1    -108.370  44.615 -40.657  1.00  0.00     0.000 C 
BRANCH   8   9
ATOM      9  C   UNL     1    -107.585  43.288 -40.612  1.00  0.00     0.000 C 
BRANCH   9  10
ATOM     10  C   UNL     1    -108.223  42.124 -41.393  1.00  0.00     0.006 C 
BRANCH  10  11
ATOM     11  C   UNL     1    -109.649  41.800 -40.924  1.00  0.00     0.053 C 
BRANCH  11  12
ATOM     12  C   UNL     1    -109.670  41.520 -39.453  1.00  0.00     0.041 C 
ATOM     13  O   UNL     1    -110.291  42.289 -38.670  1.00  0.00    -0.550 OA
ATOM     14  O   UNL     1    -109.008  40.409 -38.946  1.00  0.00    -0.550 OA
ENDBRANCH  11  12
ENDBRANCH  10  11
ENDBRANCH   9  10
ENDBRANCH   8   9
ENDBRANCH   7   8
ENDBRANCH   6   7
ENDBRANCH   5   6
ENDBRANCH   4   5
ENDBRANCH   3   4
ENDBRANCH   2   3
ENDBRANCH   1   2
BRANCH   1  15
ATOM     15  C   UNL     1    -109.002  44.328 -44.276  1.00  0.00     0.000 C 
BRANCH  15  16
ATOM     16  C   UNL     1    -109.349  43.328 -45.391  1.00  0.00     0.000 C 
BRANCH  16  17
ATOM     17  C   UNL     1    -108.998  43.856 -46.795  1.00  0.00     0.000 C 
BRANCH  17  18
ATOM     18  C   UNL     1    -108.920  45.397 -46.836  1.00  0.00    -0.000 C 
BRANCH  18  19
ATOM     19  C   UNL     1    -108.616  45.965 -48.235  1.00  0.00    -0.000 C 
BRANCH  19  20
ATOM     20  C   UNL     1    -107.859  47.306 -48.244  1.00  0.00    -0.000 C 
BRANCH  20  21
ATOM     21  C   UNL     1    -107.622  47.864 -46.831  1.00  0.00    -0.000 C 
BRANCH  21  22
ATOM     22  C   UNL     1    -107.053  49.296 -46.842  1.00  0.00    -0.000 C 
BRANCH  22  23
ATOM     23  C   UNL     1    -105.780  49.499 -45.999  1.00  0.00    -0.000 C 
BRANCH  23  24
ATOM     24  C   UNL     1    -105.814  48.858 -44.597  1.00  0.00    -0.000 C 
BRANCH  24  25
ATOM     25  C   UNL     1    -105.149  49.722 -43.506  1.00  0.00    -0.003 C 
ATOM     26  C   UNL     1    -104.476  48.882 -42.419  1.00  0.00     0.004 C 
ENDBRANCH  24  25
ENDBRANCH  23  24
ENDBRANCH  22  23
ENDBRANCH  21  22
ENDBRANCH  20  21
ENDBRANCH  19  20
ENDBRANCH  18  19
ENDBRANCH  17  18
ENDBRANCH  16  17
ENDBRANCH  15  16
ENDBRANCH   1  15
TORSDOF 22
ENDMDL
MODEL 5
REMARK VINA RESULT:    -3.464      3.368      6.497
REMARK INTER + INTRA:         -11.032
REMARK INTER:                  -8.204
REMARK INTRA:                  -2.828
REMARK UNBOUND:                -3.112
REMARK SMILES CCCCCCCCCCCCCCCCCCCCCCCC(=O)[O-]
REMARK SMILES IDX 13 1 14 2 15 3 16 4 17 5 18 6 19 7 20 8 21 9 22 10 23 11
REMARK SMILES IDX 24 12 25 13 26 14 12 15 11 16 10 17 9 18 8 19 7 20 6 21 5 22
REMARK SMILES IDX 4 23 3 24 2 25 1 26
REMARK H PARENT
REMARK Flexibility Score: inf
ROOT
ATOM      1  C   UNL     1     -99.130  31.615 -38.629  1.00  0.00     0.000 C 
ENDROOT
BRANCH   1   2
ATOM      2  C   UNL     1     -99.889  30.309 -38.350  1.00  0.00     0.000 C 
BRANCH   2   3
ATOM      3  C   UNL     1    -101.194  30.196 -39.151  1.00  0.00     0.000 C 
BRANCH   3   4
ATOM      4  C   UNL     1    -102.399  30.034 -38.216  1.00  0.00     0.000 C 
BRANCH   4   5
ATOM      5  C   UNL     1    -103.092  31.384 -37.969  1.00  0.00     0.000 C 
BRANCH   5   6
ATOM      6  C   UNL     1    -103.748  31.461 -36.580  1.00  0.00     0.000 C 
BRANCH   6   7
ATOM      7  C   UNL     1    -104.508  32.784 -36.368  1.00  0.00     0.000 C 
BRANCH   7   8
ATOM      8  C   UNL     1    -105.278  33.241 -37.619  1.00  0.00     0.000 C 
BRANCH   8   9
ATOM      9  C   UNL     1    -106.586  32.475 -37.902  1.00  0.00     0.000 C 
BRANCH   9  10
ATOM     10  C   UNL     1    -107.876  33.216 -37.506  1.00  0.00     0.006 C 
BRANCH  10  11
ATOM     11  C   UNL     1    -108.696  32.465 -36.448  1.00  0.00     0.053 C 
BRANCH  11  12
ATOM     12  C   UNL     1    -108.220  32.806 -35.069  1.00  0.00     0.041 C 
ATOM     13  O   UNL     1    -107.500  31.994 -34.428  1.00  0.00    -0.550 OA
ATOM     14  O   UNL     1    -108.568  34.021 -34.493  1.00  0.00    -0.550 OA
ENDBRANCH  11  12
ENDBRANCH  10  11
ENDBRANCH   9  10
ENDBRANCH   8   9
ENDBRANCH   7   8
ENDBRANCH   6   7
ENDBRANCH   5   6
ENDBRANCH   4   5
ENDBRANCH   3   4
ENDBRANCH   2   3
ENDBRANCH   1   2
BRANCH   1  15
ATOM     15  C   UNL     1     -99.069  32.540 -37.404  1.00  0.00     0.000 C 
BRANCH  15  16
ATOM     16  C   UNL     1     -99.819  31.965 -36.191  1.00  0.00     0.000 C 
BRANCH  16  17
ATOM     17  C   UNL     1     -98.871  31.399 -35.118  1.00  0.00     0.000 C 
BRANCH  17  18
ATOM     18  C   UNL     1     -99.501  30.219 -34.346  1.00  0.00    -0.000 C 
BRANCH  18  19
ATOM     19  C   UNL     1    -101.039  30.280 -34.269  1.00  0.00    -0.000 C 
BRANCH  19  20
ATOM     20  C   UNL     1    -101.601  31.287 -33.250  1.00  0.00    -0.000 C 
BRANCH  20  21
ATOM     21  C   UNL     1    -103.057  30.986 -32.858  1.00  0.00    -0.000 C 
BRANCH  21  22
ATOM     22  C   UNL     1    -103.883  32.262 -32.606  1.00  0.00    -0.000 C 
BRANCH  22  23
ATOM     23  C   UNL     1    -105.141  32.064 -31.739  1.00  0.00    -0.000 C 
BRANCH  23  24
ATOM     24  C   UNL     1    -105.942  33.348 -31.446  1.00  0.00    -0.000 C 
BRANCH  24  25
ATOM     25  C   UNL     1    -105.657  34.495 -32.436  1.00  0.00    -0.003 C 
ATOM     26  C   UNL     1    -105.528  35.853 -31.743  1.00  0.00     0.004 C 
ENDBRANCH  24  25
ENDBRANCH  23  24
ENDBRANCH  22  23
ENDBRANCH  21  22
ENDBRANCH  20  21
ENDBRANCH  19  20
ENDBRANCH  18  19
ENDBRANCH  17  18
ENDBRANCH  16  17
ENDBRANCH  15  16
ENDBRANCH   1  15
TORSDOF 22
ENDMDL
MODEL 6
REMARK VINA RESULT:    -3.406     12.096     15.363
REMARK INTER + INTRA:         -10.898
REMARK INTER:                  -6.907
REMARK INTRA:                  -3.991
REMARK UNBOUND:                -3.112
REMARK SMILES CCCCCCCCCCCCCCCCCCCCCCCC(=O)[O-]
REMARK SMILES IDX 13 1 14 2 15 3 16 4 17 5 18 6 19 7 20 8 21 9 22 10 23 11
REMARK SMILES IDX 24 12 25 13 26 14 12 15 11 16 10 17 9 18 8 19 7 20 6 21 5 22
REMARK SMILES IDX 4 23 3 24 2 25 1 26
REMARK H PARENT
REMARK Flexibility Score: inf
ROOT
ATOM      1  C   UNL     1    -111.188  42.096 -39.262  1.00  0.00     0.000 C 
ENDROOT
BRANCH   1   2
ATOM      2  C   UNL     1    -110.350  41.094 -40.072  1.00  0.00     0.000 C 
BRANCH   2   3
ATOM      3  C   UNL     1    -108.853  41.437 -40.076  1.00  0.00     0.000 C 
BRANCH   3   4
ATOM      4  C   UNL     1    -108.331  41.597 -41.510  1.00  0.00     0.000 C 
BRANCH   4   5
ATOM      5  C   UNL     1    -107.739  42.998 -41.730  1.00  0.00     0.000 C 
BRANCH   5   6
ATOM      6  C   UNL     1    -107.474  43.737 -40.408  1.00  0.00     0.000 C 
BRANCH   6   7
ATOM      7  C   UNL     1    -108.068  45.158 -40.405  1.00  0.00     0.000 C 
BRANCH   7   8
ATOM      8  C   UNL     1    -108.475  45.634 -39.000  1.00  0.00     0.000 C 
BRANCH   8   9
ATOM      9  C   UNL     1    -108.319  44.585 -37.880  1.00  0.00     0.000 C 
BRANCH   9  10
ATOM     10  C   UNL     1    -108.338  45.150 -36.448  1.00  0.00     0.006 C 
BRANCH  10  11
ATOM     11  C   UNL     1    -107.024  44.907 -35.693  1.00  0.00     0.053 C 
BRANCH  11  12
ATOM     12  C   UNL     1    -107.206  43.860 -34.638  1.00  0.00     0.041 C 
ATOM     13  O   UNL     1    -107.207  44.182 -33.419  1.00  0.00    -0.550 OA
ATOM     14  O   UNL     1    -107.376  42.530 -34.999  1.00  0.00    -0.550 OA
ENDBRANCH  11  12
ENDBRANCH  10  11
ENDBRANCH   9  10
ENDBRANCH   8   9
ENDBRANCH   7   8
ENDBRANCH   6   7
ENDBRANCH   5   6
ENDBRANCH   4   5
ENDBRANCH   3   4
ENDBRANCH   2   3
ENDBRANCH   1   2
BRANCH   1  15
ATOM     15  C   UNL     1    -111.348  43.448 -39.975  1.00  0.00     0.000 C 
BRANCH  15  16
ATOM     16  C   UNL     1    -111.904  43.302 -41.401  1.00  0.00     0.000 C 
BRANCH  16  17
ATOM     17  C   UNL     1    -111.070  44.064 -42.447  1.00  0.00     0.000 C 
BRANCH  17  18
ATOM     18  C   UNL     1    -111.144  45.594 -42.251  1.00  0.00    -0.000 C 
BRANCH  18  19
ATOM     19  C   UNL     1    -110.266  46.389 -43.236  1.00  0.00    -0.000 C 
BRANCH  19  20
ATOM     20  C   UNL     1    -109.158  45.573 -43.926  1.00  0.00    -0.000 C 
BRANCH  20  21
ATOM     21  C   UNL     1    -109.045  45.874 -45.430  1.00  0.00    -0.000 C 
BRANCH  21  22
ATOM     22  C   UNL     1    -108.816  44.608 -46.277  1.00  0.00    -0.000 C 
BRANCH  22  23
ATOM     23  C   UNL     1    -109.250  43.289 -45.609  1.00  0.00    -0.000 C 
BRANCH  23  24
ATOM     24  C   UNL     1    -110.724  42.898 -45.830  1.00  0.00    -0.000 C 
BRANCH  24  25
ATOM     25  C   UNL     1    -111.360  43.555 -47.071  1.00  0.00    -0.003 C 
ATOM     26  C   UNL     1    -112.752  44.123 -46.790  1.00  0.00     0.004 C 
ENDBRANCH  24  25
ENDBRANCH  23  24
ENDBRANCH  22  23
ENDBRANCH  21  22
ENDBRANCH  20  21
ENDBRANCH  19  20
ENDBRANCH  18  19
ENDBRANCH  17  18
ENDBRANCH  16  17
ENDBRANCH  15  16
ENDBRANCH   1  15
TORSDOF 22
ENDMDL
MODEL 7
REMARK VINA RESULT:    -3.373      3.334      5.513
REMARK INTER + INTRA:         -10.823
REMARK INTER:                  -7.573
REMARK INTRA:                  -3.251
REMARK UNBOUND:                -3.112
REMARK SMILES CCCCCCCCCCCCCCCCCCCCCCCC(=O)[O-]
REMARK SMILES IDX 13 1 14 2 15 3 16 4 17 5 18 6 19 7 20 8 21 9 22 10 23 11
REMARK SMILES IDX 24 12 25 13 26 14 12 15 11 16 10 17 9 18 8 19 7 20 6 21 5 22
REMARK SMILES IDX 4 23 3 24 2 25 1 26
REMARK H PARENT
REMARK Flexibility Score: inf
ROOT
ATOM      1  C   UNL     1    -101.582  30.660 -38.496  1.00  0.00     0.000 C 
ENDROOT
BRANCH   1   2
ATOM      2  C   UNL     1    -100.066  30.584 -38.261  1.00  0.00     0.000 C 
BRANCH   2   3
ATOM      3  C   UNL     1     -99.468  31.920 -37.796  1.00  0.00     0.000 C 
BRANCH   3   4
ATOM      4  C   UNL     1     -99.840  32.210 -36.337  1.00  0.00     0.000 C 
BRANCH   4   5
ATOM      5  C   UNL     1     -99.222  31.167 -35.392  1.00  0.00     0.000 C 
BRANCH   5   6
ATOM      6  C   UNL     1    -100.202  30.712 -34.298  1.00  0.00     0.000 C 
BRANCH   6   7
ATOM      7  C   UNL     1    -101.419  31.648 -34.180  1.00  0.00     0.000 C 
BRANCH   7   8
ATOM      8  C   UNL     1    -102.528  31.079 -33.277  1.00  0.00     0.000 C 
BRANCH   8   9
ATOM      9  C   UNL     1    -103.372  32.132 -32.530  1.00  0.00     0.000 C 
BRANCH   9  10
ATOM     10  C   UNL     1    -104.858  32.181 -32.928  1.00  0.00     0.006 C 
BRANCH  10  11
ATOM     11  C   UNL     1    -105.328  33.591 -33.314  1.00  0.00     0.053 C 
BRANCH  11  12
ATOM     12  C   UNL     1    -105.717  34.370 -32.096  1.00  0.00     0.041 C 
ATOM     13  O   UNL     1    -106.199  33.779 -31.092  1.00  0.00    -0.550 OA
ATOM     14  O   UNL     1    -105.546  35.748 -32.066  1.00  0.00    -0.550 OA
ENDBRANCH  11  12
ENDBRANCH  10  11
ENDBRANCH   9  10
ENDBRANCH   8   9
ENDBRANCH   7   8
ENDBRANCH   6   7
ENDBRANCH   5   6
ENDBRANCH   4   5
ENDBRANCH   3   4
ENDBRANCH   2   3
ENDBRANCH   1   2
BRANCH   1  15
ATOM     15  C   UNL     1    -102.386  29.885 -37.439  1.00  0.00     0.000 C 
BRANCH  15  16
ATOM     16  C   UNL     1    -103.904  30.077 -37.593  1.00  0.00     0.000 C 
BRANCH  16  17
ATOM     17  C   UNL     1    -104.507  30.960 -36.484  1.00  0.00     0.000 C 
BRANCH  17  18
ATOM     18  C   UNL     1    -104.214  32.459 -36.708  1.00  0.00    -0.000 C 
BRANCH  18  19
ATOM     19  C   UNL     1    -105.207  33.150 -37.661  1.00  0.00    -0.000 C 
BRANCH  19  20
ATOM     20  C   UNL     1    -106.546  32.415 -37.853  1.00  0.00    -0.000 C 
BRANCH  20  21
ATOM     21  C   UNL     1    -107.717  33.118 -37.147  1.00  0.00    -0.000 C 
BRANCH  21  22
ATOM     22  C   UNL     1    -107.973  32.573 -35.729  1.00  0.00    -0.000 C 
BRANCH  22  23
ATOM     23  C   UNL     1    -109.219  33.145 -35.025  1.00  0.00    -0.000 C 
BRANCH  23  24
ATOM     24  C   UNL     1    -108.928  34.043 -33.807  1.00  0.00    -0.000 C 
BRANCH  24  25
ATOM     25  C   UNL     1    -109.635  35.413 -33.865  1.00  0.00    -0.003 C 
ATOM     26  C   UNL     1    -108.865  36.505 -33.122  1.00  0.00     0.004 C 
ENDBRANCH  24  25
ENDBRANCH  23  24
ENDBRANCH  22  23
ENDBRANCH  21  22
ENDBRANCH  20  21
ENDBRANCH  19  20
ENDBRANCH  18  19
ENDBRANCH  17  18
ENDBRANCH  16  17
ENDBRANCH  15  16
ENDBRANCH   1  15
TORSDOF 22
ENDMDL
MODEL 8
REMARK VINA RESULT:    -3.367      4.647      8.620
REMARK INTER + INTRA:         -10.808
REMARK INTER:                  -7.846
REMARK INTRA:                  -2.962
REMARK UNBOUND:                -3.112
REMARK SMILES CCCCCCCCCCCCCCCCCCCCCCCC(=O)[O-]
REMARK SMILES IDX 13 1 14 2 15 3 16 4 17 5 18 6 19 7 20 8 21 9 22 10 23 11
REMARK SMILES IDX 24 12 25 13 26 14 12 15 11 16 10 17 9 18 8 19 7 20 6 21 5 22
REMARK SMILES IDX 4 23 3 24 2 25 1 26
REMARK H PARENT
REMARK Flexibility Score: inf
ROOT
ATOM      1  C   UNL     1    -104.144  31.197 -38.950  1.00  0.00     0.000 C 
ENDROOT
BRANCH   1   2
ATOM      2  C   UNL     1    -105.469  31.967 -38.841  1.00  0.00     0.000 C 
BRANCH   2   3
ATOM      3  C   UNL     1    -106.696  31.043 -38.854  1.00  0.00     0.000 C 
BRANCH   3   4
ATOM      4  C   UNL     1    -107.575  31.280 -37.620  1.00  0.00     0.000 C 
BRANCH   4   5
ATOM      5  C   UNL     1    -107.314  32.668 -37.014  1.00  0.00     0.000 C 
BRANCH   5   6
ATOM      6  C   UNL     1    -107.461  32.678 -35.483  1.00  0.00     0.000 C 
BRANCH   6   7
ATOM      7  C   UNL     1    -108.636  33.557 -35.016  1.00  0.00     0.000 C 
BRANCH   7   8
ATOM      8  C   UNL     1    -109.968  32.790 -34.948  1.00  0.00     0.000 C 
BRANCH   8   9
ATOM      9  C   UNL     1    -110.966  33.106 -36.080  1.00  0.00     0.000 C 
BRANCH   9  10
ATOM     10  C   UNL     1    -110.677  34.398 -36.865  1.00  0.00     0.006 C 
BRANCH  10  11
ATOM     11  C   UNL     1    -110.431  34.148 -38.359  1.00  0.00     0.053 C 
BRANCH  11  12
ATOM     12  C   UNL     1    -111.722  33.887 -39.071  1.00  0.00     0.041 C 
ATOM     13  O   UNL     1    -112.478  34.846 -39.385  1.00  0.00    -0.550 OA
ATOM     14  O   UNL     1    -112.091  32.587 -39.391  1.00  0.00    -0.550 OA
ENDBRANCH  11  12
ENDBRANCH  10  11
ENDBRANCH   9  10
ENDBRANCH   8   9
ENDBRANCH   7   8
ENDBRANCH   6   7
ENDBRANCH   5   6
ENDBRANCH   4   5
ENDBRANCH   3   4
ENDBRANCH   2   3
ENDBRANCH   1   2
BRANCH   1  15
ATOM     15  C   UNL     1    -103.239  31.396 -37.723  1.00  0.00     0.000 C 
BRANCH  15  16
ATOM     16  C   UNL     1    -103.927  30.989 -36.410  1.00  0.00     0.000 C 
BRANCH  16  17
ATOM     17  C   UNL     1    -103.902  32.108 -35.353  1.00  0.00     0.000 C 
BRANCH  17  18
ATOM     18  C   UNL     1    -102.466  32.566 -35.020  1.00  0.00    -0.000 C 
BRANCH  18  19
ATOM     19  C   UNL     1    -101.853  31.850 -33.801  1.00  0.00    -0.000 C 
BRANCH  19  20
ATOM     20  C   UNL     1    -101.071  30.565 -34.125  1.00  0.00    -0.000 C 
BRANCH  20  21
ATOM     21  C   UNL     1     -99.547  30.768 -34.076  1.00  0.00    -0.000 C 
BRANCH  21  22
ATOM     22  C   UNL     1     -98.963  31.226 -35.426  1.00  0.00    -0.000 C 
BRANCH  22  23
ATOM     23  C   UNL     1     -99.713  30.710 -36.670  1.00  0.00    -0.000 C 
BRANCH  23  24
ATOM     24  C   UNL     1     -99.662  31.641 -37.897  1.00  0.00    -0.000 C 
BRANCH  24  25
ATOM     25  C   UNL     1     -98.693  32.830 -37.733  1.00  0.00    -0.003 C 
ATOM     26  C   UNL     1     -97.918  33.139 -39.015  1.00  0.00     0.004 C 
ENDBRANCH  24  25
ENDBRANCH  23  24
ENDBRANCH  22  23
ENDBRANCH  21  22
ENDBRANCH  20  21
ENDBRANCH  19  20
ENDBRANCH  18  19
ENDBRANCH  17  18
ENDBRANCH  16  17
ENDBRANCH  15  16
ENDBRANCH   1  15
TORSDOF 22
ENDMDL
MODEL 9
REMARK VINA RESULT:    -3.323      3.326      5.638
REMARK INTER + INTRA:         -10.708
REMARK INTER:                  -6.305
REMARK INTRA:                  -4.404
REMARK UNBOUND:                -3.112
REMARK SMILES CCCCCCCCCCCCCCCCCCCCCCCC(=O)[O-]
REMARK SMILES IDX 13 1 14 2 15 3 16 4 17 5 18 6 19 7 20 8 21 9 22 10 23 11
REMARK SMILES IDX 24 12 25 13 26 14 12 15 11 16 10 17 9 18 8 19 7 20 6 21 5 22
REMARK SMILES IDX 4 23 3 24 2 25 1 26
REMARK H PARENT
REMARK Flexibility Score: inf
ROOT
ATOM      1  C   UNL     1    -101.739  31.009 -38.246  1.00  0.00     0.000 C 
ENDROOT
BRANCH   1   2
ATOM      2  C   UNL     1    -100.224  30.814 -38.081  1.00  0.00     0.000 C 
BRANCH   2   3
ATOM      3  C   UNL     1     -99.556  31.965 -37.314  1.00  0.00     0.000 C 
BRANCH   3   4
ATOM      4  C   UNL     1     -99.878  31.886 -35.817  1.00  0.00     0.000 C 
BRANCH   4   5
ATOM      5  C   UNL     1     -99.461  30.527 -35.233  1.00  0.00     0.000 C 
BRANCH   5   6
ATOM      6  C   UNL     1    -100.097  30.258 -33.859  1.00  0.00     0.000 C 
BRANCH   6   7
ATOM      7  C   UNL     1    -101.304  31.175 -33.586  1.00  0.00     0.000 C 
BRANCH   7   8
ATOM      8  C   UNL     1    -102.408  30.485 -32.766  1.00  0.00     0.000 C 
BRANCH   8   9
ATOM      9  C   UNL     1    -103.815  31.098 -32.912  1.00  0.00     0.000 C 
BRANCH   9  10
ATOM     10  C   UNL     1    -103.968  32.524 -32.353  1.00  0.00     0.006 C 
BRANCH  10  11
ATOM     11  C   UNL     1    -105.035  33.345 -33.091  1.00  0.00     0.053 C 
BRANCH  11  12
ATOM     12  C   UNL     1    -105.616  34.390 -32.190  1.00  0.00     0.041 C 
ATOM     13  O   UNL     1    -106.779  34.829 -32.396  1.00  0.00    -0.550 OA
ATOM     14  O   UNL     1    -104.876  34.878 -31.121  1.00  0.00    -0.550 OA
ENDBRANCH  11  12
ENDBRANCH  10  11
ENDBRANCH   9  10
ENDBRANCH   8   9
ENDBRANCH   7   8
ENDBRANCH   6   7
ENDBRANCH   5   6
ENDBRANCH   4   5
ENDBRANCH   3   4
ENDBRANCH   2   3
ENDBRANCH   1   2
BRANCH   1  15
ATOM     15  C   UNL     1    -102.559  29.963 -37.474  1.00  0.00     0.000 C 
BRANCH  15  16
ATOM     16  C   UNL     1    -103.637  30.598 -36.581  1.00  0.00     0.000 C 
BRANCH  16  17
ATOM     17  C   UNL     1    -103.445  32.115 -36.402  1.00  0.00     0.000 C 
BRANCH  17  18
ATOM     18  C   UNL     1    -104.731  32.908 -36.719  1.00  0.00    -0.000 C 
BRANCH  18  19
ATOM     19  C   UNL     1    -105.623  32.243 -37.784  1.00  0.00    -0.000 C 
BRANCH  19  20
ATOM     20  C   UNL     1    -107.037  31.864 -37.306  1.00  0.00    -0.000 C 
BRANCH  20  21
ATOM     21  C   UNL     1    -107.167  31.869 -35.774  1.00  0.00    -0.000 C 
BRANCH  21  22
ATOM     22  C   UNL     1    -107.017  30.465 -35.158  1.00  0.00    -0.000 C 
BRANCH  22  23
ATOM     23  C   UNL     1    -107.409  30.359 -33.672  1.00  0.00    -0.000 C 
BRANCH  23  24
ATOM     24  C   UNL     1    -108.248  31.533 -33.131  1.00  0.00    -0.000 C 
BRANCH  24  25
ATOM     25  C   UNL     1    -108.185  31.685 -31.598  1.00  0.00    -0.003 C 
ATOM     26  C   UNL     1    -107.038  30.890 -30.974  1.00  0.00     0.004 C 
ENDBRANCH  24  25
ENDBRANCH  23  24
ENDBRANCH  22  23
ENDBRANCH  21  22
ENDBRANCH  20  21
ENDBRANCH  19  20
ENDBRANCH  18  19
ENDBRANCH  17  18
ENDBRANCH  16  17
ENDBRANCH  15  16
ENDBRANCH   1  15
TORSDOF 22
ENDMDL
