MODEL 1
REMARK VINA RESULT:    -4.792      0.000      0.000
REMARK INTER + INTRA:          -9.345
REMARK INTER:                  -8.713
REMARK INTRA:                  -0.632
REMARK UNBOUND:                -0.632
REMARK SMILES CCCCCCCCCCCCCCCC(=O)[O-]
REMARK SMILES IDX 9 1 10 2 11 3 12 4 13 5 14 6 15 7 16 8 17 9 18 10 8 11 7 12
REMARK SMILES IDX 6 13 5 14 4 15 3 16 2 17 1 18
REMARK H PARENT
REMARK Flexibility Score: inf
ROOT
ATOM      1  C   UNL     1     127.922 127.724 123.332  1.00  0.00     0.000 C 
ENDROOT
BRANCH   1   2
ATOM      2  C   UNL     1     127.067 126.746 122.517  1.00  0.00     0.000 C 
BRANCH   2   3
ATOM      3  C   UNL     1     127.080 125.348 123.146  1.00  0.00     0.000 C 
BRANCH   3   4
ATOM      4  C   UNL     1     127.621 125.394 124.580  1.00  0.00     0.000 C 
BRANCH   4   5
ATOM      5  C   UNL     1     126.570 124.898 125.581  1.00  0.00     0.000 C 
BRANCH   5   6
ATOM      6  C   UNL     1     127.227 124.473 126.903  1.00  0.00     0.006 C 
BRANCH   6   7
ATOM      7  C   UNL     1     126.360 124.821 128.119  1.00  0.00     0.053 C 
BRANCH   7   8
ATOM      8  C   UNL     1     125.614 123.627 128.632  1.00  0.00     0.041 C 
ATOM      9  O   UNL     1     126.133 122.482 128.568  1.00  0.00    -0.550 OA
ATOM     10  O   UNL     1     124.334 123.776 129.149  1.00  0.00    -0.550 OA
ENDBRANCH   7   8
ENDBRANCH   6   7
ENDBRANCH   5   6
ENDBRANCH   4   5
ENDBRANCH   3   4
ENDBRANCH   2   3
ENDBRANCH   1   2
BRANCH   1  11
ATOM     11  C   UNL     1     128.351 128.924 122.478  1.00  0.00     0.000 C 
BRANCH  11  12
ATOM     12  C   UNL     1     129.190 129.912 123.301  1.00  0.00    -0.000 C 
BRANCH  12  13
ATOM     13  C   UNL     1     128.383 130.593 124.419  1.00  0.00    -0.000 C 
BRANCH  13  14
ATOM     14  C   UNL     1     129.221 130.847 125.683  1.00  0.00    -0.000 C 
BRANCH  14  15
ATOM     15  C   UNL     1     128.432 131.584 126.777  1.00  0.00    -0.000 C 
BRANCH  15  16
ATOM     16  C   UNL     1     129.177 131.623 128.122  1.00  0.00    -0.000 C 
BRANCH  16  17
ATOM     17  C   UNL     1     130.233 132.737 128.179  1.00  0.00    -0.003 C 
ATOM     18  C   UNL     1     131.248 132.533 129.302  1.00  0.00     0.004 C 
ENDBRANCH  16  17
ENDBRANCH  15  16
ENDBRANCH  14  15
ENDBRANCH  13  14
ENDBRANCH  12  13
ENDBRANCH  11  12
ENDBRANCH   1  11
TORSDOF 14
ENDMDL
MODEL 2
REMARK VINA RESULT:    -4.746      6.702     10.185
REMARK INTER + INTRA:          -9.262
REMARK INTER:                  -7.455
REMARK INTRA:                  -1.807
REMARK UNBOUND:                -0.632
REMARK SMILES CCCCCCCCCCCCCCCC(=O)[O-]
REMARK SMILES IDX 9 1 10 2 11 3 12 4 13 5 14 6 15 7 16 8 17 9 18 10 8 11 7 12
REMARK SMILES IDX 6 13 5 14 4 15 3 16 2 17 1 18
REMARK H PARENT
REMARK Flexibility Score: inf
ROOT
ATOM      1  C   UNL     1     125.038 118.238 131.453  1.00  0.00     0.000 C 
ENDROOT
BRANCH   1   2
ATOM      2  C   UNL     1     123.546 117.902 131.571  1.00  0.00     0.000 C 
BRANCH   2   3
ATOM      3  C   UNL     1     122.893 118.690 132.714  1.00  0.00     0.000 C 
BRANCH   3   4
ATOM      4  C   UNL     1     121.984 119.798 132.170  1.00  0.00     0.000 C 
BRANCH   4   5
ATOM      5  C   UNL     1     121.745 120.882 133.227  1.00  0.00     0.000 C 
BRANCH   5   6
ATOM      6  C   UNL     1     122.539 122.155 132.899  1.00  0.00     0.006 C 
BRANCH   6   7
ATOM      7  C   UNL     1     123.950 122.130 133.500  1.00  0.00     0.053 C 
BRANCH   7   8
ATOM      8  C   UNL     1     124.049 122.983 134.728  1.00  0.00     0.041 C 
ATOM      9  O   UNL     1     123.092 123.734 135.055  1.00  0.00    -0.550 OA
ATOM     10  O   UNL     1     125.209 122.974 135.491  1.00  0.00    -0.550 OA
ENDBRANCH   7   8
ENDBRANCH   6   7
ENDBRANCH   5   6
ENDBRANCH   4   5
ENDBRANCH   3   4
ENDBRANCH   2   3
ENDBRANCH   1   2
BRANCH   1  11
ATOM     11  C   UNL     1     125.321 119.047 130.182  1.00  0.00     0.000 C 
BRANCH  11  12
ATOM     12  C   UNL     1     125.454 120.544 130.502  1.00  0.00    -0.000 C 
BRANCH  12  13
ATOM     13  C   UNL     1     124.666 121.434 129.527  1.00  0.00    -0.000 C 
BRANCH  13  14
ATOM     14  C   UNL     1     124.579 122.895 129.999  1.00  0.00    -0.000 C 
BRANCH  14  15
ATOM     15  C   UNL     1     125.333 123.861 129.072  1.00  0.00    -0.000 C 
BRANCH  15  16
ATOM     16  C   UNL     1     125.940 123.156 127.846  1.00  0.00    -0.000 C 
BRANCH  16  17
ATOM     17  C   UNL     1     127.461 123.346 127.751  1.00  0.00    -0.003 C 
ATOM     18  C   UNL     1     128.240 122.111 128.204  1.00  0.00     0.004 C 
ENDBRANCH  16  17
ENDBRANCH  15  16
ENDBRANCH  14  15
ENDBRANCH  13  14
ENDBRANCH  12  13
ENDBRANCH  11  12
ENDBRANCH   1  11
TORSDOF 14
ENDMDL
MODEL 3
REMARK VINA RESULT:    -4.744      3.687      7.485
REMARK INTER + INTRA:          -9.258
REMARK INTER:                  -8.636
REMARK INTRA:                  -0.622
REMARK UNBOUND:                -0.632
REMARK SMILES CCCCCCCCCCCCCCCC(=O)[O-]
REMARK SMILES IDX 9 1 10 2 11 3 12 4 13 5 14 6 15 7 16 8 17 9 18 10 8 11 7 12
REMARK SMILES IDX 6 13 5 14 4 15 3 16 2 17 1 18
REMARK H PARENT
REMARK Flexibility Score: inf
ROOT
ATOM      1  C   UNL     1     128.055 128.333 123.411  1.00  0.00     0.000 C 
ENDROOT
BRANCH   1   2
ATOM      2  C   UNL     1     128.909 129.407 122.724  1.00  0.00     0.000 C 
BRANCH   2   3
ATOM      3  C   UNL     1     128.995 130.673 123.584  1.00  0.00     0.000 C 
BRANCH   3   4
ATOM      4  C   UNL     1     128.254 130.489 124.913  1.00  0.00     0.000 C 
BRANCH   4   5
ATOM      5  C   UNL     1     129.036 131.117 126.072  1.00  0.00     0.000 C 
BRANCH   5   6
ATOM      6  C   UNL     1     128.085 131.744 127.103  1.00  0.00     0.006 C 
BRANCH   6   7
ATOM      7  C   UNL     1     128.740 132.899 127.869  1.00  0.00     0.053 C 
BRANCH   7   8
ATOM      8  C   UNL     1     130.129 132.557 128.315  1.00  0.00     0.041 C 
ATOM      9  O   UNL     1     130.317 131.616 129.131  1.00  0.00    -0.550 OA
ATOM     10  O   UNL     1     131.210 133.297 127.855  1.00  0.00    -0.550 OA
ENDBRANCH   7   8
ENDBRANCH   6   7
ENDBRANCH   5   6
ENDBRANCH   4   5
ENDBRANCH   3   4
ENDBRANCH   2   3
ENDBRANCH   1   2
BRANCH   1  11
ATOM     11  C   UNL     1     127.498 127.336 122.388  1.00  0.00     0.000 C 
BRANCH  11  12
ATOM     12  C   UNL     1     126.834 126.142 123.090  1.00  0.00    -0.000 C 
BRANCH  12  13
ATOM     13  C   UNL     1     127.586 125.701 124.356  1.00  0.00    -0.000 C 
BRANCH  13  14
ATOM     14  C   UNL     1     126.686 124.938 125.343  1.00  0.00    -0.000 C 
BRANCH  14  15
ATOM     15  C   UNL     1     127.452 124.446 126.581  1.00  0.00    -0.000 C 
BRANCH  15  16
ATOM     16  C   UNL     1     126.629 124.569 127.876  1.00  0.00    -0.000 C 
BRANCH  16  17
ATOM     17  C   UNL     1     125.673 123.385 128.080  1.00  0.00    -0.003 C 
ATOM     18  C   UNL     1     124.821 123.524 129.342  1.00  0.00     0.004 C 
ENDBRANCH  16  17
ENDBRANCH  15  16
ENDBRANCH  14  15
ENDBRANCH  13  14
ENDBRANCH  12  13
ENDBRANCH  11  12
ENDBRANCH   1  11
TORSDOF 14
ENDMDL
MODEL 4
REMARK VINA RESULT:    -4.656      6.100      9.887
REMARK INTER + INTRA:          -9.098
REMARK INTER:                  -7.571
REMARK INTRA:                  -1.527
REMARK UNBOUND:                -0.632
REMARK SMILES CCCCCCCCCCCCCCCC(=O)[O-]
REMARK SMILES IDX 9 1 10 2 11 3 12 4 13 5 14 6 15 7 16 8 17 9 18 10 8 11 7 12
REMARK SMILES IDX 6 13 5 14 4 15 3 16 2 17 1 18
REMARK H PARENT
REMARK Flexibility Score: inf
ROOT
ATOM      1  C   UNL     1     130.768 137.083 130.195  1.00  0.00     0.000 C 
ENDROOT
BRANCH   1   2
ATOM      2  C   UNL     1     129.828 135.874 130.277  1.00  0.00     0.000 C 
BRANCH   2   3
ATOM      3  C   UNL     1     130.559 134.645 130.831  1.00  0.00     0.000 C 
BRANCH   3   4
ATOM      4  C   UNL     1     131.408 133.973 129.745  1.00  0.00     0.000 C 
BRANCH   4   5
ATOM      5  C   UNL     1     130.522 133.350 128.660  1.00  0.00     0.000 C 
BRANCH   5   6
ATOM      6  C   UNL     1     130.565 131.816 128.729  1.00  0.00     0.006 C 
BRANCH   6   7
ATOM      7  C   UNL     1     129.176 131.187 128.562  1.00  0.00     0.053 C 
BRANCH   7   8
ATOM      8  C   UNL     1     128.423 131.794 127.418  1.00  0.00     0.041 C 
ATOM      9  O   UNL     1     128.663 131.426 126.237  1.00  0.00    -0.550 OA
ATOM     10  O   UNL     1     127.482 132.787 127.652  1.00  0.00    -0.550 OA
ENDBRANCH   7   8
ENDBRANCH   6   7
ENDBRANCH   5   6
ENDBRANCH   4   5
ENDBRANCH   3   4
ENDBRANCH   2   3
ENDBRANCH   1   2
BRANCH   1  11
ATOM     11  C   UNL     1     130.925 137.752 131.566  1.00  0.00     0.000 C 
BRANCH  11  12
ATOM     12  C   UNL     1     132.406 137.856 131.961  1.00  0.00    -0.000 C 
BRANCH  12  13
ATOM     13  C   UNL     1     132.911 136.613 132.711  1.00  0.00    -0.000 C 
BRANCH  13  14
ATOM     14  C   UNL     1     134.001 135.856 131.932  1.00  0.00    -0.000 C 
BRANCH  14  15
ATOM     15  C   UNL     1     134.541 134.641 132.704  1.00  0.00    -0.000 C 
BRANCH  15  16
ATOM     16  C   UNL     1     133.557 133.459 132.714  1.00  0.00    -0.000 C 
BRANCH  16  17
ATOM     17  C   UNL     1     132.924 133.232 134.095  1.00  0.00    -0.003 C 
ATOM     18  C   UNL     1     131.409 133.047 134.028  1.00  0.00     0.004 C 
ENDBRANCH  16  17
ENDBRANCH  15  16
ENDBRANCH  14  15
ENDBRANCH  13  14
ENDBRANCH  12  13
ENDBRANCH  11  12
ENDBRANCH   1  11
TORSDOF 14
ENDMDL
MODEL 5
REMARK VINA RESULT:    -4.633      6.267      9.971
REMARK INTER + INTRA:          -9.057
REMARK INTER:                  -7.807
REMARK INTRA:                  -1.250
REMARK UNBOUND:                -0.632
REMARK SMILES CCCCCCCCCCCCCCCC(=O)[O-]
REMARK SMILES IDX 9 1 10 2 11 3 12 4 13 5 14 6 15 7 16 8 17 9 18 10 8 11 7 12
REMARK SMILES IDX 6 13 5 14 4 15 3 16 2 17 1 18
REMARK H PARENT
REMARK Flexibility Score: inf
ROOT
ATOM      1  C   UNL     1     123.072 120.596 131.666  1.00  0.00     0.000 C 
ENDROOT
BRANCH   1   2
ATOM      2  C   UNL     1     123.168 120.558 133.197  1.00  0.00     0.000 C 
BRANCH   2   3
ATOM      3  C   UNL     1     123.295 121.972 133.775  1.00  0.00     0.000 C 
BRANCH   3   4
ATOM      4  C   UNL     1     123.504 121.929 135.294  1.00  0.00     0.000 C 
BRANCH   4   5
ATOM      5  C   UNL     1     124.872 122.506 135.678  1.00  0.00     0.000 C 
BRANCH   5   6
ATOM      6  C   UNL     1     125.550 123.167 134.470  1.00  0.00     0.006 C 
BRANCH   6   7
ATOM      7  C   UNL     1     126.434 124.353 134.877  1.00  0.00     0.053 C 
BRANCH   7   8
ATOM      8  C   UNL     1     125.828 125.663 134.477  1.00  0.00     0.041 C 
ATOM      9  O   UNL     1     124.830 126.114 135.098  1.00  0.00    -0.550 OA
ATOM     10  O   UNL     1     126.345 126.369 133.398  1.00  0.00    -0.550 OA
ENDBRANCH   7   8
ENDBRANCH   6   7
ENDBRANCH   5   6
ENDBRANCH   4   5
ENDBRANCH   3   4
ENDBRANCH   2   3
ENDBRANCH   1   2
BRANCH   1  11
ATOM     11  C   UNL     1     124.423 120.267 131.021  1.00  0.00     0.000 C 
BRANCH  11  12
ATOM     12  C   UNL     1     124.746 121.252 129.888  1.00  0.00    -0.000 C 
BRANCH  12  13
ATOM     13  C   UNL     1     124.367 122.702 130.232  1.00  0.00    -0.000 C 
BRANCH  13  14
ATOM     14  C   UNL     1     124.849 123.707 129.172  1.00  0.00    -0.000 C 
BRANCH  14  15
ATOM     15  C   UNL     1     125.796 123.070 128.142  1.00  0.00    -0.000 C 
BRANCH  15  16
ATOM     16  C   UNL     1     126.929 124.018 127.711  1.00  0.00    -0.000 C 
BRANCH  16  17
ATOM     17  C   UNL     1     128.322 123.444 128.009  1.00  0.00    -0.003 C 
ATOM     18  C   UNL     1     128.315 121.922 128.153  1.00  0.00     0.004 C 
ENDBRANCH  16  17
ENDBRANCH  15  16
ENDBRANCH  14  15
ENDBRANCH  13  14
ENDBRANCH  12  13
ENDBRANCH  11  12
ENDBRANCH   1  11
TORSDOF 14
ENDMDL
MODEL 6
REMARK VINA RESULT:    -4.516      5.876     10.891
REMARK INTER + INTRA:          -8.844
REMARK INTER:                  -7.600
REMARK INTRA:                  -1.244
REMARK UNBOUND:                -0.632
REMARK SMILES CCCCCCCCCCCCCCCC(=O)[O-]
REMARK SMILES IDX 9 1 10 2 11 3 12 4 13 5 14 6 15 7 16 8 17 9 18 10 8 11 7 12
REMARK SMILES IDX 6 13 5 14 4 15 3 16 2 17 1 18
REMARK H PARENT
REMARK Flexibility Score: inf
ROOT
ATOM      1  C   UNL     1     124.332 117.880 131.588  1.00  0.00     0.000 C 
ENDROOT
BRANCH   1   2
ATOM      2  C   UNL     1     125.103 119.005 130.886  1.00  0.00     0.000 C 
BRANCH   2   3
ATOM      3  C   UNL     1     124.229 120.256 130.731  1.00  0.00     0.000 C 
BRANCH   3   4
ATOM      4  C   UNL     1     125.004 121.388 130.046  1.00  0.00     0.000 C 
BRANCH   4   5
ATOM      5  C   UNL     1     124.201 122.693 130.061  1.00  0.00     0.000 C 
BRANCH   5   6
ATOM      6  C   UNL     1     124.956 123.814 129.331  1.00  0.00     0.006 C 
BRANCH   6   7
ATOM      7  C   UNL     1     125.923 123.268 128.272  1.00  0.00     0.053 C 
BRANCH   7   8
ATOM      8  C   UNL     1     126.799 124.344 127.709  1.00  0.00     0.041 C 
ATOM      9  O   UNL     1     126.804 125.492 128.228  1.00  0.00    -0.550 OA
ATOM     10  O   UNL     1     127.584 124.090 126.592  1.00  0.00    -0.550 OA
ENDBRANCH   7   8
ENDBRANCH   6   7
ENDBRANCH   5   6
ENDBRANCH   4   5
ENDBRANCH   3   4
ENDBRANCH   2   3
ENDBRANCH   1   2
BRANCH   1  11
ATOM     11  C   UNL     1     123.010 118.396 132.167  1.00  0.00     0.000 C 
BRANCH  11  12
ATOM     12  C   UNL     1     122.896 118.061 133.662  1.00  0.00    -0.000 C 
BRANCH  12  13
ATOM     13  C   UNL     1     122.491 119.274 134.515  1.00  0.00    -0.000 C 
BRANCH  13  14
ATOM     14  C   UNL     1     122.737 120.612 133.796  1.00  0.00    -0.000 C 
BRANCH  14  15
ATOM     15  C   UNL     1     123.604 121.575 134.622  1.00  0.00    -0.000 C 
BRANCH  15  16
ATOM     16  C   UNL     1     124.197 122.715 133.775  1.00  0.00    -0.000 C 
BRANCH  16  17
ATOM     17  C   UNL     1     124.760 123.855 134.636  1.00  0.00    -0.003 C 
ATOM     18  C   UNL     1     126.252 123.693 134.929  1.00  0.00     0.004 C 
ENDBRANCH  16  17
ENDBRANCH  15  16
ENDBRANCH  14  15
ENDBRANCH  13  14
ENDBRANCH  12  13
ENDBRANCH  11  12
ENDBRANCH   1  11
TORSDOF 14
ENDMDL
MODEL 7
REMARK VINA RESULT:    -4.484      6.261     10.496
REMARK INTER + INTRA:          -8.786
REMARK INTER:                  -7.142
REMARK INTRA:                  -1.644
REMARK UNBOUND:                -0.632
REMARK SMILES CCCCCCCCCCCCCCCC(=O)[O-]
REMARK SMILES IDX 9 1 10 2 11 3 12 4 13 5 14 6 15 7 16 8 17 9 18 10 8 11 7 12
REMARK SMILES IDX 6 13 5 14 4 15 3 16 2 17 1 18
REMARK H PARENT
REMARK Flexibility Score: inf
ROOT
ATOM      1  C   UNL     1     132.785 136.635 131.988  1.00  0.00     0.000 C 
ENDROOT
BRANCH   1   2
ATOM      2  C   UNL     1     132.880 136.276 133.477  1.00  0.00     0.000 C 
BRANCH   2   3
ATOM      3  C   UNL     1     133.249 134.799 133.664  1.00  0.00     0.000 C 
BRANCH   3   4
ATOM      4  C   UNL     1     132.678 133.941 132.529  1.00  0.00     0.000 C 
BRANCH   4   5
ATOM      5  C   UNL     1     131.378 133.251 132.961  1.00  0.00     0.000 C 
BRANCH   5   6
ATOM      6  C   UNL     1     131.280 133.171 134.492  1.00  0.00     0.006 C 
BRANCH   6   7
ATOM      7  C   UNL     1     130.108 132.296 134.953  1.00  0.00     0.053 C 
BRANCH   7   8
ATOM      8  C   UNL     1     130.366 130.842 134.706  1.00  0.00     0.041 C 
ATOM      9  O   UNL     1     129.674 130.210 133.865  1.00  0.00    -0.550 OA
ATOM     10  O   UNL     1     131.348 130.176 135.428  1.00  0.00    -0.550 OA
ENDBRANCH   7   8
ENDBRANCH   6   7
ENDBRANCH   5   6
ENDBRANCH   4   5
ENDBRANCH   3   4
ENDBRANCH   2   3
ENDBRANCH   1   2
BRANCH   1  11
ATOM     11  C   UNL     1     131.465 137.351 131.678  1.00  0.00     0.000 C 
BRANCH  11  12
ATOM     12  C   UNL     1     130.990 137.036 130.252  1.00  0.00    -0.000 C 
BRANCH  12  13
ATOM     13  C   UNL     1     129.631 136.319 130.221  1.00  0.00    -0.000 C 
BRANCH  13  14
ATOM     14  C   UNL     1     129.771 134.789 130.130  1.00  0.00    -0.000 C 
BRANCH  14  15
ATOM     15  C   UNL     1     131.016 134.357 129.339  1.00  0.00    -0.000 C 
BRANCH  15  16
ATOM     16  C   UNL     1     130.714 133.246 128.318  1.00  0.00    -0.000 C 
BRANCH  16  17
ATOM     17  C   UNL     1     130.443 131.890 128.987  1.00  0.00    -0.003 C 
ATOM     18  C   UNL     1     129.520 130.996 128.158  1.00  0.00     0.004 C 
ENDBRANCH  16  17
ENDBRANCH  15  16
ENDBRANCH  14  15
ENDBRANCH  13  14
ENDBRANCH  12  13
ENDBRANCH  11  12
ENDBRANCH   1  11
TORSDOF 14
ENDMDL
MODEL 8
REMARK VINA RESULT:    -4.403      6.215      9.761
REMARK INTER + INTRA:          -8.638
REMARK INTER:                  -7.590
REMARK INTRA:                  -1.048
REMARK UNBOUND:                -0.632
REMARK SMILES CCCCCCCCCCCCCCCC(=O)[O-]
REMARK SMILES IDX 9 1 10 2 11 3 12 4 13 5 14 6 15 7 16 8 17 9 18 10 8 11 7 12
REMARK SMILES IDX 6 13 5 14 4 15 3 16 2 17 1 18
REMARK H PARENT
REMARK Flexibility Score: inf
ROOT
ATOM      1  C   UNL     1     124.192 119.895 131.490  1.00  0.00     0.000 C 
ENDROOT
BRANCH   1   2
ATOM      2  C   UNL     1     124.968 120.602 130.372  1.00  0.00     0.000 C 
BRANCH   2   3
ATOM      3  C   UNL     1     124.618 122.094 130.318  1.00  0.00     0.000 C 
BRANCH   3   4
ATOM      4  C   UNL     1     124.644 122.614 128.876  1.00  0.00     0.000 C 
BRANCH   4   5
ATOM      5  C   UNL     1     125.533 123.858 128.755  1.00  0.00     0.000 C 
BRANCH   5   6
ATOM      6  C   UNL     1     126.508 123.726 127.575  1.00  0.00     0.006 C 
BRANCH   6   7
ATOM      7  C   UNL     1     127.960 123.558 128.039  1.00  0.00     0.053 C 
BRANCH   7   8
ATOM      8  C   UNL     1     128.389 122.123 128.022  1.00  0.00     0.041 C 
ATOM      9  O   UNL     1     129.167 121.705 127.125  1.00  0.00    -0.550 OA
ATOM     10  O   UNL     1     127.902 121.240 128.977  1.00  0.00    -0.550 OA
ENDBRANCH   7   8
ENDBRANCH   6   7
ENDBRANCH   5   6
ENDBRANCH   4   5
ENDBRANCH   3   4
ENDBRANCH   2   3
ENDBRANCH   1   2
BRANCH   1  11
ATOM     11  C   UNL     1     123.038 120.768 131.996  1.00  0.00     0.000 C 
BRANCH  11  12
ATOM     12  C   UNL     1     122.626 120.363 133.419  1.00  0.00    -0.000 C 
BRANCH  12  13
ATOM     13  C   UNL     1     123.234 121.273 134.498  1.00  0.00    -0.000 C 
BRANCH  13  14
ATOM     14  C   UNL     1     123.940 122.504 133.904  1.00  0.00    -0.000 C 
BRANCH  14  15
ATOM     15  C   UNL     1     125.053 123.044 134.816  1.00  0.00    -0.000 C 
BRANCH  15  16
ATOM     16  C   UNL     1     125.186 124.575 134.748  1.00  0.00    -0.000 C 
BRANCH  16  17
ATOM     17  C   UNL     1     126.318 125.108 135.639  1.00  0.00    -0.003 C 
ATOM     18  C   UNL     1     127.638 124.368 135.422  1.00  0.00     0.004 C 
ENDBRANCH  16  17
ENDBRANCH  15  16
ENDBRANCH  14  15
ENDBRANCH  13  14
ENDBRANCH  12  13
ENDBRANCH  11  12
ENDBRANCH   1  11
TORSDOF 14
ENDMDL
MODEL 9
REMARK VINA RESULT:    -4.382      6.457     10.285
REMARK INTER + INTRA:          -8.599
REMARK INTER:                  -7.373
REMARK INTRA:                  -1.226
REMARK UNBOUND:                -0.632
REMARK SMILES CCCCCCCCCCCCCCCC(=O)[O-]
REMARK SMILES IDX 9 1 10 2 11 3 12 4 13 5 14 6 15 7 16 8 17 9 18 10 8 11 7 12
REMARK SMILES IDX 6 13 5 14 4 15 3 16 2 17 1 18
REMARK H PARENT
REMARK Flexibility Score: inf
ROOT
ATOM      1  C   UNL     1     132.789 135.316 131.964  1.00  0.00     0.000 C 
ENDROOT
BRANCH   1   2
ATOM      2  C   UNL     1     133.014 136.101 133.263  1.00  0.00     0.000 C 
BRANCH   2   3
ATOM      3  C   UNL     1     132.707 135.235 134.490  1.00  0.00     0.000 C 
BRANCH   3   4
ATOM      4  C   UNL     1     132.525 133.765 134.095  1.00  0.00     0.000 C 
BRANCH   4   5
ATOM      5  C   UNL     1     132.718 132.841 135.304  1.00  0.00     0.000 C 
BRANCH   5   6
ATOM      6  C   UNL     1     131.775 131.631 135.229  1.00  0.00     0.006 C 
BRANCH   6   7
ATOM      7  C   UNL     1     130.337 132.037 134.879  1.00  0.00     0.053 C 
BRANCH   7   8
ATOM      8  C   UNL     1     129.475 130.844 134.597  1.00  0.00     0.041 C 
ATOM      9  O   UNL     1     129.788 130.039 133.681  1.00  0.00    -0.550 OA
ATOM     10  O   UNL     1     128.309 130.642 135.324  1.00  0.00    -0.550 OA
ENDBRANCH   7   8
ENDBRANCH   6   7
ENDBRANCH   5   6
ENDBRANCH   4   5
ENDBRANCH   3   4
ENDBRANCH   2   3
ENDBRANCH   1   2
BRANCH   1  11
ATOM     11  C   UNL     1     131.587 135.867 131.188  1.00  0.00     0.000 C 
BRANCH  11  12
ATOM     12  C   UNL     1     130.944 134.775 130.322  1.00  0.00    -0.000 C 
BRANCH  12  13
ATOM     13  C   UNL     1     131.497 133.372 130.623  1.00  0.00    -0.000 C 
BRANCH  13  14
ATOM     14  C   UNL     1     131.301 132.395 129.451  1.00  0.00    -0.000 C 
BRANCH  14  15
ATOM     15  C   UNL     1     130.314 132.926 128.399  1.00  0.00    -0.000 C 
BRANCH  15  16
ATOM     16  C   UNL     1     129.363 131.835 127.874  1.00  0.00    -0.000 C 
BRANCH  16  17
ATOM     17  C   UNL     1     127.988 132.394 127.481  1.00  0.00    -0.003 C 
ATOM     18  C   UNL     1     127.675 133.727 128.161  1.00  0.00     0.004 C 
ENDBRANCH  16  17
ENDBRANCH  15  16
ENDBRANCH  14  15
ENDBRANCH  13  14
ENDBRANCH  12  13
ENDBRANCH  11  12
ENDBRANCH   1  11
TORSDOF 14
ENDMDL
