MODEL 1
REMARK VINA RESULT:     5.391      0.000      0.000
REMARK INTER + INTRA:          10.672
REMARK INTER:                  11.695
REMARK INTRA:                  -1.023
REMARK UNBOUND:                -1.023
REMARK SMILES CCCCCCCCCCCCCCCCCCCCCC(=O)[O-]
REMARK SMILES IDX 12 1 11 2 10 3 9 4 8 5 7 6 6 7 5 8 4 9 3 10 2 11 1 12 13 13
REMARK SMILES IDX 14 14 15 15 16 16 17 17 18 18 19 19 20 20 21 21 22 22 23 23
REMARK SMILES IDX 24 24
REMARK H PARENT
REMARK Flexibility Score: inf
ROOT
ATOM      1  C   UNL     1      30.210  24.992  31.201  1.00  0.00     0.000 C 
ENDROOT
BRANCH   1   2
ATOM      2  C   UNL     1      30.667  23.558  30.889  1.00  0.00     0.000 C 
BRANCH   2   3
ATOM      3  C   UNL     1      30.450  23.173  29.415  1.00  0.00     0.000 C 
BRANCH   3   4
ATOM      4  C   UNL     1      31.572  23.685  28.493  1.00  0.00    -0.000 C 
BRANCH   4   5
ATOM      5  C   UNL     1      32.288  24.958  28.983  1.00  0.00    -0.000 C 
BRANCH   5   6
ATOM      6  C   UNL     1      33.780  24.986  28.607  1.00  0.00    -0.000 C 
BRANCH   6   7
ATOM      7  C   UNL     1      34.685  24.541  29.777  1.00  0.00    -0.000 C 
BRANCH   7   8
ATOM      8  C   UNL     1      36.130  25.054  29.668  1.00  0.00    -0.000 C 
BRANCH   8   9
ATOM      9  C   UNL     1      37.047  24.505  30.770  1.00  0.00    -0.000 C 
BRANCH   9  10
ATOM     10  C   UNL     1      36.706  25.125  32.131  1.00  0.00    -0.000 C 
BRANCH  10  11
ATOM     11  C   UNL     1      36.968  24.132  33.269  1.00  0.00    -0.003 C 
ATOM     12  C   UNL     1      35.741  23.978  34.161  1.00  0.00     0.004 C 
ENDBRANCH  10  11
ENDBRANCH   9  10
ENDBRANCH   8   9
ENDBRANCH   7   8
ENDBRANCH   6   7
ENDBRANCH   5   6
ENDBRANCH   4   5
ENDBRANCH   3   4
ENDBRANCH   2   3
ENDBRANCH   1   2
BRANCH   1  13
ATOM     13  C   UNL     1      29.579  25.125  32.597  1.00  0.00     0.000 C 
BRANCH  13  14
ATOM     14  C   UNL     1      30.236  24.161  33.592  1.00  0.00     0.000 C 
BRANCH  14  15
ATOM     15  C   UNL     1      30.886  24.928  34.752  1.00  0.00     0.000 C 
BRANCH  15  16
ATOM     16  C   UNL     1      32.389  24.629  34.902  1.00  0.00     0.000 C 
BRANCH  16  17
ATOM     17  C   UNL     1      32.832  24.211  36.316  1.00  0.00     0.000 C 
BRANCH  17  18
ATOM     18  C   UNL     1      31.695  23.589  37.142  1.00  0.00     0.000 C 
BRANCH  18  19
ATOM     19  C   UNL     1      31.786  22.056  37.138  1.00  0.00     0.000 C 
BRANCH  19  20
ATOM     20  C   UNL     1      31.366  21.430  38.481  1.00  0.00     0.006 C 
BRANCH  20  21
ATOM     21  C   UNL     1      30.649  20.077  38.350  1.00  0.00     0.053 C 
BRANCH  21  22
ATOM     22  C   UNL     1      31.533  19.028  37.749  1.00  0.00     0.041 C 
ATOM     23  O   UNL     1      31.364  18.664  36.556  1.00  0.00    -0.550 OA
ATOM     24  O   UNL     1      32.528  18.434  38.515  1.00  0.00    -0.550 OA
ENDBRANCH  21  22
ENDBRANCH  20  21
ENDBRANCH  19  20
ENDBRANCH  18  19
ENDBRANCH  17  18
ENDBRANCH  16  17
ENDBRANCH  15  16
ENDBRANCH  14  15
ENDBRANCH  13  14
ENDBRANCH   1  13
TORSDOF 20
ENDMDL
MODEL 2
REMARK VINA RESULT:     7.720      2.955      4.250
REMARK INTER + INTRA:          15.725
REMARK INTER:                  15.379
REMARK INTRA:                   0.345
REMARK UNBOUND:                -1.023
REMARK SMILES CCCCCCCCCCCCCCCCCCCCCC(=O)[O-]
REMARK SMILES IDX 12 1 11 2 10 3 9 4 8 5 7 6 6 7 5 8 4 9 3 10 2 11 1 12 13 13
REMARK SMILES IDX 14 14 15 15 16 16 17 17 18 18 19 19 20 20 21 21 22 22 23 23
REMARK SMILES IDX 24 24
REMARK H PARENT
REMARK Flexibility Score: inf
ROOT
ATOM      1  C   UNL     1      30.129  24.654  31.551  1.00  0.00     0.000 C 
ENDROOT
BRANCH   1   2
ATOM      2  C   UNL     1      29.339  24.165  30.326  1.00  0.00     0.000 C 
BRANCH   2   3
ATOM      3  C   UNL     1      29.653  24.972  29.054  1.00  0.00     0.000 C 
BRANCH   3   4
ATOM      4  C   UNL     1      30.410  24.148  27.997  1.00  0.00    -0.000 C 
BRANCH   4   5
ATOM      5  C   UNL     1      30.578  22.654  28.332  1.00  0.00    -0.000 C 
BRANCH   5   6
ATOM      6  C   UNL     1      31.829  22.368  29.181  1.00  0.00    -0.000 C 
BRANCH   6   7
ATOM      7  C   UNL     1      32.629  23.653  29.491  1.00  0.00    -0.000 C 
BRANCH   7   8
ATOM      8  C   UNL     1      34.092  23.596  29.021  1.00  0.00    -0.000 C 
BRANCH   8   9
ATOM      9  C   UNL     1      34.749  24.981  28.937  1.00  0.00    -0.000 C 
BRANCH   9  10
ATOM     10  C   UNL     1      35.970  25.069  29.860  1.00  0.00    -0.000 C 
BRANCH  10  11
ATOM     11  C   UNL     1      37.103  24.165  29.361  1.00  0.00    -0.003 C 
ATOM     12  C   UNL     1      36.595  22.758  29.058  1.00  0.00     0.004 C 
ENDBRANCH  10  11
ENDBRANCH   9  10
ENDBRANCH   8   9
ENDBRANCH   7   8
ENDBRANCH   6   7
ENDBRANCH   5   6
ENDBRANCH   4   5
ENDBRANCH   3   4
ENDBRANCH   2   3
ENDBRANCH   1   2
BRANCH   1  13
ATOM     13  C   UNL     1      29.222  25.036  32.731  1.00  0.00     0.000 C 
BRANCH  13  14
ATOM     14  C   UNL     1      28.586  23.792  33.363  1.00  0.00     0.000 C 
BRANCH  14  15
ATOM     15  C   UNL     1      28.740  23.812  34.890  1.00  0.00     0.000 C 
BRANCH  15  16
ATOM     16  C   UNL     1      29.642  24.957  35.388  1.00  0.00     0.000 C 
BRANCH  16  17
ATOM     17  C   UNL     1      31.094  24.909  34.879  1.00  0.00     0.000 C 
BRANCH  17  18
ATOM     18  C   UNL     1      31.916  23.778  35.515  1.00  0.00     0.000 C 
BRANCH  18  19
ATOM     19  C   UNL     1      33.415  24.114  35.506  1.00  0.00     0.000 C 
BRANCH  19  20
ATOM     20  C   UNL     1      33.833  24.944  34.279  1.00  0.00     0.006 C 
BRANCH  20  21
ATOM     21  C   UNL     1      34.527  24.131  33.173  1.00  0.00     0.053 C 
BRANCH  21  22
ATOM     22  C   UNL     1      36.012  24.082  33.360  1.00  0.00     0.041 C 
ATOM     23  O   UNL     1      36.703  25.125  33.222  1.00  0.00    -0.550 OA
ATOM     24  O   UNL     1      36.636  22.878  33.662  1.00  0.00    -0.550 OA
ENDBRANCH  21  22
ENDBRANCH  20  21
ENDBRANCH  19  20
ENDBRANCH  18  19
ENDBRANCH  17  18
ENDBRANCH  16  17
ENDBRANCH  15  16
ENDBRANCH  14  15
ENDBRANCH  13  14
ENDBRANCH   1  13
TORSDOF 20
ENDMDL
