MODEL 1
REMARK VINA RESULT:    -3.717      0.000      0.000
REMARK INTER + INTRA:          -4.663
REMARK INTER:                  -4.586
REMARK INTRA:                  -0.077
REMARK UNBOUND:                -0.077
REMARK SMILES CCCCCC(=O)[O-]
REMARK SMILES IDX 4 1 5 2 6 3 7 4 8 5 3 6 2 7 1 8
REMARK H PARENT
REMARK Flexibility Score: inf
ROOT
ATOM      1  C   UNL     1       3.468 -36.731  17.289  1.00  0.00     0.006 C 
ENDROOT
BRANCH   1   2
ATOM      2  C   UNL     1       3.423 -37.579  18.569  1.00  0.00     0.053 C 
BRANCH   2   3
ATOM      3  C   UNL     1       4.490 -37.184  19.543  1.00  0.00     0.041 C 
ATOM      4  O   UNL     1       5.034 -38.054  20.273  1.00  0.00    -0.550 OA
ATOM      5  O   UNL     1       4.910 -35.862  19.619  1.00  0.00    -0.550 OA
ENDBRANCH   2   3
ENDBRANCH   1   2
BRANCH   1   6
ATOM      6  C   UNL     1       2.357 -37.052  16.269  1.00  0.00     0.000 C 
BRANCH   6   7
ATOM      7  C   UNL     1       2.707 -36.727  14.806  1.00  0.00    -0.003 C 
ATOM      8  C   UNL     1       3.867 -37.564  14.269  1.00  0.00     0.004 C 
ENDBRANCH   6   7
ENDBRANCH   1   6
TORSDOF 4
ENDMDL
MODEL 2
REMARK VINA RESULT:    -3.712      0.140      1.146
REMARK INTER + INTRA:          -4.658
REMARK INTER:                  -4.587
REMARK INTRA:                  -0.071
REMARK UNBOUND:                -0.077
REMARK SMILES CCCCCC(=O)[O-]
REMARK SMILES IDX 4 1 5 2 6 3 7 4 8 5 3 6 2 7 1 8
REMARK H PARENT
REMARK Flexibility Score: inf
ROOT
ATOM      1  C   UNL     1       3.475 -36.733  17.359  1.00  0.00     0.006 C 
ENDROOT
BRANCH   1   2
ATOM      2  C   UNL     1       3.457 -37.538  18.668  1.00  0.00     0.053 C 
BRANCH   2   3
ATOM      3  C   UNL     1       4.555 -37.122  19.598  1.00  0.00     0.041 C 
ATOM      4  O   UNL     1       4.801 -35.901  19.782  1.00  0.00    -0.550 OA
ATOM      5  O   UNL     1       5.284 -38.082  20.289  1.00  0.00    -0.550 OA
ENDBRANCH   2   3
ENDBRANCH   1   2
BRANCH   1   6
ATOM      6  C   UNL     1       2.383 -37.133  16.347  1.00  0.00     0.000 C 
BRANCH   6   7
ATOM      7  C   UNL     1       2.672 -36.731  14.889  1.00  0.00    -0.003 C 
ATOM      8  C   UNL     1       3.827 -37.516  14.271  1.00  0.00     0.004 C 
ENDBRANCH   6   7
ENDBRANCH   1   6
TORSDOF 4
ENDMDL
MODEL 3
REMARK VINA RESULT:    -3.650      2.955      5.572
REMARK INTER + INTRA:          -4.581
REMARK INTER:                  -4.533
REMARK INTRA:                  -0.049
REMARK UNBOUND:                -0.077
REMARK SMILES CCCCCC(=O)[O-]
REMARK SMILES IDX 4 1 5 2 6 3 7 4 8 5 3 6 2 7 1 8
REMARK H PARENT
REMARK Flexibility Score: inf
ROOT
ATOM      1  C   UNL     1       4.683 -36.036  20.560  1.00  0.00     0.006 C 
ENDROOT
BRANCH   1   2
ATOM      2  C   UNL     1       4.674 -37.339  19.746  1.00  0.00     0.053 C 
BRANCH   2   3
ATOM      3  C   UNL     1       3.393 -37.523  18.992  1.00  0.00     0.041 C 
ATOM      4  O   UNL     1       2.343 -37.860  19.601  1.00  0.00    -0.550 OA
ATOM      5  O   UNL     1       3.348 -37.288  17.624  1.00  0.00    -0.550 OA
ENDBRANCH   2   3
ENDBRANCH   1   2
BRANCH   1   6
ATOM      6  C   UNL     1       6.018 -35.734  21.269  1.00  0.00     0.000 C 
BRANCH   6   7
ATOM      7  C   UNL     1       6.027 -36.018  22.782  1.00  0.00    -0.003 C 
ATOM      8  C   UNL     1       5.907 -34.752  23.628  1.00  0.00     0.004 C 
ENDBRANCH   6   7
ENDBRANCH   1   6
TORSDOF 4
ENDMDL
MODEL 4
REMARK VINA RESULT:    -3.625      1.413      2.194
REMARK INTER + INTRA:          -4.551
REMARK INTER:                  -4.409
REMARK INTRA:                  -0.142
REMARK UNBOUND:                -0.077
REMARK SMILES CCCCCC(=O)[O-]
REMARK SMILES IDX 4 1 5 2 6 3 7 4 8 5 3 6 2 7 1 8
REMARK H PARENT
REMARK Flexibility Score: inf
ROOT
ATOM      1  C   UNL     1       3.112 -37.523  19.542  1.00  0.00     0.006 C 
ENDROOT
BRANCH   1   2
ATOM      2  C   UNL     1       4.647 -37.586  19.565  1.00  0.00     0.053 C 
BRANCH   2   3
ATOM      3  C   UNL     1       5.254 -36.312  20.069  1.00  0.00     0.041 C 
ATOM      4  O   UNL     1       5.283 -35.290  19.334  1.00  0.00    -0.550 OA
ATOM      5  O   UNL     1       5.755 -36.243  21.363  1.00  0.00    -0.550 OA
ENDBRANCH   2   3
ENDBRANCH   1   2
BRANCH   1   6
ATOM      6  C   UNL     1       2.481 -37.831  18.170  1.00  0.00     0.000 C 
BRANCH   6   7
ATOM      7  C   UNL     1       3.113 -37.082  16.982  1.00  0.00    -0.003 C 
ATOM      8  C   UNL     1       2.086 -36.637  15.942  1.00  0.00     0.004 C 
ENDBRANCH   6   7
ENDBRANCH   1   6
TORSDOF 4
ENDMDL
MODEL 5
REMARK VINA RESULT:    -3.500      2.953      4.597
REMARK INTER + INTRA:          -4.396
REMARK INTER:                  -4.298
REMARK INTRA:                  -0.099
REMARK UNBOUND:                -0.077
REMARK SMILES CCCCCC(=O)[O-]
REMARK SMILES IDX 4 1 5 2 6 3 7 4 8 5 3 6 2 7 1 8
REMARK H PARENT
REMARK Flexibility Score: inf
ROOT
ATOM      1  C   UNL     1       2.356 -37.503  17.590  1.00  0.00     0.006 C 
ENDROOT
BRANCH   1   2
ATOM      2  C   UNL     1       3.357 -36.825  16.642  1.00  0.00     0.053 C 
BRANCH   2   3
ATOM      3  C   UNL     1       3.136 -37.220  15.215  1.00  0.00     0.041 C 
ATOM      4  O   UNL     1       2.228 -36.667  14.539  1.00  0.00    -0.550 OA
ATOM      5  O   UNL     1       3.953 -38.173  14.620  1.00  0.00    -0.550 OA
ENDBRANCH   2   3
ENDBRANCH   1   2
BRANCH   1   6
ATOM      6  C   UNL     1       2.890 -37.749  19.015  1.00  0.00     0.000 C 
BRANCH   6   7
ATOM      7  C   UNL     1       4.158 -36.954  19.379  1.00  0.00    -0.003 C 
ATOM      8  C   UNL     1       5.152 -37.763  20.210  1.00  0.00     0.004 C 
ENDBRANCH   6   7
ENDBRANCH   1   6
TORSDOF 4
ENDMDL
MODEL 6
REMARK VINA RESULT:    -3.500      2.735      4.637
REMARK INTER + INTRA:          -4.395
REMARK INTER:                  -4.322
REMARK INTRA:                  -0.073
REMARK UNBOUND:                -0.077
REMARK SMILES CCCCCC(=O)[O-]
REMARK SMILES IDX 4 1 5 2 6 3 7 4 8 5 3 6 2 7 1 8
REMARK H PARENT
REMARK Flexibility Score: inf
ROOT
ATOM      1  C   UNL     1       3.259 -37.573  18.446  1.00  0.00     0.006 C 
ENDROOT
BRANCH   1   2
ATOM      2  C   UNL     1       3.534 -36.634  17.261  1.00  0.00     0.053 C 
BRANCH   2   3
ATOM      3  C   UNL     1       2.955 -37.157  15.983  1.00  0.00     0.041 C 
ATOM      4  O   UNL     1       3.547 -38.069  15.346  1.00  0.00    -0.550 OA
ATOM      5  O   UNL     1       1.744 -36.665  15.514  1.00  0.00    -0.550 OA
ENDBRANCH   2   3
ENDBRANCH   1   2
BRANCH   1   6
ATOM      6  C   UNL     1       4.319 -37.521  19.564  1.00  0.00     0.000 C 
BRANCH   6   7
ATOM      7  C   UNL     1       4.922 -36.128  19.821  1.00  0.00    -0.003 C 
ATOM      8  C   UNL     1       5.671 -36.037  21.149  1.00  0.00     0.004 C 
ENDBRANCH   6   7
ENDBRANCH   1   6
TORSDOF 4
ENDMDL
MODEL 7
REMARK VINA RESULT:    -3.320      3.333      4.841
REMARK INTER + INTRA:          -4.174
REMARK INTER:                  -4.131
REMARK INTRA:                  -0.042
REMARK UNBOUND:                -0.077
REMARK SMILES CCCCCC(=O)[O-]
REMARK SMILES IDX 4 1 5 2 6 3 7 4 8 5 3 6 2 7 1 8
REMARK H PARENT
REMARK Flexibility Score: inf
ROOT
ATOM      1  C   UNL     1       4.800 -35.617  21.421  1.00  0.00     0.006 C 
ENDROOT
BRANCH   1   2
ATOM      2  C   UNL     1       6.090 -35.739  22.247  1.00  0.00     0.053 C 
BRANCH   2   3
ATOM      3  C   UNL     1       5.914 -35.228  23.644  1.00  0.00     0.041 C 
ATOM      4  O   UNL     1       6.024 -33.997  23.886  1.00  0.00    -0.550 OA
ATOM      5  O   UNL     1       5.593 -36.106  24.671  1.00  0.00    -0.550 OA
ENDBRANCH   2   3
ENDBRANCH   1   2
BRANCH   1   6
ATOM      6  C   UNL     1       4.913 -36.141  19.976  1.00  0.00     0.000 C 
BRANCH   6   7
ATOM      7  C   UNL     1       4.135 -37.439  19.694  1.00  0.00    -0.003 C 
ATOM      8  C   UNL     1       3.463 -37.446  18.322  1.00  0.00     0.004 C 
ENDBRANCH   6   7
ENDBRANCH   1   6
TORSDOF 4
ENDMDL
MODEL 8
REMARK VINA RESULT:    -3.276      3.266      5.986
REMARK INTER + INTRA:          -4.119
REMARK INTER:                  -4.037
REMARK INTRA:                  -0.082
REMARK UNBOUND:                -0.077
REMARK SMILES CCCCCC(=O)[O-]
REMARK SMILES IDX 4 1 5 2 6 3 7 4 8 5 3 6 2 7 1 8
REMARK H PARENT
REMARK Flexibility Score: inf
ROOT
ATOM      1  C   UNL     1       4.993 -35.651  21.267  1.00  0.00     0.006 C 
ENDROOT
BRANCH   1   2
ATOM      2  C   UNL     1       5.319 -36.057  19.821  1.00  0.00     0.053 C 
BRANCH   2   3
ATOM      3  C   UNL     1       4.745 -37.395  19.470  1.00  0.00     0.041 C 
ATOM      4  O   UNL     1       5.247 -38.445  19.950  1.00  0.00    -0.550 OA
ATOM      5  O   UNL     1       3.633 -37.481  18.642  1.00  0.00    -0.550 OA
ENDBRANCH   2   3
ENDBRANCH   1   2
BRANCH   1   6
ATOM      6  C   UNL     1       6.121 -35.931  22.280  1.00  0.00     0.000 C 
BRANCH   6   7
ATOM      7  C   UNL     1       5.818 -35.493  23.724  1.00  0.00    -0.003 C 
ATOM      8  C   UNL     1       6.125 -34.018  23.977  1.00  0.00     0.004 C 
ENDBRANCH   6   7
ENDBRANCH   1   6
TORSDOF 4
ENDMDL
MODEL 9
REMARK VINA RESULT:    -3.274      1.774      1.985
REMARK INTER + INTRA:          -4.116
REMARK INTER:                  -4.080
REMARK INTRA:                  -0.036
REMARK UNBOUND:                -0.077
REMARK SMILES CCCCCC(=O)[O-]
REMARK SMILES IDX 4 1 5 2 6 3 7 4 8 5 3 6 2 7 1 8
REMARK H PARENT
REMARK Flexibility Score: inf
ROOT
ATOM      1  C   UNL     1       3.131 -36.536  16.821  1.00  0.00     0.006 C 
ENDROOT
BRANCH   1   2
ATOM      2  C   UNL     1       3.236 -37.842  17.624  1.00  0.00     0.053 C 
BRANCH   2   3
ATOM      3  C   UNL     1       2.464 -37.777  18.906  1.00  0.00     0.041 C 
ATOM      4  O   UNL     1       3.038 -37.431  19.973  1.00  0.00    -0.550 OA
ATOM      5  O   UNL     1       1.105 -38.063  18.918  1.00  0.00    -0.550 OA
ENDBRANCH   2   3
ENDBRANCH   1   2
BRANCH   1   6
ATOM      6  C   UNL     1       1.992 -36.514  15.783  1.00  0.00     0.000 C 
BRANCH   6   7
ATOM      7  C   UNL     1       2.434 -36.765  14.330  1.00  0.00    -0.003 C 
ATOM      8  C   UNL     1       3.841 -37.353  14.227  1.00  0.00     0.004 C 
ENDBRANCH   6   7
ENDBRANCH   1   6
TORSDOF 4
ENDMDL
