MODEL 1
REMARK VINA RESULT:    -7.253      0.000      0.000
REMARK INTER + INTRA:          -8.915
REMARK INTER:                  -9.797
REMARK INTRA:                   0.882
REMARK UNBOUND:                 0.882
REMARK SMILES O=c1c(-c2ccc(O)cc2)coc2c([C@@H]3O[C@@H](CO)[C@@H](O)[C@@H](O)[C@H]3O)c(O)ccc12
REMARK SMILES IDX 3 1 11 2 12 3 13 4 30 5 2 6 1 7 29 8 28 9 26 10 14 11 4 12
REMARK SMILES IDX 5 13 6 14 7 15 10 16 9 17 8 18 15 20 24 21 16 22 22 23 17 24
REMARK SMILES IDX 20 25 25 26 23 28 18 30 19 31 21 33 27 35
REMARK H PARENT 8 19 25 27 23 29 19 32 21 34 27 36
REMARK Flexibility Score: inf
ROOT
ATOM      1  C   UNL     1       5.933  12.569   5.966  1.00  0.00     0.065 A 
ATOM      2  C   UNL     1       5.088  13.208   5.049  1.00  0.00     0.208 A 
ATOM      3  O   UNL     1       4.931  12.732   3.819  1.00  0.00    -0.463 OA
ATOM      4  C   UNL     1       5.550  11.644   3.367  1.00  0.00     0.147 A 
ATOM      5  C   UNL     1       6.378  10.908   4.248  1.00  0.00     0.066 A 
ATOM      6  C   UNL     1       6.575  11.388   5.556  1.00  0.00     0.200 A 
ATOM      7  O   UNL     1       7.297  10.745   6.368  1.00  0.00    -0.288 OA
ATOM      8  C   UNL     1       6.946   9.702   3.821  1.00  0.00     0.020 A 
ATOM      9  C   UNL     1       6.630   9.193   2.568  1.00  0.00     0.047 A 
ATOM     10  C   UNL     1       5.799   9.902   1.692  1.00  0.00     0.125 A 
ATOM     11  C   UNL     1       5.350  11.212   2.025  1.00  0.00     0.069 A 
ENDROOT
BRANCH   1  12
ATOM     12  C   UNL     1       6.120  13.139   7.326  1.00  0.00    -0.011 A 
ATOM     13  C   UNL     1       5.959  12.330   8.465  1.00  0.00     0.013 A 
ATOM     14  C   UNL     1       6.114  12.870   9.745  1.00  0.00     0.047 A 
ATOM     15  C   UNL     1       6.428  14.226   9.905  1.00  0.00     0.115 A 
ATOM     16  C   UNL     1       6.431  14.501   7.497  1.00  0.00     0.013 A 
ATOM     17  C   UNL     1       6.587  15.038   8.778  1.00  0.00     0.047 A 
BRANCH  15  18
ATOM     18  O   UNL     1       6.573  14.778  11.176  1.00  0.00    -0.508 OA
ATOM     19  H   UNL     1       6.830  15.749  11.304  1.00  0.00     0.293 HD
ENDBRANCH  15  18
ENDBRANCH   1  12
BRANCH  11  20
ATOM     20  C   UNL     1       4.486  12.064   1.064  1.00  0.00     0.188 C 
ATOM     21  C   UNL     1       5.199  12.595  -0.227  1.00  0.00     0.179 C 
ATOM     22  O   UNL     1       3.210  11.502   0.765  1.00  0.00    -0.362 OA
ATOM     23  C   UNL     1       5.166  11.583  -1.384  1.00  0.00     0.177 C 
ATOM     24  C   UNL     1       3.268  10.465  -0.208  1.00  0.00     0.176 C 
ATOM     25  C   UNL     1       3.764  10.994  -1.568  1.00  0.00     0.177 C 
BRANCH  21  26
ATOM     26  O   UNL     1       4.578  13.795  -0.623  1.00  0.00    -0.387 OA
ATOM     27  H   UNL     1       3.683  13.566  -0.985  1.00  0.00     0.211 HD
ENDBRANCH  21  26
BRANCH  23  28
ATOM     28  O   UNL     1       5.601  12.196  -2.572  1.00  0.00    -0.387 OA
ATOM     29  H   UNL     1       6.553  12.446  -2.436  1.00  0.00     0.211 HD
ENDBRANCH  23  28
BRANCH  24  30
ATOM     30  C   UNL     1       1.877   9.819  -0.325  1.00  0.00     0.191 C 
BRANCH  30  31
ATOM     31  O   UNL     1       0.870  10.744  -0.006  1.00  0.00    -0.394 OA
ATOM     32  H   UNL     1       1.145  11.615  -0.395  1.00  0.00     0.210 HD
ENDBRANCH  30  31
ENDBRANCH  24  30
BRANCH  25  33
ATOM     33  O   UNL     1       2.883  11.928  -2.149  1.00  0.00    -0.388 OA
ATOM     34  H   UNL     1       2.055  11.964  -1.607  1.00  0.00     0.211 HD
ENDBRANCH  25  33
ENDBRANCH  11  20
BRANCH  10  35
ATOM     35  O   UNL     1       5.401   9.271   0.514  1.00  0.00    -0.507 OA
ATOM     36  H   UNL     1       4.815   9.734  -0.172  1.00  0.00     0.293 HD
ENDBRANCH  10  35
TORSDOF 9
ENDMDL
MODEL 2
REMARK VINA RESULT:    -7.127      1.419      1.784
REMARK INTER + INTRA:          -8.745
REMARK INTER:                  -9.365
REMARK INTRA:                   0.620
REMARK UNBOUND:                 0.882
REMARK SMILES O=c1c(-c2ccc(O)cc2)coc2c([C@@H]3O[C@@H](CO)[C@@H](O)[C@@H](O)[C@H]3O)c(O)ccc12
REMARK SMILES IDX 3 1 11 2 12 3 13 4 30 5 2 6 1 7 29 8 28 9 26 10 14 11 4 12
REMARK SMILES IDX 5 13 6 14 7 15 10 16 9 17 8 18 15 20 24 21 16 22 22 23 17 24
REMARK SMILES IDX 20 25 25 26 23 28 18 30 19 31 21 33 27 35
REMARK H PARENT 8 19 25 27 23 29 19 32 21 34 27 36
REMARK Flexibility Score: inf
ROOT
ATOM      1  C   UNL     1       5.890  13.068   5.525  1.00  0.00     0.065 A 
ATOM      2  C   UNL     1       4.613  13.044   4.948  1.00  0.00     0.208 A 
ATOM      3  O   UNL     1       4.434  12.621   3.702  1.00  0.00    -0.463 OA
ATOM      4  C   UNL     1       5.424  12.202   2.919  1.00  0.00     0.147 A 
ATOM      5  C   UNL     1       6.738  12.142   3.443  1.00  0.00     0.066 A 
ATOM      6  C   UNL     1       6.967  12.590   4.757  1.00  0.00     0.200 A 
ATOM      7  O   UNL     1       8.125  12.535   5.256  1.00  0.00    -0.288 OA
ATOM      8  C   UNL     1       7.769  11.598   2.669  1.00  0.00     0.020 A 
ATOM      9  C   UNL     1       7.486  11.048   1.425  1.00  0.00     0.047 A 
ATOM     10  C   UNL     1       6.189  11.086   0.900  1.00  0.00     0.125 A 
ATOM     11  C   UNL     1       5.155  11.788   1.583  1.00  0.00     0.069 A 
ENDROOT
BRANCH   1  12
ATOM     12  C   UNL     1       6.071  13.578   6.909  1.00  0.00    -0.011 A 
ATOM     13  C   UNL     1       6.377  14.932   7.134  1.00  0.00     0.013 A 
ATOM     14  C   UNL     1       6.568  15.408   8.435  1.00  0.00     0.047 A 
ATOM     15  C   UNL     1       6.459  14.538   9.527  1.00  0.00     0.115 A 
ATOM     16  C   UNL     1       5.968  12.711   8.013  1.00  0.00     0.013 A 
ATOM     17  C   UNL     1       6.158  13.190   9.312  1.00  0.00     0.047 A 
BRANCH  15  18
ATOM     18  O   UNL     1       6.659  14.998  10.827  1.00  0.00    -0.508 OA
ATOM     19  H   UNL     1       6.862  15.972  11.018  1.00  0.00     0.293 HD
ENDBRANCH  15  18
ENDBRANCH   1  12
BRANCH  11  20
ATOM     20  C   UNL     1       3.722  11.917   1.013  1.00  0.00     0.188 C 
ATOM     21  C   UNL     1       3.459  13.133   0.060  1.00  0.00     0.179 C 
ATOM     22  O   UNL     1       3.189  10.707   0.479  1.00  0.00    -0.362 OA
ATOM     23  C   UNL     1       3.819  12.830  -1.405  1.00  0.00     0.177 C 
ATOM     24  C   UNL     1       3.678  10.405  -0.822  1.00  0.00     0.176 C 
ATOM     25  C   UNL     1       3.254  11.476  -1.847  1.00  0.00     0.177 C 
BRANCH  21  26
ATOM     26  O   UNL     1       2.101  13.494   0.153  1.00  0.00    -0.387 OA
ATOM     27  H   UNL     1       1.565  12.750  -0.228  1.00  0.00     0.211 HD
ENDBRANCH  21  26
BRANCH  23  28
ATOM     28  O   UNL     1       3.345  13.856  -2.239  1.00  0.00    -0.387 OA
ATOM     29  H   UNL     1       3.757  14.701  -1.920  1.00  0.00     0.211 HD
ENDBRANCH  23  28
BRANCH  24  30
ATOM     30  C   UNL     1       3.179   9.007  -1.225  1.00  0.00     0.191 C 
BRANCH  30  31
ATOM     31  O   UNL     1       2.968   8.935  -2.611  1.00  0.00    -0.394 OA
ATOM     32  H   UNL     1       2.465   8.096  -2.784  1.00  0.00     0.210 HD
ENDBRANCH  30  31
ENDBRANCH  24  30
BRANCH  25  33
ATOM     33  O   UNL     1       1.859  11.535  -2.036  1.00  0.00    -0.388 OA
ATOM     34  H   UNL     1       1.674  12.000  -2.891  1.00  0.00     0.211 HD
ENDBRANCH  25  33
ENDBRANCH  11  20
BRANCH  10  35
ATOM     35  O   UNL     1       5.941  10.387  -0.280  1.00  0.00    -0.507 OA
ATOM     36  H   UNL     1       5.274   9.623  -0.323  1.00  0.00     0.293 HD
ENDBRANCH  10  35
TORSDOF 9
ENDMDL
MODEL 3
REMARK VINA RESULT:    -6.471      2.243      8.348
REMARK INTER + INTRA:          -7.859
REMARK INTER:                  -7.528
REMARK INTRA:                  -0.332
REMARK UNBOUND:                 0.882
REMARK SMILES O=c1c(-c2ccc(O)cc2)coc2c([C@@H]3O[C@@H](CO)[C@@H](O)[C@@H](O)[C@H]3O)c(O)ccc12
REMARK SMILES IDX 3 1 11 2 12 3 13 4 30 5 2 6 1 7 29 8 28 9 26 10 14 11 4 12
REMARK SMILES IDX 5 13 6 14 7 15 10 16 9 17 8 18 15 20 24 21 16 22 22 23 17 24
REMARK SMILES IDX 20 25 25 26 23 28 18 30 19 31 21 33 27 35
REMARK H PARENT 8 19 25 27 23 29 19 32 21 34 27 36
REMARK Flexibility Score: inf
ROOT
ATOM      1  C   UNL     1       6.529  11.271   1.992  1.00  0.00     0.065 A 
ATOM      2  C   UNL     1       7.165  12.413   2.497  1.00  0.00     0.208 A 
ATOM      3  O   UNL     1       7.277  12.611   3.805  1.00  0.00    -0.463 OA
ATOM      4  C   UNL     1       6.802  11.768   4.719  1.00  0.00     0.147 A 
ATOM      5  C   UNL     1       6.195  10.562   4.292  1.00  0.00     0.066 A 
ATOM      6  C   UNL     1       6.052  10.323   2.913  1.00  0.00     0.200 A 
ATOM      7  O   UNL     1       5.527   9.250   2.504  1.00  0.00    -0.288 OA
ATOM      8  C   UNL     1       5.793   9.615   5.241  1.00  0.00     0.020 A 
ATOM      9  C   UNL     1       6.063   9.824   6.588  1.00  0.00     0.047 A 
ATOM     10  C   UNL     1       6.678  11.005   7.023  1.00  0.00     0.125 A 
ATOM     11  C   UNL     1       6.937  12.063   6.105  1.00  0.00     0.069 A 
ENDROOT
BRANCH   1  12
ATOM     12  C   UNL     1       6.386  11.089   0.523  1.00  0.00    -0.011 A 
ATOM     13  C   UNL     1       5.228  11.532  -0.139  1.00  0.00     0.013 A 
ATOM     14  C   UNL     1       5.083  11.342  -1.517  1.00  0.00     0.047 A 
ATOM     15  C   UNL     1       6.091  10.704  -2.250  1.00  0.00     0.115 A 
ATOM     16  C   UNL     1       7.392  10.445  -0.221  1.00  0.00     0.013 A 
ATOM     17  C   UNL     1       7.245  10.258  -1.598  1.00  0.00     0.047 A 
BRANCH  15  18
ATOM     18  O   UNL     1       5.954  10.498  -3.621  1.00  0.00    -0.508 OA
ATOM     19  H   UNL     1       5.715   9.589  -3.998  1.00  0.00     0.293 HD
ENDBRANCH  15  18
ENDBRANCH   1  12
BRANCH  11  20
ATOM     20  C   UNL     1       7.553  13.413   6.546  1.00  0.00     0.188 C 
ATOM     21  C   UNL     1       7.059  14.687   5.778  1.00  0.00     0.179 C 
ATOM     22  O   UNL     1       7.563  13.623   7.957  1.00  0.00    -0.362 OA
ATOM     23  C   UNL     1       5.774  15.283   6.378  1.00  0.00     0.177 C 
ATOM     24  C   UNL     1       6.302  14.031   8.473  1.00  0.00     0.176 C 
ATOM     25  C   UNL     1       5.873  15.397   7.902  1.00  0.00     0.177 C 
BRANCH  21  26
ATOM     26  O   UNL     1       8.086  15.650   5.795  1.00  0.00    -0.387 OA
ATOM     27  H   UNL     1       8.952  15.167   5.773  1.00  0.00     0.211 HD
ENDBRANCH  21  26
BRANCH  23  28
ATOM     28  O   UNL     1       5.515  16.541   5.807  1.00  0.00    -0.387 OA
ATOM     29  H   UNL     1       4.529  16.631   5.740  1.00  0.00     0.211 HD
ENDBRANCH  23  28
BRANCH  24  30
ATOM     30  C   UNL     1       6.382  14.058  10.008  1.00  0.00     0.191 C 
BRANCH  30  31
ATOM     31  O   UNL     1       6.141  12.782  10.542  1.00  0.00    -0.394 OA
ATOM     32  H   UNL     1       6.716  12.692  11.347  1.00  0.00     0.210 HD
ENDBRANCH  30  31
ENDBRANCH  24  30
BRANCH  25  33
ATOM     33  O   UNL     1       6.730  16.447   8.288  1.00  0.00    -0.388 OA
ATOM     34  H   UNL     1       7.610  16.065   8.533  1.00  0.00     0.211 HD
ENDBRANCH  25  33
ENDBRANCH  11  20
BRANCH  10  35
ATOM     35  O   UNL     1       7.056  11.090   8.361  1.00  0.00    -0.507 OA
ATOM     36  H   UNL     1       7.875  10.610   8.720  1.00  0.00     0.293 HD
ENDBRANCH  10  35
TORSDOF 9
ENDMDL
MODEL 4
REMARK VINA RESULT:    -6.440      5.216      9.251
REMARK INTER + INTRA:          -7.817
REMARK INTER:                  -8.161
REMARK INTRA:                   0.344
REMARK UNBOUND:                 0.882
REMARK SMILES O=c1c(-c2ccc(O)cc2)coc2c([C@@H]3O[C@@H](CO)[C@@H](O)[C@@H](O)[C@H]3O)c(O)ccc12
REMARK SMILES IDX 3 1 11 2 12 3 13 4 30 5 2 6 1 7 29 8 28 9 26 10 14 11 4 12
REMARK SMILES IDX 5 13 6 14 7 15 10 16 9 17 8 18 15 20 24 21 16 22 22 23 17 24
REMARK SMILES IDX 20 25 25 26 23 28 18 30 19 31 21 33 27 35
REMARK H PARENT 8 19 25 27 23 29 19 32 21 34 27 36
REMARK Flexibility Score: inf
ROOT
ATOM      1  C   UNL     1       7.830  19.703   9.476  1.00  0.00     0.065 A 
ATOM      2  C   UNL     1       8.122  18.464  10.064  1.00  0.00     0.208 A 
ATOM      3  O   UNL     1       8.077  17.343   9.353  1.00  0.00    -0.463 OA
ATOM      4  C   UNL     1       7.752  17.303   8.063  1.00  0.00     0.147 A 
ATOM      5  C   UNL     1       7.497  18.517   7.380  1.00  0.00     0.066 A 
ATOM      6  C   UNL     1       7.528  19.724   8.103  1.00  0.00     0.200 A 
ATOM      7  O   UNL     1       7.319  20.822   7.518  1.00  0.00    -0.288 OA
ATOM      8  C   UNL     1       7.266  18.500   6.000  1.00  0.00     0.020 A 
ATOM      9  C   UNL     1       7.368  17.308   5.294  1.00  0.00     0.047 A 
ATOM     10  C   UNL     1       7.637  16.102   5.954  1.00  0.00     0.125 A 
ATOM     11  C   UNL     1       7.700  16.058   7.376  1.00  0.00     0.069 A 
ENDROOT
BRANCH   1  12
ATOM     12  C   UNL     1       7.854  20.940  10.300  1.00  0.00    -0.011 A 
ATOM     13  C   UNL     1       8.100  20.870  11.682  1.00  0.00     0.013 A 
ATOM     14  C   UNL     1       8.103  22.031  12.461  1.00  0.00     0.047 A 
ATOM     15  C   UNL     1       7.856  23.276  11.870  1.00  0.00     0.115 A 
ATOM     16  C   UNL     1       7.603  22.195   9.716  1.00  0.00     0.013 A 
ATOM     17  C   UNL     1       7.608  23.354  10.497  1.00  0.00     0.047 A 
BRANCH  15  18
ATOM     18  O   UNL     1       7.844  24.439  12.638  1.00  0.00    -0.508 OA
ATOM     19  H   UNL     1       8.281  24.475  13.551  1.00  0.00     0.293 HD
ENDBRANCH  15  18
ENDBRANCH   1  12
BRANCH  11  20
ATOM     20  C   UNL     1       7.927  14.740   8.156  1.00  0.00     0.188 C 
ATOM     21  C   UNL     1       7.338  14.681   9.608  1.00  0.00     0.179 C 
ATOM     22  O   UNL     1       7.622  13.558   7.418  1.00  0.00    -0.362 OA
ATOM     23  C   UNL     1       5.866  14.232   9.635  1.00  0.00     0.177 C 
ATOM     24  C   UNL     1       6.229  13.280   7.355  1.00  0.00     0.176 C 
ATOM     25  C   UNL     1       5.645  12.999   8.754  1.00  0.00     0.177 C 
BRANCH  21  26
ATOM     26  O   UNL     1       8.121  13.798  10.376  1.00  0.00    -0.387 OA
ATOM     27  H   UNL     1       7.508  13.145  10.803  1.00  0.00     0.211 HD
ENDBRANCH  21  26
BRANCH  23  28
ATOM     28  O   UNL     1       5.468  13.970  10.957  1.00  0.00    -0.387 OA
ATOM     29  H   UNL     1       6.218  14.248  11.545  1.00  0.00     0.211 HD
ENDBRANCH  23  28
BRANCH  24  30
ATOM     30  C   UNL     1       6.004  12.096   6.400  1.00  0.00     0.191 C 
BRANCH  30  31
ATOM     31  O   UNL     1       5.039  11.216   6.916  1.00  0.00    -0.394 OA
ATOM     32  H   UNL     1       4.842  10.553   6.204  1.00  0.00     0.210 HD
ENDBRANCH  30  31
ENDBRANCH  24  30
BRANCH  25  33
ATOM     33  O   UNL     1       6.176  11.837   9.348  1.00  0.00    -0.388 OA
ATOM     34  H   UNL     1       6.307  11.152   8.644  1.00  0.00     0.211 HD
ENDBRANCH  25  33
ENDBRANCH  11  20
BRANCH  10  35
ATOM     35  O   UNL     1       7.874  14.971   5.176  1.00  0.00    -0.507 OA
ATOM     36  H   UNL     1       8.810  14.607   5.027  1.00  0.00     0.293 HD
ENDBRANCH  10  35
TORSDOF 9
ENDMDL
MODEL 5
REMARK VINA RESULT:    -6.405      1.603      2.061
REMARK INTER + INTRA:          -7.769
REMARK INTER:                  -8.401
REMARK INTRA:                   0.632
REMARK UNBOUND:                 0.882
REMARK SMILES O=c1c(-c2ccc(O)cc2)coc2c([C@@H]3O[C@@H](CO)[C@@H](O)[C@@H](O)[C@H]3O)c(O)ccc12
REMARK SMILES IDX 3 1 11 2 12 3 13 4 30 5 2 6 1 7 29 8 28 9 26 10 14 11 4 12
REMARK SMILES IDX 5 13 6 14 7 15 10 16 9 17 8 18 15 20 24 21 16 22 22 23 17 24
REMARK SMILES IDX 20 25 25 26 23 28 18 30 19 31 21 33 27 35
REMARK H PARENT 8 19 25 27 23 29 19 32 21 34 27 36
REMARK Flexibility Score: inf
ROOT
ATOM      1  C   UNL     1       6.740  12.472   5.609  1.00  0.00     0.065 A 
ATOM      2  C   UNL     1       6.856  13.193   4.413  1.00  0.00     0.208 A 
ATOM      3  O   UNL     1       6.822  12.578   3.237  1.00  0.00    -0.463 OA
ATOM      4  C   UNL     1       6.685  11.261   3.101  1.00  0.00     0.147 A 
ATOM      5  C   UNL     1       6.505  10.465   4.258  1.00  0.00     0.066 A 
ATOM      6  C   UNL     1       6.545  11.082   5.521  1.00  0.00     0.200 A 
ATOM      7  O   UNL     1       6.373  10.400   6.569  1.00  0.00    -0.288 OA
ATOM      8  C   UNL     1       6.247   9.096   4.124  1.00  0.00     0.020 A 
ATOM      9  C   UNL     1       6.088   8.540   2.860  1.00  0.00     0.047 A 
ATOM     10  C   UNL     1       6.246   9.319   1.707  1.00  0.00     0.125 A 
ATOM     11  C   UNL     1       6.683  10.671   1.805  1.00  0.00     0.069 A 
ENDROOT
BRANCH   1  12
ATOM     12  C   UNL     1       6.816  13.179   6.914  1.00  0.00    -0.011 A 
ATOM     13  C   UNL     1       5.779  14.038   7.319  1.00  0.00     0.013 A 
ATOM     14  C   UNL     1       5.859  14.720   8.537  1.00  0.00     0.047 A 
ATOM     15  C   UNL     1       6.976  14.554   9.365  1.00  0.00     0.115 A 
ATOM     16  C   UNL     1       7.936  13.022   7.751  1.00  0.00     0.013 A 
ATOM     17  C   UNL     1       8.012  13.703   8.969  1.00  0.00     0.047 A 
BRANCH  15  18
ATOM     18  O   UNL     1       7.073  15.237  10.576  1.00  0.00    -0.508 OA
ATOM     19  H   UNL     1       6.309  15.803  10.926  1.00  0.00     0.293 HD
ENDBRANCH  15  18
ENDBRANCH   1  12
BRANCH  11  20
ATOM     20  C   UNL     1       6.938  11.554   0.559  1.00  0.00     0.188 C 
ATOM     21  C   UNL     1       7.333  10.801  -0.758  1.00  0.00     0.179 C 
ATOM     22  O   UNL     1       5.935  12.539   0.320  1.00  0.00    -0.362 OA
ATOM     23  C   UNL     1       6.109  10.332  -1.564  1.00  0.00     0.177 C 
ATOM     24  C   UNL     1       4.766  12.012  -0.295  1.00  0.00     0.176 C 
ATOM     25  C   UNL     1       5.070  11.450  -1.698  1.00  0.00     0.177 C 
BRANCH  21  26
ATOM     26  O   UNL     1       8.125  11.658  -1.546  1.00  0.00    -0.387 OA
ATOM     27  H   UNL     1       8.334  12.461  -1.002  1.00  0.00     0.211 HD
ENDBRANCH  21  26
BRANCH  23  28
ATOM     28  O   UNL     1       6.514   9.883  -2.833  1.00  0.00    -0.387 OA
ATOM     29  H   UNL     1       6.123  10.508  -3.498  1.00  0.00     0.211 HD
ENDBRANCH  23  28
BRANCH  24  30
ATOM     30  C   UNL     1       3.694  13.114  -0.346  1.00  0.00     0.191 C 
BRANCH  30  31
ATOM     31  O   UNL     1       3.110  13.180  -1.621  1.00  0.00    -0.394 OA
ATOM     32  H   UNL     1       3.722  12.707  -2.244  1.00  0.00     0.210 HD
ENDBRANCH  30  31
ENDBRANCH  24  30
BRANCH  25  33
ATOM     33  O   UNL     1       5.489  12.440  -2.608  1.00  0.00    -0.388 OA
ATOM     34  H   UNL     1       5.110  13.311  -2.327  1.00  0.00     0.211 HD
ENDBRANCH  25  33
ENDBRANCH  11  20
BRANCH  10  35
ATOM     35  O   UNL     1       5.927   8.741   0.480  1.00  0.00    -0.507 OA
ATOM     36  H   UNL     1       5.524   7.813   0.411  1.00  0.00     0.293 HD
ENDBRANCH  10  35
TORSDOF 9
ENDMDL
MODEL 6
REMARK VINA RESULT:    -6.287      2.781      4.057
REMARK INTER + INTRA:          -7.611
REMARK INTER:                  -8.794
REMARK INTRA:                   1.184
REMARK UNBOUND:                 0.882
REMARK SMILES O=c1c(-c2ccc(O)cc2)coc2c([C@@H]3O[C@@H](CO)[C@@H](O)[C@@H](O)[C@H]3O)c(O)ccc12
REMARK SMILES IDX 3 1 11 2 12 3 13 4 30 5 2 6 1 7 29 8 28 9 26 10 14 11 4 12
REMARK SMILES IDX 5 13 6 14 7 15 10 16 9 17 8 18 15 20 24 21 16 22 22 23 17 24
REMARK SMILES IDX 20 25 25 26 23 28 18 30 19 31 21 33 27 35
REMARK H PARENT 8 19 25 27 23 29 19 32 21 34 27 36
REMARK Flexibility Score: inf
ROOT
ATOM      1  C   UNL     1       7.074  16.229   6.451  1.00  0.00     0.065 A 
ATOM      2  C   UNL     1       7.108  16.310   5.052  1.00  0.00     0.208 A 
ATOM      3  O   UNL     1       6.917  15.233   4.299  1.00  0.00    -0.463 OA
ATOM      4  C   UNL     1       6.691  14.020   4.797  1.00  0.00     0.147 A 
ATOM      5  C   UNL     1       6.586  13.860   6.200  1.00  0.00     0.066 A 
ATOM      6  C   UNL     1       6.791  14.979   7.029  1.00  0.00     0.200 A 
ATOM      7  O   UNL     1       6.689  14.870   8.282  1.00  0.00    -0.288 OA
ATOM      8  C   UNL     1       6.237  12.614   6.732  1.00  0.00     0.020 A 
ATOM      9  C   UNL     1       5.917  11.562   5.882  1.00  0.00     0.047 A 
ATOM     10  C   UNL     1       6.001  11.710   4.492  1.00  0.00     0.125 A 
ATOM     11  C   UNL     1       6.523  12.908   3.925  1.00  0.00     0.069 A 
ENDROOT
BRANCH   1  12
ATOM     12  C   UNL     1       7.324  17.441   7.273  1.00  0.00    -0.011 A 
ATOM     13  C   UNL     1       7.052  18.720   6.755  1.00  0.00     0.013 A 
ATOM     14  C   UNL     1       7.306  19.863   7.519  1.00  0.00     0.047 A 
ATOM     15  C   UNL     1       7.838  19.744   8.809  1.00  0.00     0.115 A 
ATOM     16  C   UNL     1       7.862  17.332   8.568  1.00  0.00     0.013 A 
ATOM     17  C   UNL     1       8.113  18.476   9.331  1.00  0.00     0.047 A 
BRANCH  15  18
ATOM     18  O   UNL     1       8.106  20.875   9.576  1.00  0.00    -0.508 OA
ATOM     19  H   UNL     1       8.263  21.780   9.148  1.00  0.00     0.293 HD
ENDBRANCH  15  18
ENDBRANCH   1  12
BRANCH  11  20
ATOM     20  C   UNL     1       6.699  13.095   2.398  1.00  0.00     0.188 C 
ATOM     21  C   UNL     1       7.510  11.982   1.649  1.00  0.00     0.179 C 
ATOM     22  O   UNL     1       5.499  13.428   1.703  1.00  0.00    -0.362 OA
ATOM     23  C   UNL     1       6.631  10.794   1.219  1.00  0.00     0.177 C 
ATOM     24  C   UNL     1       4.658  12.306   1.467  1.00  0.00     0.176 C 
ATOM     25  C   UNL     1       5.340  11.273   0.547  1.00  0.00     0.177 C 
BRANCH  21  26
ATOM     26  O   UNL     1       8.125  12.555   0.520  1.00  0.00    -0.387 OA
ATOM     27  H   UNL     1       8.450  11.814  -0.055  1.00  0.00     0.211 HD
ENDBRANCH  21  26
BRANCH  23  28
ATOM     28  O   UNL     1       7.352   9.952   0.355  1.00  0.00    -0.387 OA
ATOM     29  H   UNL     1       7.859  10.539  -0.264  1.00  0.00     0.211 HD
ENDBRANCH  23  28
BRANCH  24  30
ATOM     30  C   UNL     1       3.328  12.801   0.874  1.00  0.00     0.191 C 
BRANCH  30  31
ATOM     31  O   UNL     1       2.677  11.767   0.182  1.00  0.00    -0.394 OA
ATOM     32  H   UNL     1       2.264  12.174  -0.624  1.00  0.00     0.210 HD
ENDBRANCH  30  31
ENDBRANCH  24  30
BRANCH  25  33
ATOM     33  O   UNL     1       5.584  11.767  -0.750  1.00  0.00    -0.388 OA
ATOM     34  H   UNL     1       6.020  11.056  -1.284  1.00  0.00     0.211 HD
ENDBRANCH  25  33
ENDBRANCH  11  20
BRANCH  10  35
ATOM     35  O   UNL     1       5.525  10.671   3.695  1.00  0.00    -0.507 OA
ATOM     36  H   UNL     1       4.963  10.841   2.868  1.00  0.00     0.293 HD
ENDBRANCH  10  35
TORSDOF 9
ENDMDL
MODEL 7
REMARK VINA RESULT:    -6.268      2.068      2.720
REMARK INTER + INTRA:          -7.585
REMARK INTER:                  -8.555
REMARK INTRA:                   0.971
REMARK UNBOUND:                 0.882
REMARK SMILES O=c1c(-c2ccc(O)cc2)coc2c([C@@H]3O[C@@H](CO)[C@@H](O)[C@@H](O)[C@H]3O)c(O)ccc12
REMARK SMILES IDX 3 1 11 2 12 3 13 4 30 5 2 6 1 7 29 8 28 9 26 10 14 11 4 12
REMARK SMILES IDX 5 13 6 14 7 15 10 16 9 17 8 18 15 20 24 21 16 22 22 23 17 24
REMARK SMILES IDX 20 25 25 26 23 28 18 30 19 31 21 33 27 35
REMARK H PARENT 8 19 25 27 23 29 19 32 21 34 27 36
REMARK Flexibility Score: inf
ROOT
ATOM      1  C   UNL     1       7.086  14.223   5.272  1.00  0.00     0.065 A 
ATOM      2  C   UNL     1       7.165  14.621   3.931  1.00  0.00     0.208 A 
ATOM      3  O   UNL     1       7.048  13.737   2.947  1.00  0.00    -0.463 OA
ATOM      4  C   UNL     1       6.858  12.435   3.149  1.00  0.00     0.147 A 
ATOM      5  C   UNL     1       6.711  11.958   4.473  1.00  0.00     0.066 A 
ATOM      6  C   UNL     1       6.837  12.866   5.541  1.00  0.00     0.200 A 
ATOM      7  O   UNL     1       6.696  12.472   6.732  1.00  0.00    -0.288 OA
ATOM      8  C   UNL     1       6.398  10.612   4.695  1.00  0.00     0.020 A 
ATOM      9  C   UNL     1       6.155   9.770   3.617  1.00  0.00     0.047 A 
ATOM     10  C   UNL     1       6.281  10.232   2.301  1.00  0.00     0.125 A 
ATOM     11  C   UNL     1       6.769  11.545   2.041  1.00  0.00     0.069 A 
ENDROOT
BRANCH   1  12
ATOM     12  C   UNL     1       7.253  15.226   6.356  1.00  0.00    -0.011 A 
ATOM     13  C   UNL     1       6.739  16.526   6.209  1.00  0.00     0.013 A 
ATOM     14  C   UNL     1       6.914  17.477   7.219  1.00  0.00     0.047 A 
ATOM     15  C   UNL     1       7.607  17.142   8.389  1.00  0.00     0.115 A 
ATOM     16  C   UNL     1       7.952  14.900   7.534  1.00  0.00     0.013 A 
ATOM     17  C   UNL     1       8.124  15.852   8.543  1.00  0.00     0.047 A 
BRANCH  15  18
ATOM     18  O   UNL     1       7.799  18.083   9.398  1.00  0.00    -0.508 OA
ATOM     19  H   UNL     1       7.050  18.696   9.699  1.00  0.00     0.293 HD
ENDBRANCH  15  18
ENDBRANCH   1  12
BRANCH  11  20
ATOM     20  C   UNL     1       6.990  12.080   0.605  1.00  0.00     0.188 C 
ATOM     21  C   UNL     1       7.350  11.015  -0.487  1.00  0.00     0.179 C 
ATOM     22  O   UNL     1       5.980  12.978   0.149  1.00  0.00    -0.362 OA
ATOM     23  C   UNL     1       6.107  10.363  -1.115  1.00  0.00     0.177 C 
ATOM     24  C   UNL     1       4.796  12.318  -0.280  1.00  0.00     0.176 C 
ATOM     25  C   UNL     1       5.063  11.416  -1.501  1.00  0.00     0.177 C 
BRANCH  21  26
ATOM     26  O   UNL     1       8.121  11.638  -1.487  1.00  0.00    -0.387 OA
ATOM     27  H   UNL     1       9.044  11.280  -1.423  1.00  0.00     0.211 HD
ENDBRANCH  21  26
BRANCH  23  28
ATOM     28  O   UNL     1       6.477   9.604  -2.238  1.00  0.00    -0.387 OA
ATOM     29  H   UNL     1       5.848   8.838  -2.289  1.00  0.00     0.211 HD
ENDBRANCH  23  28
BRANCH  24  30
ATOM     30  C   UNL     1       3.722  13.377  -0.583  1.00  0.00     0.191 C 
BRANCH  30  31
ATOM     31  O   UNL     1       3.014  13.049  -1.750  1.00  0.00    -0.394 OA
ATOM     32  H   UNL     1       2.642  12.138  -1.615  1.00  0.00     0.210 HD
ENDBRANCH  30  31
ENDBRANCH  24  30
BRANCH  25  33
ATOM     33  O   UNL     1       5.457  12.140  -2.644  1.00  0.00    -0.388 OA
ATOM     34  H   UNL     1       5.468  13.105  -2.421  1.00  0.00     0.211 HD
ENDBRANCH  25  33
ENDBRANCH  11  20
BRANCH  10  35
ATOM     35  O   UNL     1       5.879   9.385   1.269  1.00  0.00    -0.507 OA
ATOM     36  H   UNL     1       5.222   9.681   0.555  1.00  0.00     0.293 HD
ENDBRANCH  10  35
TORSDOF 9
ENDMDL
MODEL 8
REMARK VINA RESULT:    -6.072      2.561      8.660
REMARK INTER + INTRA:          -7.320
REMARK INTER:                  -7.080
REMARK INTRA:                  -0.240
REMARK UNBOUND:                 0.882
REMARK SMILES O=c1c(-c2ccc(O)cc2)coc2c([C@@H]3O[C@@H](CO)[C@@H](O)[C@@H](O)[C@H]3O)c(O)ccc12
REMARK SMILES IDX 3 1 11 2 12 3 13 4 30 5 2 6 1 7 29 8 28 9 26 10 14 11 4 12
REMARK SMILES IDX 5 13 6 14 7 15 10 16 9 17 8 18 15 20 24 21 16 22 22 23 17 24
REMARK SMILES IDX 20 25 25 26 23 28 18 30 19 31 21 33 27 35
REMARK H PARENT 8 19 25 27 23 29 19 32 21 34 27 36
REMARK Flexibility Score: inf
ROOT
ATOM      1  C   UNL     1       6.328  11.255   1.652  1.00  0.00     0.065 A 
ATOM      2  C   UNL     1       5.497  10.942   2.736  1.00  0.00     0.208 A 
ATOM      3  O   UNL     1       5.514  11.673   3.844  1.00  0.00    -0.463 OA
ATOM      4  C   UNL     1       6.305  12.729   4.016  1.00  0.00     0.147 A 
ATOM      5  C   UNL     1       7.136  13.147   2.948  1.00  0.00     0.066 A 
ATOM      6  C   UNL     1       7.150  12.391   1.761  1.00  0.00     0.200 A 
ATOM      7  O   UNL     1       7.870  12.747   0.788  1.00  0.00    -0.288 OA
ATOM      8  C   UNL     1       7.888  14.320   3.073  1.00  0.00     0.020 A 
ATOM      9  C   UNL     1       7.756  15.111   4.207  1.00  0.00     0.047 A 
ATOM     10  C   UNL     1       6.925  14.720   5.264  1.00  0.00     0.125 A 
ATOM     11  C   UNL     1       6.285  13.447   5.245  1.00  0.00     0.069 A 
ENDROOT
BRANCH   1  12
ATOM     12  C   UNL     1       6.316  10.402   0.435  1.00  0.00    -0.011 A 
ATOM     13  C   UNL     1       7.236   9.349   0.295  1.00  0.00     0.013 A 
ATOM     14  C   UNL     1       7.239   8.559  -0.859  1.00  0.00     0.047 A 
ATOM     15  C   UNL     1       6.325   8.813  -1.889  1.00  0.00     0.115 A 
ATOM     16  C   UNL     1       5.404  10.653  -0.607  1.00  0.00     0.013 A 
ATOM     17  C   UNL     1       5.408   9.860  -1.758  1.00  0.00     0.047 A 
BRANCH  15  18
ATOM     18  O   UNL     1       6.326   8.041  -3.048  1.00  0.00    -0.508 OA
ATOM     19  H   UNL     1       6.849   8.320  -3.869  1.00  0.00     0.293 HD
ENDBRANCH  15  18
ENDBRANCH   1  12
BRANCH  11  20
ATOM     20  C   UNL     1       5.411  12.939   6.417  1.00  0.00     0.188 C 
ATOM     21  C   UNL     1       5.500  11.407   6.738  1.00  0.00     0.179 C 
ATOM     22  O   UNL     1       5.497  13.729   7.602  1.00  0.00    -0.362 OA
ATOM     23  C   UNL     1       6.659  11.065   7.690  1.00  0.00     0.177 C 
ATOM     24  C   UNL     1       6.670  13.470   8.365  1.00  0.00     0.176 C 
ATOM     25  C   UNL     1       6.694  12.020   8.888  1.00  0.00     0.177 C 
BRANCH  21  26
ATOM     26  O   UNL     1       4.279  10.993   7.303  1.00  0.00    -0.387 OA
ATOM     27  H   UNL     1       4.487  10.409   8.077  1.00  0.00     0.211 HD
ENDBRANCH  21  26
BRANCH  23  28
ATOM     28  O   UNL     1       6.545   9.734   8.127  1.00  0.00    -0.387 OA
ATOM     29  H   UNL     1       6.503   9.758   9.119  1.00  0.00     0.211 HD
ENDBRANCH  23  28
BRANCH  24  30
ATOM     30  C   UNL     1       6.746  14.488   9.515  1.00  0.00     0.191 C 
BRANCH  30  31
ATOM     31  O   UNL     1       6.993  15.779   9.021  1.00  0.00    -0.394 OA
ATOM     32  H   UNL     1       6.955  15.721   8.030  1.00  0.00     0.210 HD
ENDBRANCH  30  31
ENDBRANCH  24  30
BRANCH  25  33
ATOM     33  O   UNL     1       5.654  11.746   9.799  1.00  0.00    -0.388 OA
ATOM     34  H   UNL     1       5.859  12.194  10.658  1.00  0.00     0.211 HD
ENDBRANCH  25  33
ENDBRANCH  11  20
BRANCH  10  35
ATOM     35  O   UNL     1       6.720  15.625   6.304  1.00  0.00    -0.507 OA
ATOM     36  H   UNL     1       7.343  15.678   7.103  1.00  0.00     0.293 HD
ENDBRANCH  10  35
TORSDOF 9
ENDMDL
MODEL 9
REMARK VINA RESULT:    -6.001      1.873      8.336
REMARK INTER + INTRA:          -7.224
REMARK INTER:                  -7.838
REMARK INTRA:                   0.614
REMARK UNBOUND:                 0.882
REMARK SMILES O=c1c(-c2ccc(O)cc2)coc2c([C@@H]3O[C@@H](CO)[C@@H](O)[C@@H](O)[C@H]3O)c(O)ccc12
REMARK SMILES IDX 3 1 11 2 12 3 13 4 30 5 2 6 1 7 29 8 28 9 26 10 14 11 4 12
REMARK SMILES IDX 5 13 6 14 7 15 10 16 9 17 8 18 15 20 24 21 16 22 22 23 17 24
REMARK SMILES IDX 20 25 25 26 23 28 18 30 19 31 21 33 27 35
REMARK H PARENT 8 19 25 27 23 29 19 32 21 34 27 36
REMARK Flexibility Score: inf
ROOT
ATOM      1  C   UNL     1       5.024  11.594   1.843  1.00  0.00     0.065 A 
ATOM      2  C   UNL     1       4.694  12.748   2.566  1.00  0.00     0.208 A 
ATOM      3  O   UNL     1       5.155  12.940   3.796  1.00  0.00    -0.463 OA
ATOM      4  C   UNL     1       5.941  12.072   4.429  1.00  0.00     0.147 A 
ATOM      5  C   UNL     1       6.367  10.907   3.749  1.00  0.00     0.066 A 
ATOM      6  C   UNL     1       5.892  10.667   2.447  1.00  0.00     0.200 A 
ATOM      7  O   UNL     1       6.266   9.643   1.810  1.00  0.00    -0.288 OA
ATOM      8  C   UNL     1       7.284  10.043   4.360  1.00  0.00     0.020 A 
ATOM      9  C   UNL     1       7.831  10.373   5.593  1.00  0.00     0.047 A 
ATOM     10  C   UNL     1       7.432  11.532   6.271  1.00  0.00     0.125 A 
ATOM     11  C   UNL     1       6.373  12.337   5.760  1.00  0.00     0.069 A 
ENDROOT
BRANCH   1  12
ATOM     12  C   UNL     1       4.468  11.386   0.480  1.00  0.00    -0.011 A 
ATOM     13  C   UNL     1       3.482  10.409   0.256  1.00  0.00     0.013 A 
ATOM     14  C   UNL     1       2.974  10.198  -1.030  1.00  0.00     0.047 A 
ATOM     15  C   UNL     1       3.445  10.958  -2.108  1.00  0.00     0.115 A 
ATOM     16  C   UNL     1       4.939  12.141  -0.610  1.00  0.00     0.013 A 
ATOM     17  C   UNL     1       4.428  11.930  -1.893  1.00  0.00     0.047 A 
BRANCH  15  18
ATOM     18  O   UNL     1       2.955  10.749  -3.394  1.00  0.00    -0.508 OA
ATOM     19  H   UNL     1       3.422  11.135  -4.207  1.00  0.00     0.293 HD
ENDBRANCH  15  18
ENDBRANCH   1  12
BRANCH  11  20
ATOM     20  C   UNL     1       5.849  13.589   6.504  1.00  0.00     0.188 C 
ATOM     21  C   UNL     1       6.254  13.722   8.012  1.00  0.00     0.179 C 
ATOM     22  O   UNL     1       6.037  14.814   5.800  1.00  0.00    -0.362 OA
ATOM     23  C   UNL     1       7.620  14.404   8.204  1.00  0.00     0.177 C 
ATOM     24  C   UNL     1       7.365  15.317   5.893  1.00  0.00     0.176 C 
ATOM     25  C   UNL     1       7.734  15.669   7.348  1.00  0.00     0.177 C 
BRANCH  21  26
ATOM     26  O   UNL     1       5.256  14.455   8.683  1.00  0.00    -0.387 OA
ATOM     27  H   UNL     1       5.709  15.082   9.305  1.00  0.00     0.211 HD
ENDBRANCH  21  26
BRANCH  23  28
ATOM     28  O   UNL     1       7.819  14.709   9.561  1.00  0.00    -0.387 OA
ATOM     29  H   UNL     1       7.297  14.046  10.085  1.00  0.00     0.211 HD
ENDBRANCH  23  28
BRANCH  24  30
ATOM     30  C   UNL     1       7.499  16.535   4.964  1.00  0.00     0.191 C 
BRANCH  30  31
ATOM     31  O   UNL     1       6.310  17.281   4.947  1.00  0.00    -0.394 OA
ATOM     32  H   UNL     1       6.219  17.658   4.033  1.00  0.00     0.210 HD
ENDBRANCH  30  31
ENDBRANCH  24  30
BRANCH  25  33
ATOM     33  O   UNL     1       6.958  16.721   7.873  1.00  0.00    -0.388 OA
ATOM     34  H   UNL     1       6.882  17.433   7.188  1.00  0.00     0.211 HD
ENDBRANCH  25  33
ENDBRANCH  11  20
BRANCH  10  35
ATOM     35  O   UNL     1       8.124  11.884   7.428  1.00  0.00    -0.507 OA
ATOM     36  H   UNL     1       8.986  12.418   7.398  1.00  0.00     0.293 HD
ENDBRANCH  10  35
TORSDOF 9
ENDMDL
