MODEL 1
REMARK VINA RESULT:    -4.175      0.000      0.000
REMARK INTER + INTRA:          -5.309
REMARK INTER:                  -5.152
REMARK INTRA:                  -0.157
REMARK UNBOUND:                -0.157
REMARK SMILES C=CC[C@H](C)C(=O)CC
REMARK SMILES IDX 4 1 5 2 6 3 7 4 8 5 9 6 3 7 2 8 1 9
REMARK H PARENT
REMARK Flexibility Score: inf
ROOT
ATOM      1  C   UNL     1      -3.730  33.289   6.037  1.00  0.00     0.057 C 
ATOM      2  C   UNL     1      -3.616  34.193   4.802  1.00  0.00     0.016 C 
ENDROOT
BRANCH   1   3
ATOM      3  C   UNL     1      -4.320  31.951   5.642  1.00  0.00     0.135 C 
ATOM      4  O   UNL     1      -3.974  30.939   6.234  1.00  0.00    -0.299 OA
BRANCH   3   5
ATOM      5  C   UNL     1      -5.321  31.840   4.523  1.00  0.00     0.072 C 
ATOM      6  C   UNL     1      -5.481  30.389   4.082  1.00  0.00     0.012 C 
ENDBRANCH   3   5
ENDBRANCH   1   3
BRANCH   1   7
ATOM      7  C   UNL     1      -4.592  33.938   7.142  1.00  0.00     0.038 C 
BRANCH   7   8
ATOM      8  C   UNL     1      -3.937  35.157   7.737  1.00  0.00    -0.034 C 
ATOM      9  C   UNL     1      -3.647  35.235   9.039  1.00  0.00     0.004 C 
ENDBRANCH   7   8
ENDBRANCH   1   7
TORSDOF 4
ENDMDL
MODEL 2
REMARK VINA RESULT:    -4.154      2.869      4.193
REMARK INTER + INTRA:          -5.282
REMARK INTER:                  -4.937
REMARK INTRA:                  -0.345
REMARK UNBOUND:                -0.157
REMARK SMILES C=CC[C@H](C)C(=O)CC
REMARK SMILES IDX 4 1 5 2 6 3 7 4 8 5 9 6 3 7 2 8 1 9
REMARK H PARENT
REMARK Flexibility Score: inf
ROOT
ATOM      1  C   UNL     1      -4.925  34.365   5.623  1.00  0.00     0.057 C 
ATOM      2  C   UNL     1      -5.178  33.896   7.063  1.00  0.00     0.016 C 
ENDROOT
BRANCH   1   3
ATOM      3  C   UNL     1      -6.242  34.691   4.950  1.00  0.00     0.135 C 
ATOM      4  O   UNL     1      -6.253  35.398   3.953  1.00  0.00    -0.299 OA
BRANCH   3   5
ATOM      5  C   UNL     1      -7.545  34.167   5.493  1.00  0.00     0.072 C 
ATOM      6  C   UNL     1      -8.727  34.849   4.811  1.00  0.00     0.012 C 
ENDBRANCH   3   5
ENDBRANCH   1   3
BRANCH   1   7
ATOM      7  C   UNL     1      -4.163  33.302   4.802  1.00  0.00     0.038 C 
BRANCH   7   8
ATOM      8  C   UNL     1      -4.500  31.898   5.229  1.00  0.00    -0.034 C 
ATOM      9  C   UNL     1      -5.294  31.111   4.497  1.00  0.00     0.004 C 
ENDBRANCH   7   8
ENDBRANCH   1   7
TORSDOF 4
ENDMDL
MODEL 3
REMARK VINA RESULT:    -4.093      2.440      3.767
REMARK INTER + INTRA:          -5.207
REMARK INTER:                  -4.760
REMARK INTRA:                  -0.447
REMARK UNBOUND:                -0.157
REMARK SMILES C=CC[C@H](C)C(=O)CC
REMARK SMILES IDX 4 1 5 2 6 3 7 4 8 5 9 6 3 7 2 8 1 9
REMARK H PARENT
REMARK Flexibility Score: inf
ROOT
ATOM      1  C   UNL     1      -3.996  33.877   4.705  1.00  0.00     0.057 C 
ATOM      2  C   UNL     1      -2.636  34.531   4.424  1.00  0.00     0.016 C 
ENDROOT
BRANCH   1   3
ATOM      3  C   UNL     1      -5.048  34.948   4.908  1.00  0.00     0.135 C 
ATOM      4  O   UNL     1      -4.811  35.898   5.641  1.00  0.00    -0.299 OA
BRANCH   3   5
ATOM      5  C   UNL     1      -6.391  34.860   4.232  1.00  0.00     0.072 C 
ATOM      6  C   UNL     1      -7.421  34.217   5.156  1.00  0.00     0.012 C 
ENDBRANCH   3   5
ENDBRANCH   1   3
BRANCH   1   7
ATOM      7  C   UNL     1      -3.941  32.952   5.939  1.00  0.00     0.038 C 
BRANCH   7   8
ATOM      8  C   UNL     1      -4.381  31.547   5.622  1.00  0.00    -0.034 C 
ATOM      9  C   UNL     1      -5.122  31.267   4.544  1.00  0.00     0.004 C 
ENDBRANCH   7   8
ENDBRANCH   1   7
TORSDOF 4
ENDMDL
MODEL 4
REMARK VINA RESULT:    -4.021      2.631      3.360
REMARK INTER + INTRA:          -5.118
REMARK INTER:                  -4.785
REMARK INTRA:                  -0.334
REMARK UNBOUND:                -0.157
REMARK SMILES C=CC[C@H](C)C(=O)CC
REMARK SMILES IDX 4 1 5 2 6 3 7 4 8 5 9 6 3 7 2 8 1 9
REMARK H PARENT
REMARK Flexibility Score: inf
ROOT
ATOM      1  C   UNL     1      -5.368  34.680   5.012  1.00  0.00     0.057 C 
ATOM      2  C   UNL     1      -5.738  35.046   3.568  1.00  0.00     0.016 C 
ENDROOT
BRANCH   1   3
ATOM      3  C   UNL     1      -4.344  33.564   5.013  1.00  0.00     0.135 C 
ATOM      4  O   UNL     1      -3.231  33.764   4.550  1.00  0.00    -0.299 OA
BRANCH   3   5
ATOM      5  C   UNL     1      -4.675  32.204   5.568  1.00  0.00     0.072 C 
ATOM      6  C   UNL     1      -5.169  31.275   4.463  1.00  0.00     0.012 C 
ENDBRANCH   3   5
ENDBRANCH   1   3
BRANCH   1   7
ATOM      7  C   UNL     1      -6.608  34.258   5.830  1.00  0.00     0.038 C 
BRANCH   7   8
ATOM      8  C   UNL     1      -7.877  34.326   5.023  1.00  0.00    -0.034 C 
ATOM      9  C   UNL     1      -9.077  34.130   5.580  1.00  0.00     0.004 C 
ENDBRANCH   7   8
ENDBRANCH   1   7
TORSDOF 4
ENDMDL
MODEL 5
REMARK VINA RESULT:    -4.016      2.212      4.609
REMARK INTER + INTRA:          -5.113
REMARK INTER:                  -4.887
REMARK INTRA:                  -0.225
REMARK UNBOUND:                -0.157
REMARK SMILES C=CC[C@H](C)C(=O)CC
REMARK SMILES IDX 4 1 5 2 6 3 7 4 8 5 9 6 3 7 2 8 1 9
REMARK H PARENT
REMARK Flexibility Score: inf
ROOT
ATOM      1  C   UNL     1      -5.321  33.929   5.876  1.00  0.00     0.057 C 
ATOM      2  C   UNL     1      -6.698  34.400   5.389  1.00  0.00     0.016 C 
ENDROOT
BRANCH   1   3
ATOM      3  C   UNL     1      -4.482  35.124   6.281  1.00  0.00     0.135 C 
ATOM      4  O   UNL     1      -4.663  36.203   5.735  1.00  0.00    -0.299 OA
BRANCH   3   5
ATOM      5  C   UNL     1      -3.418  35.006   7.339  1.00  0.00     0.072 C 
ATOM      6  C   UNL     1      -4.019  35.181   8.731  1.00  0.00     0.012 C 
ENDBRANCH   3   5
ENDBRANCH   1   3
BRANCH   1   7
ATOM      7  C   UNL     1      -4.583  33.110   4.795  1.00  0.00     0.038 C 
BRANCH   7   8
ATOM      8  C   UNL     1      -4.634  31.630   5.064  1.00  0.00    -0.034 C 
ATOM      9  C   UNL     1      -5.384  30.806   4.326  1.00  0.00     0.004 C 
ENDBRANCH   7   8
ENDBRANCH   1   7
TORSDOF 4
ENDMDL
MODEL 6
REMARK VINA RESULT:    -3.903      2.066      2.767
REMARK INTER + INTRA:          -4.973
REMARK INTER:                  -4.577
REMARK INTRA:                  -0.396
REMARK UNBOUND:                -0.157
REMARK SMILES C=CC[C@H](C)C(=O)CC
REMARK SMILES IDX 4 1 5 2 6 3 7 4 8 5 9 6 3 7 2 8 1 9
REMARK H PARENT
REMARK Flexibility Score: inf
ROOT
ATOM      1  C   UNL     1      -5.405  33.923   4.852  1.00  0.00     0.057 C 
ATOM      2  C   UNL     1      -6.839  34.343   5.204  1.00  0.00     0.016 C 
ENDROOT
BRANCH   1   3
ATOM      3  C   UNL     1      -4.856  33.014   5.932  1.00  0.00     0.135 C 
ATOM      4  O   UNL     1      -4.739  33.434   7.075  1.00  0.00    -0.299 OA
BRANCH   3   5
ATOM      5  C   UNL     1      -4.441  31.600   5.624  1.00  0.00     0.072 C 
ATOM      6  C   UNL     1      -5.248  31.042   4.456  1.00  0.00     0.012 C 
ENDBRANCH   3   5
ENDBRANCH   1   3
BRANCH   1   7
ATOM      7  C   UNL     1      -4.479  35.145   4.672  1.00  0.00     0.038 C 
BRANCH   7   8
ATOM      8  C   UNL     1      -3.127  34.765   4.130  1.00  0.00    -0.034 C 
ATOM      9  C   UNL     1      -2.002  35.007   4.810  1.00  0.00     0.004 C 
ENDBRANCH   7   8
ENDBRANCH   1   7
TORSDOF 4
ENDMDL
MODEL 7
REMARK VINA RESULT:    -3.861      1.764      2.058
REMARK INTER + INTRA:          -4.921
REMARK INTER:                  -4.714
REMARK INTRA:                  -0.206
REMARK UNBOUND:                -0.157
REMARK SMILES C=CC[C@H](C)C(=O)CC
REMARK SMILES IDX 4 1 5 2 6 3 7 4 8 5 9 6 3 7 2 8 1 9
REMARK H PARENT
REMARK Flexibility Score: inf
ROOT
ATOM      1  C   UNL     1      -5.495  34.514   5.772  1.00  0.00     0.057 C 
ATOM      2  C   UNL     1      -6.950  34.379   5.303  1.00  0.00     0.016 C 
ENDROOT
BRANCH   1   3
ATOM      3  C   UNL     1      -4.609  33.583   4.971  1.00  0.00     0.135 C 
ATOM      4  O   UNL     1      -3.564  34.003   4.493  1.00  0.00    -0.299 OA
BRANCH   3   5
ATOM      5  C   UNL     1      -4.994  32.146   4.741  1.00  0.00     0.072 C 
ATOM      6  C   UNL     1      -4.344  31.239   5.780  1.00  0.00     0.012 C 
ENDBRANCH   3   5
ENDBRANCH   1   3
BRANCH   1   7
ATOM      7  C   UNL     1      -5.350  34.211   7.279  1.00  0.00     0.038 C 
BRANCH   7   8
ATOM      8  C   UNL     1      -4.064  34.747   7.850  1.00  0.00    -0.034 C 
ATOM      9  C   UNL     1      -4.045  35.498   8.956  1.00  0.00     0.004 C 
ENDBRANCH   7   8
ENDBRANCH   1   7
TORSDOF 4
ENDMDL
MODEL 8
REMARK VINA RESULT:    -3.853      2.017      4.057
REMARK INTER + INTRA:          -4.910
REMARK INTER:                  -4.532
REMARK INTRA:                  -0.378
REMARK UNBOUND:                -0.157
REMARK SMILES C=CC[C@H](C)C(=O)CC
REMARK SMILES IDX 4 1 5 2 6 3 7 4 8 5 9 6 3 7 2 8 1 9
REMARK H PARENT
REMARK Flexibility Score: inf
ROOT
ATOM      1  C   UNL     1      -4.410  34.069   6.040  1.00  0.00     0.057 C 
ATOM      2  C   UNL     1      -4.450  34.766   7.407  1.00  0.00     0.016 C 
ENDROOT
BRANCH   1   3
ATOM      3  C   UNL     1      -5.437  34.690   5.116  1.00  0.00     0.135 C 
ATOM      4  O   UNL     1      -6.600  34.784   5.480  1.00  0.00    -0.299 OA
BRANCH   3   5
ATOM      5  C   UNL     1      -5.054  35.188   3.747  1.00  0.00     0.072 C 
ATOM      6  C   UNL     1      -3.580  35.580   3.707  1.00  0.00     0.012 C 
ENDBRANCH   3   5
ENDBRANCH   1   3
BRANCH   1   7
ATOM      7  C   UNL     1      -4.663  32.552   6.164  1.00  0.00     0.038 C 
BRANCH   7   8
ATOM      8  C   UNL     1      -4.470  31.829   4.858  1.00  0.00    -0.034 C 
ATOM      9  C   UNL     1      -5.344  30.916   4.422  1.00  0.00     0.004 C 
ENDBRANCH   7   8
ENDBRANCH   1   7
TORSDOF 4
ENDMDL
MODEL 9
REMARK VINA RESULT:    -3.821      2.219      2.870
REMARK INTER + INTRA:          -4.871
REMARK INTER:                  -4.453
REMARK INTRA:                  -0.418
REMARK UNBOUND:                -0.157
REMARK SMILES C=CC[C@H](C)C(=O)CC
REMARK SMILES IDX 4 1 5 2 6 3 7 4 8 5 9 6 3 7 2 8 1 9
REMARK H PARENT
REMARK Flexibility Score: inf
ROOT
ATOM      1  C   UNL     1      -5.398  32.854   5.293  1.00  0.00     0.057 C 
ATOM      2  C   UNL     1      -5.052  31.588   4.498  1.00  0.00     0.016 C 
ENDROOT
BRANCH   1   3
ATOM      3  C   UNL     1      -5.212  34.077   4.419  1.00  0.00     0.135 C 
ATOM      4  O   UNL     1      -4.093  34.382   4.035  1.00  0.00    -0.299 OA
BRANCH   3   5
ATOM      5  C   UNL     1      -6.384  34.935   4.021  1.00  0.00     0.072 C 
ATOM      6  C   UNL     1      -7.629  34.553   4.815  1.00  0.00     0.012 C 
ENDBRANCH   3   5
ENDBRANCH   1   3
BRANCH   1   7
ATOM      7  C   UNL     1      -4.536  32.982   6.567  1.00  0.00     0.038 C 
BRANCH   7   8
ATOM      8  C   UNL     1      -4.983  34.117   7.450  1.00  0.00    -0.034 C 
ATOM      9  C   UNL     1      -4.107  34.891   8.099  1.00  0.00     0.004 C 
ENDBRANCH   7   8
ENDBRANCH   1   7
TORSDOF 4
ENDMDL
