MODEL 1
REMARK VINA RESULT:    -3.690      0.000      0.000
REMARK INTER + INTRA:          -7.157
REMARK INTER:                  -5.847
REMARK INTRA:                  -1.310
REMARK UNBOUND:                -1.310
REMARK SMILES CCCCCCCCCCCC(=O)[O-]
REMARK SMILES IDX 7 1 8 2 9 3 10 4 11 5 12 6 13 7 14 8 6 9 5 10 4 11 3 12 2 13
REMARK SMILES IDX 1 14
REMARK H PARENT
REMARK Flexibility Score: inf
ROOT
ATOM      1  C   UNL     1     -21.225 -11.599  -5.776  1.00  0.00     0.000 C 
ENDROOT
BRANCH   1   2
ATOM      2  C   UNL     1     -21.676 -10.954  -7.095  1.00  0.00     0.000 C 
BRANCH   2   3
ATOM      3  C   UNL     1     -20.660  -9.935  -7.642  1.00  0.00     0.000 C 
BRANCH   3   4
ATOM      4  C   UNL     1     -19.642  -9.413  -6.611  1.00  0.00     0.006 C 
BRANCH   4   5
ATOM      5  C   UNL     1     -18.205  -9.852  -6.917  1.00  0.00     0.053 C 
BRANCH   5   6
ATOM      6  C   UNL     1     -17.498 -10.237  -5.655  1.00  0.00     0.041 C 
ATOM      7  O   UNL     1     -16.635  -9.470  -5.152  1.00  0.00    -0.550 OA
ATOM      8  O   UNL     1     -17.756 -11.465  -5.061  1.00  0.00    -0.550 OA
ENDBRANCH   5   6
ENDBRANCH   4   5
ENDBRANCH   3   4
ENDBRANCH   2   3
ENDBRANCH   1   2
BRANCH   1   9
ATOM      9  C   UNL     1     -22.243 -11.337  -4.660  1.00  0.00     0.000 C 
BRANCH   9  10
ATOM     10  C   UNL     1     -21.869 -10.080  -3.860  1.00  0.00    -0.000 C 
BRANCH  10  11
ATOM     11  C   UNL     1     -22.920  -8.961  -3.979  1.00  0.00    -0.000 C 
BRANCH  11  12
ATOM     12  C   UNL     1     -24.233  -9.367  -4.678  1.00  0.00    -0.000 C 
BRANCH  12  13
ATOM     13  C   UNL     1     -24.701  -8.410  -5.788  1.00  0.00    -0.003 C 
ATOM     14  C   UNL     1     -23.543  -7.788  -6.565  1.00  0.00     0.004 C 
ENDBRANCH  12  13
ENDBRANCH  11  12
ENDBRANCH  10  11
ENDBRANCH   9  10
ENDBRANCH   1   9
TORSDOF 10
ENDMDL
MODEL 2
REMARK VINA RESULT:    -3.675      3.093      5.334
REMARK INTER + INTRA:          -7.134
REMARK INTER:                  -5.798
REMARK INTRA:                  -1.336
REMARK UNBOUND:                -1.310
REMARK SMILES CCCCCCCCCCCC(=O)[O-]
REMARK SMILES IDX 7 1 8 2 9 3 10 4 11 5 12 6 13 7 14 8 6 9 5 10 4 11 3 12 2 13
REMARK SMILES IDX 1 14
REMARK H PARENT
REMARK Flexibility Score: inf
ROOT
ATOM      1  C   UNL     1     -21.077 -11.329  -5.618  1.00  0.00     0.000 C 
ENDROOT
BRANCH   1   2
ATOM      2  C   UNL     1     -21.946 -10.972  -6.833  1.00  0.00     0.000 C 
BRANCH   2   3
ATOM      3  C   UNL     1     -22.012  -9.457  -7.099  1.00  0.00     0.000 C 
BRANCH   3   4
ATOM      4  C   UNL     1     -23.434  -8.873  -7.187  1.00  0.00     0.006 C 
BRANCH   4   5
ATOM      5  C   UNL     1     -24.391  -9.471  -6.149  1.00  0.00     0.053 C 
BRANCH   5   6
ATOM      6  C   UNL     1     -24.443  -8.607  -4.928  1.00  0.00     0.041 C 
ATOM      7  O   UNL     1     -24.146  -9.082  -3.801  1.00  0.00    -0.550 OA
ATOM      8  O   UNL     1     -24.866  -7.288  -5.029  1.00  0.00    -0.550 OA
ENDBRANCH   5   6
ENDBRANCH   4   5
ENDBRANCH   3   4
ENDBRANCH   2   3
ENDBRANCH   1   2
BRANCH   1   9
ATOM      9  C   UNL     1     -20.852 -10.104  -4.724  1.00  0.00     0.000 C 
BRANCH   9  10
ATOM     10  C   UNL     1     -19.427 -10.097  -4.150  1.00  0.00    -0.000 C 
BRANCH  10  11
ATOM     11  C   UNL     1     -18.442 -10.937  -4.982  1.00  0.00    -0.000 C 
BRANCH  11  12
ATOM     12  C   UNL     1     -17.345 -10.133  -5.708  1.00  0.00    -0.000 C 
BRANCH  12  13
ATOM     13  C   UNL     1     -17.861  -9.105  -6.729  1.00  0.00    -0.003 C 
ATOM     14  C   UNL     1     -18.425  -9.752  -7.993  1.00  0.00     0.004 C 
ENDBRANCH  12  13
ENDBRANCH  11  12
ENDBRANCH  10  11
ENDBRANCH   9  10
ENDBRANCH   1   9
TORSDOF 10
ENDMDL
MODEL 3
REMARK VINA RESULT:    -3.657      2.168      3.715
REMARK INTER + INTRA:          -7.104
REMARK INTER:                  -6.077
REMARK INTRA:                  -1.027
REMARK UNBOUND:                -1.310
REMARK SMILES CCCCCCCCCCCC(=O)[O-]
REMARK SMILES IDX 7 1 8 2 9 3 10 4 11 5 12 6 13 7 14 8 6 9 5 10 4 11 3 12 2 13
REMARK SMILES IDX 1 14
REMARK H PARENT
REMARK Flexibility Score: inf
ROOT
ATOM      1  C   UNL     1     -23.115  -8.621  -4.275  1.00  0.00     0.000 C 
ENDROOT
BRANCH   1   2
ATOM      2  C   UNL     1     -21.949  -9.597  -4.058  1.00  0.00     0.000 C 
BRANCH   2   3
ATOM      3  C   UNL     1     -22.280 -11.034  -4.502  1.00  0.00     0.000 C 
BRANCH   3   4
ATOM      4  C   UNL     1     -21.399 -11.581  -5.641  1.00  0.00     0.006 C 
BRANCH   4   5
ATOM      5  C   UNL     1     -21.798 -11.040  -7.018  1.00  0.00     0.053 C 
BRANCH   5   6
ATOM      6  C   UNL     1     -20.790 -10.044  -7.500  1.00  0.00     0.041 C 
ATOM      7  O   UNL     1     -21.082  -9.241  -8.424  1.00  0.00    -0.550 OA
ATOM      8  O   UNL     1     -19.510 -10.035  -6.960  1.00  0.00    -0.550 OA
ENDBRANCH   5   6
ENDBRANCH   4   5
ENDBRANCH   3   4
ENDBRANCH   2   3
ENDBRANCH   1   2
BRANCH   1   9
ATOM      9  C   UNL     1     -24.327  -9.338  -4.882  1.00  0.00     0.000 C 
BRANCH   9  10
ATOM     10  C   UNL     1     -24.621  -8.817  -6.297  1.00  0.00    -0.000 C 
BRANCH  10  11
ATOM     11  C   UNL     1     -24.654  -7.279  -6.373  1.00  0.00    -0.000 C 
BRANCH  11  12
ATOM     12  C   UNL     1     -26.016  -6.671  -6.762  1.00  0.00    -0.000 C 
BRANCH  12  13
ATOM     13  C   UNL     1     -26.611  -5.698  -5.729  1.00  0.00    -0.003 C 
ATOM     14  C   UNL     1     -26.471  -6.195  -4.292  1.00  0.00     0.004 C 
ENDBRANCH  12  13
ENDBRANCH  11  12
ENDBRANCH  10  11
ENDBRANCH   9  10
ENDBRANCH   1   9
TORSDOF 10
ENDMDL
MODEL 4
REMARK VINA RESULT:    -3.647      4.144      6.230
REMARK INTER + INTRA:          -7.088
REMARK INTER:                  -5.912
REMARK INTRA:                  -1.176
REMARK UNBOUND:                -1.310
REMARK SMILES CCCCCCCCCCCC(=O)[O-]
REMARK SMILES IDX 7 1 8 2 9 3 10 4 11 5 12 6 13 7 14 8 6 9 5 10 4 11 3 12 2 13
REMARK SMILES IDX 1 14
REMARK H PARENT
REMARK Flexibility Score: inf
ROOT
ATOM      1  C   UNL     1     -23.201  -8.709  -4.319  1.00  0.00     0.000 C 
ENDROOT
BRANCH   1   2
ATOM      2  C   UNL     1     -24.294  -9.443  -5.111  1.00  0.00     0.000 C 
BRANCH   2   3
ATOM      3  C   UNL     1     -24.540  -8.832  -6.502  1.00  0.00     0.000 C 
BRANCH   3   4
ATOM      4  C   UNL     1     -24.510  -7.293  -6.551  1.00  0.00     0.006 C 
BRANCH   4   5
ATOM      5  C   UNL     1     -25.902  -6.673  -6.728  1.00  0.00     0.053 C 
BRANCH   5   6
ATOM      6  C   UNL     1     -26.347  -6.017  -5.460  1.00  0.00     0.041 C 
ATOM      7  O   UNL     1     -26.410  -6.679  -4.391  1.00  0.00    -0.550 OA
ATOM      8  O   UNL     1     -26.739  -4.685  -5.467  1.00  0.00    -0.550 OA
ENDBRANCH   5   6
ENDBRANCH   4   5
ENDBRANCH   3   4
ENDBRANCH   2   3
ENDBRANCH   1   2
BRANCH   1   9
ATOM      9  C   UNL     1     -22.038  -9.652  -3.986  1.00  0.00     0.000 C 
BRANCH   9  10
ATOM     10  C   UNL     1     -22.338 -11.082  -4.459  1.00  0.00    -0.000 C 
BRANCH  10  11
ATOM     11  C   UNL     1     -21.347 -11.578  -5.528  1.00  0.00    -0.000 C 
BRANCH  11  12
ATOM     12  C   UNL     1     -21.656 -11.124  -6.968  1.00  0.00    -0.000 C 
BRANCH  12  13
ATOM     13  C   UNL     1     -20.767  -9.984  -7.495  1.00  0.00    -0.003 C 
ATOM     14  C   UNL     1     -19.423  -9.896  -6.774  1.00  0.00     0.004 C 
ENDBRANCH  12  13
ENDBRANCH  11  12
ENDBRANCH  10  11
ENDBRANCH   9  10
ENDBRANCH   1   9
TORSDOF 10
ENDMDL
MODEL 5
REMARK VINA RESULT:    -3.640      4.239      6.456
REMARK INTER + INTRA:          -7.077
REMARK INTER:                  -5.811
REMARK INTRA:                  -1.266
REMARK UNBOUND:                -1.310
REMARK SMILES CCCCCCCCCCCC(=O)[O-]
REMARK SMILES IDX 7 1 8 2 9 3 10 4 11 5 12 6 13 7 14 8 6 9 5 10 4 11 3 12 2 13
REMARK SMILES IDX 1 14
REMARK H PARENT
REMARK Flexibility Score: inf
ROOT
ATOM      1  C   UNL     1     -23.537  -8.033  -6.889  1.00  0.00     0.000 C 
ENDROOT
BRANCH   1   2
ATOM      2  C   UNL     1     -24.511  -9.111  -6.392  1.00  0.00     0.000 C 
BRANCH   2   3
ATOM      3  C   UNL     1     -24.666  -9.119  -4.860  1.00  0.00     0.000 C 
BRANCH   3   4
ATOM      4  C   UNL     1     -24.633  -7.730  -4.195  1.00  0.00     0.006 C 
BRANCH   4   5
ATOM      5  C   UNL     1     -26.026  -7.108  -4.041  1.00  0.00     0.053 C 
BRANCH   5   6
ATOM      6  C   UNL     1     -26.183  -5.943  -4.966  1.00  0.00     0.041 C 
ATOM      7  O   UNL     1     -26.626  -6.113  -6.132  1.00  0.00    -0.550 OA
ATOM      8  O   UNL     1     -25.793  -4.674  -4.557  1.00  0.00    -0.550 OA
ENDBRANCH   5   6
ENDBRANCH   4   5
ENDBRANCH   3   4
ENDBRANCH   2   3
ENDBRANCH   1   2
BRANCH   1   9
ATOM      9  C   UNL     1     -22.458  -8.642  -7.792  1.00  0.00     0.000 C 
BRANCH   9  10
ATOM     10  C   UNL     1     -22.436 -10.173  -7.666  1.00  0.00    -0.000 C 
BRANCH  10  11
ATOM     11  C   UNL     1     -21.094 -10.710  -7.137  1.00  0.00    -0.000 C 
BRANCH  11  12
ATOM     12  C   UNL     1     -21.205 -11.773  -6.026  1.00  0.00    -0.000 C 
BRANCH  12  13
ATOM     13  C   UNL     1     -21.930 -11.306  -4.751  1.00  0.00    -0.003 C 
ATOM     14  C   UNL     1     -21.189 -10.187  -4.022  1.00  0.00     0.004 C 
ENDBRANCH  12  13
ENDBRANCH  11  12
ENDBRANCH  10  11
ENDBRANCH   9  10
ENDBRANCH   1   9
TORSDOF 10
ENDMDL
MODEL 6
REMARK VINA RESULT:    -3.609      3.402      5.308
REMARK INTER + INTRA:          -7.028
REMARK INTER:                  -5.518
REMARK INTRA:                  -1.510
REMARK UNBOUND:                -1.310
REMARK SMILES CCCCCCCCCCCC(=O)[O-]
REMARK SMILES IDX 7 1 8 2 9 3 10 4 11 5 12 6 13 7 14 8 6 9 5 10 4 11 3 12 2 13
REMARK SMILES IDX 1 14
REMARK H PARENT
REMARK Flexibility Score: inf
ROOT
ATOM      1  C   UNL     1     -24.535  -6.827  -3.386  1.00  0.00     0.000 C 
ENDROOT
BRANCH   1   2
ATOM      2  C   UNL     1     -23.714  -7.823  -4.218  1.00  0.00     0.000 C 
BRANCH   2   3
ATOM      3  C   UNL     1     -24.487  -9.114  -4.545  1.00  0.00     0.000 C 
BRANCH   3   4
ATOM      4  C   UNL     1     -24.488  -9.514  -6.032  1.00  0.00     0.006 C 
BRANCH   4   5
ATOM      5  C   UNL     1     -23.478  -8.716  -6.865  1.00  0.00     0.053 C 
BRANCH   5   6
ATOM      6  C   UNL     1     -22.619  -9.640  -7.670  1.00  0.00     0.041 C 
ATOM      7  O   UNL     1     -22.240 -10.739  -7.185  1.00  0.00    -0.550 OA
ATOM      8  O   UNL     1     -22.197  -9.267  -8.940  1.00  0.00    -0.550 OA
ENDBRANCH   5   6
ENDBRANCH   4   5
ENDBRANCH   3   4
ENDBRANCH   2   3
ENDBRANCH   1   2
BRANCH   1   9
ATOM      9  C   UNL     1     -26.025  -6.912  -3.741  1.00  0.00     0.000 C 
BRANCH   9  10
ATOM     10  C   UNL     1     -26.580  -5.530  -4.116  1.00  0.00    -0.000 C 
BRANCH  10  11
ATOM     11  C   UNL     1     -27.121  -5.473  -5.556  1.00  0.00    -0.000 C 
BRANCH  11  12
ATOM     12  C   UNL     1     -26.327  -6.299  -6.587  1.00  0.00    -0.000 C 
BRANCH  12  13
ATOM     13  C   UNL     1     -25.393  -5.481  -7.496  1.00  0.00    -0.003 C 
ATOM     14  C   UNL     1     -24.126  -5.014  -6.782  1.00  0.00     0.004 C 
ENDBRANCH  12  13
ENDBRANCH  11  12
ENDBRANCH  10  11
ENDBRANCH   9  10
ENDBRANCH   1   9
TORSDOF 10
ENDMDL
MODEL 7
REMARK VINA RESULT:    -3.602      4.181      6.484
REMARK INTER + INTRA:          -7.018
REMARK INTER:                  -6.097
REMARK INTRA:                  -0.921
REMARK UNBOUND:                -1.310
REMARK SMILES CCCCCCCCCCCC(=O)[O-]
REMARK SMILES IDX 7 1 8 2 9 3 10 4 11 5 12 6 13 7 14 8 6 9 5 10 4 11 3 12 2 13
REMARK SMILES IDX 1 14
REMARK H PARENT
REMARK Flexibility Score: inf
ROOT
ATOM      1  C   UNL     1     -24.494  -8.747  -6.519  1.00  0.00     0.000 C 
ENDROOT
BRANCH   1   2
ATOM      2  C   UNL     1     -23.831  -7.361  -6.504  1.00  0.00     0.000 C 
BRANCH   2   3
ATOM      3  C   UNL     1     -24.785  -6.236  -6.943  1.00  0.00     0.000 C 
BRANCH   3   4
ATOM      4  C   UNL     1     -26.275  -6.492  -6.647  1.00  0.00     0.006 C 
BRANCH   4   5
ATOM      5  C   UNL     1     -26.861  -5.502  -5.634  1.00  0.00     0.053 C 
BRANCH   5   6
ATOM      6  C   UNL     1     -26.390  -5.828  -4.252  1.00  0.00     0.041 C 
ATOM      7  O   UNL     1     -26.057  -4.907  -3.461  1.00  0.00    -0.550 OA
ATOM      8  O   UNL     1     -26.272  -7.153  -3.853  1.00  0.00    -0.550 OA
ENDBRANCH   5   6
ENDBRANCH   4   5
ENDBRANCH   3   4
ENDBRANCH   2   3
ENDBRANCH   1   2
BRANCH   1   9
ATOM      9  C   UNL     1     -24.213  -9.504  -5.215  1.00  0.00     0.000 C 
BRANCH   9  10
ATOM     10  C   UNL     1     -22.703  -9.591  -4.944  1.00  0.00    -0.000 C 
BRANCH  10  11
ATOM     11  C   UNL     1     -22.203 -11.040  -4.810  1.00  0.00    -0.000 C 
BRANCH  11  12
ATOM     12  C   UNL     1     -21.438 -11.585  -6.033  1.00  0.00    -0.000 C 
BRANCH  12  13
ATOM     13  C   UNL     1     -21.332 -10.611  -7.219  1.00  0.00    -0.003 C 
ATOM     14  C   UNL     1     -19.937 -10.009  -7.372  1.00  0.00     0.004 C 
ENDBRANCH  12  13
ENDBRANCH  11  12
ENDBRANCH  10  11
ENDBRANCH   9  10
ENDBRANCH   1   9
TORSDOF 10
ENDMDL
MODEL 8
REMARK VINA RESULT:    -3.575      2.210      3.201
REMARK INTER + INTRA:          -6.974
REMARK INTER:                  -5.620
REMARK INTRA:                  -1.355
REMARK UNBOUND:                -1.310
REMARK SMILES CCCCCCCCCCCC(=O)[O-]
REMARK SMILES IDX 7 1 8 2 9 3 10 4 11 5 12 6 13 7 14 8 6 9 5 10 4 11 3 12 2 13
REMARK SMILES IDX 1 14
REMARK H PARENT
REMARK Flexibility Score: inf
ROOT
ATOM      1  C   UNL     1     -19.436 -10.000  -4.417  1.00  0.00     0.000 C 
ENDROOT
BRANCH   1   2
ATOM      2  C   UNL     1     -18.503 -11.057  -5.027  1.00  0.00     0.000 C 
BRANCH   2   3
ATOM      3  C   UNL     1     -17.376 -10.444  -5.877  1.00  0.00     0.000 C 
BRANCH   3   4
ATOM      4  C   UNL     1     -17.737  -9.123  -6.582  1.00  0.00     0.006 C 
BRANCH   4   5
ATOM      5  C   UNL     1     -18.394  -9.337  -7.950  1.00  0.00     0.053 C 
BRANCH   5   6
ATOM      6  C   UNL     1     -19.625  -8.495  -8.076  1.00  0.00     0.041 C 
ATOM      7  O   UNL     1     -20.343  -8.571  -9.107  1.00  0.00    -0.550 OA
ATOM      8  O   UNL     1     -19.952  -7.589  -7.075  1.00  0.00    -0.550 OA
ENDBRANCH   5   6
ENDBRANCH   4   5
ENDBRANCH   3   4
ENDBRANCH   2   3
ENDBRANCH   1   2
BRANCH   1   9
ATOM      9  C   UNL     1     -20.906 -10.340  -4.693  1.00  0.00     0.000 C 
BRANCH   9  10
ATOM     10  C   UNL     1     -21.036 -11.262  -5.916  1.00  0.00    -0.000 C 
BRANCH  10  11
ATOM     11  C   UNL     1     -22.232 -10.898  -6.815  1.00  0.00    -0.000 C 
BRANCH  11  12
ATOM     12  C   UNL     1     -22.852  -9.511  -6.550  1.00  0.00    -0.000 C 
BRANCH  12  13
ATOM     13  C   UNL     1     -24.323  -9.533  -6.098  1.00  0.00    -0.003 C 
ATOM     14  C   UNL     1     -24.504  -9.112  -4.641  1.00  0.00     0.004 C 
ENDBRANCH  12  13
ENDBRANCH  11  12
ENDBRANCH  10  11
ENDBRANCH   9  10
ENDBRANCH   1   9
TORSDOF 10
ENDMDL
MODEL 9
REMARK VINA RESULT:    -3.543      2.429      4.644
REMARK INTER + INTRA:          -6.924
REMARK INTER:                  -5.714
REMARK INTRA:                  -1.210
REMARK UNBOUND:                -1.310
REMARK SMILES CCCCCCCCCCCC(=O)[O-]
REMARK SMILES IDX 7 1 8 2 9 3 10 4 11 5 12 6 13 7 14 8 6 9 5 10 4 11 3 12 2 13
REMARK SMILES IDX 1 14
REMARK H PARENT
REMARK Flexibility Score: inf
ROOT
ATOM      1  C   UNL     1     -23.767  -7.781  -6.714  1.00  0.00     0.000 C 
ENDROOT
BRANCH   1   2
ATOM      2  C   UNL     1     -24.799  -8.827  -6.267  1.00  0.00     0.000 C 
BRANCH   2   3
ATOM      3  C   UNL     1     -24.459  -9.462  -4.906  1.00  0.00     0.000 C 
BRANCH   3   4
ATOM      4  C   UNL     1     -22.966  -9.427  -4.527  1.00  0.00     0.006 C 
BRANCH   4   5
ATOM      5  C   UNL     1     -22.362 -10.825  -4.351  1.00  0.00     0.053 C 
BRANCH   5   6
ATOM      6  C   UNL     1     -21.261 -11.045  -5.340  1.00  0.00     0.041 C 
ATOM      7  O   UNL     1     -21.443 -11.793  -6.336  1.00  0.00    -0.550 OA
ATOM      8  O   UNL     1     -20.017 -10.462  -5.136  1.00  0.00    -0.550 OA
ENDBRANCH   5   6
ENDBRANCH   4   5
ENDBRANCH   3   4
ENDBRANCH   2   3
ENDBRANCH   1   2
BRANCH   1   9
ATOM      9  C   UNL     1     -24.427  -6.413  -6.925  1.00  0.00     0.000 C 
BRANCH   9  10
ATOM     10  C   UNL     1     -25.959  -6.538  -6.930  1.00  0.00    -0.000 C 
BRANCH  10  11
ATOM     11  C   UNL     1     -26.639  -5.590  -5.926  1.00  0.00    -0.000 C 
BRANCH  11  12
ATOM     12  C   UNL     1     -26.685  -6.099  -4.472  1.00  0.00    -0.000 C 
BRANCH  12  13
ATOM     13  C   UNL     1     -25.735  -5.375  -3.501  1.00  0.00    -0.003 C 
ATOM     14  C   UNL     1     -24.751  -6.320  -2.815  1.00  0.00     0.004 C 
ENDBRANCH  12  13
ENDBRANCH  11  12
ENDBRANCH  10  11
ENDBRANCH   9  10
ENDBRANCH   1   9
TORSDOF 10
ENDMDL
