MODEL 1
REMARK VINA RESULT:    -4.504      0.000      0.000
REMARK INTER + INTRA:          -6.343
REMARK INTER:                  -6.083
REMARK INTRA:                  -0.259
REMARK UNBOUND:                -0.259
REMARK SMILES CCCCCCCC(=O)[O-]
REMARK SMILES IDX 5 1 6 2 7 3 8 4 9 5 10 6 4 7 3 8 2 9 1 10
REMARK H PARENT
REMARK Flexibility Score: inf
ROOT
ATOM      1  C   UNL     1       3.701  45.817  10.993  1.00  0.00     0.000 C 
ENDROOT
BRANCH   1   2
ATOM      2  C   UNL     1       3.932  44.538  11.813  1.00  0.00     0.006 C 
BRANCH   2   3
ATOM      3  C   UNL     1       2.670  43.673  11.925  1.00  0.00     0.053 C 
BRANCH   3   4
ATOM      4  C   UNL     1       2.850  42.390  11.175  1.00  0.00     0.041 C 
ATOM      5  O   UNL     1       3.174  41.339  11.787  1.00  0.00    -0.550 OA
ATOM      6  O   UNL     1       2.706  42.366   9.793  1.00  0.00    -0.550 OA
ENDBRANCH   3   4
ENDBRANCH   2   3
ENDBRANCH   1   2
BRANCH   1   7
ATOM      7  C   UNL     1       4.219  45.698   9.552  1.00  0.00     0.000 C 
BRANCH   7   8
ATOM      8  C   UNL     1       4.708  47.055   9.031  1.00  0.00    -0.000 C 
BRANCH   8   9
ATOM      9  C   UNL     1       6.139  47.340   9.501  1.00  0.00    -0.003 C 
ATOM     10  C   UNL     1       6.515  48.801   9.268  1.00  0.00     0.004 C 
ENDBRANCH   8   9
ENDBRANCH   7   8
ENDBRANCH   1   7
TORSDOF 6
ENDMDL
MODEL 2
REMARK VINA RESULT:    -4.468      3.358      5.627
REMARK INTER + INTRA:          -6.294
REMARK INTER:                  -5.991
REMARK INTRA:                  -0.303
REMARK UNBOUND:                -0.259
REMARK SMILES CCCCCCCC(=O)[O-]
REMARK SMILES IDX 5 1 6 2 7 3 8 4 9 5 10 6 4 7 3 8 2 9 1 10
REMARK H PARENT
REMARK Flexibility Score: inf
ROOT
ATOM      1  C   UNL     1       3.942  45.964  10.989  1.00  0.00     0.000 C 
ENDROOT
BRANCH   1   2
ATOM      2  C   UNL     1       4.851  46.028   9.751  1.00  0.00     0.006 C 
BRANCH   2   3
ATOM      3  C   UNL     1       4.839  47.409   9.082  1.00  0.00     0.053 C 
BRANCH   3   4
ATOM      4  C   UNL     1       6.197  48.034   9.152  1.00  0.00     0.041 C 
ATOM      5  O   UNL     1       7.179  47.369   9.573  1.00  0.00    -0.550 OA
ATOM      6  O   UNL     1       6.368  49.367   8.799  1.00  0.00    -0.550 OA
ENDBRANCH   3   4
ENDBRANCH   2   3
ENDBRANCH   1   2
BRANCH   1   7
ATOM      7  C   UNL     1       4.121  44.665  11.789  1.00  0.00     0.000 C 
BRANCH   7   8
ATOM      8  C   UNL     1       2.816  43.861  11.830  1.00  0.00    -0.000 C 
BRANCH   8   9
ATOM      9  C   UNL     1       2.959  42.538  11.070  1.00  0.00    -0.003 C 
ATOM     10  C   UNL     1       2.727  42.733   9.574  1.00  0.00     0.004 C 
ENDBRANCH   8   9
ENDBRANCH   7   8
ENDBRANCH   1   7
TORSDOF 6
ENDMDL
MODEL 3
REMARK VINA RESULT:    -4.339      3.130      5.146
REMARK INTER + INTRA:          -6.120
REMARK INTER:                  -5.678
REMARK INTRA:                  -0.441
REMARK UNBOUND:                -0.259
REMARK SMILES CCCCCCCC(=O)[O-]
REMARK SMILES IDX 5 1 6 2 7 3 8 4 9 5 10 6 4 7 3 8 2 9 1 10
REMARK H PARENT
REMARK Flexibility Score: inf
ROOT
ATOM      1  C   UNL     1       4.166  44.744  11.651  1.00  0.00     0.000 C 
ENDROOT
BRANCH   1   2
ATOM      2  C   UNL     1       4.032  46.081  10.905  1.00  0.00     0.006 C 
BRANCH   2   3
ATOM      3  C   UNL     1       4.609  46.025   9.485  1.00  0.00     0.053 C 
BRANCH   3   4
ATOM      4  C   UNL     1       4.598  47.387   8.864  1.00  0.00     0.041 C 
ATOM      5  O   UNL     1       5.552  48.183   9.066  1.00  0.00    -0.550 OA
ATOM      6  O   UNL     1       3.510  47.796   8.102  1.00  0.00    -0.550 OA
ENDBRANCH   3   4
ENDBRANCH   2   3
ENDBRANCH   1   2
BRANCH   1   7
ATOM      7  C   UNL     1       2.836  43.980  11.742  1.00  0.00     0.000 C 
BRANCH   7   8
ATOM      8  C   UNL     1       2.941  42.614  11.053  1.00  0.00    -0.000 C 
BRANCH   8   9
ATOM      9  C   UNL     1       2.784  42.749   9.535  1.00  0.00    -0.003 C 
ATOM     10  C   UNL     1       1.663  43.722   9.180  1.00  0.00     0.004 C 
ENDBRANCH   8   9
ENDBRANCH   7   8
ENDBRANCH   1   7
TORSDOF 6
ENDMDL
MODEL 4
REMARK VINA RESULT:    -4.255      1.408      2.145
REMARK INTER + INTRA:          -6.007
REMARK INTER:                  -5.750
REMARK INTRA:                  -0.257
REMARK UNBOUND:                -0.259
REMARK SMILES CCCCCCCC(=O)[O-]
REMARK SMILES IDX 5 1 6 2 7 3 8 4 9 5 10 6 4 7 3 8 2 9 1 10
REMARK H PARENT
REMARK Flexibility Score: inf
ROOT
ATOM      1  C   UNL     1       3.228  44.294  12.317  1.00  0.00     0.000 C 
ENDROOT
BRANCH   1   2
ATOM      2  C   UNL     1       2.344  43.210  11.680  1.00  0.00     0.006 C 
BRANCH   2   3
ATOM      3  C   UNL     1       3.160  42.045  11.105  1.00  0.00     0.053 C 
BRANCH   3   4
ATOM      4  C   UNL     1       3.370  40.991  12.146  1.00  0.00     0.041 C 
ATOM      5  O   UNL     1       2.382  40.449  12.706  1.00  0.00    -0.550 OA
ATOM      6  O   UNL     1       4.658  40.643  12.534  1.00  0.00    -0.550 OA
ENDBRANCH   3   4
ENDBRANCH   2   3
ENDBRANCH   1   2
BRANCH   1   7
ATOM      7  C   UNL     1       4.351  44.768  11.382  1.00  0.00     0.000 C 
BRANCH   7   8
ATOM      8  C   UNL     1       3.996  46.113  10.737  1.00  0.00    -0.000 C 
BRANCH   8   9
ATOM      9  C   UNL     1       4.747  46.304   9.415  1.00  0.00    -0.003 C 
ATOM     10  C   UNL     1       5.808  47.394   9.535  1.00  0.00     0.004 C 
ENDBRANCH   8   9
ENDBRANCH   7   8
ENDBRANCH   1   7
TORSDOF 6
ENDMDL
MODEL 5
REMARK VINA RESULT:    -4.248     14.534     15.998
REMARK INTER + INTRA:          -5.997
REMARK INTER:                  -5.561
REMARK INTRA:                  -0.436
REMARK UNBOUND:                -0.259
REMARK SMILES CCCCCCCC(=O)[O-]
REMARK SMILES IDX 5 1 6 2 7 3 8 4 9 5 10 6 4 7 3 8 2 9 1 10
REMARK H PARENT
REMARK Flexibility Score: inf
ROOT
ATOM      1  C   UNL     1      13.094  32.744  13.577  1.00  0.00     0.000 C 
ENDROOT
BRANCH   1   2
ATOM      2  C   UNL     1      13.495  34.169  13.991  1.00  0.00     0.006 C 
BRANCH   2   3
ATOM      3  C   UNL     1      14.299  34.895  12.905  1.00  0.00     0.053 C 
BRANCH   3   4
ATOM      4  C   UNL     1      13.648  36.197  12.558  1.00  0.00     0.041 C 
ATOM      5  O   UNL     1      12.782  36.696  13.322  1.00  0.00    -0.550 OA
ATOM      6  O   UNL     1      13.963  36.836  11.364  1.00  0.00    -0.550 OA
ENDBRANCH   3   4
ENDBRANCH   2   3
ENDBRANCH   1   2
BRANCH   1   7
ATOM      7  C   UNL     1      13.921  32.215  12.397  1.00  0.00     0.000 C 
BRANCH   7   8
ATOM      8  C   UNL     1      14.584  30.878  12.747  1.00  0.00    -0.000 C 
BRANCH   8   9
ATOM      9  C   UNL     1      16.068  30.882  12.361  1.00  0.00    -0.003 C 
ATOM     10  C   UNL     1      16.856  31.874  13.212  1.00  0.00     0.004 C 
ENDBRANCH   8   9
ENDBRANCH   7   8
ENDBRANCH   1   7
TORSDOF 6
ENDMDL
MODEL 6
REMARK VINA RESULT:    -4.227      2.713      4.703
REMARK INTER + INTRA:          -5.969
REMARK INTER:                  -5.400
REMARK INTRA:                  -0.569
REMARK UNBOUND:                -0.259
REMARK SMILES CCCCCCCC(=O)[O-]
REMARK SMILES IDX 5 1 6 2 7 3 8 4 9 5 10 6 4 7 3 8 2 9 1 10
REMARK H PARENT
REMARK Flexibility Score: inf
ROOT
ATOM      1  C   UNL     1       0.796  44.842  10.810  1.00  0.00     0.000 C 
ENDROOT
BRANCH   1   2
ATOM      2  C   UNL     1       1.581  45.395   9.610  1.00  0.00     0.006 C 
BRANCH   2   3
ATOM      3  C   UNL     1       2.375  46.662   9.958  1.00  0.00     0.053 C 
BRANCH   3   4
ATOM      4  C   UNL     1       3.613  46.747   9.121  1.00  0.00     0.041 C 
ATOM      5  O   UNL     1       4.518  45.880   9.239  1.00  0.00    -0.550 OA
ATOM      6  O   UNL     1       3.789  47.812   8.246  1.00  0.00    -0.550 OA
ENDBRANCH   3   4
ENDBRANCH   2   3
ENDBRANCH   1   2
BRANCH   1   7
ATOM      7  C   UNL     1       1.531  43.696  11.521  1.00  0.00     0.000 C 
BRANCH   7   8
ATOM      8  C   UNL     1       2.533  43.018  10.579  1.00  0.00    -0.000 C 
BRANCH   8   9
ATOM      9  C   UNL     1       3.915  42.909  11.232  1.00  0.00    -0.003 C 
ATOM     10  C   UNL     1       4.193  44.103  12.141  1.00  0.00     0.004 C 
ENDBRANCH   8   9
ENDBRANCH   7   8
ENDBRANCH   1   7
TORSDOF 6
ENDMDL
MODEL 7
REMARK VINA RESULT:    -4.151      1.693      2.042
REMARK INTER + INTRA:          -5.866
REMARK INTER:                  -5.630
REMARK INTRA:                  -0.236
REMARK UNBOUND:                -0.259
REMARK SMILES CCCCCCCC(=O)[O-]
REMARK SMILES IDX 5 1 6 2 7 3 8 4 9 5 10 6 4 7 3 8 2 9 1 10
REMARK H PARENT
REMARK Flexibility Score: inf
ROOT
ATOM      1  C   UNL     1       3.679  46.182  10.617  1.00  0.00     0.000 C 
ENDROOT
BRANCH   1   2
ATOM      2  C   UNL     1       3.705  44.932  11.510  1.00  0.00     0.006 C 
BRANCH   2   3
ATOM      3  C   UNL     1       2.968  43.742  10.882  1.00  0.00     0.053 C 
BRANCH   3   4
ATOM      4  C   UNL     1       1.561  44.120  10.542  1.00  0.00     0.041 C 
ATOM      5  O   UNL     1       1.190  44.167   9.341  1.00  0.00    -0.550 OA
ATOM      6  O   UNL     1       0.671  44.469  11.551  1.00  0.00    -0.550 OA
ENDBRANCH   3   4
ENDBRANCH   2   3
ENDBRANCH   1   2
BRANCH   1   7
ATOM      7  C   UNL     1       4.980  46.368   9.821  1.00  0.00     0.000 C 
BRANCH   7   8
ATOM      8  C   UNL     1       4.925  47.644   8.972  1.00  0.00    -0.000 C 
BRANCH   8   9
ATOM      9  C   UNL     1       6.229  48.440   9.091  1.00  0.00    -0.003 C 
ATOM     10  C   UNL     1       7.398  47.532   9.460  1.00  0.00     0.004 C 
ENDBRANCH   8   9
ENDBRANCH   7   8
ENDBRANCH   1   7
TORSDOF 6
ENDMDL
MODEL 8
REMARK VINA RESULT:    -4.147      2.982      5.273
REMARK INTER + INTRA:          -5.861
REMARK INTER:                  -5.614
REMARK INTRA:                  -0.246
REMARK UNBOUND:                -0.259
REMARK SMILES CCCCCCCC(=O)[O-]
REMARK SMILES IDX 5 1 6 2 7 3 8 4 9 5 10 6 4 7 3 8 2 9 1 10
REMARK H PARENT
REMARK Flexibility Score: inf
ROOT
ATOM      1  C   UNL     1       4.230  44.703  10.814  1.00  0.00     0.000 C 
ENDROOT
BRANCH   1   2
ATOM      2  C   UNL     1       4.200  46.226  10.609  1.00  0.00     0.006 C 
BRANCH   2   3
ATOM      3  C   UNL     1       4.583  46.637   9.181  1.00  0.00     0.053 C 
BRANCH   3   4
ATOM      4  C   UNL     1       3.515  47.497   8.582  1.00  0.00     0.041 C 
ATOM      5  O   UNL     1       2.345  47.472   9.048  1.00  0.00    -0.550 OA
ATOM      6  O   UNL     1       3.799  48.292   7.479  1.00  0.00    -0.550 OA
ENDBRANCH   3   4
ENDBRANCH   2   3
ENDBRANCH   1   2
BRANCH   1   7
ATOM      7  C   UNL     1       3.865  43.926   9.540  1.00  0.00     0.000 C 
BRANCH   7   8
ATOM      8  C   UNL     1       2.774  42.888   9.825  1.00  0.00    -0.000 C 
BRANCH   8   9
ATOM      9  C   UNL     1       2.877  42.361  11.260  1.00  0.00    -0.003 C 
ATOM     10  C   UNL     1       1.663  42.772  12.088  1.00  0.00     0.004 C 
ENDBRANCH   8   9
ENDBRANCH   7   8
ENDBRANCH   1   7
TORSDOF 6
ENDMDL
MODEL 9
REMARK VINA RESULT:    -4.084      1.949      3.153
REMARK INTER + INTRA:          -5.776
REMARK INTER:                  -5.164
REMARK INTRA:                  -0.612
REMARK UNBOUND:                -0.259
REMARK SMILES CCCCCCCC(=O)[O-]
REMARK SMILES IDX 5 1 6 2 7 3 8 4 9 5 10 6 4 7 3 8 2 9 1 10
REMARK H PARENT
REMARK Flexibility Score: inf
ROOT
ATOM      1  C   UNL     1       4.396  45.660  10.826  1.00  0.00     0.000 C 
ENDROOT
BRANCH   1   2
ATOM      2  C   UNL     1       4.423  44.362  11.649  1.00  0.00     0.006 C 
BRANCH   2   3
ATOM      3  C   UNL     1       3.945  43.144  10.847  1.00  0.00     0.053 C 
BRANCH   3   4
ATOM      4  C   UNL     1       2.920  42.378  11.623  1.00  0.00     0.041 C 
ATOM      5  O   UNL     1       3.047  41.137  11.788  1.00  0.00    -0.550 OA
ATOM      6  O   UNL     1       1.797  43.028  12.122  1.00  0.00    -0.550 OA
ENDBRANCH   3   4
ENDBRANCH   2   3
ENDBRANCH   1   2
BRANCH   1   7
ATOM      7  C   UNL     1       3.369  45.617   9.685  1.00  0.00     0.000 C 
BRANCH   7   8
ATOM      8  C   UNL     1       2.143  46.475  10.019  1.00  0.00    -0.000 C 
BRANCH   8   9
ATOM      9  C   UNL     1       0.853  45.653   9.917  1.00  0.00    -0.003 C 
ATOM     10  C   UNL     1       1.022  44.475   8.962  1.00  0.00     0.004 C 
ENDBRANCH   8   9
ENDBRANCH   7   8
ENDBRANCH   1   7
TORSDOF 6
ENDMDL
