MODEL 1
REMARK VINA RESULT:    -4.074      0.000      0.000
REMARK INTER + INTRA:          -4.074
REMARK INTER:                  -4.074
REMARK INTRA:                   0.000
REMARK UNBOUND:                 0.000
REMARK SMILES CC1=CC(=O)[C@H]2C[C@@H]1C2(C)C
REMARK SMILES IDX 1 1 2 2 3 3 4 4 5 5 6 6 7 7 8 8 9 9 10 10 11 11
REMARK H PARENT
REMARK Flexibility Score: inf
ROOT
ATOM      1  C   UNL     1     -32.781 -21.642  21.154  1.00  0.00     0.040 C 
ATOM      2  C   UNL     1     -32.143 -20.352  20.744  1.00  0.00    -0.066 C 
ATOM      3  C   UNL     1     -30.801 -20.139  20.850  1.00  0.00     0.047 C 
ATOM      4  C   UNL     1     -30.307 -18.797  20.401  1.00  0.00     0.159 C 
ATOM      5  O   UNL     1     -29.096 -18.463  20.489  1.00  0.00    -0.295 OA
ATOM      6  C   UNL     1     -31.374 -17.864  19.829  1.00  0.00     0.067 C 
ATOM      7  C   UNL     1     -32.190 -18.764  18.875  1.00  0.00     0.021 C 
ATOM      8  C   UNL     1     -32.983 -19.218  20.122  1.00  0.00     0.022 C 
ATOM      9  C   UNL     1     -32.598 -17.865  20.788  1.00  0.00    -0.019 C 
ATOM     10  C   UNL     1     -32.335 -17.849  22.321  1.00  0.00     0.012 C 
ATOM     11  C   UNL     1     -33.607 -16.737  20.457  1.00  0.00     0.012 C 
ENDROOT
TORSDOF 0
ENDMDL
MODEL 2
REMARK VINA RESULT:    -4.048      1.743      2.809
REMARK INTER + INTRA:          -4.048
REMARK INTER:                  -4.048
REMARK INTRA:                   0.000
REMARK UNBOUND:                 0.000
REMARK SMILES CC1=CC(=O)[C@H]2C[C@@H]1C2(C)C
REMARK SMILES IDX 1 1 2 2 3 3 4 4 5 5 6 6 7 7 8 8 9 9 10 10 11 11
REMARK H PARENT
REMARK Flexibility Score: inf
ROOT
ATOM      1  C   UNL     1     -31.981 -21.814  21.542  1.00  0.00     0.040 C 
ATOM      2  C   UNL     1     -32.046 -20.342  21.282  1.00  0.00    -0.066 C 
ATOM      3  C   UNL     1     -32.619 -19.827  20.158  1.00  0.00     0.047 C 
ATOM      4  C   UNL     1     -32.609 -18.333  20.035  1.00  0.00     0.159 C 
ATOM      5  O   UNL     1     -33.069 -17.739  19.024  1.00  0.00    -0.295 OA
ATOM      6  C   UNL     1     -32.005 -17.583  21.221  1.00  0.00     0.067 C 
ATOM      7  C   UNL     1     -32.625 -18.268  22.458  1.00  0.00     0.021 C 
ATOM      8  C   UNL     1     -31.512 -19.332  22.318  1.00  0.00     0.022 C 
ATOM      9  C   UNL     1     -30.653 -18.255  21.594  1.00  0.00    -0.019 C 
ATOM     10  C   UNL     1     -29.713 -18.715  20.444  1.00  0.00     0.012 C 
ATOM     11  C   UNL     1     -29.823 -17.400  22.586  1.00  0.00     0.012 C 
ENDROOT
TORSDOF 0
ENDMDL
MODEL 3
REMARK VINA RESULT:    -4.022      1.020      3.162
REMARK INTER + INTRA:          -4.022
REMARK INTER:                  -4.022
REMARK INTRA:                   0.000
REMARK UNBOUND:                 0.000
REMARK SMILES CC1=CC(=O)[C@H]2C[C@@H]1C2(C)C
REMARK SMILES IDX 1 1 2 2 3 3 4 4 5 5 6 6 7 7 8 8 9 9 10 10 11 11
REMARK H PARENT
REMARK Flexibility Score: inf
ROOT
ATOM      1  C   UNL     1     -33.734 -16.330  21.011  1.00  0.00     0.040 C 
ATOM      2  C   UNL     1     -32.646 -17.320  20.741  1.00  0.00    -0.066 C 
ATOM      3  C   UNL     1     -31.631 -17.065  19.867  1.00  0.00     0.047 C 
ATOM      4  C   UNL     1     -30.613 -18.153  19.699  1.00  0.00     0.159 C 
ATOM      5  O   UNL     1     -29.654 -18.055  18.889  1.00  0.00    -0.295 OA
ATOM      6  C   UNL     1     -30.821 -19.385  20.578  1.00  0.00     0.067 C 
ATOM      7  C   UNL     1     -31.133 -18.805  21.975  1.00  0.00     0.021 C 
ATOM      8  C   UNL     1     -32.595 -18.664  21.495  1.00  0.00     0.022 C 
ATOM      9  C   UNL     1     -32.314 -19.813  20.485  1.00  0.00    -0.019 C 
ATOM     10  C   UNL     1     -33.012 -19.759  19.097  1.00  0.00     0.012 C 
ATOM     11  C   UNL     1     -32.565 -21.213  21.100  1.00  0.00     0.012 C 
ENDROOT
TORSDOF 0
ENDMDL
MODEL 4
REMARK VINA RESULT:    -3.907      1.781      3.268
REMARK INTER + INTRA:          -3.907
REMARK INTER:                  -3.907
REMARK INTRA:                   0.000
REMARK UNBOUND:                 0.000
REMARK SMILES CC1=CC(=O)[C@H]2C[C@@H]1C2(C)C
REMARK SMILES IDX 1 1 2 2 3 3 4 4 5 5 6 6 7 7 8 8 9 9 10 10 11 11
REMARK H PARENT
REMARK Flexibility Score: inf
ROOT
ATOM      1  C   UNL     1     -28.599 -17.913  21.081  1.00  0.00     0.040 C 
ATOM      2  C   UNL     1     -30.072 -18.074  20.876  1.00  0.00    -0.066 C 
ATOM      3  C   UNL     1     -30.948 -17.045  21.055  1.00  0.00     0.047 C 
ATOM      4  C   UNL     1     -32.394 -17.358  20.814  1.00  0.00     0.159 C 
ATOM      5  O   UNL     1     -33.303 -16.504  20.987  1.00  0.00    -0.295 OA
ATOM      6  C   UNL     1     -32.686 -18.782  20.344  1.00  0.00     0.067 C 
ATOM      7  C   UNL     1     -31.630 -19.042  19.248  1.00  0.00     0.021 C 
ATOM      8  C   UNL     1     -30.660 -19.415  20.392  1.00  0.00     0.022 C 
ATOM      9  C   UNL     1     -31.906 -19.773  21.254  1.00  0.00    -0.019 C 
ATOM     10  C   UNL     1     -31.851 -19.488  22.781  1.00  0.00     0.012 C 
ATOM     11  C   UNL     1     -32.360 -21.241  21.051  1.00  0.00     0.012 C 
ENDROOT
TORSDOF 0
ENDMDL
MODEL 5
REMARK VINA RESULT:    -3.796      1.585      2.263
REMARK INTER + INTRA:          -3.796
REMARK INTER:                  -3.796
REMARK INTRA:                   0.000
REMARK UNBOUND:                 0.000
REMARK SMILES CC1=CC(=O)[C@H]2C[C@@H]1C2(C)C
REMARK SMILES IDX 1 1 2 2 3 3 4 4 5 5 6 6 7 7 8 8 9 9 10 10 11 11
REMARK H PARENT
REMARK Flexibility Score: inf
ROOT
ATOM      1  C   UNL     1     -32.663 -21.331  20.920  1.00  0.00     0.040 C 
ATOM      2  C   UNL     1     -32.065 -19.991  21.211  1.00  0.00    -0.066 C 
ATOM      3  C   UNL     1     -32.104 -19.432  22.453  1.00  0.00     0.047 C 
ATOM      4  C   UNL     1     -31.464 -18.083  22.592  1.00  0.00     0.159 C 
ATOM      5  O   UNL     1     -31.472 -17.444  23.677  1.00  0.00    -0.295 OA
ATOM      6  C   UNL     1     -30.802 -17.539  21.327  1.00  0.00     0.067 C 
ATOM      7  C   UNL     1     -30.002 -18.739  20.774  1.00  0.00     0.021 C 
ATOM      8  C   UNL     1     -31.320 -19.203  20.115  1.00  0.00     0.022 C 
ATOM      9  C   UNL     1     -31.787 -17.719  20.137  1.00  0.00    -0.019 C 
ATOM     10  C   UNL     1     -33.295 -17.426  20.375  1.00  0.00     0.012 C 
ATOM     11  C   UNL     1     -31.336 -16.940  18.875  1.00  0.00     0.012 C 
ENDROOT
TORSDOF 0
ENDMDL
MODEL 6
REMARK VINA RESULT:    -3.770      1.792      3.153
REMARK INTER + INTRA:          -3.770
REMARK INTER:                  -3.770
REMARK INTRA:                   0.000
REMARK UNBOUND:                 0.000
REMARK SMILES CC1=CC(=O)[C@H]2C[C@@H]1C2(C)C
REMARK SMILES IDX 1 1 2 2 3 3 4 4 5 5 6 6 7 7 8 8 9 9 10 10 11 11
REMARK H PARENT
REMARK Flexibility Score: inf
ROOT
ATOM      1  C   UNL     1     -28.965 -18.035  20.293  1.00  0.00     0.040 C 
ATOM      2  C   UNL     1     -30.222 -18.584  20.888  1.00  0.00    -0.066 C 
ATOM      3  C   UNL     1     -30.751 -19.778  20.497  1.00  0.00     0.047 C 
ATOM      4  C   UNL     1     -32.016 -20.199  21.182  1.00  0.00     0.159 C 
ATOM      5  O   UNL     1     -32.624 -21.259  20.878  1.00  0.00    -0.295 OA
ATOM      6  C   UNL     1     -32.514 -19.253  22.274  1.00  0.00     0.067 C 
ATOM      7  C   UNL     1     -31.247 -18.919  23.092  1.00  0.00     0.021 C 
ATOM      8  C   UNL     1     -30.949 -17.840  22.026  1.00  0.00     0.022 C 
ATOM      9  C   UNL     1     -32.476 -17.799  21.724  1.00  0.00    -0.019 C 
ATOM     10  C   UNL     1     -32.928 -17.551  20.257  1.00  0.00     0.012 C 
ATOM     11  C   UNL     1     -33.231 -16.802  22.640  1.00  0.00     0.012 C 
ENDROOT
TORSDOF 0
ENDMDL
MODEL 7
REMARK VINA RESULT:    -3.687      1.566      2.850
REMARK INTER + INTRA:          -3.687
REMARK INTER:                  -3.687
REMARK INTRA:                   0.000
REMARK UNBOUND:                 0.000
REMARK SMILES CC1=CC(=O)[C@H]2C[C@@H]1C2(C)C
REMARK SMILES IDX 1 1 2 2 3 3 4 4 5 5 6 6 7 7 8 8 9 9 10 10 11 11
REMARK H PARENT
REMARK Flexibility Score: inf
ROOT
ATOM      1  C   UNL     1     -32.803 -17.328  23.279  1.00  0.00     0.040 C 
ATOM      2  C   UNL     1     -32.351 -18.244  22.186  1.00  0.00    -0.066 C 
ATOM      3  C   UNL     1     -32.149 -19.576  22.391  1.00  0.00     0.047 C 
ATOM      4  C   UNL     1     -31.696 -20.368  21.202  1.00  0.00     0.159 C 
ATOM      5  O   UNL     1     -31.434 -21.598  21.274  1.00  0.00    -0.295 OA
ATOM      6  C   UNL     1     -31.576 -19.580  19.898  1.00  0.00     0.067 C 
ATOM      7  C   UNL     1     -32.872 -18.743  19.841  1.00  0.00     0.021 C 
ATOM      8  C   UNL     1     -32.150 -17.722  20.749  1.00  0.00     0.022 C 
ATOM      9  C   UNL     1     -30.803 -18.261  20.187  1.00  0.00    -0.019 C 
ATOM     10  C   UNL     1     -29.577 -18.317  21.142  1.00  0.00     0.012 C 
ATOM     11  C   UNL     1     -30.373 -17.533  18.888  1.00  0.00     0.012 C 
ENDROOT
TORSDOF 0
ENDMDL
MODEL 8
REMARK VINA RESULT:    -3.617      4.623      6.187
REMARK INTER + INTRA:          -3.617
REMARK INTER:                  -3.617
REMARK INTRA:                   0.000
REMARK UNBOUND:                 0.000
REMARK SMILES CC1=CC(=O)[C@H]2C[C@@H]1C2(C)C
REMARK SMILES IDX 1 1 2 2 3 3 4 4 5 5 6 6 7 7 8 8 9 9 10 10 11 11
REMARK H PARENT
REMARK Flexibility Score: inf
ROOT
ATOM      1  C   UNL     1     -28.429 -14.830  24.391  1.00  0.00     0.040 C 
ATOM      2  C   UNL     1     -27.830 -15.950  23.601  1.00  0.00    -0.066 C 
ATOM      3  C   UNL     1     -27.070 -16.922  24.179  1.00  0.00     0.047 C 
ATOM      4  C   UNL     1     -26.536 -17.980  23.261  1.00  0.00     0.159 C 
ATOM      5  O   UNL     1     -25.787 -18.906  23.667  1.00  0.00    -0.295 OA
ATOM      6  C   UNL     1     -26.967 -17.855  21.800  1.00  0.00     0.067 C 
ATOM      7  C   UNL     1     -28.482 -17.567  21.875  1.00  0.00     0.021 C 
ATOM      8  C   UNL     1     -28.101 -16.084  22.089  1.00  0.00     0.022 C 
ATOM      9  C   UNL     1     -26.765 -16.380  21.348  1.00  0.00    -0.019 C 
ATOM     10  C   UNL     1     -25.484 -15.633  21.816  1.00  0.00     0.012 C 
ATOM     11  C   UNL     1     -26.892 -16.211  19.813  1.00  0.00     0.012 C 
ENDROOT
TORSDOF 0
ENDMDL
MODEL 9
REMARK VINA RESULT:    -3.467      1.199      2.561
REMARK INTER + INTRA:          -3.467
REMARK INTER:                  -3.467
REMARK INTRA:                   0.000
REMARK UNBOUND:                 0.000
REMARK SMILES CC1=CC(=O)[C@H]2C[C@@H]1C2(C)C
REMARK SMILES IDX 1 1 2 2 3 3 4 4 5 5 6 6 7 7 8 8 9 9 10 10 11 11
REMARK H PARENT
REMARK Flexibility Score: inf
ROOT
ATOM      1  C   UNL     1     -32.211 -17.465  23.452  1.00  0.00     0.040 C 
ATOM      2  C   UNL     1     -31.536 -18.053  22.253  1.00  0.00    -0.066 C 
ATOM      3  C   UNL     1     -30.233 -17.791  21.950  1.00  0.00     0.047 C 
ATOM      4  C   UNL     1     -29.695 -18.450  20.716  1.00  0.00     0.159 C 
ATOM      5  O   UNL     1     -28.521 -18.253  20.307  1.00  0.00    -0.295 OA
ATOM      6  C   UNL     1     -30.670 -19.378  19.992  1.00  0.00     0.067 C 
ATOM      7  C   UNL     1     -31.303 -20.218  21.123  1.00  0.00     0.021 C 
ATOM      8  C   UNL     1     -32.281 -19.039  21.332  1.00  0.00     0.022 C 
ATOM      9  C   UNL     1     -32.034 -18.646  19.846  1.00  0.00    -0.019 C 
ATOM     10  C   UNL     1     -32.026 -17.136  19.477  1.00  0.00     0.012 C 
ATOM     11  C   UNL     1     -32.995 -19.378  18.875  1.00  0.00     0.012 C 
ENDROOT
TORSDOF 0
ENDMDL
