MODEL 1
REMARK VINA RESULT:    -5.538      0.000      0.000
REMARK INTER + INTRA:          -6.448
REMARK INTER:                  -6.509
REMARK INTRA:                   0.061
REMARK UNBOUND:                 0.061
REMARK SMILES O=c1c(O)c(-c2ccc(O)cc2)oc2cc(O)cc(O)c12
REMARK SMILES IDX 5 1 3 2 2 3 1 4 21 5 19 6 18 7 16 8 15 9 14 10 13 11 6 12
REMARK SMILES IDX 7 13 8 14 9 15 12 16 11 17 10 18 4 20 20 22 17 24
REMARK H PARENT 10 19 4 21 20 23 17 25
REMARK Flexibility Score: inf
ROOT
ATOM      1  C   UNL     1     -11.387  -1.055  -9.665  1.00  0.00     0.180 A 
ATOM      2  C   UNL     1     -12.719  -1.068 -10.115  1.00  0.00     0.208 A 
ATOM      3  C   UNL     1     -13.436   0.140 -10.155  1.00  0.00     0.238 A 
ATOM      4  O   UNL     1     -14.643   0.113 -10.507  1.00  0.00    -0.285 OA
ATOM      5  C   UNL     1     -12.807   1.346  -9.762  1.00  0.00     0.111 A 
ATOM      6  C   UNL     1     -13.424   2.632  -9.802  1.00  0.00     0.134 A 
ATOM      7  C   UNL     1     -12.753   3.738  -9.266  1.00  0.00     0.093 A 
ATOM      8  C   UNL     1     -11.459   3.615  -8.753  1.00  0.00     0.123 A 
ATOM      9  C   UNL     1     -10.825   2.375  -8.765  1.00  0.00     0.094 A 
ATOM     10  C   UNL     1     -11.484   1.247  -9.259  1.00  0.00     0.146 A 
ATOM     11  O   UNL     1     -10.847   0.081  -9.242  1.00  0.00    -0.452 OA
ENDROOT
BRANCH   1  12
ATOM     12  C   UNL     1     -10.560  -2.282  -9.618  1.00  0.00     0.021 A 
ATOM     13  C   UNL     1      -9.874  -2.660  -8.450  1.00  0.00     0.016 A 
ATOM     14  C   UNL     1      -9.119  -3.836  -8.423  1.00  0.00     0.047 A 
ATOM     15  C   UNL     1      -9.050  -4.656  -9.557  1.00  0.00     0.115 A 
ATOM     16  C   UNL     1     -10.503  -3.121 -10.745  1.00  0.00     0.016 A 
ATOM     17  C   UNL     1      -9.746  -4.296 -10.715  1.00  0.00     0.047 A 
BRANCH  15  18
ATOM     18  O   UNL     1      -8.300  -5.829  -9.542  1.00  0.00    -0.508 OA
ATOM     19  H   UNL     1      -7.453  -5.924 -10.091  1.00  0.00     0.293 HD
ENDBRANCH  15  18
ENDBRANCH   1  12
BRANCH   2  20
ATOM     20  O   UNL     1     -13.327  -2.272 -10.476  1.00  0.00    -0.502 OA
ATOM     21  H   UNL     1     -12.807  -3.050 -10.864  1.00  0.00     0.293 HD
ENDBRANCH   2  20
BRANCH   6  22
ATOM     22  O   UNL     1     -14.675   2.880 -10.376  1.00  0.00    -0.507 OA
ATOM     23  H   UNL     1     -15.338   2.166 -10.637  1.00  0.00     0.293 HD
ENDBRANCH   6  22
BRANCH   8  24
ATOM     24  O   UNL     1     -10.791   4.723  -8.237  1.00  0.00    -0.508 OA
ATOM     25  H   UNL     1      -9.798   4.697  -8.036  1.00  0.00     0.293 HD
ENDBRANCH   8  24
TORSDOF 5
ENDMDL
MODEL 2
REMARK VINA RESULT:    -4.594     17.154     19.442
REMARK INTER + INTRA:          -5.338
REMARK INTER:                  -5.490
REMARK INTRA:                   0.152
REMARK UNBOUND:                 0.061
REMARK SMILES O=c1c(O)c(-c2ccc(O)cc2)oc2cc(O)cc(O)c12
REMARK SMILES IDX 5 1 3 2 2 3 1 4 21 5 19 6 18 7 16 8 15 9 14 10 13 11 6 12
REMARK SMILES IDX 7 13 8 14 9 15 12 16 11 17 10 18 4 20 20 22 17 24
REMARK H PARENT 10 19 4 21 20 23 17 25
REMARK Flexibility Score: inf
ROOT
ATOM      1  C   UNL     1     -10.019  11.520   5.661  1.00  0.00     0.180 A 
ATOM      2  C   UNL     1     -11.039  11.710   6.608  1.00  0.00     0.208 A 
ATOM      3  C   UNL     1     -12.357  11.901   6.161  1.00  0.00     0.238 A 
ATOM      4  O   UNL     1     -13.257  12.125   7.012  1.00  0.00    -0.285 OA
ATOM      5  C   UNL     1     -12.640  11.884   4.774  1.00  0.00     0.111 A 
ATOM      6  C   UNL     1     -13.943  12.026   4.211  1.00  0.00     0.134 A 
ATOM      7  C   UNL     1     -14.089  12.125   2.822  1.00  0.00     0.093 A 
ATOM      8  C   UNL     1     -12.985  12.019   1.972  1.00  0.00     0.123 A 
ATOM      9  C   UNL     1     -11.715  11.819   2.510  1.00  0.00     0.094 A 
ATOM     10  C   UNL     1     -11.534  11.754   3.894  1.00  0.00     0.146 A 
ATOM     11  O   UNL     1     -10.306  11.574   4.365  1.00  0.00    -0.452 OA
ENDROOT
BRANCH   1  12
ATOM     12  C   UNL     1      -8.611  11.287   6.055  1.00  0.00     0.021 A 
ATOM     13  C   UNL     1      -8.006  12.027   7.087  1.00  0.00     0.016 A 
ATOM     14  C   UNL     1      -6.682  11.771   7.457  1.00  0.00     0.047 A 
ATOM     15  C   UNL     1      -5.951  10.765   6.813  1.00  0.00     0.115 A 
ATOM     16  C   UNL     1      -7.877  10.265   5.427  1.00  0.00     0.016 A 
ATOM     17  C   UNL     1      -6.553  10.013   5.799  1.00  0.00     0.047 A 
BRANCH  15  18
ATOM     18  O   UNL     1      -4.632  10.503   7.173  1.00  0.00    -0.508 OA
ATOM     19  H   UNL     1      -4.046   9.883   6.625  1.00  0.00     0.293 HD
ENDBRANCH  15  18
ENDBRANCH   1  12
BRANCH   2  20
ATOM     20  O   UNL     1     -10.735  11.746   7.971  1.00  0.00    -0.502 OA
ATOM     21  H   UNL     1     -10.769  10.921   8.559  1.00  0.00     0.293 HD
ENDBRANCH   2  20
BRANCH   6  22
ATOM     22  O   UNL     1     -15.121  12.050   4.965  1.00  0.00    -0.507 OA
ATOM     23  H   UNL     1     -15.293  11.478   5.778  1.00  0.00     0.293 HD
ENDBRANCH   6  22
BRANCH   8  24
ATOM     24  O   UNL     1     -13.140  12.101   0.591  1.00  0.00    -0.508 OA
ATOM     25  H   UNL     1     -13.881  12.653   0.172  1.00  0.00     0.293 HD
ENDBRANCH   8  24
TORSDOF 5
ENDMDL
MODEL 3
REMARK VINA RESULT:    -4.370      1.444      6.495
REMARK INTER + INTRA:          -5.075
REMARK INTER:                  -5.180
REMARK INTRA:                   0.105
REMARK UNBOUND:                 0.061
REMARK SMILES O=c1c(O)c(-c2ccc(O)cc2)oc2cc(O)cc(O)c12
REMARK SMILES IDX 5 1 3 2 2 3 1 4 21 5 19 6 18 7 16 8 15 9 14 10 13 11 6 12
REMARK SMILES IDX 7 13 8 14 9 15 12 16 11 17 10 18 4 20 20 22 17 24
REMARK H PARENT 10 19 4 21 20 23 17 25
REMARK Flexibility Score: inf
ROOT
ATOM      1  C   UNL     1     -12.232   0.353  -9.617  1.00  0.00     0.180 A 
ATOM      2  C   UNL     1     -13.094  -0.541 -10.276  1.00  0.00     0.208 A 
ATOM      3  C   UNL     1     -12.672  -1.864 -10.486  1.00  0.00     0.238 A 
ATOM      4  O   UNL     1     -13.425  -2.644 -11.125  1.00  0.00    -0.285 OA
ATOM      5  C   UNL     1     -11.402  -2.281 -10.019  1.00  0.00     0.111 A 
ATOM      6  C   UNL     1     -10.890  -3.608 -10.140  1.00  0.00     0.134 A 
ATOM      7  C   UNL     1      -9.569  -3.876  -9.759  1.00  0.00     0.093 A 
ATOM      8  C   UNL     1      -8.765  -2.880  -9.200  1.00  0.00     0.123 A 
ATOM      9  C   UNL     1      -9.276  -1.596  -9.022  1.00  0.00     0.094 A 
ATOM     10  C   UNL     1     -10.578  -1.290  -9.426  1.00  0.00     0.146 A 
ATOM     11  O   UNL     1     -11.022  -0.051  -9.249  1.00  0.00    -0.452 OA
ENDROOT
BRANCH   1  12
ATOM     12  C   UNL     1     -12.616   1.755  -9.337  1.00  0.00     0.021 A 
ATOM     13  C   UNL     1     -13.900   2.084  -8.865  1.00  0.00     0.016 A 
ATOM     14  C   UNL     1     -14.231   3.413  -8.585  1.00  0.00     0.047 A 
ATOM     15  C   UNL     1     -13.281   4.428  -8.758  1.00  0.00     0.115 A 
ATOM     16  C   UNL     1     -11.663   2.776  -9.488  1.00  0.00     0.016 A 
ATOM     17  C   UNL     1     -11.997   4.105  -9.208  1.00  0.00     0.047 A 
BRANCH  15  18
ATOM     18  O   UNL     1     -13.600   5.755  -8.484  1.00  0.00    -0.508 OA
ATOM     19  H   UNL     1     -12.888   6.476  -8.452  1.00  0.00     0.293 HD
ENDBRANCH  15  18
ENDBRANCH   1  12
BRANCH   2  20
ATOM     20  O   UNL     1     -14.333  -0.103 -10.749  1.00  0.00    -0.502 OA
ATOM     21  H   UNL     1     -14.550  -0.047 -11.737  1.00  0.00     0.293 HD
ENDBRANCH   2  20
BRANCH   6  22
ATOM     22  O   UNL     1     -11.639  -4.695 -10.600  1.00  0.00    -0.507 OA
ATOM     23  H   UNL     1     -11.794  -4.914 -11.573  1.00  0.00     0.293 HD
ENDBRANCH   6  22
BRANCH   8  24
ATOM     24  O   UNL     1      -7.457  -3.158  -8.808  1.00  0.00    -0.508 OA
ATOM     25  H   UNL     1      -6.701  -2.505  -8.981  1.00  0.00     0.293 HD
ENDBRANCH   8  24
TORSDOF 5
ENDMDL
MODEL 4
REMARK VINA RESULT:    -3.845     16.865     18.460
REMARK INTER + INTRA:          -4.458
REMARK INTER:                  -4.429
REMARK INTRA:                  -0.029
REMARK UNBOUND:                 0.061
REMARK SMILES O=c1c(O)c(-c2ccc(O)cc2)oc2cc(O)cc(O)c12
REMARK SMILES IDX 5 1 3 2 2 3 1 4 21 5 19 6 18 7 16 8 15 9 14 10 13 11 6 12
REMARK SMILES IDX 7 13 8 14 9 15 12 16 11 17 10 18 4 20 20 22 17 24
REMARK H PARENT 10 19 4 21 20 23 17 25
REMARK Flexibility Score: inf
ROOT
ATOM      1  C   UNL     1      -9.245   8.147   6.016  1.00  0.00     0.180 A 
ATOM      2  C   UNL     1      -9.058   6.817   6.430  1.00  0.00     0.208 A 
ATOM      3  C   UNL     1     -10.154   5.938   6.416  1.00  0.00     0.238 A 
ATOM      4  O   UNL     1      -9.991   4.764   6.840  1.00  0.00    -0.285 OA
ATOM      5  C   UNL     1     -11.418   6.395   5.973  1.00  0.00     0.111 A 
ATOM      6  C   UNL     1     -12.586   5.581   5.877  1.00  0.00     0.134 A 
ATOM      7  C   UNL     1     -13.814   6.169   5.550  1.00  0.00     0.093 A 
ATOM      8  C   UNL     1     -13.902   7.531   5.249  1.00  0.00     0.123 A 
ATOM      9  C   UNL     1     -12.755   8.322   5.280  1.00  0.00     0.094 A 
ATOM     10  C   UNL     1     -11.524   7.770   5.639  1.00  0.00     0.146 A 
ATOM     11  O   UNL     1     -10.457   8.562   5.667  1.00  0.00    -0.452 OA
ENDROOT
BRANCH   1  12
ATOM     12  C   UNL     1      -8.134   9.124   5.979  1.00  0.00     0.021 A 
ATOM     13  C   UNL     1      -7.365   9.405   7.123  1.00  0.00     0.016 A 
ATOM     14  C   UNL     1      -6.305  10.314   7.056  1.00  0.00     0.047 A 
ATOM     15  C   UNL     1      -5.992  10.944   5.845  1.00  0.00     0.115 A 
ATOM     16  C   UNL     1      -7.800   9.745   4.763  1.00  0.00     0.016 A 
ATOM     17  C   UNL     1      -6.740  10.655   4.700  1.00  0.00     0.047 A 
BRANCH  15  18
ATOM     18  O   UNL     1      -4.939  11.852   5.768  1.00  0.00    -0.508 OA
ATOM     19  H   UNL     1      -5.089  12.815   5.486  1.00  0.00     0.293 HD
ENDBRANCH  15  18
ENDBRANCH   1  12
BRANCH   2  20
ATOM     20  O   UNL     1      -7.808   6.392   6.886  1.00  0.00    -0.502 OA
ATOM     21  H   UNL     1      -7.418   5.488   6.646  1.00  0.00     0.293 HD
ENDBRANCH   2  20
BRANCH   6  22
ATOM     22  O   UNL     1     -12.590   4.195   6.068  1.00  0.00    -0.507 OA
ATOM     23  H   UNL     1     -13.009   3.727   6.857  1.00  0.00     0.293 HD
ENDBRANCH   6  22
BRANCH   8  24
ATOM     24  O   UNL     1     -15.124   8.106   4.908  1.00  0.00    -0.508 OA
ATOM     25  H   UNL     1     -15.179   9.040   4.516  1.00  0.00     0.293 HD
ENDBRANCH   8  24
TORSDOF 5
ENDMDL
MODEL 5
REMARK VINA RESULT:    -3.838     17.653     19.079
REMARK INTER + INTRA:          -4.449
REMARK INTER:                  -4.290
REMARK INTRA:                  -0.159
REMARK UNBOUND:                 0.061
REMARK SMILES O=c1c(O)c(-c2ccc(O)cc2)oc2cc(O)cc(O)c12
REMARK SMILES IDX 5 1 3 2 2 3 1 4 21 5 19 6 18 7 16 8 15 9 14 10 13 11 6 12
REMARK SMILES IDX 7 13 8 14 9 15 12 16 11 17 10 18 4 20 20 22 17 24
REMARK H PARENT 10 19 4 21 20 23 17 25
REMARK Flexibility Score: inf
ROOT
ATOM      1  C   UNL     1      -9.534   9.938   5.845  1.00  0.00     0.180 A 
ATOM      2  C   UNL     1      -9.761   8.564   6.041  1.00  0.00     0.208 A 
ATOM      3  C   UNL     1     -11.066   8.063   5.907  1.00  0.00     0.238 A 
ATOM      4  O   UNL     1     -11.270   6.843   6.138  1.00  0.00    -0.285 OA
ATOM      5  C   UNL     1     -12.124   8.937   5.561  1.00  0.00     0.111 A 
ATOM      6  C   UNL     1     -13.477   8.530   5.357  1.00  0.00     0.134 A 
ATOM      7  C   UNL     1     -14.465   9.499   5.147  1.00  0.00     0.093 A 
ATOM      8  C   UNL     1     -14.138  10.856   5.065  1.00  0.00     0.123 A 
ATOM      9  C   UNL     1     -12.811  11.257   5.202  1.00  0.00     0.094 A 
ATOM     10  C   UNL     1     -11.809  10.316   5.450  1.00  0.00     0.146 A 
ATOM     11  O   UNL     1     -10.558  10.742   5.585  1.00  0.00    -0.452 OA
ENDROOT
BRANCH   1  12
ATOM     12  C   UNL     1      -8.184  10.535   5.944  1.00  0.00     0.021 A 
ATOM     13  C   UNL     1      -7.839  11.400   6.999  1.00  0.00     0.016 A 
ATOM     14  C   UNL     1      -6.550  11.933   7.084  1.00  0.00     0.047 A 
ATOM     15  C   UNL     1      -5.584  11.599   6.125  1.00  0.00     0.115 A 
ATOM     16  C   UNL     1      -7.203  10.190   4.998  1.00  0.00     0.016 A 
ATOM     17  C   UNL     1      -5.915  10.725   5.085  1.00  0.00     0.047 A 
BRANCH  15  18
ATOM     18  O   UNL     1      -4.297  12.125   6.200  1.00  0.00    -0.508 OA
ATOM     19  H   UNL     1      -3.646  12.043   5.427  1.00  0.00     0.293 HD
ENDBRANCH  15  18
ENDBRANCH   1  12
BRANCH   2  20
ATOM     20  O   UNL     1      -8.706   7.723   6.405  1.00  0.00    -0.502 OA
ATOM     21  H   UNL     1      -8.419   7.594   7.368  1.00  0.00     0.293 HD
ENDBRANCH   2  20
BRANCH   6  22
ATOM     22  O   UNL     1     -13.896   7.196   5.328  1.00  0.00    -0.507 OA
ATOM     23  H   UNL     1     -13.656   6.505   6.022  1.00  0.00     0.293 HD
ENDBRANCH   6  22
BRANCH   8  24
ATOM     24  O   UNL     1     -15.125  11.813   4.838  1.00  0.00    -0.508 OA
ATOM     25  H   UNL     1     -16.055  11.718   5.230  1.00  0.00     0.293 HD
ENDBRANCH   8  24
TORSDOF 5
ENDMDL
MODEL 6
REMARK VINA RESULT:    -3.445     15.003     16.853
REMARK INTER + INTRA:          -3.988
REMARK INTER:                  -3.750
REMARK INTRA:                  -0.238
REMARK UNBOUND:                 0.061
REMARK SMILES O=c1c(O)c(-c2ccc(O)cc2)oc2cc(O)cc(O)c12
REMARK SMILES IDX 5 1 3 2 2 3 1 4 21 5 19 6 18 7 16 8 15 9 14 10 13 11 6 12
REMARK SMILES IDX 7 13 8 14 9 15 12 16 11 17 10 18 4 20 20 22 17 24
REMARK H PARENT 10 19 4 21 20 23 17 25
REMARK Flexibility Score: inf
ROOT
ATOM      1  C   UNL     1     -12.698   6.653   5.359  1.00  0.00     0.180 A 
ATOM      2  C   UNL     1     -12.859   6.285   4.012  1.00  0.00     0.208 A 
ATOM      3  C   UNL     1     -13.419   7.210   3.115  1.00  0.00     0.238 A 
ATOM      4  O   UNL     1     -13.611   6.855   1.924  1.00  0.00    -0.285 OA
ATOM      5  C   UNL     1     -13.796   8.496   3.574  1.00  0.00     0.111 A 
ATOM      6  C   UNL     1     -14.334   9.525   2.745  1.00  0.00     0.134 A 
ATOM      7  C   UNL     1     -14.792  10.713   3.328  1.00  0.00     0.093 A 
ATOM      8  C   UNL     1     -14.670  10.934   4.703  1.00  0.00     0.123 A 
ATOM      9  C   UNL     1     -14.090   9.959   5.511  1.00  0.00     0.094 A 
ATOM     10  C   UNL     1     -13.657   8.749   4.963  1.00  0.00     0.146 A 
ATOM     11  O   UNL     1     -13.120   7.842   5.771  1.00  0.00    -0.452 OA
ENDROOT
BRANCH   1  12
ATOM     12  C   UNL     1     -12.093   5.742   6.357  1.00  0.00     0.021 A 
ATOM     13  C   UNL     1     -12.812   4.660   6.896  1.00  0.00     0.016 A 
ATOM     14  C   UNL     1     -12.210   3.800   7.819  1.00  0.00     0.047 A 
ATOM     15  C   UNL     1     -10.879   4.001   8.205  1.00  0.00     0.115 A 
ATOM     16  C   UNL     1     -10.751   5.925   6.735  1.00  0.00     0.016 A 
ATOM     17  C   UNL     1     -10.152   5.063   7.659  1.00  0.00     0.047 A 
BRANCH  15  18
ATOM     18  O   UNL     1     -10.270   3.152   9.125  1.00  0.00    -0.508 OA
ATOM     19  H   UNL     1      -9.268   2.995   9.120  1.00  0.00     0.293 HD
ENDBRANCH  15  18
ENDBRANCH   1  12
BRANCH   2  20
ATOM     20  O   UNL     1     -12.503   5.003   3.586  1.00  0.00    -0.502 OA
ATOM     21  H   UNL     1     -12.486   4.739   2.608  1.00  0.00     0.293 HD
ENDBRANCH   2  20
BRANCH   6  22
ATOM     22  O   UNL     1     -14.416   9.443   1.351  1.00  0.00    -0.507 OA
ATOM     23  H   UNL     1     -15.137   8.947   0.848  1.00  0.00     0.293 HD
ENDBRANCH   6  22
BRANCH   8  24
ATOM     24  O   UNL     1     -15.113  12.125   5.273  1.00  0.00    -0.508 OA
ATOM     25  H   UNL     1     -14.902  12.362   6.236  1.00  0.00     0.293 HD
ENDBRANCH   8  24
TORSDOF 5
ENDMDL
MODEL 7
REMARK VINA RESULT:    -3.265     15.065     17.267
REMARK INTER + INTRA:          -3.776
REMARK INTER:                  -3.553
REMARK INTRA:                  -0.223
REMARK UNBOUND:                 0.061
REMARK SMILES O=c1c(O)c(-c2ccc(O)cc2)oc2cc(O)cc(O)c12
REMARK SMILES IDX 5 1 3 2 2 3 1 4 21 5 19 6 18 7 16 8 15 9 14 10 13 11 6 12
REMARK SMILES IDX 7 13 8 14 9 15 12 16 11 17 10 18 4 20 20 22 17 24
REMARK H PARENT 10 19 4 21 20 23 17 25
REMARK Flexibility Score: inf
ROOT
ATOM      1  C   UNL     1     -12.611   7.730   5.569  1.00  0.00     0.180 A 
ATOM      2  C   UNL     1     -12.847   8.924   6.272  1.00  0.00     0.208 A 
ATOM      3  C   UNL     1     -13.409  10.016   5.591  1.00  0.00     0.238 A 
ATOM      4  O   UNL     1     -13.567  11.098   6.213  1.00  0.00    -0.285 OA
ATOM      5  C   UNL     1     -13.742   9.896   4.220  1.00  0.00     0.111 A 
ATOM      6  C   UNL     1     -14.353  10.925   3.442  1.00  0.00     0.134 A 
ATOM      7  C   UNL     1     -14.518  10.742   2.064  1.00  0.00     0.093 A 
ATOM      8  C   UNL     1     -14.154   9.542   1.448  1.00  0.00     0.123 A 
ATOM      9  C   UNL     1     -13.613   8.509   2.210  1.00  0.00     0.094 A 
ATOM     10  C   UNL     1     -13.403   8.676   3.581  1.00  0.00     0.146 A 
ATOM     11  O   UNL     1     -12.874   7.670   4.269  1.00  0.00    -0.452 OA
ENDROOT
BRANCH   1  12
ATOM     12  C   UNL     1     -12.046   6.529   6.223  1.00  0.00     0.021 A 
ATOM     13  C   UNL     1     -12.844   5.406   6.510  1.00  0.00     0.016 A 
ATOM     14  C   UNL     1     -12.282   4.274   7.107  1.00  0.00     0.047 A 
ATOM     15  C   UNL     1     -10.915   4.242   7.412  1.00  0.00     0.115 A 
ATOM     16  C   UNL     1     -10.671   6.481   6.514  1.00  0.00     0.016 A 
ATOM     17  C   UNL     1     -10.113   5.347   7.112  1.00  0.00     0.047 A 
BRANCH  15  18
ATOM     18  O   UNL     1     -10.345   3.120   8.008  1.00  0.00    -0.508 OA
ATOM     19  H   UNL     1     -10.776   2.205   7.936  1.00  0.00     0.293 HD
ENDBRANCH  15  18
ENDBRANCH   1  12
BRANCH   2  20
ATOM     20  O   UNL     1     -12.491   9.028   7.619  1.00  0.00    -0.502 OA
ATOM     21  H   UNL     1     -12.159   9.894   8.029  1.00  0.00     0.293 HD
ENDBRANCH   2  20
BRANCH   6  22
ATOM     22  O   UNL     1     -14.835  12.125   3.974  1.00  0.00    -0.507 OA
ATOM     23  H   UNL     1     -15.812  12.350   4.088  1.00  0.00     0.293 HD
ENDBRANCH   6  22
BRANCH   8  24
ATOM     24  O   UNL     1     -14.337   9.362   0.078  1.00  0.00    -0.508 OA
ATOM     25  H   UNL     1     -13.552   9.340  -0.563  1.00  0.00     0.293 HD
ENDBRANCH   8  24
TORSDOF 5
ENDMDL
