MODEL 1
REMARK VINA RESULT:    -5.237      0.000      0.000
REMARK INTER + INTRA:          -7.926
REMARK INTER:                  -7.227
REMARK INTRA:                  -0.699
REMARK UNBOUND:                -0.699
REMARK SMILES O=C([O-])[C@@H]1O[C@@H](Oc2cc3oc(-c4ccccc4)cc(=O)c3c(O)c2O)[C@@H](O)[C@H](O)[C@@H]1O
REMARK SMILES IDX 7 1 6 2 4 3 31 4 5 5 29 6 27 7 2 8 1 9 3 10 32 11 30 13
REMARK SMILES IDX 28 15 8 17 25 18 9 19 23 20 10 21 22 22 11 23 20 24 12 25
REMARK SMILES IDX 19 26 21 27 26 28 24 30 13 32 14 33 18 34 15 35 17 36 16 37
REMARK H PARENT 32 12 30 14 28 16 26 29 24 31
REMARK Flexibility Score: inf
ROOT
ATOM      1  O   UNL     1      46.765  16.828  70.838  1.00  0.00    -0.458 OA
ENDROOT
BRANCH   1   2
ATOM      2  C   UNL     1      47.373  16.791  72.139  1.00  0.00     0.339 C 
ATOM      3  C   UNL     1      47.815  14.489  71.965  1.00  0.00     0.199 C 
ATOM      4  C   UNL     1      46.836  14.116  73.100  1.00  0.00     0.180 C 
ATOM      5  O   UNL     1      48.370  15.779  72.181  1.00  0.00    -0.328 OA
ATOM      6  C   UNL     1      45.717  15.165  73.161  1.00  0.00     0.181 C 
ATOM      7  C   UNL     1      46.327  16.578  73.260  1.00  0.00     0.214 C 
BRANCH   3   8
ATOM      8  C   UNL     1      48.922  13.478  71.868  1.00  0.00     0.073 C 
ATOM      9  O   UNL     1      50.007  13.767  71.296  1.00  0.00    -0.547 OA
ATOM     10  O   UNL     1      48.771  12.230  72.465  1.00  0.00    -0.547 OA
ENDBRANCH   3   8
BRANCH   4  11
ATOM     11  O   UNL     1      47.505  14.071  74.338  1.00  0.00    -0.387 OA
ATOM     12  H   UNL     1      47.643  13.111  74.559  1.00  0.00     0.211 HD
ENDBRANCH   4  11
BRANCH   6  13
ATOM     13  O   UNL     1      44.897  14.908  74.272  1.00  0.00    -0.387 OA
ATOM     14  H   UNL     1      44.358  15.727  74.431  1.00  0.00     0.211 HD
ENDBRANCH   6  13
BRANCH   7  15
ATOM     15  O   UNL     1      45.315  17.547  73.167  1.00  0.00    -0.384 OA
ATOM     16  H   UNL     1      44.677  17.375  73.906  1.00  0.00     0.211 HD
ENDBRANCH   7  15
ENDBRANCH   1   2
BRANCH   1  17
ATOM     17  C   UNL     1      47.407  16.652  69.598  1.00  0.00     0.172 A 
ATOM     18  C   UNL     1      48.401  17.571  69.227  1.00  0.00     0.201 A 
ATOM     19  C   UNL     1      47.090  15.598  68.726  1.00  0.00     0.098 A 
ATOM     20  C   UNL     1      49.082  17.444  68.006  1.00  0.00     0.176 A 
ATOM     21  C   UNL     1      47.731  15.475  67.493  1.00  0.00     0.146 A 
ATOM     22  C   UNL     1      48.720  16.409  67.096  1.00  0.00     0.111 A 
ATOM     23  O   UNL     1      47.389  14.466  66.699  1.00  0.00    -0.456 OA
ATOM     24  C   UNL     1      49.258  16.257  65.795  1.00  0.00     0.197 A 
ATOM     25  C   UNL     1      47.925  14.263  65.501  1.00  0.00     0.138 A 
ATOM     26  C   UNL     1      48.875  15.169  65.010  1.00  0.00     0.100 A 
ATOM     27  O   UNL     1      50.050  17.098  65.299  1.00  0.00    -0.289 OA
BRANCH  18  28
ATOM     28  O   UNL     1      48.750  18.618  70.082  1.00  0.00    -0.502 OA
ATOM     29  H   UNL     1      48.064  19.258  70.469  1.00  0.00     0.293 HD
ENDBRANCH  18  28
BRANCH  20  30
ATOM     30  O   UNL     1      50.125  18.348  67.770  1.00  0.00    -0.504 OA
ATOM     31  H   UNL     1      50.058  19.158  67.173  1.00  0.00     0.293 HD
ENDBRANCH  20  30
BRANCH  25  32
ATOM     32  C   UNL     1      47.481  13.093  64.706  1.00  0.00     0.017 A 
ATOM     33  C   UNL     1      46.183  13.073  64.162  1.00  0.00     0.012 A 
ATOM     34  C   UNL     1      48.320  11.977  64.508  1.00  0.00     0.012 A 
ATOM     35  C   UNL     1      45.740  11.972  63.423  1.00  0.00     0.001 A 
ATOM     36  C   UNL     1      47.870  10.877  63.772  1.00  0.00     0.001 A 
ATOM     37  C   UNL     1      46.581  10.875  63.229  1.00  0.00     0.000 A 
ENDBRANCH  25  32
ENDBRANCH   1  17
TORSDOF 9
ENDMDL
MODEL 2
REMARK VINA RESULT:    -4.468      2.877      8.170
REMARK INTER + INTRA:          -6.865
REMARK INTER:                  -6.222
REMARK INTRA:                  -0.643
REMARK UNBOUND:                -0.699
REMARK SMILES O=C([O-])[C@@H]1O[C@@H](Oc2cc3oc(-c4ccccc4)cc(=O)c3c(O)c2O)[C@@H](O)[C@H](O)[C@@H]1O
REMARK SMILES IDX 7 1 6 2 4 3 31 4 5 5 29 6 27 7 2 8 1 9 3 10 32 11 30 13
REMARK SMILES IDX 28 15 8 17 25 18 9 19 23 20 10 21 22 22 11 23 20 24 12 25
REMARK SMILES IDX 19 26 21 27 26 28 24 30 13 32 14 33 18 34 15 35 17 36 16 37
REMARK H PARENT 32 12 30 14 28 16 26 29 24 31
REMARK Flexibility Score: inf
ROOT
ATOM      1  O   UNL     1      49.732  13.566  65.774  1.00  0.00    -0.458 OA
ENDROOT
BRANCH   1   2
ATOM      2  C   UNL     1      49.088  13.966  64.553  1.00  0.00     0.339 C 
ATOM      3  C   UNL     1      46.963  13.933  65.557  1.00  0.00     0.199 C 
ATOM      4  C   UNL     1      46.468  12.749  64.698  1.00  0.00     0.180 C 
ATOM      5  O   UNL     1      47.914  14.712  64.844  1.00  0.00    -0.328 OA
ATOM      6  C   UNL     1      47.670  11.879  64.304  1.00  0.00     0.181 C 
ATOM      7  C   UNL     1      48.758  12.753  63.650  1.00  0.00     0.214 C 
BRANCH   3   8
ATOM      8  C   UNL     1      45.812  14.804  65.971  1.00  0.00     0.073 C 
ATOM      9  O   UNL     1      44.712  14.749  65.359  1.00  0.00    -0.547 OA
ATOM     10  O   UNL     1      45.940  15.639  67.078  1.00  0.00    -0.547 OA
ENDBRANCH   3   8
BRANCH   4  11
ATOM     11  O   UNL     1      45.824  13.215  63.536  1.00  0.00    -0.387 OA
ATOM     12  H   UNL     1      46.526  13.340  62.844  1.00  0.00     0.211 HD
ENDBRANCH   4  11
BRANCH   6  13
ATOM     13  O   UNL     1      47.248  10.877  63.415  1.00  0.00    -0.387 OA
ATOM     14  H   UNL     1      47.713  11.039  62.552  1.00  0.00     0.211 HD
ENDBRANCH   6  13
BRANCH   7  15
ATOM     15  O   UNL     1      49.916  11.990  63.424  1.00  0.00    -0.384 OA
ATOM     16  H   UNL     1      49.795  11.128  63.898  1.00  0.00     0.211 HD
ENDBRANCH   7  15
ENDBRANCH   1   2
BRANCH   1  17
ATOM     17  C   UNL     1      49.825  14.310  66.965  1.00  0.00     0.172 A 
ATOM     18  C   UNL     1      49.877  13.613  68.183  1.00  0.00     0.201 A 
ATOM     19  C   UNL     1      49.867  15.714  66.978  1.00  0.00     0.098 A 
ATOM     20  C   UNL     1      49.978  14.299  69.404  1.00  0.00     0.176 A 
ATOM     21  C   UNL     1      49.932  16.414  68.183  1.00  0.00     0.146 A 
ATOM     22  C   UNL     1      49.962  15.723  69.420  1.00  0.00     0.111 A 
ATOM     23  O   UNL     1      49.960  17.742  68.143  1.00  0.00    -0.456 OA
ATOM     24  C   UNL     1      49.943  16.514  70.594  1.00  0.00     0.197 A 
ATOM     25  C   UNL     1      50.008  18.506  69.229  1.00  0.00     0.138 A 
ATOM     26  C   UNL     1      49.990  17.905  70.494  1.00  0.00     0.100 A 
ATOM     27  O   UNL     1      49.846  16.004  71.740  1.00  0.00    -0.289 OA
BRANCH  18  28
ATOM     28  O   UNL     1      49.855  12.217  68.198  1.00  0.00    -0.502 OA
ATOM     29  H   UNL     1      50.647  11.662  68.504  1.00  0.00     0.293 HD
ENDBRANCH  18  28
BRANCH  20  30
ATOM     30  O   UNL     1      50.125  13.515  70.555  1.00  0.00    -0.504 OA
ATOM     31  H   UNL     1      50.933  13.526  71.157  1.00  0.00     0.293 HD
ENDBRANCH  20  30
BRANCH  25  32
ATOM     32  C   UNL     1      50.054  19.979  69.067  1.00  0.00     0.017 A 
ATOM     33  C   UNL     1      50.097  20.803  70.207  1.00  0.00     0.012 A 
ATOM     34  C   UNL     1      50.022  20.580  67.792  1.00  0.00     0.012 A 
ATOM     35  C   UNL     1      50.124  22.195  70.076  1.00  0.00     0.001 A 
ATOM     36  C   UNL     1      50.046  21.973  67.668  1.00  0.00     0.001 A 
ATOM     37  C   UNL     1      50.099  22.779  68.809  1.00  0.00     0.000 A 
ENDBRANCH  25  32
ENDBRANCH   1  17
TORSDOF 9
ENDMDL
MODEL 3
REMARK VINA RESULT:    -4.431      2.516      7.871
REMARK INTER + INTRA:          -6.814
REMARK INTER:                  -6.636
REMARK INTRA:                  -0.178
REMARK UNBOUND:                -0.699
REMARK SMILES O=C([O-])[C@@H]1O[C@@H](Oc2cc3oc(-c4ccccc4)cc(=O)c3c(O)c2O)[C@@H](O)[C@H](O)[C@@H]1O
REMARK SMILES IDX 7 1 6 2 4 3 31 4 5 5 29 6 27 7 2 8 1 9 3 10 32 11 30 13
REMARK SMILES IDX 28 15 8 17 25 18 9 19 23 20 10 21 22 22 11 23 20 24 12 25
REMARK SMILES IDX 19 26 21 27 26 28 24 30 13 32 14 33 18 34 15 35 17 36 16 37
REMARK H PARENT 32 12 30 14 28 16 26 29 24 31
REMARK Flexibility Score: inf
ROOT
ATOM      1  O   UNL     1      49.817  13.695  66.118  1.00  0.00    -0.458 OA
ENDROOT
BRANCH   1   2
ATOM      2  C   UNL     1      49.242  14.173  64.891  1.00  0.00     0.339 C 
ATOM      3  C   UNL     1      47.065  14.092  65.775  1.00  0.00     0.199 C 
ATOM      4  C   UNL     1      46.615  12.965  64.819  1.00  0.00     0.180 C 
ATOM      5  O   UNL     1      48.056  14.906  65.163  1.00  0.00    -0.328 OA
ATOM      6  C   UNL     1      47.834  12.114  64.438  1.00  0.00     0.181 C 
ATOM      7  C   UNL     1      48.959  13.019  63.899  1.00  0.00     0.214 C 
BRANCH   3   8
ATOM      8  C   UNL     1      45.896  14.943  66.178  1.00  0.00     0.073 C 
ATOM      9  O   UNL     1      45.988  15.743  67.148  1.00  0.00    -0.547 OA
ATOM     10  O   UNL     1      44.717  14.892  65.440  1.00  0.00    -0.547 OA
ENDBRANCH   3   8
BRANCH   4  11
ATOM     11  O   UNL     1      46.036  13.505  63.654  1.00  0.00    -0.387 OA
ATOM     12  H   UNL     1      46.735  13.489  62.948  1.00  0.00     0.211 HD
ENDBRANCH   4  11
BRANCH   6  13
ATOM     13  O   UNL     1      47.458  11.170  63.467  1.00  0.00    -0.387 OA
ATOM     14  H   UNL     1      48.006  11.351  62.659  1.00  0.00     0.211 HD
ENDBRANCH   6  13
BRANCH   7  15
ATOM     15  O   UNL     1      50.125  12.265  63.689  1.00  0.00    -0.384 OA
ATOM     16  H   UNL     1      50.307  12.273  62.714  1.00  0.00     0.211 HD
ENDBRANCH   7  15
ENDBRANCH   1   2
BRANCH   1  17
ATOM     17  C   UNL     1      49.786  14.333  67.372  1.00  0.00     0.172 A 
ATOM     18  C   UNL     1      49.925  15.730  67.412  1.00  0.00     0.201 A 
ATOM     19  C   UNL     1      49.623  13.628  68.576  1.00  0.00     0.098 A 
ATOM     20  C   UNL     1      49.895  16.424  68.632  1.00  0.00     0.176 A 
ATOM     21  C   UNL     1      49.625  14.296  69.800  1.00  0.00     0.146 A 
ATOM     22  C   UNL     1      49.788  15.703  69.855  1.00  0.00     0.111 A 
ATOM     23  O   UNL     1      49.477  13.583  70.911  1.00  0.00    -0.456 OA
ATOM     24  C   UNL     1      49.862  16.288  71.143  1.00  0.00     0.197 A 
ATOM     25  C   UNL     1      49.479  14.115  72.129  1.00  0.00     0.138 A 
ATOM     26  C   UNL     1      49.683  15.493  72.276  1.00  0.00     0.100 A 
ATOM     27  O   UNL     1      50.125  17.506  71.308  1.00  0.00    -0.289 OA
BRANCH  18  28
ATOM     28  O   UNL     1      50.070  16.459  66.230  1.00  0.00    -0.502 OA
ATOM     29  H   UNL     1      49.738  17.413  66.133  1.00  0.00     0.293 HD
ENDBRANCH  18  28
BRANCH  20  30
ATOM     30  O   UNL     1      49.940  17.822  68.562  1.00  0.00    -0.504 OA
ATOM     31  H   UNL     1      50.650  18.350  68.077  1.00  0.00     0.293 HD
ENDBRANCH  20  30
BRANCH  25  32
ATOM     32  C   UNL     1      49.287  13.226  73.300  1.00  0.00     0.017 A 
ATOM     33  C   UNL     1      49.496  13.730  74.597  1.00  0.00     0.012 A 
ATOM     34  C   UNL     1      48.932  11.871  73.144  1.00  0.00     0.012 A 
ATOM     35  C   UNL     1      49.336  12.904  75.713  1.00  0.00     0.001 A 
ATOM     36  C   UNL     1      48.777  11.048  74.264  1.00  0.00     0.001 A 
ATOM     37  C   UNL     1      48.978  11.565  75.548  1.00  0.00     0.000 A 
ENDBRANCH  25  32
ENDBRANCH   1  17
TORSDOF 9
ENDMDL
MODEL 4
REMARK VINA RESULT:    -4.311      2.785      8.102
REMARK INTER + INTRA:          -6.648
REMARK INTER:                  -5.795
REMARK INTRA:                  -0.854
REMARK UNBOUND:                -0.699
REMARK SMILES O=C([O-])[C@@H]1O[C@@H](Oc2cc3oc(-c4ccccc4)cc(=O)c3c(O)c2O)[C@@H](O)[C@H](O)[C@@H]1O
REMARK SMILES IDX 7 1 6 2 4 3 31 4 5 5 29 6 27 7 2 8 1 9 3 10 32 11 30 13
REMARK SMILES IDX 28 15 8 17 25 18 9 19 23 20 10 21 22 22 11 23 20 24 12 25
REMARK SMILES IDX 19 26 21 27 26 28 24 30 13 32 14 33 18 34 15 35 17 36 16 37
REMARK H PARENT 32 12 30 14 28 16 26 29 24 31
REMARK Flexibility Score: inf
ROOT
ATOM      1  O   UNL     1      49.385  13.909  67.056  1.00  0.00    -0.458 OA
ENDROOT
BRANCH   1   2
ATOM      2  C   UNL     1      48.278  13.167  66.519  1.00  0.00     0.339 C 
ATOM      3  C   UNL     1      49.247  13.096  64.379  1.00  0.00     0.199 C 
ATOM      4  C   UNL     1      48.152  13.982  63.747  1.00  0.00     0.180 C 
ATOM      5  O   UNL     1      48.720  12.334  65.457  1.00  0.00    -0.328 OA
ATOM      6  C   UNL     1      47.582  14.918  64.822  1.00  0.00     0.181 C 
ATOM      7  C   UNL     1      47.134  14.097  66.048  1.00  0.00     0.214 C 
BRANCH   3   8
ATOM      8  C   UNL     1      49.837  12.171  63.353  1.00  0.00     0.073 C 
ATOM      9  O   UNL     1      50.025  10.953  63.618  1.00  0.00    -0.547 OA
ATOM     10  O   UNL     1      50.125  12.648  62.078  1.00  0.00    -0.547 OA
ENDBRANCH   3   8
BRANCH   4  11
ATOM     11  O   UNL     1      47.116  13.189  63.217  1.00  0.00    -0.387 OA
ATOM     12  H   UNL     1      47.157  13.280  62.228  1.00  0.00     0.211 HD
ENDBRANCH   4  11
BRANCH   6  13
ATOM     13  O   UNL     1      46.497  15.633  64.289  1.00  0.00    -0.387 OA
ATOM     14  H   UNL     1      46.774  15.958  63.393  1.00  0.00     0.211 HD
ENDBRANCH   6  13
BRANCH   7  15
ATOM     15  O   UNL     1      46.750  14.958  67.089  1.00  0.00    -0.384 OA
ATOM     16  H   UNL     1      46.566  15.844  66.683  1.00  0.00     0.211 HD
ENDBRANCH   7  15
ENDBRANCH   1   2
BRANCH   1  17
ATOM     17  C   UNL     1      49.457  14.529  68.317  1.00  0.00     0.172 A 
ATOM     18  C   UNL     1      49.607  15.924  68.366  1.00  0.00     0.201 A 
ATOM     19  C   UNL     1      49.385  13.807  69.520  1.00  0.00     0.098 A 
ATOM     20  C   UNL     1      49.678  16.601  69.594  1.00  0.00     0.176 A 
ATOM     21  C   UNL     1      49.488  14.457  70.749  1.00  0.00     0.146 A 
ATOM     22  C   UNL     1      49.663  15.862  70.812  1.00  0.00     0.111 A 
ATOM     23  O   UNL     1      49.424  13.728  71.859  1.00  0.00    -0.456 OA
ATOM     24  C   UNL     1      49.843  16.427  72.098  1.00  0.00     0.197 A 
ATOM     25  C   UNL     1      49.525  14.243  73.079  1.00  0.00     0.138 A 
ATOM     26  C   UNL     1      49.749  15.617  73.230  1.00  0.00     0.100 A 
ATOM     27  O   UNL     1      50.125  17.643  72.258  1.00  0.00    -0.289 OA
BRANCH  18  28
ATOM     28  O   UNL     1      49.663  16.670  67.186  1.00  0.00    -0.502 OA
ATOM     29  H   UNL     1      48.975  16.573  66.447  1.00  0.00     0.293 HD
ENDBRANCH  18  28
BRANCH  20  30
ATOM     30  O   UNL     1      49.726  17.999  69.540  1.00  0.00    -0.504 OA
ATOM     31  H   UNL     1      50.530  18.556  69.785  1.00  0.00     0.293 HD
ENDBRANCH  20  30
BRANCH  25  32
ATOM     32  C   UNL     1      49.421  13.338  74.249  1.00  0.00     0.017 A 
ATOM     33  C   UNL     1      49.789  13.805  75.525  1.00  0.00     0.012 A 
ATOM     34  C   UNL     1      48.992  12.002  74.110  1.00  0.00     0.012 A 
ATOM     35  C   UNL     1      49.714  12.962  76.638  1.00  0.00     0.001 A 
ATOM     36  C   UNL     1      48.922  11.163  75.227  1.00  0.00     0.001 A 
ATOM     37  C   UNL     1      49.281  11.643  76.490  1.00  0.00     0.000 A 
ENDBRANCH  25  32
ENDBRANCH   1  17
TORSDOF 9
ENDMDL
MODEL 5
REMARK VINA RESULT:    -3.855      3.052      8.079
REMARK INTER + INTRA:          -6.019
REMARK INTER:                  -5.729
REMARK INTRA:                  -0.290
REMARK UNBOUND:                -0.699
REMARK SMILES O=C([O-])[C@@H]1O[C@@H](Oc2cc3oc(-c4ccccc4)cc(=O)c3c(O)c2O)[C@@H](O)[C@H](O)[C@@H]1O
REMARK SMILES IDX 7 1 6 2 4 3 31 4 5 5 29 6 27 7 2 8 1 9 3 10 32 11 30 13
REMARK SMILES IDX 28 15 8 17 25 18 9 19 23 20 10 21 22 22 11 23 20 24 12 25
REMARK SMILES IDX 19 26 21 27 26 28 24 30 13 32 14 33 18 34 15 35 17 36 16 37
REMARK H PARENT 32 12 30 14 28 16 26 29 24 31
REMARK Flexibility Score: inf
ROOT
ATOM      1  O   UNL     1      49.357  13.844  66.876  1.00  0.00    -0.458 OA
ENDROOT
BRANCH   1   2
ATOM      2  C   UNL     1      48.140  13.188  66.487  1.00  0.00     0.339 C 
ATOM      3  C   UNL     1      48.843  13.013  64.251  1.00  0.00     0.199 C 
ATOM      4  C   UNL     1      47.753  13.977  63.732  1.00  0.00     0.180 C 
ATOM      5  O   UNL     1      48.388  12.309  65.399  1.00  0.00    -0.328 OA
ATOM      6  C   UNL     1      47.389  14.968  64.846  1.00  0.00     0.181 C 
ATOM      7  C   UNL     1      47.025  14.200  66.132  1.00  0.00     0.214 C 
BRANCH   3   8
ATOM      8  C   UNL     1      49.234  12.032  63.183  1.00  0.00     0.073 C 
ATOM      9  O   UNL     1      48.731  10.876  63.158  1.00  0.00    -0.547 OA
ATOM     10  O   UNL     1      50.114  12.420  62.178  1.00  0.00    -0.547 OA
ENDBRANCH   3   8
BRANCH   4  11
ATOM     11  O   UNL     1      46.604  13.263  63.343  1.00  0.00    -0.387 OA
ATOM     12  H   UNL     1      46.095  13.847  62.720  1.00  0.00     0.211 HD
ENDBRANCH   4  11
BRANCH   6  13
ATOM     13  O   UNL     1      46.308  15.762  64.428  1.00  0.00    -0.387 OA
ATOM     14  H   UNL     1      46.089  16.374  65.179  1.00  0.00     0.211 HD
ENDBRANCH   6  13
BRANCH   7  15
ATOM     15  O   UNL     1      46.835  15.101  67.193  1.00  0.00    -0.384 OA
ATOM     16  H   UNL     1      47.351  15.921  66.976  1.00  0.00     0.211 HD
ENDBRANCH   7  15
ENDBRANCH   1   2
BRANCH   1  17
ATOM     17  C   UNL     1      49.521  14.778  67.915  1.00  0.00     0.172 A 
ATOM     18  C   UNL     1      49.602  14.301  69.233  1.00  0.00     0.201 A 
ATOM     19  C   UNL     1      49.606  16.161  67.684  1.00  0.00     0.098 A 
ATOM     20  C   UNL     1      49.772  15.182  70.313  1.00  0.00     0.176 A 
ATOM     21  C   UNL     1      49.741  17.056  68.745  1.00  0.00     0.146 A 
ATOM     22  C   UNL     1      49.800  16.587  70.082  1.00  0.00     0.111 A 
ATOM     23  O   UNL     1      49.807  18.355  68.475  1.00  0.00    -0.456 OA
ATOM     24  C   UNL     1      49.852  17.569  71.101  1.00  0.00     0.197 A 
ATOM     25  C   UNL     1      49.921  19.292  69.409  1.00  0.00     0.138 A 
ATOM     26  C   UNL     1      49.937  18.919  70.759  1.00  0.00     0.100 A 
ATOM     27  O   UNL     1      49.786  17.268  72.320  1.00  0.00    -0.289 OA
BRANCH  18  28
ATOM     28  O   UNL     1      49.538  12.930  69.492  1.00  0.00    -0.502 OA
ATOM     29  H   UNL     1      50.048  12.494  70.254  1.00  0.00     0.293 HD
ENDBRANCH  18  28
BRANCH  20  30
ATOM     30  O   UNL     1      49.942  14.604  71.576  1.00  0.00    -0.504 OA
ATOM     31  H   UNL     1      49.189  14.331  72.189  1.00  0.00     0.293 HD
ENDBRANCH  20  30
BRANCH  25  32
ATOM     32  C   UNL     1      50.005  20.713  68.992  1.00  0.00     0.017 A 
ATOM     33  C   UNL     1      50.062  21.723  69.971  1.00  0.00     0.012 A 
ATOM     34  C   UNL     1      49.994  21.082  67.632  1.00  0.00     0.012 A 
ATOM     35  C   UNL     1      50.125  23.069  69.599  1.00  0.00     0.001 A 
ATOM     36  C   UNL     1      50.054  22.430  67.266  1.00  0.00     0.001 A 
ATOM     37  C   UNL     1      50.121  23.423  68.248  1.00  0.00     0.000 A 
ENDBRANCH  25  32
ENDBRANCH   1  17
TORSDOF 9
ENDMDL
MODEL 6
REMARK VINA RESULT:    -2.713      2.713      8.072
REMARK INTER + INTRA:          -4.443
REMARK INTER:                  -4.165
REMARK INTRA:                  -0.278
REMARK UNBOUND:                -0.699
REMARK SMILES O=C([O-])[C@@H]1O[C@@H](Oc2cc3oc(-c4ccccc4)cc(=O)c3c(O)c2O)[C@@H](O)[C@H](O)[C@@H]1O
REMARK SMILES IDX 7 1 6 2 4 3 31 4 5 5 29 6 27 7 2 8 1 9 3 10 32 11 30 13
REMARK SMILES IDX 28 15 8 17 25 18 9 19 23 20 10 21 22 22 11 23 20 24 12 25
REMARK SMILES IDX 19 26 21 27 26 28 24 30 13 32 14 33 18 34 15 35 17 36 16 37
REMARK H PARENT 32 12 30 14 28 16 26 29 24 31
REMARK Flexibility Score: inf
ROOT
ATOM      1  O   UNL     1      48.636  13.244  67.552  1.00  0.00    -0.458 OA
ENDROOT
BRANCH   1   2
ATOM      2  C   UNL     1      49.430  12.759  66.457  1.00  0.00     0.339 C 
ATOM      3  C   UNL     1      49.116  14.743  65.235  1.00  0.00     0.199 C 
ATOM      4  C   UNL     1      48.293  14.047  64.130  1.00  0.00     0.180 C 
ATOM      5  O   UNL     1      50.064  13.847  65.798  1.00  0.00    -0.328 OA
ATOM      6  C   UNL     1      47.574  12.832  64.731  1.00  0.00     0.181 C 
ATOM      7  C   UNL     1      48.589  11.928  65.458  1.00  0.00     0.214 C 
BRANCH   3   8
ATOM      8  C   UNL     1      49.829  15.946  64.687  1.00  0.00     0.073 C 
ATOM      9  O   UNL     1      50.125  16.015  63.463  1.00  0.00    -0.547 OA
ATOM     10  O   UNL     1      50.113  17.022  65.523  1.00  0.00    -0.547 OA
ENDBRANCH   3   8
BRANCH   4  11
ATOM     11  O   UNL     1      49.130  13.626  63.078  1.00  0.00    -0.387 OA
ATOM     12  H   UNL     1      48.648  12.905  62.594  1.00  0.00     0.211 HD
ENDBRANCH   4  11
BRANCH   6  13
ATOM     13  O   UNL     1      46.930  12.118  63.706  1.00  0.00    -0.387 OA
ATOM     14  H   UNL     1      47.035  11.152  63.914  1.00  0.00     0.211 HD
ENDBRANCH   6  13
BRANCH   7  15
ATOM     15  O   UNL     1      47.918  10.896  66.133  1.00  0.00    -0.384 OA
ATOM     16  H   UNL     1      47.464  10.343  65.446  1.00  0.00     0.211 HD
ENDBRANCH   7  15
ENDBRANCH   1   2
BRANCH   1  17
ATOM     17  C   UNL     1      49.015  14.196  68.516  1.00  0.00     0.172 A 
ATOM     18  C   UNL     1      49.282  13.752  69.821  1.00  0.00     0.201 A 
ATOM     19  C   UNL     1      49.134  15.564  68.222  1.00  0.00     0.098 A 
ATOM     20  C   UNL     1      49.672  14.652  70.826  1.00  0.00     0.176 A 
ATOM     21  C   UNL     1      49.486  16.479  69.214  1.00  0.00     0.146 A 
ATOM     22  C   UNL     1      49.736  16.046  70.541  1.00  0.00     0.111 A 
ATOM     23  O   UNL     1      49.577  17.764  68.888  1.00  0.00    -0.456 OA
ATOM     24  C   UNL     1      50.005  17.052  71.501  1.00  0.00     0.197 A 
ATOM     25  C   UNL     1      49.890  18.719  69.756  1.00  0.00     0.138 A 
ATOM     26  C   UNL     1      50.104  18.385  71.100  1.00  0.00     0.100 A 
ATOM     27  O   UNL     1      50.121  16.790  72.726  1.00  0.00    -0.289 OA
BRANCH  18  28
ATOM     28  O   UNL     1      49.189  12.395  70.138  1.00  0.00    -0.502 OA
ATOM     29  H   UNL     1      49.079  12.063  71.090  1.00  0.00     0.293 HD
ENDBRANCH  18  28
BRANCH  20  30
ATOM     30  O   UNL     1      50.013  14.101  72.067  1.00  0.00    -0.504 OA
ATOM     31  H   UNL     1      50.087  13.114  72.256  1.00  0.00     0.293 HD
ENDBRANCH  20  30
BRANCH  25  32
ATOM     32  C   UNL     1      49.981  20.120  69.278  1.00  0.00     0.017 A 
ATOM     33  C   UNL     1      49.967  21.175  70.210  1.00  0.00     0.012 A 
ATOM     34  C   UNL     1      50.047  20.425  67.904  1.00  0.00     0.012 A 
ATOM     35  C   UNL     1      50.035  22.503  69.779  1.00  0.00     0.001 A 
ATOM     36  C   UNL     1      50.111  21.756  67.479  1.00  0.00     0.001 A 
ATOM     37  C   UNL     1      50.106  22.794  68.416  1.00  0.00     0.000 A 
ENDBRANCH  25  32
ENDBRANCH   1  17
TORSDOF 9
ENDMDL
MODEL 7
REMARK VINA RESULT:    -2.641      2.056      3.497
REMARK INTER + INTRA:          -4.343
REMARK INTER:                  -3.423
REMARK INTRA:                  -0.920
REMARK UNBOUND:                -0.699
REMARK SMILES O=C([O-])[C@@H]1O[C@@H](Oc2cc3oc(-c4ccccc4)cc(=O)c3c(O)c2O)[C@@H](O)[C@H](O)[C@@H]1O
REMARK SMILES IDX 7 1 6 2 4 3 31 4 5 5 29 6 27 7 2 8 1 9 3 10 32 11 30 13
REMARK SMILES IDX 28 15 8 17 25 18 9 19 23 20 10 21 22 22 11 23 20 24 12 25
REMARK SMILES IDX 19 26 21 27 26 28 24 30 13 32 14 33 18 34 15 35 17 36 16 37
REMARK H PARENT 32 12 30 14 28 16 26 29 24 31
REMARK Flexibility Score: inf
ROOT
ATOM      1  O   UNL     1      49.737  13.687  71.776  1.00  0.00    -0.458 OA
ENDROOT
BRANCH   1   2
ATOM      2  C   UNL     1      48.613  12.921  72.239  1.00  0.00     0.339 C 
ATOM      3  C   UNL     1      47.608  14.813  73.205  1.00  0.00     0.199 C 
ATOM      4  C   UNL     1      47.767  14.282  74.647  1.00  0.00     0.180 C 
ATOM      5  O   UNL     1      47.453  13.740  72.286  1.00  0.00    -0.328 OA
ATOM      6  C   UNL     1      48.992  13.358  74.708  1.00  0.00     0.181 C 
ATOM      7  C   UNL     1      48.885  12.273  73.618  1.00  0.00     0.214 C 
BRANCH   3   8
ATOM      8  C   UNL     1      46.423  15.731  73.108  1.00  0.00     0.073 C 
ATOM      9  O   UNL     1      45.299  15.378  73.557  1.00  0.00    -0.547 OA
ATOM     10  O   UNL     1      46.578  17.005  72.570  1.00  0.00    -0.547 OA
ENDBRANCH   3   8
BRANCH   4  11
ATOM     11  O   UNL     1      46.620  13.568  75.042  1.00  0.00    -0.387 OA
ATOM     12  H   UNL     1      46.495  12.832  74.387  1.00  0.00     0.211 HD
ENDBRANCH   4  11
BRANCH   6  13
ATOM     13  O   UNL     1      49.067  12.768  75.980  1.00  0.00    -0.387 OA
ATOM     14  H   UNL     1      48.370  12.061  76.014  1.00  0.00     0.211 HD
ENDBRANCH   6  13
BRANCH   7  15
ATOM     15  O   UNL     1      50.068  11.518  73.572  1.00  0.00    -0.384 OA
ATOM     16  H   UNL     1      49.805  10.568  73.465  1.00  0.00     0.211 HD
ENDBRANCH   7  15
ENDBRANCH   1   2
BRANCH   1  17
ATOM     17  C   UNL     1      49.830  14.412  70.574  1.00  0.00     0.172 A 
ATOM     18  C   UNL     1      49.880  15.814  70.643  1.00  0.00     0.201 A 
ATOM     19  C   UNL     1      49.875  13.789  69.316  1.00  0.00     0.098 A 
ATOM     20  C   UNL     1      49.980  16.592  69.479  1.00  0.00     0.176 A 
ATOM     21  C   UNL     1      49.940  14.545  68.146  1.00  0.00     0.146 A 
ATOM     22  C   UNL     1      49.967  15.962  68.202  1.00  0.00     0.111 A 
ATOM     23  O   UNL     1      49.971  13.909  66.980  1.00  0.00    -0.456 OA
ATOM     24  C   UNL     1      49.948  16.650  66.965  1.00  0.00     0.197 A 
ATOM     25  C   UNL     1      50.018  14.531  65.808  1.00  0.00     0.138 A 
ATOM     26  C   UNL     1      49.998  15.931  65.770  1.00  0.00     0.100 A 
ATOM     27  O   UNL     1      49.849  17.902  66.901  1.00  0.00    -0.289 OA
BRANCH  18  28
ATOM     28  O   UNL     1      49.855  16.460  71.881  1.00  0.00    -0.502 OA
ATOM     29  H   UNL     1      49.208  17.213  72.090  1.00  0.00     0.293 HD
ENDBRANCH  18  28
BRANCH  20  30
ATOM     30  O   UNL     1      50.125  17.973  69.656  1.00  0.00    -0.504 OA
ATOM     31  H   UNL     1      49.413  18.656  69.447  1.00  0.00     0.293 HD
ENDBRANCH  20  30
BRANCH  25  32
ATOM     32  C   UNL     1      50.068  13.719  64.567  1.00  0.00     0.017 A 
ATOM     33  C   UNL     1      50.095  14.362  63.316  1.00  0.00     0.012 A 
ATOM     34  C   UNL     1      50.053  12.310  64.609  1.00  0.00     0.012 A 
ATOM     35  C   UNL     1      50.125  13.615  62.135  1.00  0.00     0.001 A 
ATOM     36  C   UNL     1      50.080  11.568  63.424  1.00  0.00     0.001 A 
ATOM     37  C   UNL     1      50.117  12.220  62.188  1.00  0.00     0.000 A 
ENDBRANCH  25  32
ENDBRANCH   1  17
TORSDOF 9
ENDMDL
MODEL 8
REMARK VINA RESULT:    -2.527      2.721      8.028
REMARK INTER + INTRA:          -4.186
REMARK INTER:                  -4.236
REMARK INTRA:                   0.049
REMARK UNBOUND:                -0.699
REMARK SMILES O=C([O-])[C@@H]1O[C@@H](Oc2cc3oc(-c4ccccc4)cc(=O)c3c(O)c2O)[C@@H](O)[C@H](O)[C@@H]1O
REMARK SMILES IDX 7 1 6 2 4 3 31 4 5 5 29 6 27 7 2 8 1 9 3 10 32 11 30 13
REMARK SMILES IDX 28 15 8 17 25 18 9 19 23 20 10 21 22 22 11 23 20 24 12 25
REMARK SMILES IDX 19 26 21 27 26 28 24 30 13 32 14 33 18 34 15 35 17 36 16 37
REMARK H PARENT 32 12 30 14 28 16 26 29 24 31
REMARK Flexibility Score: inf
ROOT
ATOM      1  O   UNL     1      49.234  14.978  67.212  1.00  0.00    -0.458 OA
ENDROOT
BRANCH   1   2
ATOM      2  C   UNL     1      50.120  14.096  66.504  1.00  0.00     0.339 C 
ATOM      3  C   UNL     1      48.800  14.183  64.561  1.00  0.00     0.199 C 
ATOM      4  C   UNL     1      48.398  12.695  64.650  1.00  0.00     0.180 C 
ATOM      5  O   UNL     1      50.092  14.391  65.115  1.00  0.00    -0.328 OA
ATOM      6  C   UNL     1      48.416  12.258  66.122  1.00  0.00     0.181 C 
ATOM      7  C   UNL     1      49.776  12.608  66.756  1.00  0.00     0.214 C 
BRANCH   3   8
ATOM      8  C   UNL     1      48.785  14.651  63.134  1.00  0.00     0.073 C 
ATOM      9  O   UNL     1      49.863  14.854  62.513  1.00  0.00    -0.547 OA
ATOM     10  O   UNL     1      47.571  14.806  62.471  1.00  0.00    -0.547 OA
ENDBRANCH   3   8
BRANCH   4  11
ATOM     11  O   UNL     1      49.291  11.895  63.912  1.00  0.00    -0.387 OA
ATOM     12  H   UNL     1      48.973  10.956  63.989  1.00  0.00     0.211 HD
ENDBRANCH   4  11
BRANCH   6  13
ATOM     13  O   UNL     1      48.181  10.875  66.200  1.00  0.00    -0.387 OA
ATOM     14  H   UNL     1      48.961  10.474  66.667  1.00  0.00     0.211 HD
ENDBRANCH   6  13
BRANCH   7  15
ATOM     15  O   UNL     1      49.745  12.347  68.136  1.00  0.00    -0.384 OA
ATOM     16  H   UNL     1      50.086  11.425  68.266  1.00  0.00     0.211 HD
ENDBRANCH   7  15
ENDBRANCH   1   2
BRANCH   1  17
ATOM     17  C   UNL     1      49.324  15.365  68.562  1.00  0.00     0.172 A 
ATOM     18  C   UNL     1      49.566  16.717  68.853  1.00  0.00     0.201 A 
ATOM     19  C   UNL     1      49.180  14.453  69.620  1.00  0.00     0.098 A 
ATOM     20  C   UNL     1      49.659  17.166  70.180  1.00  0.00     0.176 A 
ATOM     21  C   UNL     1      49.304  14.873  70.945  1.00  0.00     0.146 A 
ATOM     22  C   UNL     1      49.572  16.231  71.251  1.00  0.00     0.111 A 
ATOM     23  O   UNL     1      49.170  13.970  71.911  1.00  0.00    -0.456 OA
ATOM     24  C   UNL     1      49.764  16.552  72.616  1.00  0.00     0.197 A 
ATOM     25  C   UNL     1      49.282  14.259  73.203  1.00  0.00     0.138 A 
ATOM     26  C   UNL     1      49.595  15.568  73.591  1.00  0.00     0.100 A 
ATOM     27  O   UNL     1      50.125  17.699  72.987  1.00  0.00    -0.289 OA
BRANCH  18  28
ATOM     28  O   UNL     1      49.695  17.649  67.820  1.00  0.00    -0.502 OA
ATOM     29  H   UNL     1      48.925  18.235  67.515  1.00  0.00     0.293 HD
ENDBRANCH  18  28
BRANCH  20  30
ATOM     30  O   UNL     1      49.802  18.545  70.369  1.00  0.00    -0.504 OA
ATOM     31  H   UNL     1      50.544  18.979  70.897  1.00  0.00     0.293 HD
ENDBRANCH  20  30
BRANCH  25  32
ATOM     32  C   UNL     1      49.095  13.175  74.198  1.00  0.00     0.017 A 
ATOM     33  C   UNL     1      48.532  11.950  73.794  1.00  0.00     0.012 A 
ATOM     34  C   UNL     1      49.436  13.354  75.553  1.00  0.00     0.012 A 
ATOM     35  C   UNL     1      48.332  10.922  74.720  1.00  0.00     0.001 A 
ATOM     36  C   UNL     1      49.231  12.323  76.475  1.00  0.00     0.001 A 
ATOM     37  C   UNL     1      48.680  11.108  76.059  1.00  0.00     0.000 A 
ENDBRANCH  25  32
ENDBRANCH   1  17
TORSDOF 9
ENDMDL
