MODEL 1
REMARK VINA RESULT:    -5.923      0.000      0.000
REMARK INTER + INTRA:          -8.206
REMARK INTER:                  -8.001
REMARK INTRA:                  -0.205
REMARK UNBOUND:                -0.205
REMARK SMILES [NH3+]CCCC[C@@H]([NH3+])C(=O)[O-]
REMARK SMILES IDX 4 1 3 2 2 3 1 4 5 8 6 9 7 10 8 14 9 15 10 16
REMARK H PARENT 1 5 1 6 1 7 7 11 7 12 7 13
REMARK Flexibility Score: inf
ROOT
ATOM      1  C   UNL     1      14.057 -11.418 -16.187  1.00  0.00     0.012 C 
ENDROOT
BRANCH   1   2
ATOM      2  C   UNL     1      13.982 -11.253 -14.664  1.00  0.00     0.061 C 
BRANCH   2   3
ATOM      3  C   UNL     1      15.379 -11.312 -14.031  1.00  0.00     0.258 C 
BRANCH   3   4
ATOM      4  N   UNL     1      15.824  -9.980 -13.623  1.00  0.00    -0.358 N 
ATOM      5  H   UNL     1      15.018  -9.314 -13.630  1.00  0.00     0.344 HD
ATOM      6  H   UNL     1      16.572  -9.639 -14.268  1.00  0.00     0.344 HD
ATOM      7  H   UNL     1      16.212 -10.032 -12.653  1.00  0.00     0.344 HD
ENDBRANCH   3   4
ENDBRANCH   2   3
ENDBRANCH   1   2
BRANCH   1   8
ATOM      8  C   UNL     1      14.209 -10.055 -16.881  1.00  0.00     0.072 C 
BRANCH   8   9
ATOM      9  C   UNL     1      15.477  -9.973 -17.760  1.00  0.00     0.227 C 
BRANCH   9  10
ATOM     10  N   UNL     1      16.478 -10.973 -17.364  1.00  0.00    -0.350 N 
ATOM     11  H   UNL     1      16.031 -11.758 -16.836  1.00  0.00     0.345 HD
ATOM     12  H   UNL     1      16.949 -11.360 -18.215  1.00  0.00     0.345 HD
ATOM     13  H   UNL     1      17.215 -10.531 -16.772  1.00  0.00     0.345 HD
ENDBRANCH   9  10
BRANCH   9  14
ATOM     14  C   UNL     1      15.098 -10.166 -19.204  1.00  0.00     0.099 C 
ATOM     15  O   UNL     1      15.936  -9.933 -20.115  1.00  0.00    -0.544 OA
ATOM     16  O   UNL     1      13.816 -10.583 -19.542  1.00  0.00    -0.544 OA
ENDBRANCH   9  14
ENDBRANCH   8   9
ENDBRANCH   1   8
TORSDOF 7
ENDMDL
MODEL 2
REMARK VINA RESULT:    -5.837      1.993      2.302
REMARK INTER + INTRA:          -8.089
REMARK INTER:                  -7.893
REMARK INTRA:                  -0.197
REMARK UNBOUND:                -0.205
REMARK SMILES [NH3+]CCCC[C@@H]([NH3+])C(=O)[O-]
REMARK SMILES IDX 4 1 3 2 2 3 1 4 5 8 6 9 7 10 8 14 9 15 10 16
REMARK H PARENT 1 5 1 6 1 7 7 11 7 12 7 13
REMARK Flexibility Score: inf
ROOT
ATOM      1  C   UNL     1      15.103 -10.590 -15.965  1.00  0.00     0.012 C 
ENDROOT
BRANCH   1   2
ATOM      2  C   UNL     1      15.056 -11.351 -14.634  1.00  0.00     0.061 C 
BRANCH   2   3
ATOM      3  C   UNL     1      13.617 -11.465 -14.113  1.00  0.00     0.258 C 
BRANCH   3   4
ATOM      4  N   UNL     1      13.196 -12.863 -14.042  1.00  0.00    -0.358 N 
ATOM      5  H   UNL     1      12.944 -13.212 -14.995  1.00  0.00     0.344 HD
ATOM      6  H   UNL     1      12.375 -12.959 -13.401  1.00  0.00     0.344 HD
ATOM      7  H   UNL     1      13.985 -13.439 -13.668  1.00  0.00     0.344 HD
ENDBRANCH   3   4
ENDBRANCH   2   3
ENDBRANCH   1   2
BRANCH   1   8
ATOM      8  C   UNL     1      14.721 -11.507 -17.137  1.00  0.00     0.072 C 
BRANCH   8   9
ATOM      9  C   UNL     1      13.605 -10.907 -18.022  1.00  0.00     0.227 C 
BRANCH   9  10
ATOM     10  N   UNL     1      12.862  -9.852 -17.319  1.00  0.00    -0.350 N 
ATOM     11  H   UNL     1      13.444  -8.987 -17.224  1.00  0.00     0.345 HD
ATOM     12  H   UNL     1      11.989  -9.620 -17.848  1.00  0.00     0.345 HD
ATOM     13  H   UNL     1      12.575 -10.183 -16.371  1.00  0.00     0.345 HD
ENDBRANCH   9  10
BRANCH   9  14
ATOM     14  C   UNL     1      14.209 -10.357 -19.286  1.00  0.00     0.099 C 
ATOM     15  O   UNL     1      13.512 -10.253 -20.329  1.00  0.00    -0.544 OA
ATOM     16  O   UNL     1      15.547  -9.979 -19.316  1.00  0.00    -0.544 OA
ENDBRANCH   9  14
ENDBRANCH   8   9
ENDBRANCH   1   8
TORSDOF 7
ENDMDL
MODEL 3
REMARK VINA RESULT:    -5.836      2.784      4.679
REMARK INTER + INTRA:          -8.088
REMARK INTER:                  -7.873
REMARK INTRA:                  -0.215
REMARK UNBOUND:                -0.205
REMARK SMILES [NH3+]CCCC[C@@H]([NH3+])C(=O)[O-]
REMARK SMILES IDX 4 1 3 2 2 3 1 4 5 8 6 9 7 10 8 14 9 15 10 16
REMARK H PARENT 1 5 1 6 1 7 7 11 7 12 7 13
REMARK Flexibility Score: inf
ROOT
ATOM      1  C   UNL     1      14.022 -10.093 -18.492  1.00  0.00     0.012 C 
ENDROOT
BRANCH   1   2
ATOM      2  C   UNL     1      14.301 -10.281 -19.989  1.00  0.00     0.061 C 
BRANCH   2   3
ATOM      3  C   UNL     1      15.753  -9.919 -20.330  1.00  0.00     0.258 C 
BRANCH   3   4
ATOM      4  N   UNL     1      16.508 -11.106 -20.728  1.00  0.00    -0.358 N 
ATOM      5  H   UNL     1      17.046 -11.481 -19.913  1.00  0.00     0.344 HD
ATOM      6  H   UNL     1      17.165 -10.869 -21.507  1.00  0.00     0.344 HD
ATOM      7  H   UNL     1      15.842 -11.840 -21.060  1.00  0.00     0.344 HD
ENDBRANCH   3   4
ENDBRANCH   2   3
ENDBRANCH   1   2
BRANCH   1   8
ATOM      8  C   UNL     1      14.487 -11.316 -17.688  1.00  0.00     0.072 C 
BRANCH   8   9
ATOM      9  C   UNL     1      15.529 -10.956 -16.604  1.00  0.00     0.227 C 
BRANCH   9  10
ATOM     10  N   UNL     1      16.057  -9.597 -16.790  1.00  0.00    -0.350 N 
ATOM     11  H   UNL     1      15.306  -8.948 -17.124  1.00  0.00     0.345 HD
ATOM     12  H   UNL     1      16.439  -9.238 -15.884  1.00  0.00     0.345 HD
ATOM     13  H   UNL     1      16.840  -9.606 -17.479  1.00  0.00     0.345 HD
ENDBRANCH   9  10
BRANCH   9  14
ATOM     14  C   UNL     1      14.899 -11.083 -15.243  1.00  0.00     0.099 C 
ATOM     15  O   UNL     1      13.646 -11.068 -15.120  1.00  0.00    -0.544 OA
ATOM     16  O   UNL     1      15.697 -11.196 -14.110  1.00  0.00    -0.544 OA
ENDBRANCH   9  14
ENDBRANCH   8   9
ENDBRANCH   1   8
TORSDOF 7
ENDMDL
MODEL 4
REMARK VINA RESULT:    -5.757      3.128      4.889
REMARK INTER + INTRA:          -7.981
REMARK INTER:                  -7.766
REMARK INTRA:                  -0.215
REMARK UNBOUND:                -0.205
REMARK SMILES [NH3+]CCCC[C@@H]([NH3+])C(=O)[O-]
REMARK SMILES IDX 4 1 3 2 2 3 1 4 5 8 6 9 7 10 8 14 9 15 10 16
REMARK H PARENT 1 5 1 6 1 7 7 11 7 12 7 13
REMARK Flexibility Score: inf
ROOT
ATOM      1  C   UNL     1      15.391 -10.722 -18.151  1.00  0.00     0.012 C 
ENDROOT
BRANCH   1   2
ATOM      2  C   UNL     1      15.245  -9.989 -19.491  1.00  0.00     0.061 C 
BRANCH   2   3
ATOM      3  C   UNL     1      13.912 -10.335 -20.168  1.00  0.00     0.258 C 
BRANCH   3   4
ATOM      4  N   UNL     1      13.116  -9.131 -20.402  1.00  0.00    -0.358 N 
ATOM      5  H   UNL     1      12.383  -9.319 -21.125  1.00  0.00     0.344 HD
ATOM      6  H   UNL     1      13.733  -8.348 -20.718  1.00  0.00     0.344 HD
ATOM      7  H   UNL     1      12.647  -8.852 -19.510  1.00  0.00     0.344 HD
ENDBRANCH   3   4
ENDBRANCH   2   3
ENDBRANCH   1   2
BRANCH   1   8
ATOM      8  C   UNL     1      14.608 -10.004 -17.042  1.00  0.00     0.072 C 
BRANCH   8   9
ATOM      9  C   UNL     1      13.641 -10.946 -16.289  1.00  0.00     0.227 C 
BRANCH   9  10
ATOM     10  N   UNL     1      13.424 -12.200 -17.023  1.00  0.00    -0.350 N 
ATOM     11  H   UNL     1      12.888 -12.028 -17.905  1.00  0.00     0.345 HD
ATOM     12  H   UNL     1      14.346 -12.634 -17.264  1.00  0.00     0.345 HD
ATOM     13  H   UNL     1      12.904 -12.881 -16.427  1.00  0.00     0.345 HD
ENDBRANCH   9  10
BRANCH   9  14
ATOM     14  C   UNL     1      14.192 -11.238 -14.919  1.00  0.00     0.099 C 
ATOM     15  O   UNL     1      13.430 -11.642 -14.002  1.00  0.00    -0.544 OA
ATOM     16  O   UNL     1      15.543 -11.045 -14.652  1.00  0.00    -0.544 OA
ENDBRANCH   9  14
ENDBRANCH   8   9
ENDBRANCH   1   8
TORSDOF 7
ENDMDL
MODEL 5
REMARK VINA RESULT:    -5.601      1.681      1.798
REMARK INTER + INTRA:          -7.771
REMARK INTER:                  -7.608
REMARK INTRA:                  -0.162
REMARK UNBOUND:                -0.205
REMARK SMILES [NH3+]CCCC[C@@H]([NH3+])C(=O)[O-]
REMARK SMILES IDX 4 1 3 2 2 3 1 4 5 8 6 9 7 10 8 14 9 15 10 16
REMARK H PARENT 1 5 1 6 1 7 7 11 7 12 7 13
REMARK Flexibility Score: inf
ROOT
ATOM      1  C   UNL     1      13.931 -11.306 -15.522  1.00  0.00     0.012 C 
ENDROOT
BRANCH   1   2
ATOM      2  C   UNL     1      15.229 -10.661 -15.019  1.00  0.00     0.061 C 
BRANCH   2   3
ATOM      3  C   UNL     1      15.659 -11.261 -13.674  1.00  0.00     0.258 C 
BRANCH   3   4
ATOM      4  N   UNL     1      16.499 -10.324 -12.928  1.00  0.00    -0.358 N 
ATOM      5  H   UNL     1      16.688  -9.473 -13.505  1.00  0.00     0.344 HD
ATOM      6  H   UNL     1      17.402 -10.782 -12.666  1.00  0.00     0.344 HD
ATOM      7  H   UNL     1      15.999 -10.038 -12.055  1.00  0.00     0.344 HD
ENDBRANCH   3   4
ENDBRANCH   2   3
ENDBRANCH   1   2
BRANCH   1   8
ATOM      8  C   UNL     1      14.089 -11.806 -16.966  1.00  0.00     0.072 C 
BRANCH   8   9
ATOM      9  C   UNL     1      13.335 -10.923 -17.987  1.00  0.00     0.227 C 
BRANCH   9  10
ATOM     10  N   UNL     1      12.640  -9.807 -17.331  1.00  0.00    -0.350 N 
ATOM     11  H   UNL     1      13.183  -9.465 -16.504  1.00  0.00     0.345 HD
ATOM     12  H   UNL     1      12.518  -9.018 -18.008  1.00  0.00     0.345 HD
ATOM     13  H   UNL     1      11.689 -10.106 -17.023  1.00  0.00     0.345 HD
ENDBRANCH   9  10
BRANCH   9  14
ATOM     14  C   UNL     1      14.308 -10.396 -19.007  1.00  0.00     0.099 C 
ATOM     15  O   UNL     1      15.449 -10.001 -18.650  1.00  0.00    -0.544 OA
ATOM     16  O   UNL     1      13.947 -10.322 -20.348  1.00  0.00    -0.544 OA
ENDBRANCH   9  14
ENDBRANCH   8   9
ENDBRANCH   1   8
TORSDOF 7
ENDMDL
MODEL 6
REMARK VINA RESULT:    -5.523      3.289      4.985
REMARK INTER + INTRA:          -7.666
REMARK INTER:                  -7.579
REMARK INTRA:                  -0.087
REMARK UNBOUND:                -0.205
REMARK SMILES [NH3+]CCCC[C@@H]([NH3+])C(=O)[O-]
REMARK SMILES IDX 4 1 3 2 2 3 1 4 5 8 6 9 7 10 8 14 9 15 10 16
REMARK H PARENT 1 5 1 6 1 7 7 11 7 12 7 13
REMARK Flexibility Score: inf
ROOT
ATOM      1  C   UNL     1      14.980  -9.917 -17.973  1.00  0.00     0.012 C 
ENDROOT
BRANCH   1   2
ATOM      2  C   UNL     1      15.312 -10.767 -19.206  1.00  0.00     0.061 C 
BRANCH   2   3
ATOM      3  C   UNL     1      15.780  -9.888 -20.373  1.00  0.00     0.258 C 
BRANCH   3   4
ATOM      4  N   UNL     1      16.853 -10.541 -21.122  1.00  0.00    -0.358 N 
ATOM      5  H   UNL     1      17.476  -9.823 -21.558  1.00  0.00     0.344 HD
ATOM      6  H   UNL     1      16.449 -11.157 -21.864  1.00  0.00     0.344 HD
ATOM      7  H   UNL     1      17.419 -11.127 -20.468  1.00  0.00     0.344 HD
ENDBRANCH   3   4
ENDBRANCH   2   3
ENDBRANCH   1   2
BRANCH   1   8
ATOM      8  C   UNL     1      15.257 -10.695 -16.677  1.00  0.00     0.072 C 
BRANCH   8   9
ATOM      9  C   UNL     1      13.962 -11.173 -15.981  1.00  0.00     0.227 C 
BRANCH   9  10
ATOM     10  N   UNL     1      13.403 -12.366 -16.633  1.00  0.00    -0.350 N 
ATOM     11  H   UNL     1      14.147 -12.890 -17.151  1.00  0.00     0.345 HD
ATOM     12  H   UNL     1      12.979 -12.997 -15.915  1.00  0.00     0.345 HD
ATOM     13  H   UNL     1      12.646 -12.092 -17.297  1.00  0.00     0.345 HD
ENDBRANCH   9  10
BRANCH   9  14
ATOM     14  C   UNL     1      14.251 -11.465 -14.533  1.00  0.00     0.099 C 
ATOM     15  O   UNL     1      15.423 -11.356 -14.086  1.00  0.00    -0.544 OA
ATOM     16  O   UNL     1      13.230 -11.877 -13.684  1.00  0.00    -0.544 OA
ENDBRANCH   9  14
ENDBRANCH   8   9
ENDBRANCH   1   8
TORSDOF 7
ENDMDL
MODEL 7
REMARK VINA RESULT:    -5.166      2.282      2.629
REMARK INTER + INTRA:          -7.183
REMARK INTER:                  -6.761
REMARK INTRA:                  -0.422
REMARK UNBOUND:                -0.205
REMARK SMILES [NH3+]CCCC[C@@H]([NH3+])C(=O)[O-]
REMARK SMILES IDX 4 1 3 2 2 3 1 4 5 8 6 9 7 10 8 14 9 15 10 16
REMARK H PARENT 1 5 1 6 1 7 7 11 7 12 7 13
REMARK Flexibility Score: inf
ROOT
ATOM      1  C   UNL     1      16.015 -10.756 -17.003  1.00  0.00     0.012 C 
ENDROOT
BRANCH   1   2
ATOM      2  C   UNL     1      14.844 -10.673 -16.016  1.00  0.00     0.061 C 
BRANCH   2   3
ATOM      3  C   UNL     1      13.649 -11.502 -16.504  1.00  0.00     0.258 C 
BRANCH   3   4
ATOM      4  N   UNL     1      12.522 -10.639 -16.855  1.00  0.00    -0.358 N 
ATOM      5  H   UNL     1      11.656 -10.961 -16.363  1.00  0.00     0.344 HD
ATOM      6  H   UNL     1      12.368 -10.652 -17.889  1.00  0.00     0.344 HD
ATOM      7  H   UNL     1      12.735  -9.660 -16.557  1.00  0.00     0.344 HD
ENDBRANCH   3   4
ENDBRANCH   2   3
ENDBRANCH   1   2
BRANCH   1   8
ATOM      8  C   UNL     1      15.565 -11.358 -18.342  1.00  0.00     0.072 C 
BRANCH   8   9
ATOM      9  C   UNL     1      15.578 -10.327 -19.493  1.00  0.00     0.227 C 
BRANCH   9  10
ATOM     10  N   UNL     1      16.250 -10.855 -20.689  1.00  0.00    -0.350 N 
ATOM     11  H   UNL     1      16.358 -11.894 -20.626  1.00  0.00     0.345 HD
ATOM     12  H   UNL     1      15.691 -10.621 -21.542  1.00  0.00     0.345 HD
ATOM     13  H   UNL     1      17.189 -10.414 -20.798  1.00  0.00     0.345 HD
ENDBRANCH   9  10
BRANCH   9  14
ATOM     14  C   UNL     1      14.164  -9.933 -19.828  1.00  0.00     0.099 C 
ATOM     15  O   UNL     1      13.592 -10.424 -20.836  1.00  0.00    -0.544 OA
ATOM     16  O   UNL     1      13.488  -9.009 -19.039  1.00  0.00    -0.544 OA
ENDBRANCH   9  14
ENDBRANCH   8   9
ENDBRANCH   1   8
TORSDOF 7
ENDMDL
MODEL 8
REMARK VINA RESULT:    -4.740      2.757      4.192
REMARK INTER + INTRA:          -6.608
REMARK INTER:                  -6.138
REMARK INTRA:                  -0.470
REMARK UNBOUND:                -0.205
REMARK SMILES [NH3+]CCCC[C@@H]([NH3+])C(=O)[O-]
REMARK SMILES IDX 4 1 3 2 2 3 1 4 5 8 6 9 7 10 8 14 9 15 10 16
REMARK H PARENT 1 5 1 6 1 7 7 11 7 12 7 13
REMARK Flexibility Score: inf
ROOT
ATOM      1  C   UNL     1      14.464 -10.021 -20.022  1.00  0.00     0.012 C 
ENDROOT
BRANCH   1   2
ATOM      2  C   UNL     1      15.872 -10.356 -19.512  1.00  0.00     0.061 C 
BRANCH   2   3
ATOM      3  C   UNL     1      16.084 -11.873 -19.432  1.00  0.00     0.258 C 
BRANCH   3   4
ATOM      4  N   UNL     1      16.500 -12.273 -18.088  1.00  0.00    -0.358 N 
ATOM      5  H   UNL     1      16.937 -11.462 -17.591  1.00  0.00     0.344 HD
ATOM      6  H   UNL     1      17.181 -13.064 -18.143  1.00  0.00     0.344 HD
ATOM      7  H   UNL     1      15.661 -12.587 -17.549  1.00  0.00     0.344 HD
ENDBRANCH   3   4
ENDBRANCH   2   3
ENDBRANCH   1   2
BRANCH   1   8
ATOM      8  C   UNL     1      13.394 -10.453 -19.007  1.00  0.00     0.072 C 
BRANCH   8   9
ATOM      9  C   UNL     1      13.638  -9.866 -17.599  1.00  0.00     0.227 C 
BRANCH   9  10
ATOM     10  N   UNL     1      12.617  -8.871 -17.241  1.00  0.00    -0.350 N 
ATOM     11  H   UNL     1      11.720  -9.061 -17.746  1.00  0.00     0.345 HD
ATOM     12  H   UNL     1      12.440  -8.899 -16.210  1.00  0.00     0.345 HD
ATOM     13  H   UNL     1      12.952  -7.911 -17.476  1.00  0.00     0.345 HD
ENDBRANCH   9  10
BRANCH   9  14
ATOM     14  C   UNL     1      13.648 -10.981 -16.587  1.00  0.00     0.099 C 
ATOM     15  O   UNL     1      13.708 -10.719 -15.356  1.00  0.00    -0.544 OA
ATOM     16  O   UNL     1      13.610 -12.306 -17.004  1.00  0.00    -0.544 OA
ENDBRANCH   9  14
ENDBRANCH   8   9
ENDBRANCH   1   8
TORSDOF 7
ENDMDL
MODEL 9
REMARK VINA RESULT:    -4.309      2.216      4.213
REMARK INTER + INTRA:          -6.026
REMARK INTER:                  -6.075
REMARK INTRA:                   0.049
REMARK UNBOUND:                -0.205
REMARK SMILES [NH3+]CCCC[C@@H]([NH3+])C(=O)[O-]
REMARK SMILES IDX 4 1 3 2 2 3 1 4 5 8 6 9 7 10 8 14 9 15 10 16
REMARK H PARENT 1 5 1 6 1 7 7 11 7 12 7 13
REMARK Flexibility Score: inf
ROOT
ATOM      1  C   UNL     1      14.908  -9.481 -18.048  1.00  0.00     0.012 C 
ENDROOT
BRANCH   1   2
ATOM      2  C   UNL     1      13.825  -9.499 -19.134  1.00  0.00     0.061 C 
BRANCH   2   3
ATOM      3  C   UNL     1      14.310 -10.241 -20.386  1.00  0.00     0.258 C 
BRANCH   3   4
ATOM      4  N   UNL     1      15.723 -10.597 -20.269  1.00  0.00    -0.358 N 
ATOM      5  H   UNL     1      16.321  -9.758 -20.452  1.00  0.00     0.344 HD
ATOM      6  H   UNL     1      15.960 -11.356 -20.949  1.00  0.00     0.344 HD
ATOM      7  H   UNL     1      15.910 -10.941 -19.300  1.00  0.00     0.344 HD
ENDBRANCH   3   4
ENDBRANCH   2   3
ENDBRANCH   1   2
BRANCH   1   8
ATOM      8  C   UNL     1      14.285  -9.576 -16.647  1.00  0.00     0.072 C 
BRANCH   8   9
ATOM      9  C   UNL     1      14.496 -10.961 -15.995  1.00  0.00     0.227 C 
BRANCH   9  10
ATOM     10  N   UNL     1      13.424 -11.281 -15.041  1.00  0.00    -0.350 N 
ATOM     11  H   UNL     1      13.536 -10.732 -14.158  1.00  0.00     0.345 HD
ATOM     12  H   UNL     1      12.494 -11.059 -15.465  1.00  0.00     0.345 HD
ATOM     13  H   UNL     1      13.432 -12.301 -14.819  1.00  0.00     0.345 HD
ENDBRANCH   9  10
BRANCH   9  14
ATOM     14  C   UNL     1      14.562 -12.015 -17.068  1.00  0.00     0.099 C 
ATOM     15  O   UNL     1      13.544 -12.704 -17.343  1.00  0.00    -0.544 OA
ATOM     16  O   UNL     1      15.751 -12.248 -17.749  1.00  0.00    -0.544 OA
ENDBRANCH   9  14
ENDBRANCH   8   9
ENDBRANCH   1   8
TORSDOF 7
ENDMDL
