MODEL 1
REMARK VINA RESULT:    -2.988      0.000      0.000
REMARK INTER + INTRA:          -3.344
REMARK INTER:                  -3.337
REMARK INTRA:                  -0.007
REMARK UNBOUND:                -0.007
REMARK SMILES CCCC(=O)[O-]
REMARK SMILES IDX 3 1 4 2 5 3 6 4 2 5 1 6
REMARK H PARENT
REMARK Flexibility Score: inf
ROOT
ATOM      1  C   UNL     1     -10.450 -24.634  27.656  1.00  0.00     0.052 C 
ENDROOT
BRANCH   1   2
ATOM      2  C   UNL     1      -9.682 -25.909  27.516  1.00  0.00     0.041 C 
ATOM      3  O   UNL     1     -10.004 -26.749  26.636  1.00  0.00    -0.550 OA
ATOM      4  O   UNL     1      -8.581 -26.151  28.327  1.00  0.00    -0.550 OA
ENDBRANCH   1   2
BRANCH   1   5
ATOM      5  C   UNL     1     -10.476 -23.875  26.326  1.00  0.00     0.003 C 
ATOM      6  C   UNL     1     -11.172 -22.526  26.474  1.00  0.00     0.004 C 
ENDBRANCH   1   5
TORSDOF 2
ENDMDL
MODEL 2
REMARK VINA RESULT:    -2.785      2.525      3.611
REMARK INTER + INTRA:          -3.118
REMARK INTER:                  -3.067
REMARK INTRA:                  -0.051
REMARK UNBOUND:                -0.007
REMARK SMILES CCCC(=O)[O-]
REMARK SMILES IDX 3 1 4 2 5 3 6 4 2 5 1 6
REMARK H PARENT
REMARK Flexibility Score: inf
ROOT
ATOM      1  C   UNL     1      -8.683 -27.287  27.897  1.00  0.00     0.052 C 
ENDROOT
BRANCH   1   2
ATOM      2  C   UNL     1      -9.078 -25.889  28.247  1.00  0.00     0.041 C 
ATOM      3  O   UNL     1      -8.820 -25.424  29.388  1.00  0.00    -0.550 OA
ATOM      4  O   UNL     1      -9.690 -25.080  27.298  1.00  0.00    -0.550 OA
ENDBRANCH   1   2
BRANCH   1   5
ATOM      5  C   UNL     1      -9.677 -27.893  26.901  1.00  0.00     0.003 C 
ATOM      6  C   UNL     1     -10.929 -28.397  27.610  1.00  0.00     0.004 C 
ENDBRANCH   1   5
TORSDOF 2
ENDMDL
MODEL 3
REMARK VINA RESULT:    -2.783      3.466      3.828
REMARK INTER + INTRA:          -3.115
REMARK INTER:                  -3.107
REMARK INTRA:                  -0.008
REMARK UNBOUND:                -0.007
REMARK SMILES CCCC(=O)[O-]
REMARK SMILES IDX 3 1 4 2 5 3 6 4 2 5 1 6
REMARK H PARENT
REMARK Flexibility Score: inf
ROOT
ATOM      1  C   UNL     1      -8.891 -27.546  27.491  1.00  0.00     0.052 C 
ENDROOT
BRANCH   1   2
ATOM      2  C   UNL     1      -8.012 -26.886  28.505  1.00  0.00     0.041 C 
ATOM      3  O   UNL     1      -8.475 -25.987  29.255  1.00  0.00    -0.550 OA
ATOM      4  O   UNL     1      -6.694 -27.296  28.656  1.00  0.00    -0.550 OA
ENDBRANCH   1   2
BRANCH   1   5
ATOM      5  C   UNL     1     -10.295 -27.767  28.061  1.00  0.00     0.003 C 
ATOM      6  C   UNL     1     -11.087 -28.752  27.207  1.00  0.00     0.004 C 
ENDBRANCH   1   5
TORSDOF 2
ENDMDL
MODEL 4
REMARK VINA RESULT:    -2.759      1.529      2.498
REMARK INTER + INTRA:          -3.089
REMARK INTER:                  -3.055
REMARK INTRA:                  -0.034
REMARK UNBOUND:                -0.007
REMARK SMILES CCCC(=O)[O-]
REMARK SMILES IDX 3 1 4 2 5 3 6 4 2 5 1 6
REMARK H PARENT
REMARK Flexibility Score: inf
ROOT
ATOM      1  C   UNL     1      -8.852 -25.774  28.859  1.00  0.00     0.052 C 
ENDROOT
BRANCH   1   2
ATOM      2  C   UNL     1      -8.216 -26.948  28.186  1.00  0.00     0.041 C 
ATOM      3  O   UNL     1      -7.034 -27.276  28.468  1.00  0.00    -0.550 OA
ATOM      4  O   UNL     1      -8.945 -27.712  27.283  1.00  0.00    -0.550 OA
ENDBRANCH   1   2
BRANCH   1   5
ATOM      5  C   UNL     1     -10.291 -25.589  28.369  1.00  0.00     0.003 C 
ATOM      6  C   UNL     1     -10.378 -24.491  27.314  1.00  0.00     0.004 C 
ENDBRANCH   1   5
TORSDOF 2
ENDMDL
MODEL 5
REMARK VINA RESULT:    -2.741     11.524     12.414
REMARK INTER + INTRA:          -3.069
REMARK INTER:                  -3.033
REMARK INTRA:                  -0.036
REMARK UNBOUND:                -0.007
REMARK SMILES CCCC(=O)[O-]
REMARK SMILES IDX 3 1 4 2 5 3 6 4 2 5 1 6
REMARK H PARENT
REMARK Flexibility Score: inf
ROOT
ATOM      1  C   UNL     1     -16.748 -23.546  17.501  1.00  0.00     0.052 C 
ENDROOT
BRANCH   1   2
ATOM      2  C   UNL     1     -15.682 -22.550  17.174  1.00  0.00     0.041 C 
ATOM      3  O   UNL     1     -15.912 -21.622  16.355  1.00  0.00    -0.550 OA
ATOM      4  O   UNL     1     -14.448 -22.617  17.809  1.00  0.00    -0.550 OA
ENDBRANCH   1   2
BRANCH   1   5
ATOM      5  C   UNL     1     -17.916 -23.424  16.518  1.00  0.00     0.003 C 
ATOM      6  C   UNL     1     -19.221 -23.119  17.247  1.00  0.00     0.004 C 
ENDBRANCH   1   5
TORSDOF 2
ENDMDL
MODEL 6
REMARK VINA RESULT:    -2.718      2.479      3.326
REMARK INTER + INTRA:          -3.043
REMARK INTER:                  -2.999
REMARK INTRA:                  -0.044
REMARK UNBOUND:                -0.007
REMARK SMILES CCCC(=O)[O-]
REMARK SMILES IDX 3 1 4 2 5 3 6 4 2 5 1 6
REMARK H PARENT
REMARK Flexibility Score: inf
ROOT
ATOM      1  C   UNL     1      -9.236 -25.760  28.285  1.00  0.00     0.052 C 
ENDROOT
BRANCH   1   2
ATOM      2  C   UNL     1      -8.350 -26.960  28.186  1.00  0.00     0.041 C 
ATOM      3  O   UNL     1      -7.433 -27.142  29.029  1.00  0.00    -0.550 OA
ATOM      4  O   UNL     1      -8.566 -27.905  27.191  1.00  0.00    -0.550 OA
ENDBRANCH   1   2
BRANCH   1   5
ATOM      5  C   UNL     1      -9.356 -25.301  29.741  1.00  0.00     0.003 C 
ATOM      6  C   UNL     1     -10.528 -25.982  30.440  1.00  0.00     0.004 C 
ENDBRANCH   1   5
TORSDOF 2
ENDMDL
MODEL 7
REMARK VINA RESULT:    -2.684      2.032      2.415
REMARK INTER + INTRA:          -3.005
REMARK INTER:                  -2.947
REMARK INTRA:                  -0.058
REMARK UNBOUND:                -0.007
REMARK SMILES CCCC(=O)[O-]
REMARK SMILES IDX 3 1 4 2 5 3 6 4 2 5 1 6
REMARK H PARENT
REMARK Flexibility Score: inf
ROOT
ATOM      1  C   UNL     1     -10.384 -26.264  26.832  1.00  0.00     0.052 C 
ENDROOT
BRANCH   1   2
ATOM      2  C   UNL     1      -9.852 -27.635  27.101  1.00  0.00     0.041 C 
ATOM      3  O   UNL     1     -10.634 -28.620  27.147  1.00  0.00    -0.550 OA
ATOM      4  O   UNL     1      -8.486 -27.834  27.254  1.00  0.00    -0.550 OA
ENDBRANCH   1   2
BRANCH   1   5
ATOM      5  C   UNL     1      -9.648 -25.226  27.684  1.00  0.00     0.003 C 
ATOM      6  C   UNL     1     -10.089 -25.296  29.142  1.00  0.00     0.004 C 
ENDBRANCH   1   5
TORSDOF 2
ENDMDL
MODEL 8
REMARK VINA RESULT:    -2.675      2.283      3.390
REMARK INTER + INTRA:          -2.995
REMARK INTER:                  -2.980
REMARK INTRA:                  -0.015
REMARK UNBOUND:                -0.007
REMARK SMILES CCCC(=O)[O-]
REMARK SMILES IDX 3 1 4 2 5 3 6 4 2 5 1 6
REMARK H PARENT
REMARK Flexibility Score: inf
ROOT
ATOM      1  C   UNL     1     -10.352 -24.211  26.916  1.00  0.00     0.052 C 
ENDROOT
BRANCH   1   2
ATOM      2  C   UNL     1     -11.150 -24.182  25.652  1.00  0.00     0.041 C 
ATOM      3  O   UNL     1     -11.196 -25.196  24.907  1.00  0.00    -0.550 OA
ATOM      4  O   UNL     1     -11.884 -23.050  25.318  1.00  0.00    -0.550 OA
ENDBRANCH   1   2
BRANCH   1   5
ATOM      5  C   UNL     1     -10.236 -25.644  27.443  1.00  0.00     0.003 C 
ATOM      6  C   UNL     1      -9.071 -25.779  28.418  1.00  0.00     0.004 C 
ENDBRANCH   1   5
TORSDOF 2
ENDMDL
MODEL 9
REMARK VINA RESULT:    -2.629      3.821      4.765
REMARK INTER + INTRA:          -2.944
REMARK INTER:                  -2.871
REMARK INTRA:                  -0.072
REMARK UNBOUND:                -0.007
REMARK SMILES CCCC(=O)[O-]
REMARK SMILES IDX 3 1 4 2 5 3 6 4 2 5 1 6
REMARK H PARENT
REMARK Flexibility Score: inf
ROOT
ATOM      1  C   UNL     1      -9.644 -24.954  30.327  1.00  0.00     0.052 C 
ENDROOT
BRANCH   1   2
ATOM      2  C   UNL     1      -8.258 -24.911  30.887  1.00  0.00     0.041 C 
ATOM      3  O   UNL     1      -7.439 -25.829  30.621  1.00  0.00    -0.550 OA
ATOM      4  O   UNL     1      -7.854 -23.832  31.663  1.00  0.00    -0.550 OA
ENDBRANCH   1   2
BRANCH   1   5
ATOM      5  C   UNL     1     -10.400 -26.174  30.860  1.00  0.00     0.003 C 
ATOM      6  C   UNL     1     -10.594 -26.086  32.370  1.00  0.00     0.004 C 
ENDBRANCH   1   5
TORSDOF 2
ENDMDL
