MODEL 1
REMARK VINA RESULT:    -3.435      0.000      0.000
REMARK INTER + INTRA:          -5.962
REMARK INTER:                  -5.242
REMARK INTRA:                  -0.720
REMARK UNBOUND:                -0.720
REMARK SMILES O=C([O-])CCCCCCCCC(=O)[O-]
REMARK SMILES IDX 7 1 6 2 5 3 4 4 2 5 1 6 3 7 8 8 9 9 10 10 11 11 12 12 13 13
REMARK SMILES IDX 14 14
REMARK H PARENT
REMARK Flexibility Score: inf
ROOT
ATOM      1  C   UNL     1      -7.190  -1.988  -4.754  1.00  0.00     0.000 C 
ENDROOT
BRANCH   1   2
ATOM      2  C   UNL     1      -6.222  -1.765  -5.927  1.00  0.00     0.000 C 
BRANCH   2   3
ATOM      3  C   UNL     1      -4.966  -0.983  -5.516  1.00  0.00     0.006 C 
BRANCH   3   4
ATOM      4  C   UNL     1      -3.962  -0.915  -6.672  1.00  0.00     0.053 C 
BRANCH   4   5
ATOM      5  C   UNL     1      -2.670  -1.561  -6.282  1.00  0.00     0.041 C 
ATOM      6  O   UNL     1      -2.641  -2.779  -5.962  1.00  0.00    -0.550 OA
ATOM      7  O   UNL     1      -1.505  -0.806  -6.224  1.00  0.00    -0.550 OA
ENDBRANCH   4   5
ENDBRANCH   3   4
ENDBRANCH   2   3
ENDBRANCH   1   2
BRANCH   1   8
ATOM      8  C   UNL     1      -6.544  -1.702  -3.390  1.00  0.00     0.000 C 
BRANCH   8   9
ATOM      9  C   UNL     1      -6.230  -3.007  -2.648  1.00  0.00     0.000 C 
BRANCH   9  10
ATOM     10  C   UNL     1      -4.714  -3.186  -2.466  1.00  0.00     0.006 C 
BRANCH  10  11
ATOM     11  C   UNL     1      -4.167  -4.363  -3.283  1.00  0.00     0.053 C 
BRANCH  11  12
ATOM     12  C   UNL     1      -3.306  -5.263  -2.452  1.00  0.00     0.041 C 
ATOM     13  O   UNL     1      -2.069  -5.339  -2.673  1.00  0.00    -0.550 OA
ATOM     14  O   UNL     1      -3.865  -5.993  -1.410  1.00  0.00    -0.550 OA
ENDBRANCH  11  12
ENDBRANCH  10  11
ENDBRANCH   9  10
ENDBRANCH   8   9
ENDBRANCH   1   8
TORSDOF 9
ENDMDL
MODEL 2
REMARK VINA RESULT:    -3.340      0.761      1.325
REMARK INTER + INTRA:          -5.818
REMARK INTER:                  -5.144
REMARK INTRA:                  -0.673
REMARK UNBOUND:                -0.720
REMARK SMILES O=C([O-])CCCCCCCCC(=O)[O-]
REMARK SMILES IDX 7 1 6 2 5 3 4 4 2 5 1 6 3 7 8 8 9 9 10 10 11 11 12 12 13 13
REMARK SMILES IDX 14 14
REMARK H PARENT
REMARK Flexibility Score: inf
ROOT
ATOM      1  C   UNL     1      -6.663  -1.895  -5.804  1.00  0.00     0.000 C 
ENDROOT
BRANCH   1   2
ATOM      2  C   UNL     1      -5.420  -1.047  -6.119  1.00  0.00     0.000 C 
BRANCH   2   3
ATOM      3  C   UNL     1      -4.449  -1.754  -7.076  1.00  0.00     0.006 C 
BRANCH   3   4
ATOM      4  C   UNL     1      -3.212  -0.889  -7.337  1.00  0.00     0.053 C 
BRANCH   4   5
ATOM      5  C   UNL     1      -2.025  -1.439  -6.611  1.00  0.00     0.041 C 
ATOM      6  O   UNL     1      -1.090  -0.675  -6.253  1.00  0.00    -0.550 OA
ATOM      7  O   UNL     1      -1.928  -2.804  -6.372  1.00  0.00    -0.550 OA
ENDBRANCH   4   5
ENDBRANCH   3   4
ENDBRANCH   2   3
ENDBRANCH   1   2
BRANCH   1   8
ATOM      8  C   UNL     1      -6.820  -2.179  -4.303  1.00  0.00     0.000 C 
BRANCH   8   9
ATOM      9  C   UNL     1      -5.613  -1.653  -3.516  1.00  0.00     0.000 C 
BRANCH   9  10
ATOM     10  C   UNL     1      -4.950  -2.779  -2.707  1.00  0.00     0.006 C 
BRANCH  10  11
ATOM     11  C   UNL     1      -4.294  -3.832  -3.608  1.00  0.00     0.053 C 
BRANCH  11  12
ATOM     12  C   UNL     1      -3.407  -4.754  -2.830  1.00  0.00     0.041 C 
ATOM     13  O   UNL     1      -2.181  -4.835  -3.101  1.00  0.00    -0.550 OA
ATOM     14  O   UNL     1      -3.930  -5.501  -1.782  1.00  0.00    -0.550 OA
ENDBRANCH  11  12
ENDBRANCH  10  11
ENDBRANCH   9  10
ENDBRANCH   8   9
ENDBRANCH   1   8
TORSDOF 9
ENDMDL
MODEL 3
REMARK VINA RESULT:    -3.339      1.107      5.050
REMARK INTER + INTRA:          -5.817
REMARK INTER:                  -5.122
REMARK INTRA:                  -0.695
REMARK UNBOUND:                -0.720
REMARK SMILES O=C([O-])CCCCCCCCC(=O)[O-]
REMARK SMILES IDX 7 1 6 2 5 3 4 4 2 5 1 6 3 7 8 8 9 9 10 10 11 11 12 12 13 13
REMARK SMILES IDX 14 14
REMARK H PARENT
REMARK Flexibility Score: inf
ROOT
ATOM      1  C   UNL     1      -6.689  -2.126  -4.866  1.00  0.00     0.000 C 
ENDROOT
BRANCH   1   2
ATOM      2  C   UNL     1      -5.675  -1.606  -3.834  1.00  0.00     0.000 C 
BRANCH   2   3
ATOM      3  C   UNL     1      -5.221  -2.695  -2.851  1.00  0.00     0.006 C 
BRANCH   3   4
ATOM      4  C   UNL     1      -4.307  -3.711  -3.543  1.00  0.00     0.053 C 
BRANCH   4   5
ATOM      5  C   UNL     1      -3.774  -4.697  -2.553  1.00  0.00     0.041 C 
ATOM      6  O   UNL     1      -2.537  -4.919  -2.481  1.00  0.00    -0.550 OA
ATOM      7  O   UNL     1      -4.649  -5.408  -1.741  1.00  0.00    -0.550 OA
ENDBRANCH   4   5
ENDBRANCH   3   4
ENDBRANCH   2   3
ENDBRANCH   1   2
BRANCH   1   8
ATOM      8  C   UNL     1      -6.221  -1.913  -6.314  1.00  0.00     0.000 C 
BRANCH   8   9
ATOM      9  C   UNL     1      -5.416  -0.614  -6.445  1.00  0.00     0.000 C 
BRANCH   9  10
ATOM     10  C   UNL     1      -4.142  -0.838  -7.275  1.00  0.00     0.006 C 
BRANCH  10  11
ATOM     11  C   UNL     1      -2.990  -1.398  -6.430  1.00  0.00     0.053 C 
BRANCH  11  12
ATOM     12  C   UNL     1      -1.655  -1.048  -7.011  1.00  0.00     0.041 C 
ATOM     13  O   UNL     1      -1.462  -1.127  -8.252  1.00  0.00    -0.550 OA
ATOM     14  O   UNL     1      -0.632  -0.602  -6.183  1.00  0.00    -0.550 OA
ENDBRANCH  11  12
ENDBRANCH  10  11
ENDBRANCH   9  10
ENDBRANCH   8   9
ENDBRANCH   1   8
TORSDOF 9
ENDMDL
MODEL 4
REMARK VINA RESULT:    -3.270      4.765      7.067
REMARK INTER + INTRA:          -5.711
REMARK INTER:                  -4.903
REMARK INTRA:                  -0.808
REMARK UNBOUND:                -0.720
REMARK SMILES O=C([O-])CCCCCCCCC(=O)[O-]
REMARK SMILES IDX 7 1 6 2 5 3 4 4 2 5 1 6 3 7 8 8 9 9 10 10 11 11 12 12 13 13
REMARK SMILES IDX 14 14
REMARK H PARENT
REMARK Flexibility Score: inf
ROOT
ATOM      1  C   UNL     1       0.034   1.423  -9.014  1.00  0.00     0.000 C 
ENDROOT
BRANCH   1   2
ATOM      2  C   UNL     1      -0.984   0.559  -9.776  1.00  0.00     0.000 C 
BRANCH   2   3
ATOM      3  C   UNL     1      -2.161   0.116  -8.895  1.00  0.00     0.006 C 
BRANCH   3   4
ATOM      4  C   UNL     1      -1.868  -1.231  -8.227  1.00  0.00     0.053 C 
BRANCH   4   5
ATOM      5  C   UNL     1      -1.738  -1.065  -6.747  1.00  0.00     0.041 C 
ATOM      6  O   UNL     1      -0.698  -0.553  -6.254  1.00  0.00    -0.550 OA
ATOM      7  O   UNL     1      -2.746  -1.520  -5.905  1.00  0.00    -0.550 OA
ENDBRANCH   4   5
ENDBRANCH   3   4
ENDBRANCH   2   3
ENDBRANCH   1   2
BRANCH   1   8
ATOM      8  C   UNL     1       1.478   0.928  -9.187  1.00  0.00     0.000 C 
BRANCH   8   9
ATOM      9  C   UNL     1       1.546  -0.602  -9.103  1.00  0.00     0.000 C 
BRANCH   9  10
ATOM     10  C   UNL     1       2.603  -1.050  -8.081  1.00  0.00     0.006 C 
BRANCH  10  11
ATOM     11  C   UNL     1       2.137  -2.256  -7.256  1.00  0.00     0.053 C 
BRANCH  11  12
ATOM     12  C   UNL     1       2.639  -2.192  -5.847  1.00  0.00     0.041 C 
ATOM     13  O   UNL     1       3.765  -1.686  -5.596  1.00  0.00    -0.550 OA
ATOM     14  O   UNL     1       1.848  -2.660  -4.805  1.00  0.00    -0.550 OA
ENDBRANCH  11  12
ENDBRANCH  10  11
ENDBRANCH   9  10
ENDBRANCH   8   9
ENDBRANCH   1   8
TORSDOF 9
ENDMDL
MODEL 5
REMARK VINA RESULT:    -3.209      1.112      4.533
REMARK INTER + INTRA:          -5.618
REMARK INTER:                  -4.715
REMARK INTRA:                  -0.903
REMARK UNBOUND:                -0.720
REMARK SMILES O=C([O-])CCCCCCCCC(=O)[O-]
REMARK SMILES IDX 7 1 6 2 5 3 4 4 2 5 1 6 3 7 8 8 9 9 10 10 11 11 12 12 13 13
REMARK SMILES IDX 14 14
REMARK H PARENT
REMARK Flexibility Score: inf
ROOT
ATOM      1  C   UNL     1      -7.190  -4.119  -4.940  1.00  0.00     0.000 C 
ENDROOT
BRANCH   1   2
ATOM      2  C   UNL     1      -6.762  -4.489  -3.511  1.00  0.00     0.000 C 
BRANCH   2   3
ATOM      3  C   UNL     1      -5.401  -5.198  -3.465  1.00  0.00     0.006 C 
BRANCH   3   4
ATOM      4  C   UNL     1      -4.431  -4.459  -2.536  1.00  0.00     0.053 C 
BRANCH   4   5
ATOM      5  C   UNL     1      -3.251  -5.322  -2.219  1.00  0.00     0.041 C 
ATOM      6  O   UNL     1      -2.205  -5.247  -2.918  1.00  0.00    -0.550 OA
ATOM      7  O   UNL     1      -3.321  -6.243  -1.182  1.00  0.00    -0.550 OA
ENDBRANCH   4   5
ENDBRANCH   3   4
ENDBRANCH   2   3
ENDBRANCH   1   2
BRANCH   1   8
ATOM      8  C   UNL     1      -7.106  -2.609  -5.211  1.00  0.00     0.000 C 
BRANCH   8   9
ATOM      9  C   UNL     1      -6.643  -1.853  -3.959  1.00  0.00     0.000 C 
BRANCH   9  10
ATOM     10  C   UNL     1      -5.245  -1.249  -4.167  1.00  0.00     0.006 C 
BRANCH  10  11
ATOM     11  C   UNL     1      -4.797  -1.314  -5.632  1.00  0.00     0.053 C 
BRANCH  11  12
ATOM     12  C   UNL     1      -3.484  -2.018  -5.781  1.00  0.00     0.041 C 
ATOM     13  O   UNL     1      -3.424  -3.273  -5.707  1.00  0.00    -0.550 OA
ATOM     14  O   UNL     1      -2.328  -1.288  -6.033  1.00  0.00    -0.550 OA
ENDBRANCH  11  12
ENDBRANCH  10  11
ENDBRANCH   9  10
ENDBRANCH   8   9
ENDBRANCH   1   8
TORSDOF 9
ENDMDL
MODEL 6
REMARK VINA RESULT:    -3.203      9.542     12.217
REMARK INTER + INTRA:          -5.609
REMARK INTER:                  -5.127
REMARK INTRA:                  -0.483
REMARK UNBOUND:                -0.720
REMARK SMILES O=C([O-])CCCCCCCCC(=O)[O-]
REMARK SMILES IDX 7 1 6 2 5 3 4 4 2 5 1 6 3 7 8 8 9 9 10 10 11 11 12 12 13 13
REMARK SMILES IDX 14 14
REMARK H PARENT
REMARK Flexibility Score: inf
ROOT
ATOM      1  C   UNL     1       6.427   1.399  -5.630  1.00  0.00     0.000 C 
ENDROOT
BRANCH   1   2
ATOM      2  C   UNL     1       5.399   0.256  -5.632  1.00  0.00     0.000 C 
BRANCH   2   3
ATOM      3  C   UNL     1       5.348  -0.497  -4.295  1.00  0.00     0.006 C 
BRANCH   3   4
ATOM      4  C   UNL     1       4.612  -1.832  -4.447  1.00  0.00     0.053 C 
BRANCH   4   5
ATOM      5  C   UNL     1       3.454  -1.903  -3.503  1.00  0.00     0.041 C 
ATOM      6  O   UNL     1       3.610  -1.617  -2.286  1.00  0.00    -0.550 OA
ATOM      7  O   UNL     1       2.213  -2.331  -3.956  1.00  0.00    -0.550 OA
ENDBRANCH   4   5
ENDBRANCH   3   4
ENDBRANCH   2   3
ENDBRANCH   1   2
BRANCH   1   8
ATOM      8  C   UNL     1       7.510   1.218  -4.556  1.00  0.00     0.000 C 
BRANCH   8   9
ATOM      9  C   UNL     1       7.818   2.549  -3.858  1.00  0.00     0.000 C 
BRANCH   9  10
ATOM     10  C   UNL     1       6.639   3.525  -3.989  1.00  0.00     0.006 C 
BRANCH  10  11
ATOM     11  C   UNL     1       7.013   4.949  -3.559  1.00  0.00     0.053 C 
BRANCH  11  12
ATOM     12  C   UNL     1       6.136   5.443  -2.451  1.00  0.00     0.041 C 
ATOM     13  O   UNL     1       4.905   5.622  -2.646  1.00  0.00    -0.550 OA
ATOM     14  O   UNL     1       6.673   5.674  -1.190  1.00  0.00    -0.550 OA
ENDBRANCH  11  12
ENDBRANCH  10  11
ENDBRANCH   9  10
ENDBRANCH   8   9
ENDBRANCH   1   8
TORSDOF 9
ENDMDL
MODEL 7
REMARK VINA RESULT:    -3.182      1.548      2.566
REMARK INTER + INTRA:          -5.577
REMARK INTER:                  -4.888
REMARK INTRA:                  -0.689
REMARK UNBOUND:                -0.720
REMARK SMILES O=C([O-])CCCCCCCCC(=O)[O-]
REMARK SMILES IDX 7 1 6 2 5 3 4 4 2 5 1 6 3 7 8 8 9 9 10 10 11 11 12 12 13 13
REMARK SMILES IDX 14 14
REMARK H PARENT
REMARK Flexibility Score: inf
ROOT
ATOM      1  C   UNL     1      -6.019  -1.385  -7.183  1.00  0.00     0.000 C 
ENDROOT
BRANCH   1   2
ATOM      2  C   UNL     1      -4.787  -0.502  -7.437  1.00  0.00     0.000 C 
BRANCH   2   3
ATOM      3  C   UNL     1      -3.719  -1.207  -8.287  1.00  0.00     0.006 C 
BRANCH   3   4
ATOM      4  C   UNL     1      -2.340  -0.578  -8.063  1.00  0.00     0.053 C 
BRANCH   4   5
ATOM      5  C   UNL     1      -1.682  -1.173  -6.858  1.00  0.00     0.041 C 
ATOM      6  O   UNL     1      -0.765  -0.548  -6.263  1.00  0.00    -0.550 OA
ATOM      7  O   UNL     1      -2.048  -2.440  -6.421  1.00  0.00    -0.550 OA
ENDBRANCH   4   5
ENDBRANCH   3   4
ENDBRANCH   2   3
ENDBRANCH   1   2
BRANCH   1   8
ATOM      8  C   UNL     1      -6.282  -1.618  -5.688  1.00  0.00     0.000 C 
BRANCH   8   9
ATOM      9  C   UNL     1      -5.120  -1.089  -4.838  1.00  0.00     0.000 C 
BRANCH   9  10
ATOM     10  C   UNL     1      -4.549  -2.196  -3.937  1.00  0.00     0.006 C 
BRANCH  10  11
ATOM     11  C   UNL     1      -5.550  -2.644  -2.865  1.00  0.00     0.053 C 
BRANCH  11  12
ATOM     12  C   UNL     1      -5.609  -4.136  -2.749  1.00  0.00     0.041 C 
ATOM     13  O   UNL     1      -6.320  -4.807  -3.543  1.00  0.00    -0.550 OA
ATOM     14  O   UNL     1      -4.851  -4.789  -1.785  1.00  0.00    -0.550 OA
ENDBRANCH  11  12
ENDBRANCH  10  11
ENDBRANCH   9  10
ENDBRANCH   8   9
ENDBRANCH   1   8
TORSDOF 9
ENDMDL
MODEL 8
REMARK VINA RESULT:    -3.135      7.462      9.858
REMARK INTER + INTRA:          -5.506
REMARK INTER:                  -4.451
REMARK INTRA:                  -1.055
REMARK UNBOUND:                -0.720
REMARK SMILES O=C([O-])CCCCCCCCC(=O)[O-]
REMARK SMILES IDX 7 1 6 2 5 3 4 4 2 5 1 6 3 7 8 8 9 9 10 10 11 11 12 12 13 13
REMARK SMILES IDX 14 14
REMARK H PARENT
REMARK Flexibility Score: inf
ROOT
ATOM      1  C   UNL     1       5.971  -0.212  -6.183  1.00  0.00     0.000 C 
ENDROOT
BRANCH   1   2
ATOM      2  C   UNL     1       5.728   0.484  -4.834  1.00  0.00     0.000 C 
BRANCH   2   3
ATOM      3  C   UNL     1       5.323  -0.499  -3.725  1.00  0.00     0.006 C 
BRANCH   3   4
ATOM      4  C   UNL     1       6.162  -1.779  -3.796  1.00  0.00     0.053 C 
BRANCH   4   5
ATOM      5  C   UNL     1       5.580  -2.836  -2.911  1.00  0.00     0.041 C 
ATOM      6  O   UNL     1       4.901  -2.514  -1.900  1.00  0.00    -0.550 OA
ATOM      7  O   UNL     1       5.828  -4.177  -3.175  1.00  0.00    -0.550 OA
ENDBRANCH   4   5
ENDBRANCH   3   4
ENDBRANCH   2   3
ENDBRANCH   1   2
BRANCH   1   8
ATOM      8  C   UNL     1       4.917   0.157  -7.238  1.00  0.00     0.000 C 
BRANCH   8   9
ATOM      9  C   UNL     1       4.316  -1.102  -7.876  1.00  0.00     0.000 C 
BRANCH   9  10
ATOM     10  C   UNL     1       4.055  -2.185  -6.818  1.00  0.00     0.006 C 
BRANCH  10  11
ATOM     11  C   UNL     1       2.636  -2.101  -6.241  1.00  0.00     0.053 C 
BRANCH  11  12
ATOM     12  C   UNL     1       2.523  -2.830  -4.938  1.00  0.00     0.041 C 
ATOM     13  O   UNL     1       2.207  -2.211  -3.888  1.00  0.00    -0.550 OA
ATOM     14  O   UNL     1       2.733  -4.203  -4.890  1.00  0.00    -0.550 OA
ENDBRANCH  11  12
ENDBRANCH  10  11
ENDBRANCH   9  10
ENDBRANCH   8   9
ENDBRANCH   1   8
TORSDOF 9
ENDMDL
MODEL 9
REMARK VINA RESULT:    -3.105      1.490      4.945
REMARK INTER + INTRA:          -5.459
REMARK INTER:                  -4.947
REMARK INTRA:                  -0.512
REMARK UNBOUND:                -0.720
REMARK SMILES O=C([O-])CCCCCCCCC(=O)[O-]
REMARK SMILES IDX 7 1 6 2 5 3 4 4 2 5 1 6 3 7 8 8 9 9 10 10 11 11 12 12 13 13
REMARK SMILES IDX 14 14
REMARK H PARENT
REMARK Flexibility Score: inf
ROOT
ATOM      1  C   UNL     1      -4.542  -2.701  -4.251  1.00  0.00     0.000 C 
ENDROOT
BRANCH   1   2
ATOM      2  C   UNL     1      -4.527  -3.190  -2.794  1.00  0.00     0.000 C 
BRANCH   2   3
ATOM      3  C   UNL     1      -4.673  -4.714  -2.680  1.00  0.00     0.006 C 
BRANCH   3   4
ATOM      4  C   UNL     1      -3.343  -5.362  -2.281  1.00  0.00     0.053 C 
BRANCH   4   5
ATOM      5  C   UNL     1      -2.580  -5.784  -3.497  1.00  0.00     0.041 C 
ATOM      6  O   UNL     1      -2.635  -6.977  -3.898  1.00  0.00    -0.550 OA
ATOM      7  O   UNL     1      -1.769  -4.872  -4.160  1.00  0.00    -0.550 OA
ENDBRANCH   4   5
ENDBRANCH   3   4
ENDBRANCH   2   3
ENDBRANCH   1   2
BRANCH   1   8
ATOM      8  C   UNL     1      -5.201  -1.322  -4.406  1.00  0.00     0.000 C 
BRANCH   8   9
ATOM      9  C   UNL     1      -4.861  -0.701  -5.767  1.00  0.00     0.000 C 
BRANCH   9  10
ATOM     10  C   UNL     1      -4.030  -1.671  -6.622  1.00  0.00     0.006 C 
BRANCH  10  11
ATOM     11  C   UNL     1      -2.861  -0.969  -7.324  1.00  0.00     0.053 C 
BRANCH  11  12
ATOM     12  C   UNL     1      -1.541  -1.369  -6.738  1.00  0.00     0.041 C 
ATOM     13  O   UNL     1      -0.771  -0.498  -6.256  1.00  0.00    -0.550 OA
ATOM     14  O   UNL     1      -1.177  -2.709  -6.695  1.00  0.00    -0.550 OA
ENDBRANCH  11  12
ENDBRANCH  10  11
ENDBRANCH   9  10
ENDBRANCH   8   9
ENDBRANCH   1   8
TORSDOF 9
ENDMDL
