MODEL 1
REMARK VINA RESULT:    -3.678      0.000      0.000
REMARK INTER + INTRA:          -3.785
REMARK INTER:                  -3.785
REMARK INTRA:                   0.000
REMARK UNBOUND:                 0.000
REMARK SMILES Cc1ccccc1O
REMARK SMILES IDX 1 1 2 2 3 3 4 4 5 5 6 6 7 7 8 8
REMARK H PARENT 8 9
REMARK Flexibility Score: inf
ROOT
ATOM      1  C   UNL     1      47.021 -28.944 -30.996  1.00  0.00     0.048 C 
ATOM      2  C   UNL     1      48.464 -28.729 -31.360  1.00  0.00    -0.009 A 
ATOM      3  C   UNL     1      49.474 -29.299 -30.563  1.00  0.00     0.007 A 
ATOM      4  C   UNL     1      50.820 -29.110 -30.885  1.00  0.00     0.001 A 
ATOM      5  C   UNL     1      51.174 -28.352 -32.002  1.00  0.00     0.004 A 
ATOM      6  C   UNL     1      50.182 -27.780 -32.801  1.00  0.00     0.046 A 
ATOM      7  C   UNL     1      48.828 -27.960 -32.491  1.00  0.00     0.118 A 
ENDROOT
BRANCH   7   8
ATOM      8  O   UNL     1      47.873 -27.369 -33.321  1.00  0.00    -0.508 OA
ATOM      9  H   UNL     1      47.404 -27.869 -34.065  1.00  0.00     0.293 HD
ENDBRANCH   7   8
TORSDOF 1
ENDMDL
MODEL 2
REMARK VINA RESULT:    -3.645      0.900      2.690
REMARK INTER + INTRA:          -3.752
REMARK INTER:                  -3.752
REMARK INTRA:                   0.000
REMARK UNBOUND:                 0.000
REMARK SMILES Cc1ccccc1O
REMARK SMILES IDX 1 1 2 2 3 3 4 4 5 5 6 6 7 7 8 8
REMARK H PARENT 8 9
REMARK Flexibility Score: inf
ROOT
ATOM      1  C   UNL     1      51.003 -28.059 -31.977  1.00  0.00     0.048 C 
ATOM      2  C   UNL     1      49.594 -28.464 -31.643  1.00  0.00    -0.009 A 
ATOM      3  C   UNL     1      49.334 -29.148 -30.441  1.00  0.00     0.007 A 
ATOM      4  C   UNL     1      48.032 -29.533 -30.113  1.00  0.00     0.001 A 
ATOM      5  C   UNL     1      46.976 -29.242 -30.978  1.00  0.00     0.004 A 
ATOM      6  C   UNL     1      47.220 -28.565 -32.175  1.00  0.00     0.046 A 
ATOM      7  C   UNL     1      48.520 -28.173 -32.517  1.00  0.00     0.118 A 
ENDROOT
BRANCH   7   8
ATOM      8  O   UNL     1      48.713 -27.497 -33.724  1.00  0.00    -0.508 OA
ATOM      9  H   UNL     1      48.629 -26.492 -33.813  1.00  0.00     0.293 HD
ENDBRANCH   7   8
TORSDOF 1
ENDMDL
MODEL 3
REMARK VINA RESULT:    -3.626      1.923      3.202
REMARK INTER + INTRA:          -3.732
REMARK INTER:                  -3.732
REMARK INTRA:                   0.000
REMARK UNBOUND:                 0.000
REMARK SMILES Cc1ccccc1O
REMARK SMILES IDX 1 1 2 2 3 3 4 4 5 5 6 6 7 7 8 8
REMARK H PARENT 8 9
REMARK Flexibility Score: inf
ROOT
ATOM      1  C   UNL     1      52.247 -27.291 -31.986  1.00  0.00     0.048 C 
ATOM      2  C   UNL     1      50.744 -27.295 -31.929  1.00  0.00    -0.009 A 
ATOM      3  C   UNL     1      50.087 -26.626 -30.880  1.00  0.00     0.007 A 
ATOM      4  C   UNL     1      48.692 -26.618 -30.810  1.00  0.00     0.001 A 
ATOM      5  C   UNL     1      47.938 -27.276 -31.782  1.00  0.00     0.004 A 
ATOM      6  C   UNL     1      48.577 -27.943 -32.828  1.00  0.00     0.046 A 
ATOM      7  C   UNL     1      49.975 -27.961 -32.913  1.00  0.00     0.118 A 
ENDROOT
BRANCH   7   8
ATOM      8  O   UNL     1      50.567 -28.642 -33.978  1.00  0.00    -0.508 OA
ATOM      9  H   UNL     1      50.534 -29.649 -34.076  1.00  0.00     0.293 HD
ENDBRANCH   7   8
TORSDOF 1
ENDMDL
MODEL 4
REMARK VINA RESULT:    -3.604     16.482     17.773
REMARK INTER + INTRA:          -3.709
REMARK INTER:                  -3.709
REMARK INTRA:                   0.000
REMARK UNBOUND:                 0.000
REMARK SMILES Cc1ccccc1O
REMARK SMILES IDX 1 1 2 2 3 3 4 4 5 5 6 6 7 7 8 8
REMARK H PARENT 8 9
REMARK Flexibility Score: inf
ROOT
ATOM      1  C   UNL     1      38.025 -44.117 -27.722  1.00  0.00     0.048 C 
ATOM      2  C   UNL     1      38.226 -42.761 -28.340  1.00  0.00    -0.009 A 
ATOM      3  C   UNL     1      38.028 -41.606 -27.562  1.00  0.00     0.007 A 
ATOM      4  C   UNL     1      38.209 -40.337 -28.118  1.00  0.00     0.001 A 
ATOM      5  C   UNL     1      38.591 -40.206 -29.454  1.00  0.00     0.004 A 
ATOM      6  C   UNL     1      38.791 -41.344 -30.238  1.00  0.00     0.046 A 
ATOM      7  C   UNL     1      38.612 -42.623 -29.694  1.00  0.00     0.118 A 
ENDROOT
BRANCH   7   8
ATOM      8  O   UNL     1      38.826 -43.729 -30.519  1.00  0.00    -0.508 OA
ATOM      9  H   UNL     1      38.588 -44.675 -30.245  1.00  0.00     0.293 HD
ENDBRANCH   7   8
TORSDOF 1
ENDMDL
MODEL 5
REMARK VINA RESULT:    -3.572     16.169     17.798
REMARK INTER + INTRA:          -3.676
REMARK INTER:                  -3.676
REMARK INTRA:                   0.000
REMARK UNBOUND:                 0.000
REMARK SMILES Cc1ccccc1O
REMARK SMILES IDX 1 1 2 2 3 3 4 4 5 5 6 6 7 7 8 8
REMARK H PARENT 8 9
REMARK Flexibility Score: inf
ROOT
ATOM      1  C   UNL     1      38.615 -39.653 -29.132  1.00  0.00     0.048 C 
ATOM      2  C   UNL     1      38.426 -41.100 -28.770  1.00  0.00    -0.009 A 
ATOM      3  C   UNL     1      38.056 -41.445 -27.457  1.00  0.00     0.007 A 
ATOM      4  C   UNL     1      37.876 -42.784 -27.101  1.00  0.00     0.001 A 
ATOM      5  C   UNL     1      38.063 -43.792 -28.048  1.00  0.00     0.004 A 
ATOM      6  C   UNL     1      38.431 -43.463 -29.354  1.00  0.00     0.046 A 
ATOM      7  C   UNL     1      38.615 -42.125 -29.726  1.00  0.00     0.118 A 
ENDROOT
BRANCH   7   8
ATOM      8  O   UNL     1      38.982 -41.848 -31.045  1.00  0.00    -0.508 OA
ATOM      9  H   UNL     1      38.454 -41.228 -31.645  1.00  0.00     0.293 HD
ENDBRANCH   7   8
TORSDOF 1
ENDMDL
MODEL 6
REMARK VINA RESULT:    -3.502      1.831      2.114
REMARK INTER + INTRA:          -3.605
REMARK INTER:                  -3.605
REMARK INTRA:                   0.000
REMARK UNBOUND:                 0.000
REMARK SMILES Cc1ccccc1O
REMARK SMILES IDX 1 1 2 2 3 3 4 4 5 5 6 6 7 7 8 8
REMARK H PARENT 8 9
REMARK Flexibility Score: inf
ROOT
ATOM      1  C   UNL     1      47.288 -25.873 -30.142  1.00  0.00     0.048 C 
ATOM      2  C   UNL     1      48.255 -26.597 -31.037  1.00  0.00    -0.009 A 
ATOM      3  C   UNL     1      49.637 -26.490 -30.797  1.00  0.00     0.007 A 
ATOM      4  C   UNL     1      50.551 -27.154 -31.618  1.00  0.00     0.001 A 
ATOM      5  C   UNL     1      50.099 -27.931 -32.686  1.00  0.00     0.004 A 
ATOM      6  C   UNL     1      48.730 -28.045 -32.935  1.00  0.00     0.046 A 
ATOM      7  C   UNL     1      47.801 -27.385 -32.121  1.00  0.00     0.118 A 
ENDROOT
BRANCH   7   8
ATOM      8  O   UNL     1      46.443 -27.531 -32.411  1.00  0.00    -0.508 OA
ATOM      9  H   UNL     1      46.034 -27.249 -33.292  1.00  0.00     0.293 HD
ENDBRANCH   7   8
TORSDOF 1
ENDMDL
MODEL 7
REMARK VINA RESULT:    -3.488     14.329     15.117
REMARK INTER + INTRA:          -3.590
REMARK INTER:                  -3.590
REMARK INTRA:                   0.000
REMARK UNBOUND:                 0.000
REMARK SMILES Cc1ccccc1O
REMARK SMILES IDX 1 1 2 2 3 3 4 4 5 5 6 6 7 7 8 8
REMARK H PARENT 8 9
REMARK Flexibility Score: inf
ROOT
ATOM      1  C   UNL     1      54.753 -39.383 -22.438  1.00  0.00     0.048 C 
ATOM      2  C   UNL     1      55.881 -38.711 -23.172  1.00  0.00    -0.009 A 
ATOM      3  C   UNL     1      55.943 -37.306 -23.214  1.00  0.00     0.007 A 
ATOM      4  C   UNL     1      56.983 -36.664 -23.891  1.00  0.00     0.001 A 
ATOM      5  C   UNL     1      57.970 -37.413 -24.531  1.00  0.00     0.004 A 
ATOM      6  C   UNL     1      57.921 -38.808 -24.497  1.00  0.00     0.046 A 
ATOM      7  C   UNL     1      56.884 -39.467 -23.823  1.00  0.00     0.118 A 
ENDROOT
BRANCH   7   8
ATOM      8  O   UNL     1      56.880 -40.863 -23.816  1.00  0.00    -0.508 OA
ATOM      9  H   UNL     1      56.935 -41.411 -22.967  1.00  0.00     0.293 HD
ENDBRANCH   7   8
TORSDOF 1
ENDMDL
MODEL 8
REMARK VINA RESULT:    -3.432      1.388      1.902
REMARK INTER + INTRA:          -3.533
REMARK INTER:                  -3.533
REMARK INTRA:                   0.000
REMARK UNBOUND:                 0.000
REMARK SMILES Cc1ccccc1O
REMARK SMILES IDX 1 1 2 2 3 3 4 4 5 5 6 6 7 7 8 8
REMARK H PARENT 8 9
REMARK Flexibility Score: inf
ROOT
ATOM      1  C   UNL     1      45.617 -29.493 -29.961  1.00  0.00     0.048 C 
ATOM      2  C   UNL     1      46.898 -29.094 -30.641  1.00  0.00    -0.009 A 
ATOM      3  C   UNL     1      48.131 -29.430 -30.052  1.00  0.00     0.007 A 
ATOM      4  C   UNL     1      49.331 -29.068 -30.668  1.00  0.00     0.001 A 
ATOM      5  C   UNL     1      49.316 -28.368 -31.875  1.00  0.00     0.004 A 
ATOM      6  C   UNL     1      48.100 -28.028 -32.470  1.00  0.00     0.046 A 
ATOM      7  C   UNL     1      46.888 -28.384 -31.864  1.00  0.00     0.118 A 
ENDROOT
BRANCH   7   8
ATOM      8  O   UNL     1      45.698 -28.021 -32.499  1.00  0.00    -0.508 OA
ATOM      9  H   UNL     1      45.265 -28.582 -33.222  1.00  0.00     0.293 HD
ENDBRANCH   7   8
TORSDOF 1
ENDMDL
MODEL 9
REMARK VINA RESULT:    -3.387     16.057     17.118
REMARK INTER + INTRA:          -3.486
REMARK INTER:                  -3.486
REMARK INTRA:                   0.000
REMARK UNBOUND:                 0.000
REMARK SMILES Cc1ccccc1O
REMARK SMILES IDX 1 1 2 2 3 3 4 4 5 5 6 6 7 7 8 8
REMARK H PARENT 8 9
REMARK Flexibility Score: inf
ROOT
ATOM      1  C   UNL     1      38.073 -40.455 -26.732  1.00  0.00     0.048 C 
ATOM      2  C   UNL     1      38.427 -41.263 -27.950  1.00  0.00    -0.009 A 
ATOM      3  C   UNL     1      38.075 -42.624 -28.007  1.00  0.00     0.007 A 
ATOM      4  C   UNL     1      38.395 -43.391 -29.129  1.00  0.00     0.001 A 
ATOM      5  C   UNL     1      39.068 -42.811 -30.205  1.00  0.00     0.004 A 
ATOM      6  C   UNL     1      39.423 -41.462 -30.162  1.00  0.00     0.046 A 
ATOM      7  C   UNL     1      39.110 -40.679 -29.043  1.00  0.00     0.118 A 
ENDROOT
BRANCH   7   8
ATOM      8  O   UNL     1      39.486 -39.335 -29.047  1.00  0.00    -0.508 OA
ATOM      9  H   UNL     1      40.227 -38.971 -29.634  1.00  0.00     0.293 HD
ENDBRANCH   7   8
TORSDOF 1
ENDMDL
