MODEL 1
REMARK VINA RESULT:    -3.379      0.000      0.000
REMARK INTER + INTRA:          -4.238
REMARK INTER:                  -4.170
REMARK INTRA:                  -0.068
REMARK UNBOUND:                -0.068
REMARK SMILES CCCCCC(=O)[O-]
REMARK SMILES IDX 4 1 5 2 6 3 7 4 8 5 3 6 2 7 1 8
REMARK H PARENT
REMARK Flexibility Score: inf
ROOT
ATOM      1  C   UNL     1       5.726   6.494  -2.643  1.00  0.00     0.006 C 
ENDROOT
BRANCH   1   2
ATOM      2  C   UNL     1       6.692   5.331  -2.386  1.00  0.00     0.053 C 
BRANCH   2   3
ATOM      3  C   UNL     1       7.801   5.297  -3.392  1.00  0.00     0.041 C 
ATOM      4  O   UNL     1       7.660   5.856  -4.512  1.00  0.00    -0.550 OA
ATOM      5  O   UNL     1       8.980   4.621  -3.104  1.00  0.00    -0.550 OA
ENDBRANCH   2   3
ENDBRANCH   1   2
BRANCH   1   6
ATOM      6  C   UNL     1       4.500   6.445  -1.715  1.00  0.00     0.000 C 
BRANCH   6   7
ATOM      7  C   UNL     1       3.181   6.676  -2.468  1.00  0.00    -0.003 C 
ATOM      8  C   UNL     1       2.201   5.513  -2.319  1.00  0.00     0.004 C 
ENDBRANCH   6   7
ENDBRANCH   1   6
TORSDOF 4
ENDMDL
MODEL 2
REMARK VINA RESULT:    -3.366     15.295     17.009
REMARK INTER + INTRA:          -4.221
REMARK INTER:                  -4.142
REMARK INTRA:                  -0.079
REMARK UNBOUND:                -0.068
REMARK SMILES CCCCCC(=O)[O-]
REMARK SMILES IDX 4 1 5 2 6 3 7 4 8 5 3 6 2 7 1 8
REMARK H PARENT
REMARK Flexibility Score: inf
ROOT
ATOM      1  C   UNL     1      -5.633  -6.400  -2.782  1.00  0.00     0.006 C 
ENDROOT
BRANCH   1   2
ATOM      2  C   UNL     1      -6.585  -5.225  -2.525  1.00  0.00     0.053 C 
BRANCH   2   3
ATOM      3  C   UNL     1      -7.765  -5.252  -3.447  1.00  0.00     0.041 C 
ATOM      4  O   UNL     1      -7.685  -5.832  -4.562  1.00  0.00    -0.550 OA
ATOM      5  O   UNL     1      -8.943  -4.611  -3.088  1.00  0.00    -0.550 OA
ENDBRANCH   2   3
ENDBRANCH   1   2
BRANCH   1   6
ATOM      6  C   UNL     1      -4.455  -6.420  -1.794  1.00  0.00     0.000 C 
BRANCH   6   7
ATOM      7  C   UNL     1      -3.101  -6.610  -2.493  1.00  0.00    -0.003 C 
ATOM      8  C   UNL     1      -2.251  -5.339  -2.495  1.00  0.00     0.004 C 
ENDBRANCH   6   7
ENDBRANCH   1   6
TORSDOF 4
ENDMDL
MODEL 3
REMARK VINA RESULT:    -3.364     14.600     15.882
REMARK INTER + INTRA:          -4.220
REMARK INTER:                  -4.081
REMARK INTRA:                  -0.139
REMARK UNBOUND:                -0.068
REMARK SMILES CCCCCC(=O)[O-]
REMARK SMILES IDX 4 1 5 2 6 3 7 4 8 5 3 6 2 7 1 8
REMARK H PARENT
REMARK Flexibility Score: inf
ROOT
ATOM      1  C   UNL     1      -3.108  -6.495  -2.522  1.00  0.00     0.006 C 
ENDROOT
BRANCH   1   2
ATOM      2  C   UNL     1      -4.491  -6.441  -1.862  1.00  0.00     0.053 C 
BRANCH   2   3
ATOM      3  C   UNL     1      -5.594  -6.516  -2.873  1.00  0.00     0.041 C 
ATOM      4  O   UNL     1      -6.581  -7.273  -2.679  1.00  0.00    -0.550 OA
ATOM      5  O   UNL     1      -5.516  -5.774  -4.044  1.00  0.00    -0.550 OA
ENDBRANCH   2   3
ENDBRANCH   1   2
BRANCH   1   6
ATOM      6  C   UNL     1      -2.155  -5.424  -1.964  1.00  0.00     0.000 C 
BRANCH   6   7
ATOM      7  C   UNL     1      -2.644  -4.839  -0.630  1.00  0.00    -0.003 C 
ATOM      8  C   UNL     1      -1.664  -5.082   0.518  1.00  0.00     0.004 C 
ENDBRANCH   6   7
ENDBRANCH   1   6
TORSDOF 4
ENDMDL
MODEL 4
REMARK VINA RESULT:    -3.344     14.384     15.964
REMARK INTER + INTRA:          -4.195
REMARK INTER:                  -4.010
REMARK INTRA:                  -0.184
REMARK UNBOUND:                -0.068
REMARK SMILES CCCCCC(=O)[O-]
REMARK SMILES IDX 4 1 5 2 6 3 7 4 8 5 3 6 2 7 1 8
REMARK H PARENT
REMARK Flexibility Score: inf
ROOT
ATOM      1  C   UNL     1      -4.130  -6.044  -1.394  1.00  0.00     0.006 C 
ENDROOT
BRANCH   1   2
ATOM      2  C   UNL     1      -5.275  -5.228  -2.007  1.00  0.00     0.053 C 
BRANCH   2   3
ATOM      3  C   UNL     1      -5.938  -5.959  -3.135  1.00  0.00     0.041 C 
ATOM      4  O   UNL     1      -6.546  -7.040  -2.919  1.00  0.00    -0.550 OA
ATOM      5  O   UNL     1      -5.858  -5.460  -4.428  1.00  0.00    -0.550 OA
ENDBRANCH   2   3
ENDBRANCH   1   2
BRANCH   1   6
ATOM      6  C   UNL     1      -3.070  -6.432  -2.439  1.00  0.00     0.000 C 
BRANCH   6   7
ATOM      7  C   UNL     1      -1.950  -5.389  -2.558  1.00  0.00    -0.003 C 
ATOM      8  C   UNL     1      -1.459  -4.887  -1.200  1.00  0.00     0.004 C 
ENDBRANCH   6   7
ENDBRANCH   1   6
TORSDOF 4
ENDMDL
MODEL 5
REMARK VINA RESULT:    -3.300      0.989      1.468
REMARK INTER + INTRA:          -4.140
REMARK INTER:                  -3.977
REMARK INTRA:                  -0.163
REMARK UNBOUND:                -0.068
REMARK SMILES CCCCCC(=O)[O-]
REMARK SMILES IDX 4 1 5 2 6 3 7 4 8 5 3 6 2 7 1 8
REMARK H PARENT
REMARK Flexibility Score: inf
ROOT
ATOM      1  C   UNL     1       5.237   5.312  -1.900  1.00  0.00     0.006 C 
ENDROOT
BRANCH   1   2
ATOM      2  C   UNL     1       6.689   5.503  -2.356  1.00  0.00     0.053 C 
BRANCH   2   3
ATOM      3  C   UNL     1       6.803   5.545  -3.849  1.00  0.00     0.041 C 
ATOM      4  O   UNL     1       7.896   5.854  -4.393  1.00  0.00    -0.550 OA
ATOM      5  O   UNL     1       5.693   5.274  -4.639  1.00  0.00    -0.550 OA
ENDBRANCH   2   3
ENDBRANCH   1   2
BRANCH   1   6
ATOM      6  C   UNL     1       4.505   6.652  -1.715  1.00  0.00     0.000 C 
BRANCH   6   7
ATOM      7  C   UNL     1       3.173   6.707  -2.477  1.00  0.00    -0.003 C 
ATOM      8  C   UNL     1       2.399   5.390  -2.414  1.00  0.00     0.004 C 
ENDBRANCH   6   7
ENDBRANCH   1   6
TORSDOF 4
ENDMDL
MODEL 6
REMARK VINA RESULT:    -3.286      2.002      2.943
REMARK INTER + INTRA:          -4.122
REMARK INTER:                  -3.976
REMARK INTRA:                  -0.146
REMARK UNBOUND:                -0.068
REMARK SMILES CCCCCC(=O)[O-]
REMARK SMILES IDX 4 1 5 2 6 3 7 4 8 5 3 6 2 7 1 8
REMARK H PARENT
REMARK Flexibility Score: inf
ROOT
ATOM      1  C   UNL     1       3.096   6.351  -2.280  1.00  0.00     0.006 C 
ENDROOT
BRANCH   1   2
ATOM      2  C   UNL     1       4.527   6.655  -1.820  1.00  0.00     0.053 C 
BRANCH   2   3
ATOM      3  C   UNL     1       5.521   6.459  -2.923  1.00  0.00     0.041 C 
ATOM      4  O   UNL     1       6.633   7.049  -2.887  1.00  0.00    -0.550 OA
ATOM      5  O   UNL     1       5.206   5.650  -4.006  1.00  0.00    -0.550 OA
ENDBRANCH   2   3
ENDBRANCH   1   2
BRANCH   1   6
ATOM      6  C   UNL     1       2.308   5.546  -1.233  1.00  0.00     0.000 C 
BRANCH   6   7
ATOM      7  C   UNL     1       3.220   4.879  -0.193  1.00  0.00    -0.003 C 
ATOM      8  C   UNL     1       2.815   5.202   1.246  1.00  0.00     0.004 C 
ENDBRANCH   6   7
ENDBRANCH   1   6
TORSDOF 4
ENDMDL
MODEL 7
REMARK VINA RESULT:    -3.237     15.923     17.098
REMARK INTER + INTRA:          -4.062
REMARK INTER:                  -4.001
REMARK INTRA:                  -0.061
REMARK UNBOUND:                -0.068
REMARK SMILES CCCCCC(=O)[O-]
REMARK SMILES IDX 4 1 5 2 6 3 7 4 8 5 3 6 2 7 1 8
REMARK H PARENT
REMARK Flexibility Score: inf
ROOT
ATOM      1  C   UNL     1      -4.437  -4.178   4.719  1.00  0.00     0.006 C 
ENDROOT
BRANCH   1   2
ATOM      2  C   UNL     1      -4.447  -3.413   6.049  1.00  0.00     0.053 C 
BRANCH   2   3
ATOM      3  C   UNL     1      -5.750  -3.568   6.771  1.00  0.00     0.041 C 
ATOM      4  O   UNL     1      -6.683  -2.746   6.578  1.00  0.00    -0.550 OA
ATOM      5  O   UNL     1      -5.922  -4.604   7.679  1.00  0.00    -0.550 OA
ENDBRANCH   2   3
ENDBRANCH   1   2
BRANCH   1   6
ATOM      6  C   UNL     1      -3.103  -4.905   4.478  1.00  0.00     0.000 C 
BRANCH   6   7
ATOM      7  C   UNL     1      -3.114  -5.746   3.192  1.00  0.00    -0.003 C 
ATOM      8  C   UNL     1      -2.957  -4.901   1.929  1.00  0.00     0.004 C 
ENDBRANCH   6   7
ENDBRANCH   1   6
TORSDOF 4
ENDMDL
MODEL 8
REMARK VINA RESULT:    -3.165     13.227     14.645
REMARK INTER + INTRA:          -3.974
REMARK INTER:                  -3.869
REMARK INTRA:                  -0.105
REMARK UNBOUND:                -0.068
REMARK SMILES CCCCCC(=O)[O-]
REMARK SMILES IDX 4 1 5 2 6 3 7 4 8 5 3 6 2 7 1 8
REMARK H PARENT
REMARK Flexibility Score: inf
ROOT
ATOM      1  C   UNL     1      -3.119  -6.442  -2.512  1.00  0.00     0.006 C 
ENDROOT
BRANCH   1   2
ATOM      2  C   UNL     1      -2.464  -5.055  -2.486  1.00  0.00     0.053 C 
BRANCH   2   3
ATOM      3  C   UNL     1      -1.338  -4.990  -1.500  1.00  0.00     0.041 C 
ATOM      4  O   UNL     1      -1.540  -5.262  -0.288  1.00  0.00    -0.550 OA
ATOM      5  O   UNL     1      -0.073  -4.598  -1.916  1.00  0.00    -0.550 OA
ENDBRANCH   2   3
ENDBRANCH   1   2
BRANCH   1   6
ATOM      6  C   UNL     1      -4.454  -6.468  -1.748  1.00  0.00     0.000 C 
BRANCH   6   7
ATOM      7  C   UNL     1      -5.671  -6.463  -2.686  1.00  0.00    -0.003 C 
ATOM      8  C   UNL     1      -6.582  -5.255  -2.469  1.00  0.00     0.004 C 
ENDBRANCH   6   7
ENDBRANCH   1   6
TORSDOF 4
ENDMDL
MODEL 9
REMARK VINA RESULT:    -3.158      7.670      8.315
REMARK INTER + INTRA:          -3.965
REMARK INTER:                  -3.922
REMARK INTRA:                  -0.043
REMARK UNBOUND:                -0.068
REMARK SMILES CCCCCC(=O)[O-]
REMARK SMILES IDX 4 1 5 2 6 3 7 4 8 5 3 6 2 7 1 8
REMARK H PARENT
REMARK Flexibility Score: inf
ROOT
ATOM      1  C   UNL     1       4.079   4.801   4.383  1.00  0.00     0.006 C 
ENDROOT
BRANCH   1   2
ATOM      2  C   UNL     1       4.379   3.693   5.401  1.00  0.00     0.053 C 
BRANCH   2   3
ATOM      3  C   UNL     1       5.799   3.741   5.874  1.00  0.00     0.041 C 
ATOM      4  O   UNL     1       6.735   3.385   5.110  1.00  0.00    -0.550 OA
ATOM      5  O   UNL     1       6.086   4.149   7.170  1.00  0.00    -0.550 OA
ENDBRANCH   2   3
ENDBRANCH   1   2
BRANCH   1   6
ATOM      6  C   UNL     1       2.668   5.387   4.561  1.00  0.00     0.000 C 
BRANCH   6   7
ATOM      7  C   UNL     1       2.288   6.361   3.436  1.00  0.00    -0.003 C 
ATOM      8  C   UNL     1       1.497   7.568   3.939  1.00  0.00     0.004 C 
ENDBRANCH   6   7
ENDBRANCH   1   6
TORSDOF 4
ENDMDL
