MODEL 1
REMARK VINA RESULT:    -5.323      0.000      0.000
REMARK INTER + INTRA:          -6.555
REMARK INTER:                  -6.256
REMARK INTRA:                  -0.299
REMARK UNBOUND:                -0.299
REMARK SMILES O=c1c(O)c(-c2ccc(O)c(O)c2)oc2cc(O)ccc12
REMARK SMILES IDX 5 1 3 2 2 3 1 4 21 5 15 6 14 7 16 8 17 9 19 10 20 11 6 12
REMARK SMILES IDX 7 13 8 14 9 15 13 16 11 17 10 18 12 20 4 22 18 24
REMARK H PARENT 10 19 12 21 4 23 18 25
REMARK Flexibility Score: inf
ROOT
ATOM      1  C   UNL     1     -13.238  26.412   9.910  1.00  0.00     0.180 A 
ATOM      2  C   UNL     1     -12.051  25.651   9.974  1.00  0.00     0.208 A 
ATOM      3  C   UNL     1     -12.148  24.263  10.160  1.00  0.00     0.235 A 
ATOM      4  O   UNL     1     -11.101  23.562  10.232  1.00  0.00    -0.285 OA
ATOM      5  C   UNL     1     -13.415  23.665  10.259  1.00  0.00     0.069 A 
ATOM      6  C   UNL     1     -14.553  24.493  10.161  1.00  0.00     0.142 A 
ATOM      7  O   UNL     1     -14.420  25.804   9.993  1.00  0.00    -0.452 OA
ATOM      8  C   UNL     1     -15.834  23.935  10.243  1.00  0.00     0.094 A 
ATOM      9  C   UNL     1     -15.992  22.557  10.425  1.00  0.00     0.119 A 
ATOM     10  C   UNL     1     -14.863  21.731  10.524  1.00  0.00     0.047 A 
ATOM     11  C   UNL     1     -13.580  22.280  10.441  1.00  0.00     0.020 A 
ENDROOT
BRANCH   1  12
ATOM     12  C   UNL     1     -13.220  27.882   9.734  1.00  0.00     0.025 A 
ATOM     13  C   UNL     1     -12.997  28.708  10.846  1.00  0.00     0.016 A 
ATOM     14  C   UNL     1     -12.955  30.097  10.700  1.00  0.00     0.051 A 
ATOM     15  C   UNL     1     -13.120  30.678   9.436  1.00  0.00     0.157 A 
ATOM     16  C   UNL     1     -13.364  28.469   8.463  1.00  0.00     0.062 A 
ATOM     17  C   UNL     1     -13.321  29.863   8.315  1.00  0.00     0.158 A 
BRANCH  15  18
ATOM     18  O   UNL     1     -13.081  32.063   9.285  1.00  0.00    -0.504 OA
ATOM     19  H   UNL     1     -12.280  32.528   8.873  1.00  0.00     0.293 HD
ENDBRANCH  15  18
BRANCH  17  20
ATOM     20  O   UNL     1     -13.471  30.443   7.057  1.00  0.00    -0.504 OA
ATOM     21  H   UNL     1     -13.052  31.338   6.831  1.00  0.00     0.293 HD
ENDBRANCH  17  20
ENDBRANCH   1  12
BRANCH   2  22
ATOM     22  O   UNL     1     -10.806  26.266   9.824  1.00  0.00    -0.502 OA
ATOM     23  H   UNL     1     -10.250  26.562  10.617  1.00  0.00     0.293 HD
ENDBRANCH   2  22
BRANCH   9  24
ATOM     24  O   UNL     1     -17.274  22.017  10.505  1.00  0.00    -0.508 OA
ATOM     25  H   UNL     1     -17.940  22.120   9.747  1.00  0.00     0.293 HD
ENDBRANCH   9  24
TORSDOF 5
ENDMDL
MODEL 2
REMARK VINA RESULT:    -5.052      3.180      8.520
REMARK INTER + INTRA:          -6.237
REMARK INTER:                  -6.684
REMARK INTRA:                   0.447
REMARK UNBOUND:                -0.299
REMARK SMILES O=c1c(O)c(-c2ccc(O)c(O)c2)oc2cc(O)ccc12
REMARK SMILES IDX 5 1 3 2 2 3 1 4 21 5 15 6 14 7 16 8 17 9 19 10 20 11 6 12
REMARK SMILES IDX 7 13 8 14 9 15 13 16 11 17 10 18 12 20 4 22 18 24
REMARK H PARENT 10 19 12 21 4 23 18 25
REMARK Flexibility Score: inf
ROOT
ATOM      1  C   UNL     1     -15.043  21.488  10.310  1.00  0.00     0.180 A 
ATOM      2  C   UNL     1     -16.012  22.478  10.574  1.00  0.00     0.208 A 
ATOM      3  C   UNL     1     -15.610  23.822  10.620  1.00  0.00     0.235 A 
ATOM      4  O   UNL     1     -16.456  24.726  10.866  1.00  0.00    -0.285 OA
ATOM      5  C   UNL     1     -14.265  24.149  10.384  1.00  0.00     0.069 A 
ATOM      6  C   UNL     1     -13.362  23.103  10.102  1.00  0.00     0.142 A 
ATOM      7  O   UNL     1     -13.780  21.841  10.076  1.00  0.00    -0.452 OA
ATOM      8  C   UNL     1     -12.015  23.388   9.851  1.00  0.00     0.094 A 
ATOM      9  C   UNL     1     -11.557  24.710   9.879  1.00  0.00     0.119 A 
ATOM     10  C   UNL     1     -12.452  25.753  10.159  1.00  0.00     0.047 A 
ATOM     11  C   UNL     1     -13.799  25.476  10.411  1.00  0.00     0.020 A 
ENDROOT
BRANCH   1  12
ATOM     12  C   UNL     1     -15.383  20.047  10.262  1.00  0.00     0.025 A 
ATOM     13  C   UNL     1     -14.354  19.094  10.276  1.00  0.00     0.016 A 
ATOM     14  C   UNL     1     -14.652  17.729  10.253  1.00  0.00     0.051 A 
ATOM     15  C   UNL     1     -15.985  17.299  10.232  1.00  0.00     0.157 A 
ATOM     16  C   UNL     1     -16.720  19.610  10.262  1.00  0.00     0.062 A 
ATOM     17  C   UNL     1     -17.021  18.240  10.240  1.00  0.00     0.158 A 
BRANCH  15  18
ATOM     18  O   UNL     1     -16.288  15.938  10.207  1.00  0.00    -0.504 OA
ATOM     19  H   UNL     1     -15.969  15.339   9.454  1.00  0.00     0.293 HD
ENDBRANCH  15  18
BRANCH  17  20
ATOM     20  O   UNL     1     -18.346  17.810  10.234  1.00  0.00    -0.504 OA
ATOM     21  H   UNL     1     -18.695  17.153  10.923  1.00  0.00     0.293 HD
ENDBRANCH  17  20
ENDBRANCH   1  12
BRANCH   2  22
ATOM     22  O   UNL     1     -17.351  22.127  10.757  1.00  0.00    -0.502 OA
ATOM     23  H   UNL     1     -17.813  22.203  11.655  1.00  0.00     0.293 HD
ENDBRANCH   2  22
BRANCH   9  24
ATOM     24  O   UNL     1     -10.214  24.976   9.627  1.00  0.00    -0.508 OA
ATOM     25  H   UNL     1      -9.826  25.905   9.749  1.00  0.00     0.293 HD
ENDBRANCH   9  24
TORSDOF 5
ENDMDL
MODEL 3
REMARK VINA RESULT:    -4.937      2.519      6.966
REMARK INTER + INTRA:          -6.101
REMARK INTER:                  -6.128
REMARK INTRA:                   0.027
REMARK UNBOUND:                -0.299
REMARK SMILES O=c1c(O)c(-c2ccc(O)c(O)c2)oc2cc(O)ccc12
REMARK SMILES IDX 5 1 3 2 2 3 1 4 21 5 15 6 14 7 16 8 17 9 19 10 20 11 6 12
REMARK SMILES IDX 7 13 8 14 9 15 13 16 11 17 10 18 12 20 4 22 18 24
REMARK H PARENT 10 19 12 21 4 23 18 25
REMARK Flexibility Score: inf
ROOT
ATOM      1  C   UNL     1     -12.843  27.815  10.399  1.00  0.00     0.180 A 
ATOM      2  C   UNL     1     -13.373  29.120  10.472  1.00  0.00     0.208 A 
ATOM      3  C   UNL     1     -12.491  30.201  10.620  1.00  0.00     0.235 A 
ATOM      4  O   UNL     1     -12.941  31.377  10.699  1.00  0.00    -0.285 OA
ATOM      5  C   UNL     1     -11.107  29.962  10.671  1.00  0.00     0.069 A 
ATOM      6  C   UNL     1     -10.655  28.630  10.567  1.00  0.00     0.142 A 
ATOM      7  O   UNL     1     -11.524  27.632  10.436  1.00  0.00    -0.452 OA
ATOM      8  C   UNL     1      -9.284  28.350  10.603  1.00  0.00     0.094 A 
ATOM      9  C   UNL     1      -8.357  29.388  10.744  1.00  0.00     0.119 A 
ATOM     10  C   UNL     1      -8.803  30.713  10.849  1.00  0.00     0.047 A 
ATOM     11  C   UNL     1     -10.170  31.001  10.813  1.00  0.00     0.020 A 
ENDROOT
BRANCH   1  12
ATOM     12  C   UNL     1     -13.708  26.621  10.261  1.00  0.00     0.025 A 
ATOM     13  C   UNL     1     -14.802  26.458  11.125  1.00  0.00     0.016 A 
ATOM     14  C   UNL     1     -15.644  25.351  11.001  1.00  0.00     0.051 A 
ATOM     15  C   UNL     1     -15.414  24.399   9.999  1.00  0.00     0.157 A 
ATOM     16  C   UNL     1     -13.492  25.673   9.244  1.00  0.00     0.062 A 
ATOM     17  C   UNL     1     -14.339  24.562   9.118  1.00  0.00     0.158 A 
BRANCH  15  18
ATOM     18  O   UNL     1     -16.250  23.290   9.872  1.00  0.00    -0.504 OA
ATOM     19  H   UNL     1     -16.129  22.467  10.450  1.00  0.00     0.293 HD
ENDBRANCH  15  18
BRANCH  17  20
ATOM     20  O   UNL     1     -14.120  23.620   8.113  1.00  0.00    -0.504 OA
ATOM     21  H   UNL     1     -13.408  22.905   8.202  1.00  0.00     0.293 HD
ENDBRANCH  17  20
ENDBRANCH   1  12
BRANCH   2  22
ATOM     22  O   UNL     1     -14.750  29.331  10.370  1.00  0.00    -0.502 OA
ATOM     23  H   UNL     1     -15.413  28.893  10.997  1.00  0.00     0.293 HD
ENDBRANCH   2  22
BRANCH   9  24
ATOM     24  O   UNL     1      -6.997  29.092  10.779  1.00  0.00    -0.508 OA
ATOM     25  H   UNL     1      -6.451  29.208  11.626  1.00  0.00     0.293 HD
ENDBRANCH   9  24
TORSDOF 5
ENDMDL
MODEL 4
REMARK VINA RESULT:    -4.856      0.998      1.550
REMARK INTER + INTRA:          -6.006
REMARK INTER:                  -6.121
REMARK INTRA:                   0.115
REMARK UNBOUND:                -0.299
REMARK SMILES O=c1c(O)c(-c2ccc(O)c(O)c2)oc2cc(O)ccc12
REMARK SMILES IDX 5 1 3 2 2 3 1 4 21 5 15 6 14 7 16 8 17 9 19 10 20 11 6 12
REMARK SMILES IDX 7 13 8 14 9 15 13 16 11 17 10 18 12 20 4 22 18 24
REMARK H PARENT 10 19 12 21 4 23 18 25
REMARK Flexibility Score: inf
ROOT
ATOM      1  C   UNL     1     -12.888  26.061  10.008  1.00  0.00     0.180 A 
ATOM      2  C   UNL     1     -11.780  25.192  10.094  1.00  0.00     0.208 A 
ATOM      3  C   UNL     1     -12.010  23.817  10.253  1.00  0.00     0.235 A 
ATOM      4  O   UNL     1     -11.035  23.020  10.343  1.00  0.00    -0.285 OA
ATOM      5  C   UNL     1     -13.329  23.338  10.304  1.00  0.00     0.069 A 
ATOM      6  C   UNL     1     -14.383  24.269  10.187  1.00  0.00     0.142 A 
ATOM      7  O   UNL     1     -14.123  25.565  10.045  1.00  0.00    -0.452 OA
ATOM      8  C   UNL     1     -15.711  23.831  10.222  1.00  0.00     0.094 A 
ATOM      9  C   UNL     1     -16.002  22.471  10.374  1.00  0.00     0.119 A 
ATOM     10  C   UNL     1     -14.957  21.543  10.492  1.00  0.00     0.047 A 
ATOM     11  C   UNL     1     -13.627  21.972  10.457  1.00  0.00     0.020 A 
ENDROOT
BRANCH   1  12
ATOM     12  C   UNL     1     -12.729  27.525   9.858  1.00  0.00     0.025 A 
ATOM     13  C   UNL     1     -13.620  28.236   9.039  1.00  0.00     0.016 A 
ATOM     14  C   UNL     1     -13.502  29.621   8.897  1.00  0.00     0.051 A 
ATOM     15  C   UNL     1     -12.501  30.317   9.587  1.00  0.00     0.157 A 
ATOM     16  C   UNL     1     -11.738  28.231  10.564  1.00  0.00     0.062 A 
ATOM     17  C   UNL     1     -11.620  29.622  10.425  1.00  0.00     0.158 A 
BRANCH  15  18
ATOM     18  O   UNL     1     -12.377  31.699   9.449  1.00  0.00    -0.504 OA
ATOM     19  H   UNL     1     -12.411  32.145   8.539  1.00  0.00     0.293 HD
ENDBRANCH  15  18
BRANCH  17  20
ATOM     20  O   UNL     1     -10.633  30.318  11.121  1.00  0.00    -0.504 OA
ATOM     21  H   UNL     1      -9.651  30.095  11.016  1.00  0.00     0.293 HD
ENDBRANCH  17  20
ENDBRANCH   1  12
BRANCH   2  22
ATOM     22  O   UNL     1     -10.479  25.692   9.991  1.00  0.00    -0.502 OA
ATOM     23  H   UNL     1      -9.704  25.121   9.678  1.00  0.00     0.293 HD
ENDBRANCH   2  22
BRANCH   9  24
ATOM     24  O   UNL     1     -17.329  22.052  10.408  1.00  0.00    -0.508 OA
ATOM     25  H   UNL     1     -17.880  22.103  11.258  1.00  0.00     0.293 HD
ENDBRANCH   9  24
TORSDOF 5
ENDMDL
MODEL 5
REMARK VINA RESULT:    -4.601      1.284      6.739
REMARK INTER + INTRA:          -5.706
REMARK INTER:                  -6.125
REMARK INTRA:                   0.419
REMARK UNBOUND:                -0.299
REMARK SMILES O=c1c(O)c(-c2ccc(O)c(O)c2)oc2cc(O)ccc12
REMARK SMILES IDX 5 1 3 2 2 3 1 4 21 5 15 6 14 7 16 8 17 9 19 10 20 11 6 12
REMARK SMILES IDX 7 13 8 14 9 15 13 16 11 17 10 18 12 20 4 22 18 24
REMARK H PARENT 10 19 12 21 4 23 18 25
REMARK Flexibility Score: inf
ROOT
ATOM      1  C   UNL     1     -13.155  24.274  10.263  1.00  0.00     0.180 A 
ATOM      2  C   UNL     1     -11.772  24.323  10.539  1.00  0.00     0.208 A 
ATOM      3  C   UNL     1     -11.113  25.560  10.473  1.00  0.00     0.235 A 
ATOM      4  O   UNL     1      -9.874  25.629  10.706  1.00  0.00    -0.285 OA
ATOM      5  C   UNL     1     -11.844  26.717  10.155  1.00  0.00     0.069 A 
ATOM      6  C   UNL     1     -13.229  26.587   9.915  1.00  0.00     0.142 A 
ATOM      7  O   UNL     1     -13.814  25.396   9.979  1.00  0.00    -0.452 OA
ATOM      8  C   UNL     1     -13.994  27.717   9.605  1.00  0.00     0.094 A 
ATOM      9  C   UNL     1     -13.393  28.977   9.529  1.00  0.00     0.119 A 
ATOM     10  C   UNL     1     -12.017  29.110   9.765  1.00  0.00     0.047 A 
ATOM     11  C   UNL     1     -11.245  27.987  10.077  1.00  0.00     0.020 A 
ENDROOT
BRANCH   1  12
ATOM     12  C   UNL     1     -13.918  23.006  10.294  1.00  0.00     0.025 A 
ATOM     13  C   UNL     1     -13.236  21.786  10.164  1.00  0.00     0.016 A 
ATOM     14  C   UNL     1     -13.933  20.576  10.210  1.00  0.00     0.051 A 
ATOM     15  C   UNL     1     -15.320  20.568  10.405  1.00  0.00     0.157 A 
ATOM     16  C   UNL     1     -15.308  22.992  10.510  1.00  0.00     0.062 A 
ATOM     17  C   UNL     1     -16.008  21.778  10.559  1.00  0.00     0.158 A 
BRANCH  15  18
ATOM     18  O   UNL     1     -16.020  19.364  10.451  1.00  0.00    -0.504 OA
ATOM     19  H   UNL     1     -16.782  19.170   9.811  1.00  0.00     0.293 HD
ENDBRANCH  15  18
BRANCH  17  20
ATOM     20  O   UNL     1     -17.387  21.767  10.767  1.00  0.00    -0.504 OA
ATOM     21  H   UNL     1     -18.014  21.270  10.145  1.00  0.00     0.293 HD
ENDBRANCH  17  20
ENDBRANCH   1  12
BRANCH   2  22
ATOM     22  O   UNL     1     -11.081  23.164  10.901  1.00  0.00    -0.502 OA
ATOM     23  H   UNL     1     -10.580  23.085  11.778  1.00  0.00     0.293 HD
ENDBRANCH   2  22
BRANCH   9  24
ATOM     24  O   UNL     1     -14.169  30.091   9.219  1.00  0.00    -0.508 OA
ATOM     25  H   UNL     1     -14.657  30.614   9.938  1.00  0.00     0.293 HD
ENDBRANCH   9  24
TORSDOF 5
ENDMDL
MODEL 6
REMARK VINA RESULT:    -4.550      2.394      7.594
REMARK INTER + INTRA:          -5.646
REMARK INTER:                  -5.833
REMARK INTRA:                   0.186
REMARK UNBOUND:                -0.299
REMARK SMILES O=c1c(O)c(-c2ccc(O)c(O)c2)oc2cc(O)ccc12
REMARK SMILES IDX 5 1 3 2 2 3 1 4 21 5 15 6 14 7 16 8 17 9 19 10 20 11 6 12
REMARK SMILES IDX 7 13 8 14 9 15 13 16 11 17 10 18 12 20 4 22 18 24
REMARK H PARENT 10 19 12 21 4 23 18 25
REMARK Flexibility Score: inf
ROOT
ATOM      1  C   UNL     1     -14.130  22.074  10.481  1.00  0.00     0.180 A 
ATOM      2  C   UNL     1     -12.791  21.759  10.790  1.00  0.00     0.208 A 
ATOM      3  C   UNL     1     -11.836  22.788  10.784  1.00  0.00     0.235 A 
ATOM      4  O   UNL     1     -10.628  22.530  11.046  1.00  0.00    -0.285 OA
ATOM      5  C   UNL     1     -12.238  24.102  10.492  1.00  0.00     0.069 A 
ATOM      6  C   UNL     1     -13.601  24.338  10.217  1.00  0.00     0.142 A 
ATOM      7  O   UNL     1     -14.473  23.335  10.224  1.00  0.00    -0.452 OA
ATOM      8  C   UNL     1     -14.044  25.635   9.931  1.00  0.00     0.094 A 
ATOM      9  C   UNL     1     -13.138  26.701   9.915  1.00  0.00     0.119 A 
ATOM     10  C   UNL     1     -11.782  26.470  10.187  1.00  0.00     0.047 A 
ATOM     11  C   UNL     1     -11.332  25.178  10.474  1.00  0.00     0.020 A 
ENDROOT
BRANCH   1  12
ATOM     12  C   UNL     1     -15.193  21.043  10.448  1.00  0.00     0.025 A 
ATOM     13  C   UNL     1     -16.504  21.391  10.805  1.00  0.00     0.016 A 
ATOM     14  C   UNL     1     -17.527  20.439  10.763  1.00  0.00     0.051 A 
ATOM     15  C   UNL     1     -17.254  19.130  10.346  1.00  0.00     0.157 A 
ATOM     16  C   UNL     1     -14.928  19.732  10.011  1.00  0.00     0.062 A 
ATOM     17  C   UNL     1     -15.954  18.777   9.966  1.00  0.00     0.158 A 
BRANCH  15  18
ATOM     18  O   UNL     1     -18.270  18.176  10.303  1.00  0.00    -0.504 OA
ATOM     19  H   UNL     1     -18.116  17.225  10.619  1.00  0.00     0.293 HD
ENDBRANCH  15  18
BRANCH  17  20
ATOM     20  O   UNL     1     -15.688  17.477   9.538  1.00  0.00    -0.504 OA
ATOM     21  H   UNL     1     -16.096  17.104   8.689  1.00  0.00     0.293 HD
ENDBRANCH  17  20
ENDBRANCH   1  12
BRANCH   2  22
ATOM     22  O   UNL     1     -12.429  20.452  11.124  1.00  0.00    -0.502 OA
ATOM     23  H   UNL     1     -11.957  20.227  11.991  1.00  0.00     0.293 HD
ENDBRANCH   2  22
BRANCH   9  24
ATOM     24  O   UNL     1     -13.595  27.985   9.628  1.00  0.00    -0.508 OA
ATOM     25  H   UNL     1     -13.643  28.330   8.676  1.00  0.00     0.293 HD
ENDBRANCH   9  24
TORSDOF 5
ENDMDL
MODEL 7
REMARK VINA RESULT:    -4.549      1.609      6.551
REMARK INTER + INTRA:          -5.646
REMARK INTER:                  -5.760
REMARK INTRA:                   0.115
REMARK UNBOUND:                -0.299
REMARK SMILES O=c1c(O)c(-c2ccc(O)c(O)c2)oc2cc(O)ccc12
REMARK SMILES IDX 5 1 3 2 2 3 1 4 21 5 15 6 14 7 16 8 17 9 19 10 20 11 6 12
REMARK SMILES IDX 7 13 8 14 9 15 13 16 11 17 10 18 12 20 4 22 18 24
REMARK H PARENT 10 19 12 21 4 23 18 25
REMARK Flexibility Score: inf
ROOT
ATOM      1  C   UNL     1     -12.958  26.493  10.357  1.00  0.00     0.180 A 
ATOM      2  C   UNL     1     -11.606  26.242  10.674  1.00  0.00     0.208 A 
ATOM      3  C   UNL     1     -10.738  27.331  10.844  1.00  0.00     0.235 A 
ATOM      4  O   UNL     1      -9.522  27.133  11.117  1.00  0.00    -0.285 OA
ATOM      5  C   UNL     1     -11.236  28.638  10.715  1.00  0.00     0.069 A 
ATOM      6  C   UNL     1     -12.606  28.805  10.420  1.00  0.00     0.142 A 
ATOM      7  O   UNL     1     -13.393  27.747  10.258  1.00  0.00    -0.452 OA
ATOM      8  C   UNL     1     -13.143  30.091  10.294  1.00  0.00     0.094 A 
ATOM      9  C   UNL     1     -12.327  31.216  10.457  1.00  0.00     0.119 A 
ATOM     10  C   UNL     1     -10.965  31.054  10.749  1.00  0.00     0.047 A 
ATOM     11  C   UNL     1     -10.420  29.773  10.878  1.00  0.00     0.020 A 
ENDROOT
BRANCH   1  12
ATOM     12  C   UNL     1     -13.931  25.398  10.144  1.00  0.00     0.025 A 
ATOM     13  C   UNL     1     -13.558  24.280   9.382  1.00  0.00     0.016 A 
ATOM     14  C   UNL     1     -14.453  23.225   9.185  1.00  0.00     0.051 A 
ATOM     15  C   UNL     1     -15.729  23.267   9.761  1.00  0.00     0.157 A 
ATOM     16  C   UNL     1     -15.207  25.426  10.737  1.00  0.00     0.062 A 
ATOM     17  C   UNL     1     -16.105  24.367  10.541  1.00  0.00     0.158 A 
BRANCH  15  18
ATOM     18  O   UNL     1     -16.627  22.218   9.566  1.00  0.00    -0.504 OA
ATOM     19  H   UNL     1     -16.520  21.566   8.798  1.00  0.00     0.293 HD
ENDBRANCH  15  18
BRANCH  17  20
ATOM     20  O   UNL     1     -17.371  24.400  11.125  1.00  0.00    -0.504 OA
ATOM     21  H   UNL     1     -17.491  24.437  12.130  1.00  0.00     0.293 HD
ENDBRANCH  17  20
ENDBRANCH   1  12
BRANCH   2  22
ATOM     22  O   UNL     1     -11.150  24.933  10.844  1.00  0.00    -0.502 OA
ATOM     23  H   UNL     1     -11.776  24.136  10.835  1.00  0.00     0.293 HD
ENDBRANCH   2  22
BRANCH   9  24
ATOM     24  O   UNL     1     -12.877  32.488  10.327  1.00  0.00    -0.508 OA
ATOM     25  H   UNL     1     -13.666  32.784  10.892  1.00  0.00     0.293 HD
ENDBRANCH   9  24
TORSDOF 5
ENDMDL
MODEL 8
REMARK VINA RESULT:    -4.462      2.979      5.817
REMARK INTER + INTRA:          -5.543
REMARK INTER:                  -5.816
REMARK INTRA:                   0.272
REMARK UNBOUND:                -0.299
REMARK SMILES O=c1c(O)c(-c2ccc(O)c(O)c2)oc2cc(O)ccc12
REMARK SMILES IDX 5 1 3 2 2 3 1 4 21 5 15 6 14 7 16 8 17 9 19 10 20 11 6 12
REMARK SMILES IDX 7 13 8 14 9 15 13 16 11 17 10 18 12 20 4 22 18 24
REMARK H PARENT 10 19 12 21 4 23 18 25
REMARK Flexibility Score: inf
ROOT
ATOM      1  C   UNL     1     -14.579  21.755  10.293  1.00  0.00     0.180 A 
ATOM      2  C   UNL     1     -15.924  21.792  10.715  1.00  0.00     0.208 A 
ATOM      3  C   UNL     1     -16.652  20.593  10.760  1.00  0.00     0.235 A 
ATOM      4  O   UNL     1     -17.860  20.601  11.125  1.00  0.00    -0.285 OA
ATOM      5  C   UNL     1     -16.022  19.389  10.404  1.00  0.00     0.069 A 
ATOM      6  C   UNL     1     -14.667  19.433  10.015  1.00  0.00     0.142 A 
ATOM      7  O   UNL     1     -14.015  20.591   9.977  1.00  0.00    -0.452 OA
ATOM      8  C   UNL     1     -14.000  18.254   9.662  1.00  0.00     0.094 A 
ATOM      9  C   UNL     1     -14.673  17.028   9.691  1.00  0.00     0.119 A 
ATOM     10  C   UNL     1     -16.020  16.980  10.076  1.00  0.00     0.047 A 
ATOM     11  C   UNL     1     -16.693  18.153  10.431  1.00  0.00     0.020 A 
ENDROOT
BRANCH   1  12
ATOM     12  C   UNL     1     -13.750  22.979  10.201  1.00  0.00     0.025 A 
ATOM     13  C   UNL     1     -14.356  24.200   9.867  1.00  0.00     0.016 A 
ATOM     14  C   UNL     1     -13.598  25.371   9.794  1.00  0.00     0.051 A 
ATOM     15  C   UNL     1     -12.225  25.340  10.072  1.00  0.00     0.157 A 
ATOM     16  C   UNL     1     -12.375  22.957  10.499  1.00  0.00     0.062 A 
ATOM     17  C   UNL     1     -11.613  24.132  10.429  1.00  0.00     0.158 A 
BRANCH  15  18
ATOM     18  O   UNL     1     -11.463  26.506  10.000  1.00  0.00    -0.504 OA
ATOM     19  H   UNL     1     -10.460  26.492  10.145  1.00  0.00     0.293 HD
ENDBRANCH  15  18
BRANCH  17  20
ATOM     20  O   UNL     1     -10.250  24.107  10.718  1.00  0.00    -0.504 OA
ATOM     21  H   UNL     1      -9.646  23.374  10.366  1.00  0.00     0.293 HD
ENDBRANCH  17  20
ENDBRANCH   1  12
BRANCH   2  22
ATOM     22  O   UNL     1     -16.509  22.997  11.111  1.00  0.00    -0.502 OA
ATOM     23  H   UNL     1     -16.650  23.767  10.468  1.00  0.00     0.293 HD
ENDBRANCH   2  22
BRANCH   9  24
ATOM     24  O   UNL     1     -13.995  15.865   9.337  1.00  0.00    -0.508 OA
ATOM     25  H   UNL     1     -14.084  15.461   8.411  1.00  0.00     0.293 HD
ENDBRANCH   9  24
TORSDOF 5
ENDMDL
