MODEL 1
REMARK VINA RESULT:    -4.600      0.000      0.000
REMARK INTER + INTRA:          -5.771
REMARK INTER:                  -5.407
REMARK INTRA:                  -0.364
REMARK UNBOUND:                -0.364
REMARK SMILES [NH3+][C@@H](CO)C(=O)[O-]
REMARK SMILES IDX 3 1 2 2 1 3 5 7 6 8 7 9 4 10
REMARK H PARENT 1 4 1 5 1 6 4 11
REMARK Flexibility Score: inf
ROOT
ATOM      1  C   UNL     1       1.466   3.954  -6.058  1.00  0.00     0.227 C 
ENDROOT
BRANCH   1   2
ATOM      2  C   UNL     1       0.439   4.155  -4.928  1.00  0.00     0.253 C 
BRANCH   2   3
ATOM      3  N   UNL     1      -0.486   3.018  -4.864  1.00  0.00    -0.348 N 
ATOM      4  H   UNL     1      -1.191   3.090  -5.633  1.00  0.00     0.345 HD
ATOM      5  H   UNL     1      -0.997   3.028  -3.951  1.00  0.00     0.345 HD
ATOM      6  H   UNL     1       0.033   2.114  -4.955  1.00  0.00     0.345 HD
ENDBRANCH   2   3
BRANCH   2   7
ATOM      7  C   UNL     1      -0.325   5.437  -5.125  1.00  0.00     0.102 C 
ATOM      8  O   UNL     1      -1.528   5.406  -5.497  1.00  0.00    -0.544 OA
ATOM      9  O   UNL     1       0.287   6.662  -4.888  1.00  0.00    -0.544 OA
ENDBRANCH   2   7
ENDBRANCH   1   2
BRANCH   1  10
ATOM     10  O   UNL     1       1.220   4.844  -7.114  1.00  0.00    -0.390 OA
ATOM     11  H   UNL     1       2.092   5.015  -7.555  1.00  0.00     0.210 HD
ENDBRANCH   1  10
TORSDOF 4
ENDMDL
MODEL 2
REMARK VINA RESULT:    -4.594      1.555      1.795
REMARK INTER + INTRA:          -5.764
REMARK INTER:                  -5.524
REMARK INTRA:                  -0.240
REMARK UNBOUND:                -0.364
REMARK SMILES [NH3+][C@@H](CO)C(=O)[O-]
REMARK SMILES IDX 3 1 2 2 1 3 5 7 6 8 7 9 4 10
REMARK H PARENT 1 4 1 5 1 6 4 11
REMARK Flexibility Score: inf
ROOT
ATOM      1  C   UNL     1       0.468   3.234  -4.976  1.00  0.00     0.227 C 
ENDROOT
BRANCH   1   2
ATOM      2  C   UNL     1      -0.032   4.666  -4.711  1.00  0.00     0.253 C 
BRANCH   2   3
ATOM      3  N   UNL     1      -1.476   4.761  -4.950  1.00  0.00    -0.348 N 
ATOM      4  H   UNL     1      -1.949   3.889  -4.617  1.00  0.00     0.345 HD
ATOM      5  H   UNL     1      -1.660   4.862  -5.974  1.00  0.00     0.345 HD
ATOM      6  H   UNL     1      -1.880   5.585  -4.446  1.00  0.00     0.345 HD
ENDBRANCH   2   3
BRANCH   2   7
ATOM      7  C   UNL     1       0.704   5.655  -5.574  1.00  0.00     0.102 C 
ATOM      8  O   UNL     1       0.814   5.455  -6.813  1.00  0.00    -0.544 OA
ATOM      9  O   UNL     1       1.260   6.799  -5.014  1.00  0.00    -0.544 OA
ENDBRANCH   2   7
ENDBRANCH   1   2
BRANCH   1  10
ATOM     10  O   UNL     1       1.803   3.247  -5.407  1.00  0.00    -0.390 OA
ATOM     11  H   UNL     1       2.053   2.306  -5.596  1.00  0.00     0.210 HD
ENDBRANCH   1  10
TORSDOF 4
ENDMDL
MODEL 3
REMARK VINA RESULT:    -4.514      1.290      2.403
REMARK INTER + INTRA:          -5.670
REMARK INTER:                  -5.448
REMARK INTRA:                  -0.222
REMARK UNBOUND:                -0.364
REMARK SMILES [NH3+][C@@H](CO)C(=O)[O-]
REMARK SMILES IDX 3 1 2 2 1 3 5 7 6 8 7 9 4 10
REMARK H PARENT 1 4 1 5 1 6 4 11
REMARK Flexibility Score: inf
ROOT
ATOM      1  C   UNL     1      -1.062   4.467  -4.635  1.00  0.00     0.227 C 
ENDROOT
BRANCH   1   2
ATOM      2  C   UNL     1       0.038   3.755  -5.442  1.00  0.00     0.253 C 
BRANCH   2   3
ATOM      3  N   UNL     1       0.716   2.750  -4.616  1.00  0.00    -0.348 N 
ATOM      4  H   UNL     1       0.007   2.160  -4.122  1.00  0.00     0.345 HD
ATOM      5  H   UNL     1       1.307   3.224  -3.895  1.00  0.00     0.345 HD
ATOM      6  H   UNL     1       1.324   2.135  -5.206  1.00  0.00     0.345 HD
ENDBRANCH   2   3
BRANCH   2   7
ATOM      7  C   UNL     1       1.035   4.748  -5.976  1.00  0.00     0.102 C 
ATOM      8  O   UNL     1       0.804   5.360  -7.052  1.00  0.00    -0.544 OA
ATOM      9  O   UNL     1       2.212   5.003  -5.282  1.00  0.00    -0.544 OA
ENDBRANCH   2   7
ENDBRANCH   1   2
BRANCH   1  10
ATOM     10  O   UNL     1      -1.795   5.336  -5.456  1.00  0.00    -0.390 OA
ATOM     11  H   UNL     1      -2.690   5.439  -5.040  1.00  0.00     0.210 HD
ENDBRANCH   1  10
TORSDOF 4
ENDMDL
MODEL 4
REMARK VINA RESULT:    -4.271      2.100      2.122
REMARK INTER + INTRA:          -5.384
REMARK INTER:                  -5.176
REMARK INTRA:                  -0.208
REMARK UNBOUND:                -0.364
REMARK SMILES [NH3+][C@@H](CO)C(=O)[O-]
REMARK SMILES IDX 3 1 2 2 1 3 5 7 6 8 7 9 4 10
REMARK H PARENT 1 4 1 5 1 6 4 11
REMARK Flexibility Score: inf
ROOT
ATOM      1  C   UNL     1       1.262   3.676  -5.796  1.00  0.00     0.227 C 
ENDROOT
BRANCH   1   2
ATOM      2  C   UNL     1       0.694   5.099  -5.653  1.00  0.00     0.253 C 
BRANCH   2   3
ATOM      3  N   UNL     1       1.613   5.948  -4.887  1.00  0.00    -0.348 N 
ATOM      4  H   UNL     1       1.072   6.540  -4.216  1.00  0.00     0.345 HD
ATOM      5  H   UNL     1       2.134   6.581  -5.536  1.00  0.00     0.345 HD
ATOM      6  H   UNL     1       2.299   5.363  -4.355  1.00  0.00     0.345 HD
ENDBRANCH   2   3
BRANCH   2   7
ATOM      7  C   UNL     1      -0.659   5.069  -4.993  1.00  0.00     0.102 C 
ATOM      8  O   UNL     1      -1.685   5.412  -5.637  1.00  0.00    -0.544 OA
ATOM      9  O   UNL     1      -0.786   4.653  -3.673  1.00  0.00    -0.544 OA
ENDBRANCH   2   7
ENDBRANCH   1   2
BRANCH   1  10
ATOM     10  O   UNL     1       1.199   2.992  -4.573  1.00  0.00    -0.390 OA
ATOM     11  H   UNL     1       0.403   2.401  -4.615  1.00  0.00     0.210 HD
ENDBRANCH   1  10
TORSDOF 4
ENDMDL
MODEL 5
REMARK VINA RESULT:    -4.105      2.063      2.717
REMARK INTER + INTRA:          -5.188
REMARK INTER:                  -5.179
REMARK INTRA:                  -0.009
REMARK UNBOUND:                -0.364
REMARK SMILES [NH3+][C@@H](CO)C(=O)[O-]
REMARK SMILES IDX 3 1 2 2 1 3 5 7 6 8 7 9 4 10
REMARK H PARENT 1 4 1 5 1 6 4 11
REMARK Flexibility Score: inf
ROOT
ATOM      1  C   UNL     1       0.787   6.234  -5.218  1.00  0.00     0.227 C 
ENDROOT
BRANCH   1   2
ATOM      2  C   UNL     1       1.163   4.765  -5.480  1.00  0.00     0.253 C 
BRANCH   2   3
ATOM      3  N   UNL     1       1.248   4.502  -6.921  1.00  0.00    -0.348 N 
ATOM      4  H   UNL     1       1.250   5.407  -7.446  1.00  0.00     0.345 HD
ATOM      5  H   UNL     1       0.417   3.947  -7.229  1.00  0.00     0.345 HD
ATOM      6  H   UNL     1       2.120   3.969  -7.149  1.00  0.00     0.345 HD
ENDBRANCH   2   3
BRANCH   2   7
ATOM      7  C   UNL     1       0.165   3.837  -4.840  1.00  0.00     0.102 C 
ATOM      8  O   UNL     1       0.540   2.730  -4.372  1.00  0.00    -0.544 OA
ATOM      9  O   UNL     1      -1.174   4.199  -4.753  1.00  0.00    -0.544 OA
ENDBRANCH   2   7
ENDBRANCH   1   2
BRANCH   1  10
ATOM     10  O   UNL     1       1.861   6.923  -4.635  1.00  0.00    -0.390 OA
ATOM     11  H   UNL     1       2.164   6.382  -3.860  1.00  0.00     0.210 HD
ENDBRANCH   1  10
TORSDOF 4
ENDMDL
MODEL 6
REMARK VINA RESULT:    -4.103      1.739      2.630
REMARK INTER + INTRA:          -5.186
REMARK INTER:                  -4.828
REMARK INTRA:                  -0.358
REMARK UNBOUND:                -0.364
REMARK SMILES [NH3+][C@@H](CO)C(=O)[O-]
REMARK SMILES IDX 3 1 2 2 1 3 5 7 6 8 7 9 4 10
REMARK H PARENT 1 4 1 5 1 6 4 11
REMARK Flexibility Score: inf
ROOT
ATOM      1  C   UNL     1       0.626   6.308  -5.019  1.00  0.00     0.227 C 
ENDROOT
BRANCH   1   2
ATOM      2  C   UNL     1      -0.136   4.971  -5.070  1.00  0.00     0.253 C 
BRANCH   2   3
ATOM      3  N   UNL     1      -0.697   4.646  -3.754  1.00  0.00    -0.348 N 
ATOM      4  H   UNL     1       0.021   4.152  -3.175  1.00  0.00     0.345 HD
ATOM      5  H   UNL     1      -1.520   4.010  -3.867  1.00  0.00     0.345 HD
ATOM      6  H   UNL     1      -1.002   5.516  -3.258  1.00  0.00     0.345 HD
ENDBRANCH   2   3
BRANCH   2   7
ATOM      7  C   UNL     1       0.767   3.861  -5.539  1.00  0.00     0.102 C 
ATOM      8  O   UNL     1       1.054   3.752  -6.760  1.00  0.00    -0.544 OA
ATOM      9  O   UNL     1       1.297   2.956  -4.627  1.00  0.00    -0.544 OA
ENDBRANCH   2   7
ENDBRANCH   1   2
BRANCH   1  10
ATOM     10  O   UNL     1       2.011   6.089  -5.038  1.00  0.00    -0.390 OA
ATOM     11  H   UNL     1       2.290   6.091  -5.991  1.00  0.00     0.210 HD
ENDBRANCH   1  10
TORSDOF 4
ENDMDL
MODEL 7
REMARK VINA RESULT:    -3.389      9.631     10.100
REMARK INTER + INTRA:          -4.347
REMARK INTER:                  -4.118
REMARK INTRA:                  -0.229
REMARK UNBOUND:                -0.364
REMARK SMILES [NH3+][C@@H](CO)C(=O)[O-]
REMARK SMILES IDX 3 1 2 2 1 3 5 7 6 8 7 9 4 10
REMARK H PARENT 1 4 1 5 1 6 4 11
REMARK Flexibility Score: inf
ROOT
ATOM      1  C   UNL     1       7.100  -1.755  -7.980  1.00  0.00     0.227 C 
ENDROOT
BRANCH   1   2
ATOM      2  C   UNL     1       6.428  -2.946  -7.273  1.00  0.00     0.253 C 
BRANCH   2   3
ATOM      3  N   UNL     1       7.313  -4.115  -7.276  1.00  0.00    -0.348 N 
ATOM      4  H   UNL     1       7.343  -4.540  -6.321  1.00  0.00     0.345 HD
ATOM      5  H   UNL     1       8.284  -3.824  -7.534  1.00  0.00     0.345 HD
ATOM      6  H   UNL     1       6.977  -4.832  -7.962  1.00  0.00     0.345 HD
ENDBRANCH   2   3
BRANCH   2   7
ATOM      7  C   UNL     1       5.116  -3.284  -7.929  1.00  0.00     0.102 C 
ATOM      8  O   UNL     1       4.919  -4.440  -8.390  1.00  0.00    -0.544 OA
ATOM      9  O   UNL     1       4.112  -2.329  -8.024  1.00  0.00    -0.544 OA
ENDBRANCH   2   7
ENDBRANCH   1   2
BRANCH   1  10
ATOM     10  O   UNL     1       6.433  -1.450  -9.176  1.00  0.00    -0.390 OA
ATOM     11  H   UNL     1       5.550  -1.074  -8.925  1.00  0.00     0.210 HD
ENDBRANCH   1  10
TORSDOF 4
ENDMDL
MODEL 8
REMARK VINA RESULT:    -3.352      9.600     10.606
REMARK INTER + INTRA:          -4.304
REMARK INTER:                  -4.000
REMARK INTRA:                  -0.304
REMARK UNBOUND:                -0.364
REMARK SMILES [NH3+][C@@H](CO)C(=O)[O-]
REMARK SMILES IDX 3 1 2 2 1 3 5 7 6 8 7 9 4 10
REMARK H PARENT 1 4 1 5 1 6 4 11
REMARK Flexibility Score: inf
ROOT
ATOM      1  C   UNL     1       5.849  -5.371  -8.454  1.00  0.00     0.227 C 
ENDROOT
BRANCH   1   2
ATOM      2  C   UNL     1       6.003  -3.891  -8.060  1.00  0.00     0.253 C 
BRANCH   2   3
ATOM      3  N   UNL     1       7.127  -3.717  -7.134  1.00  0.00    -0.348 N 
ATOM      4  H   UNL     1       7.756  -4.552  -7.179  1.00  0.00     0.345 HD
ATOM      5  H   UNL     1       6.769  -3.630  -6.155  1.00  0.00     0.345 HD
ATOM      6  H   UNL     1       7.676  -2.859  -7.375  1.00  0.00     0.345 HD
ENDBRANCH   2   3
BRANCH   2   7
ATOM      7  C   UNL     1       4.734  -3.369  -7.442  1.00  0.00     0.102 C 
ATOM      8  O   UNL     1       4.436  -3.673  -6.257  1.00  0.00    -0.544 OA
ATOM      9  O   UNL     1       3.887  -2.543  -8.170  1.00  0.00    -0.544 OA
ENDBRANCH   2   7
ENDBRANCH   1   2
BRANCH   1  10
ATOM     10  O   UNL     1       4.544  -5.818  -8.199  1.00  0.00    -0.390 OA
ATOM     11  H   UNL     1       4.544  -6.194  -7.280  1.00  0.00     0.210 HD
ENDBRANCH   1  10
TORSDOF 4
ENDMDL
MODEL 9
REMARK VINA RESULT:    -3.302      9.449     10.205
REMARK INTER + INTRA:          -4.245
REMARK INTER:                  -3.853
REMARK INTRA:                  -0.392
REMARK UNBOUND:                -0.364
REMARK SMILES [NH3+][C@@H](CO)C(=O)[O-]
REMARK SMILES IDX 3 1 2 2 1 3 5 7 6 8 7 9 4 10
REMARK H PARENT 1 4 1 5 1 6 4 11
REMARK Flexibility Score: inf
ROOT
ATOM      1  C   UNL     1       7.294  -2.855  -6.865  1.00  0.00     0.227 C 
ENDROOT
BRANCH   1   2
ATOM      2  C   UNL     1       6.612  -2.796  -8.244  1.00  0.00     0.253 C 
BRANCH   2   3
ATOM      3  N   UNL     1       6.720  -1.449  -8.816  1.00  0.00    -0.348 N 
ATOM      4  H   UNL     1       7.705  -1.106  -8.729  1.00  0.00     0.345 HD
ATOM      5  H   UNL     1       6.097  -0.791  -8.293  1.00  0.00     0.345 HD
ATOM      6  H   UNL     1       6.444  -1.453  -9.826  1.00  0.00     0.345 HD
ENDBRANCH   2   3
BRANCH   2   7
ATOM      7  C   UNL     1       5.166  -3.202  -8.141  1.00  0.00     0.102 C 
ATOM      8  O   UNL     1       4.271  -2.328  -7.999  1.00  0.00    -0.544 OA
ATOM      9  O   UNL     1       4.808  -4.543  -8.210  1.00  0.00    -0.544 OA
ENDBRANCH   2   7
ENDBRANCH   1   2
BRANCH   1  10
ATOM     10  O   UNL     1       6.365  -3.185  -5.867  1.00  0.00    -0.390 OA
ATOM     11  H   UNL     1       6.414  -4.168  -5.742  1.00  0.00     0.210 HD
ENDBRANCH   1  10
TORSDOF 4
ENDMDL
