MODEL 1
REMARK VINA RESULT:    -3.405      0.000      0.000
REMARK INTER + INTRA:          -5.341
REMARK INTER:                  -5.196
REMARK INTRA:                  -0.145
REMARK UNBOUND:                -0.145
REMARK SMILES CC1=CCC[C@H](C)C(=O)C[C@@H](C(C)C)C(=O)C1
REMARK SMILES IDX 8 1 9 2 6 3 7 4 5 5 4 6 3 7 2 8 1 9 10 11 11 12 15 13 16 14
REMARK SMILES IDX 17 15 12 17 13 18 14 19
REMARK H PARENT
REMARK Flexibility Score: 70.00
ROOT
ATOM      1  C   UNL     1    -121.403-100.254   2.892  1.00  0.00     0.136 C 
ATOM      2  O   UNL     1    -121.001 -99.115   2.710  1.00  0.00    -0.299 OA
ENDROOT
BRANCH   1   3
ATOM      3  C   UNL     1    -122.617-100.460   3.788  1.00  0.00     0.053 C 
ATOM      4  C   UNL     1    -122.488 -99.747   5.143  1.00  0.00     0.016 C 
BRANCH   3   5
ATOM      5  C   UNL     1    -123.956-100.184   3.062  1.00  0.00     0.015 C 
BRANCH   5   6
ATOM      6  C   UNL     1    -124.375-101.234   2.011  1.00  0.00     0.028 C 
BRANCH   6   7
ATOM      7  C   UNL     1    -124.213-100.694   0.613  1.00  0.00    -0.028 C 
ATOM      8  C   UNL     1    -123.374-101.210  -0.317  1.00  0.00    -0.070 CG0
ATOM      9  C   UNL     1    -123.381-100.595  -1.694  1.00  0.00     0.039 C 
ATOM     10  G   UNL     1    -122.425-102.364  -0.028  1.00  0.00     0.000 G0
ENDBRANCH   6   7
ENDBRANCH   5   6
ENDBRANCH   3   5
ENDBRANCH   1   3
BRANCH   1  11
ATOM     11  C   UNL     1    -120.685-101.393   2.196  1.00  0.00     0.087 C 
BRANCH  11  12
ATOM     12  C   UNL     1    -120.242-101.077   0.740  1.00  0.00     0.066 C 
BRANCH  12  13
ATOM     13  C   UNL     1    -120.964-101.988  -0.242  1.00  0.00     0.140 C 
ATOM     14  O   UNL     1    -120.386-102.380  -1.246  1.00  0.00    -0.299 OA
BRANCH  13  15
ATOM     15  C   UNL     1    -122.411-102.357  -0.026  1.00  0.00     0.106 CG0
ATOM     16  G   UNL     1    -123.357-101.203  -0.323  1.00  0.00     0.000 G0
ENDBRANCH  13  15
ENDBRANCH  12  13
BRANCH  12  17
ATOM     17  C   UNL     1    -118.695-101.089   0.507  1.00  0.00    -0.006 C 
ATOM     18  C   UNL     1    -118.078 -99.725   0.872  1.00  0.00     0.008 C 
ATOM     19  C   UNL     1    -117.980-102.187   1.315  1.00  0.00     0.008 C 
ENDBRANCH  12  17
ENDBRANCH  11  12
ENDBRANCH   1  11
TORSDOF 1
ENDMDL
MODEL 2
REMARK VINA RESULT:    -3.014      1.643      3.947
REMARK INTER + INTRA:          -4.745
REMARK INTER:                  -4.941
REMARK INTRA:                   0.196
REMARK UNBOUND:                -0.145
REMARK SMILES CC1=CCC[C@H](C)C(=O)C[C@@H](C(C)C)C(=O)C1
REMARK SMILES IDX 8 1 9 2 6 3 7 4 5 5 4 6 3 7 2 8 1 9 10 11 11 12 15 13 16 14
REMARK SMILES IDX 17 15 12 17 13 18 14 19
REMARK H PARENT
REMARK Flexibility Score: 70.00
ROOT
ATOM      1  C   UNL     1    -119.744 -99.432   1.500  1.00  0.00     0.136 C 
ATOM      2  O   UNL     1    -118.701 -98.803   1.609  1.00  0.00    -0.299 OA
ENDROOT
BRANCH   1   3
ATOM      3  C   UNL     1    -119.750-100.678   0.625  1.00  0.00     0.053 C 
ATOM      4  C   UNL     1    -118.717-100.617  -0.511  1.00  0.00     0.016 C 
BRANCH   3   5
ATOM      5  C   UNL     1    -119.700-101.990   1.445  1.00  0.00     0.015 C 
BRANCH   5   6
ATOM      6  C   UNL     1    -120.848-102.986   1.181  1.00  0.00     0.028 C 
BRANCH   6   7
ATOM      7  C   UNL     1    -121.634-102.594  -0.043  1.00  0.00    -0.028 C 
ATOM      8  C   UNL     1    -122.804-101.912  -0.019  1.00  0.00    -0.070 CG0
ATOM      9  C   UNL     1    -123.430-101.536  -1.339  1.00  0.00     0.039 C 
ATOM     10  G   UNL     1    -123.513-101.528   1.272  1.00  0.00     0.000 G0
ENDBRANCH   6   7
ENDBRANCH   5   6
ENDBRANCH   3   5
ENDBRANCH   1   3
BRANCH   1  11
ATOM     11  C   UNL     1    -120.961 -98.948   2.260  1.00  0.00     0.087 C 
BRANCH  11  12
ATOM     12  C   UNL     1    -121.905-100.083   2.749  1.00  0.00     0.066 C 
BRANCH  12  13
ATOM     13  C   UNL     1    -123.116-100.193   1.835  1.00  0.00     0.140 C 
ATOM     14  O   UNL     1    -123.786 -99.199   1.590  1.00  0.00    -0.299 OA
BRANCH  13  15
ATOM     15  C   UNL     1    -123.544-101.531   1.285  1.00  0.00     0.106 CG0
ATOM     16  G   UNL     1    -122.800-101.902   0.010  1.00  0.00     0.000 G0
ENDBRANCH  13  15
ENDBRANCH  12  13
BRANCH  12  17
ATOM     17  C   UNL     1    -122.324 -99.987   4.253  1.00  0.00    -0.006 C 
ATOM     18  C   UNL     1    -121.689-101.128   5.071  1.00  0.00     0.008 C 
ATOM     19  C   UNL     1    -121.934 -98.642   4.894  1.00  0.00     0.008 C 
ENDBRANCH  12  17
ENDBRANCH  11  12
ENDBRANCH   1  11
TORSDOF 1
ENDMDL
MODEL 3
REMARK VINA RESULT:    -2.993      2.306      4.624
REMARK INTER + INTRA:          -4.713
REMARK INTER:                  -4.803
REMARK INTRA:                   0.090
REMARK UNBOUND:                -0.145
REMARK SMILES CC1=CCC[C@H](C)C(=O)C[C@@H](C(C)C)C(=O)C1
REMARK SMILES IDX 8 1 9 2 6 3 7 4 5 5 4 6 3 7 2 8 1 9 10 11 11 12 15 13 16 14
REMARK SMILES IDX 17 15 12 17 13 18 14 19
REMARK H PARENT
REMARK Flexibility Score: 70.00
ROOT
ATOM      1  C   UNL     1    -122.107 -99.878   1.345  1.00  0.00     0.136 C 
ATOM      2  O   UNL     1    -122.332 -99.065   0.461  1.00  0.00    -0.299 OA
ENDROOT
BRANCH   1   3
ATOM      3  C   UNL     1    -121.810-101.317   0.948  1.00  0.00     0.053 C 
ATOM      4  C   UNL     1    -120.612-101.912   1.704  1.00  0.00     0.016 C 
BRANCH   3   5
ATOM      5  C   UNL     1    -123.068-102.219   0.966  1.00  0.00     0.015 C 
BRANCH   5   6
ATOM      6  C   UNL     1    -124.322-101.628   0.288  1.00  0.00     0.028 C 
BRANCH   6   7
ATOM      7  C   UNL     1    -125.531-101.762   1.177  1.00  0.00    -0.028 C 
ATOM      8  C   UNL     1    -125.978-100.799   2.018  1.00  0.00    -0.070 CG0
ATOM      9  C   UNL     1    -127.246-101.066   2.790  1.00  0.00     0.039 C 
ATOM     10  G   UNL     1    -125.251 -99.478   2.224  1.00  0.00     0.000 G0
ENDBRANCH   6   7
ENDBRANCH   5   6
ENDBRANCH   3   5
ENDBRANCH   1   3
BRANCH   1  11
ATOM     11  C   UNL     1    -122.114 -99.400   2.783  1.00  0.00     0.087 C 
BRANCH  11  12
ATOM     12  C   UNL     1    -123.169-100.099   3.685  1.00  0.00     0.066 C 
BRANCH  12  13
ATOM     13  C   UNL     1    -124.521 -99.414   3.547  1.00  0.00     0.140 C 
ATOM     14  O   UNL     1    -125.028 -98.869   4.518  1.00  0.00    -0.299 OA
BRANCH  13  15
ATOM     15  C   UNL     1    -125.277 -99.463   2.243  1.00  0.00     0.106 CG0
ATOM     16  G   UNL     1    -125.971-100.799   2.020  1.00  0.00     0.000 G0
ENDBRANCH  13  15
ENDBRANCH  12  13
BRANCH  12  17
ATOM     17  C   UNL     1    -122.751-100.254   5.185  1.00  0.00    -0.006 C 
ATOM     18  C   UNL     1    -121.791-101.445   5.365  1.00  0.00     0.008 C 
ATOM     19  C   UNL     1    -122.080 -98.988   5.749  1.00  0.00     0.008 C 
ENDBRANCH  12  17
ENDBRANCH  11  12
ENDBRANCH   1  11
TORSDOF 1
ENDMDL
MODEL 4
REMARK VINA RESULT:    -2.971      2.383      4.452
REMARK INTER + INTRA:          -4.679
REMARK INTER:                  -4.557
REMARK INTRA:                  -0.122
REMARK UNBOUND:                -0.145
REMARK SMILES CC1=CCC[C@H](C)C(=O)C[C@@H](C(C)C)C(=O)C1
REMARK SMILES IDX 8 1 9 2 6 3 7 4 5 5 4 6 3 7 2 8 1 9 10 11 11 12 15 13 16 14
REMARK SMILES IDX 17 15 12 17 13 18 14 19
REMARK H PARENT
REMARK Flexibility Score: 70.00
ROOT
ATOM      1  C   UNL     1    -124.088 -99.736   4.268  1.00  0.00     0.136 C 
ATOM      2  O   UNL     1    -124.667 -99.981   5.316  1.00  0.00    -0.299 OA
ENDROOT
BRANCH   1   3
ATOM      3  C   UNL     1    -122.578 -99.538   4.304  1.00  0.00     0.053 C 
ATOM      4  C   UNL     1    -122.135 -98.506   5.352  1.00  0.00     0.016 C 
BRANCH   3   5
ATOM      5  C   UNL     1    -121.797-100.873   4.375  1.00  0.00     0.015 C 
BRANCH   5   6
ATOM      6  C   UNL     1    -121.004-101.250   3.106  1.00  0.00     0.028 C 
BRANCH   6   7
ATOM      7  C   UNL     1    -120.554-100.018   2.364  1.00  0.00    -0.028 C 
ATOM      8  C   UNL     1    -121.104 -99.571   1.210  1.00  0.00    -0.070 CG0
ATOM      9  C   UNL     1    -120.582 -98.281   0.630  1.00  0.00     0.039 C 
ATOM     10  G   UNL     1    -122.207-100.320   0.474  1.00  0.00     0.000 G0
ENDBRANCH   6   7
ENDBRANCH   5   6
ENDBRANCH   3   5
ENDBRANCH   1   3
BRANCH   1  11
ATOM     11  C   UNL     1    -124.901 -99.668   2.992  1.00  0.00     0.087 C 
BRANCH  11  12
ATOM     12  C   UNL     1    -124.412-100.623   1.868  1.00  0.00     0.066 C 
BRANCH  12  13
ATOM     13  C   UNL     1    -123.597 -99.855   0.837  1.00  0.00     0.140 C 
ATOM     14  O   UNL     1    -124.092 -98.894   0.265  1.00  0.00    -0.299 OA
BRANCH  13  15
ATOM     15  C   UNL     1    -122.210-100.311   0.461  1.00  0.00     0.106 CG0
ATOM     16  G   UNL     1    -121.124 -99.564   1.223  1.00  0.00     0.000 G0
ENDBRANCH  13  15
ENDBRANCH  12  13
BRANCH  12  17
ATOM     17  C   UNL     1    -125.538-101.475   1.194  1.00  0.00    -0.006 C 
ATOM     18  C   UNL     1    -124.938-102.679   0.444  1.00  0.00     0.008 C 
ATOM     19  C   UNL     1    -126.579-101.991   2.205  1.00  0.00     0.008 C 
ENDBRANCH  12  17
ENDBRANCH  11  12
ENDBRANCH   1  11
TORSDOF 1
ENDMDL
MODEL 5
REMARK VINA RESULT:    -2.929      9.553     12.108
REMARK INTER + INTRA:          -4.614
REMARK INTER:                  -4.465
REMARK INTRA:                  -0.149
REMARK UNBOUND:                -0.145
REMARK SMILES CC1=CCC[C@H](C)C(=O)C[C@@H](C(C)C)C(=O)C1
REMARK SMILES IDX 8 1 9 2 6 3 7 4 5 5 4 6 3 7 2 8 1 9 10 11 11 12 15 13 16 14
REMARK SMILES IDX 17 15 12 17 13 18 14 19
REMARK H PARENT
REMARK Flexibility Score: 70.00
ROOT
ATOM      1  C   UNL     1    -114.875 -95.282   6.495  1.00  0.00     0.136 C 
ATOM      2  O   UNL     1    -115.127 -96.451   6.748  1.00  0.00    -0.299 OA
ENDROOT
BRANCH   1   3
ATOM      3  C   UNL     1    -113.592 -94.681   7.052  1.00  0.00     0.053 C 
ATOM      4  C   UNL     1    -113.439 -94.894   8.566  1.00  0.00     0.016 C 
BRANCH   3   5
ATOM      5  C   UNL     1    -112.337 -95.078   6.237  1.00  0.00     0.015 C 
BRANCH   5   6
ATOM      6  C   UNL     1    -111.805 -94.003   5.266  1.00  0.00     0.028 C 
BRANCH   6   7
ATOM      7  C   UNL     1    -111.992 -92.620   5.835  1.00  0.00    -0.028 C 
ATOM      8  C   UNL     1    -112.838 -91.690   5.332  1.00  0.00    -0.070 CG0
ATOM      9  C   UNL     1    -112.958 -90.376   6.062  1.00  0.00     0.039 C 
ATOM     10  G   UNL     1    -113.652 -91.910   4.065  1.00  0.00     0.000 G0
ENDBRANCH   6   7
ENDBRANCH   5   6
ENDBRANCH   3   5
ENDBRANCH   1   3
BRANCH   1  11
ATOM     11  C   UNL     1    -115.842 -94.507   5.624  1.00  0.00     0.087 C 
BRANCH  11  12
ATOM     12  C   UNL     1    -115.236 -94.006   4.283  1.00  0.00     0.066 C 
BRANCH  12  13
ATOM     13  C   UNL     1    -115.033 -92.499   4.324  1.00  0.00     0.140 C 
ATOM     14  O   UNL     1    -115.988 -91.762   4.526  1.00  0.00    -0.299 OA
BRANCH  13  15
ATOM     15  C   UNL     1    -113.676 -91.899   4.048  1.00  0.00     0.106 CG0
ATOM     16  G   UNL     1    -112.863 -91.687   5.317  1.00  0.00     0.000 G0
ENDBRANCH  13  15
ENDBRANCH  12  13
BRANCH  12  17
ATOM     17  C   UNL     1    -116.019 -94.447   3.002  1.00  0.00    -0.006 C 
ATOM     18  C   UNL     1    -115.372 -93.857   1.735  1.00  0.00     0.008 C 
ATOM     19  C   UNL     1    -116.098 -95.978   2.851  1.00  0.00     0.008 C 
ENDBRANCH  12  17
ENDBRANCH  11  12
ENDBRANCH   1  11
TORSDOF 1
ENDMDL
MODEL 6
REMARK VINA RESULT:    -2.844      2.965      6.036
REMARK INTER + INTRA:          -4.485
REMARK INTER:                  -4.222
REMARK INTRA:                  -0.263
REMARK UNBOUND:                -0.145
REMARK SMILES CC1=CCC[C@H](C)C(=O)C[C@@H](C(C)C)C(=O)C1
REMARK SMILES IDX 8 1 9 2 6 3 7 4 5 5 4 6 3 7 2 8 1 9 10 11 11 12 15 13 16 14
REMARK SMILES IDX 17 15 12 17 13 18 14 19
REMARK H PARENT
REMARK Flexibility Score: 70.00
ROOT
ATOM      1  C   UNL     1    -118.306-101.681   0.971  1.00  0.00     0.136 C 
ATOM      2  O   UNL     1    -118.509-102.880   1.098  1.00  0.00    -0.299 OA
ENDROOT
BRANCH   1   3
ATOM      3  C   UNL     1    -117.068-101.233   0.205  1.00  0.00     0.053 C 
ATOM      4  C   UNL     1    -117.324-101.071  -1.301  1.00  0.00     0.016 C 
BRANCH   3   5
ATOM      5  C   UNL     1    -116.367-100.015   0.853  1.00  0.00     0.015 C 
BRANCH   5   6
ATOM      6  C   UNL     1    -116.343 -98.727   0.003  1.00  0.00     0.028 C 
BRANCH   6   7
ATOM      7  C   UNL     1    -116.616 -97.513   0.853  1.00  0.00    -0.028 C 
ATOM      8  C   UNL     1    -117.825 -96.914   0.970  1.00  0.00    -0.070 CG0
ATOM      9  C   UNL     1    -117.947 -95.747   1.918  1.00  0.00     0.039 C 
ATOM     10  G   UNL     1    -119.050 -97.357   0.182  1.00  0.00     0.000 G0
ENDBRANCH   6   7
ENDBRANCH   5   6
ENDBRANCH   3   5
ENDBRANCH   1   3
BRANCH   1  11
ATOM     11  C   UNL     1    -119.309-100.713   1.563  1.00  0.00     0.087 C 
BRANCH  11  12
ATOM     12  C   UNL     1    -120.009 -99.798   0.520  1.00  0.00     0.066 C 
BRANCH  12  13
ATOM     13  C   UNL     1    -119.926 -98.341   0.953  1.00  0.00     0.140 C 
ATOM     14  O   UNL     1    -120.604 -97.946   1.891  1.00  0.00    -0.299 OA
BRANCH  13  15
ATOM     15  C   UNL     1    -119.070 -97.361   0.190  1.00  0.00     0.106 CG0
ATOM     16  G   UNL     1    -117.824 -96.952   0.963  1.00  0.00     0.000 G0
ENDBRANCH  13  15
ENDBRANCH  12  13
BRANCH  12  17
ATOM     17  C   UNL     1    -121.476-100.211   0.164  1.00  0.00    -0.006 C 
ATOM     18  C   UNL     1    -121.516-100.994  -1.162  1.00  0.00     0.008 C 
ATOM     19  C   UNL     1    -122.137-101.063   1.263  1.00  0.00     0.008 C 
ENDBRANCH  12  17
ENDBRANCH  11  12
ENDBRANCH   1  11
TORSDOF 1
ENDMDL
MODEL 7
REMARK VINA RESULT:    -2.786      1.945      4.254
REMARK INTER + INTRA:          -4.396
REMARK INTER:                  -4.596
REMARK INTRA:                   0.200
REMARK UNBOUND:                -0.145
REMARK SMILES CC1=CCC[C@H](C)C(=O)C[C@@H](C(C)C)C(=O)C1
REMARK SMILES IDX 8 1 9 2 6 3 7 4 5 5 4 6 3 7 2 8 1 9 10 11 11 12 15 13 16 14
REMARK SMILES IDX 17 15 12 17 13 18 14 19
REMARK H PARENT
REMARK Flexibility Score: 70.00
ROOT
ATOM      1  C   UNL     1    -123.849 -99.548   3.956  1.00  0.00     0.136 C 
ATOM      2  O   UNL     1    -124.689 -99.369   4.826  1.00  0.00    -0.299 OA
ENDROOT
BRANCH   1   3
ATOM      3  C   UNL     1    -122.389 -99.663   4.372  1.00  0.00     0.053 C 
ATOM      4  C   UNL     1    -122.141-100.795   5.382  1.00  0.00     0.016 C 
BRANCH   3   5
ATOM      5  C   UNL     1    -121.418 -99.679   3.166  1.00  0.00     0.015 C 
BRANCH   5   6
ATOM      6  C   UNL     1    -120.962-101.077   2.696  1.00  0.00     0.028 C 
BRANCH   6   7
ATOM      7  C   UNL     1    -120.568-101.055   1.242  1.00  0.00    -0.028 C 
ATOM      8  C   UNL     1    -121.330-101.538   0.232  1.00  0.00    -0.070 CG0
ATOM      9  C   UNL     1    -120.821-101.378  -1.178  1.00  0.00     0.039 C 
ATOM     10  G   UNL     1    -122.660-102.243   0.462  1.00  0.00     0.000 G0
ENDBRANCH   6   7
ENDBRANCH   5   6
ENDBRANCH   3   5
ENDBRANCH   1   3
BRANCH   1  11
ATOM     11  C   UNL     1    -124.312 -99.667   2.519  1.00  0.00     0.087 C 
BRANCH  11  12
ATOM     12  C   UNL     1    -124.477-101.129   2.018  1.00  0.00     0.066 C 
BRANCH  12  13
ATOM     13  C   UNL     1    -123.825-101.297   0.653  1.00  0.00     0.140 C 
ATOM     14  O   UNL     1    -124.273-100.696  -0.313  1.00  0.00    -0.299 OA
BRANCH  13  15
ATOM     15  C   UNL     1    -122.676-102.256   0.464  1.00  0.00     0.106 CG0
ATOM     16  G   UNL     1    -121.349-101.540   0.252  1.00  0.00     0.000 G0
ENDBRANCH  13  15
ENDBRANCH  12  13
BRANCH  12  17
ATOM     17  C   UNL     1    -125.947-101.664   2.025  1.00  0.00    -0.006 C 
ATOM     18  C   UNL     1    -126.930-100.566   1.574  1.00  0.00     0.008 C 
ATOM     19  C   UNL     1    -126.135-102.897   1.122  1.00  0.00     0.008 C 
ENDBRANCH  12  17
ENDBRANCH  11  12
ENDBRANCH   1  11
TORSDOF 1
ENDMDL
MODEL 8
REMARK VINA RESULT:    -2.530      2.747      5.266
REMARK INTER + INTRA:          -4.006
REMARK INTER:                  -3.994
REMARK INTRA:                  -0.013
REMARK UNBOUND:                -0.145
REMARK SMILES CC1=CCC[C@H](C)C(=O)C[C@@H](C(C)C)C(=O)C1
REMARK SMILES IDX 8 1 9 2 6 3 7 4 5 5 4 6 3 7 2 8 1 9 10 11 11 12 15 13 16 14
REMARK SMILES IDX 17 15 12 17 13 18 14 19
REMARK H PARENT
REMARK Flexibility Score: 70.00
ROOT
ATOM      1  C   UNL     1    -117.060-100.089  -0.137  1.00  0.00     0.136 C 
ATOM      2  O   UNL     1    -116.194-100.152   0.723  1.00  0.00    -0.299 OA
ENDROOT
BRANCH   1   3
ATOM      3  C   UNL     1    -117.529-101.382  -0.790  1.00  0.00     0.053 C 
ATOM      4  C   UNL     1    -116.404-102.122  -1.529  1.00  0.00     0.016 C 
BRANCH   3   5
ATOM      5  C   UNL     1    -118.341-102.282   0.173  1.00  0.00     0.015 C 
BRANCH   5   6
ATOM      6  C   UNL     1    -119.873-102.101   0.125  1.00  0.00     0.028 C 
BRANCH   6   7
ATOM      7  C   UNL     1    -120.376-101.427   1.375  1.00  0.00    -0.028 C 
ATOM      8  C   UNL     1    -120.670-100.108   1.473  1.00  0.00    -0.070 CG0
ATOM      9  C   UNL     1    -121.231 -99.604   2.779  1.00  0.00     0.039 C 
ATOM     10  G   UNL     1    -120.445 -99.123   0.335  1.00  0.00     0.000 G0
ENDBRANCH   6   7
ENDBRANCH   5   6
ENDBRANCH   3   5
ENDBRANCH   1   3
BRANCH   1  11
ATOM     11  C   UNL     1    -117.630 -98.730  -0.488  1.00  0.00     0.087 C 
BRANCH  11  12
ATOM     12  C   UNL     1    -118.122 -97.907   0.735  1.00  0.00     0.066 C 
BRANCH  12  13
ATOM     13  C   UNL     1    -119.643 -97.894   0.788  1.00  0.00     0.140 C 
ATOM     14  O   UNL     1    -120.228 -96.923   1.247  1.00  0.00    -0.299 OA
BRANCH  13  15
ATOM     15  C   UNL     1    -120.436 -99.099   0.346  1.00  0.00     0.106 CG0
ATOM     16  G   UNL     1    -120.661-100.095   1.474  1.00  0.00     0.000 G0
ENDBRANCH  13  15
ENDBRANCH  12  13
BRANCH  12  17
ATOM     17  C   UNL     1    -117.531 -96.461   0.834  1.00  0.00    -0.006 C 
ATOM     18  C   UNL     1    -116.932 -96.211   2.232  1.00  0.00     0.008 C 
ATOM     19  C   UNL     1    -116.447 -96.188  -0.224  1.00  0.00     0.008 C 
ENDBRANCH  12  17
ENDBRANCH  11  12
ENDBRANCH   1  11
TORSDOF 1
ENDMDL
MODEL 9
REMARK VINA RESULT:    -2.484      9.199     11.266
REMARK INTER + INTRA:          -3.936
REMARK INTER:                  -3.884
REMARK INTRA:                  -0.053
REMARK UNBOUND:                -0.145
REMARK SMILES CC1=CCC[C@H](C)C(=O)C[C@@H](C(C)C)C(=O)C1
REMARK SMILES IDX 8 1 9 2 6 3 7 4 5 5 4 6 3 7 2 8 1 9 10 11 11 12 15 13 16 14
REMARK SMILES IDX 17 15 12 17 13 18 14 19
REMARK H PARENT
REMARK Flexibility Score: 70.00
ROOT
ATOM      1  C   UNL     1    -115.491 -95.436   5.280  1.00  0.00     0.136 C 
ATOM      2  O   UNL     1    -116.012 -95.963   6.251  1.00  0.00    -0.299 OA
ENDROOT
BRANCH   1   3
ATOM      3  C   UNL     1    -116.380 -94.683   4.299  1.00  0.00     0.053 C 
ATOM      4  C   UNL     1    -116.384 -93.165   4.540  1.00  0.00     0.016 C 
BRANCH   3   5
ATOM      5  C   UNL     1    -116.123 -95.081   2.825  1.00  0.00     0.015 C 
BRANCH   5   6
ATOM      6  C   UNL     1    -115.494 -93.985   1.939  1.00  0.00     0.028 C 
BRANCH   6   7
ATOM      7  C   UNL     1    -114.216 -94.472   1.304  1.00  0.00    -0.028 C 
ATOM      8  C   UNL     1    -112.973 -94.171   1.749  1.00  0.00    -0.070 CG0
ATOM      9  C   UNL     1    -111.798 -94.796   1.041  1.00  0.00     0.039 C 
ATOM     10  G   UNL     1    -112.717 -93.226   2.915  1.00  0.00     0.000 G0
ENDBRANCH   6   7
ENDBRANCH   5   6
ENDBRANCH   3   5
ENDBRANCH   1   3
BRANCH   1  11
ATOM     11  C   UNL     1    -113.988 -95.542   5.121  1.00  0.00     0.087 C 
BRANCH  11  12
ATOM     12  C   UNL     1    -113.226 -94.203   5.321  1.00  0.00     0.066 C 
BRANCH  12  13
ATOM     13  C   UNL     1    -112.262 -93.965   4.167  1.00  0.00     0.140 C 
ATOM     14  O   UNL     1    -111.093 -94.310   4.270  1.00  0.00    -0.299 OA
BRANCH  13  15
ATOM     15  C   UNL     1    -112.717 -93.241   2.924  1.00  0.00     0.106 CG0
ATOM     16  G   UNL     1    -112.965 -94.186   1.757  1.00  0.00     0.000 G0
ENDBRANCH  13  15
ENDBRANCH  12  13
BRANCH  12  17
ATOM     17  C   UNL     1    -112.514 -94.053   6.706  1.00  0.00    -0.006 C 
ATOM     18  C   UNL     1    -112.186 -92.575   6.995  1.00  0.00     0.008 C 
ATOM     19  C   UNL     1    -113.356 -94.609   7.870  1.00  0.00     0.008 C 
ENDBRANCH  12  17
ENDBRANCH  11  12
ENDBRANCH   1  11
TORSDOF 1
ENDMDL
