MODEL 1
REMARK VINA RESULT:    -1.409      0.000      0.000
REMARK INTER + INTRA:          -3.328
REMARK INTER:                  -2.562
REMARK INTRA:                  -0.766
REMARK UNBOUND:                -0.766
REMARK SMILES CCCCCCCCCCCCCC[C@@H](C)C(=O)[O-]
REMARK SMILES IDX 9 1 10 2 11 3 12 4 13 5 14 6 15 7 16 8 17 9 18 10 19 11 8 12
REMARK SMILES IDX 7 13 6 14 5 15 4 16 3 17 2 18 1 19
REMARK H PARENT
REMARK Flexibility Score: inf
ROOT
ATOM      1  C   UNL     1      35.230 105.269 264.137  1.00  0.00     0.000 C 
ENDROOT
BRANCH   1   2
ATOM      2  C   UNL     1      35.027 103.769 264.381  1.00  0.00     0.000 C 
BRANCH   2   3
ATOM      3  C   UNL     1      36.127 103.208 265.295  1.00  0.00     0.000 C 
BRANCH   3   4
ATOM      4  C   UNL     1      35.666 103.067 266.755  1.00  0.00     0.000 C 
BRANCH   4   5
ATOM      5  C   UNL     1      34.875 104.292 267.246  1.00  0.00     0.001 C 
BRANCH   5   6
ATOM      6  C   UNL     1      35.771 105.399 267.833  1.00  0.00     0.009 C 
BRANCH   6   7
ATOM      7  C   UNL     1      34.987 106.573 268.466  1.00  0.00     0.032 C 
ATOM      8  C   UNL     1      35.518 106.880 269.871  1.00  0.00     0.014 C 
BRANCH   7   9
ATOM      9  C   UNL     1      35.070 107.820 267.628  1.00  0.00     0.044 C 
ATOM     10  O   UNL     1      34.986 108.953 268.173  1.00  0.00    -0.550 OA
ATOM     11  O   UNL     1      35.276 107.735 266.256  1.00  0.00    -0.550 OA
ENDBRANCH   7   9
ENDBRANCH   6   7
ENDBRANCH   5   6
ENDBRANCH   4   5
ENDBRANCH   3   4
ENDBRANCH   2   3
ENDBRANCH   1   2
BRANCH   1  12
ATOM     12  C   UNL     1      36.078 105.516 262.882  1.00  0.00     0.000 C 
BRANCH  12  13
ATOM     13  C   UNL     1      37.164 106.594 263.097  1.00  0.00    -0.000 C 
BRANCH  13  14
ATOM     14  C   UNL     1      38.386 106.435 262.175  1.00  0.00    -0.000 C 
BRANCH  14  15
ATOM     15  C   UNL     1      38.224 105.370 261.074  1.00  0.00    -0.000 C 
BRANCH  15  16
ATOM     16  C   UNL     1      37.749 105.946 259.720  1.00  0.00    -0.000 C 
BRANCH  16  17
ATOM     17  C   UNL     1      36.677 105.072 259.046  1.00  0.00    -0.000 C 
BRANCH  17  18
ATOM     18  C   UNL     1      35.984 105.786 257.875  1.00  0.00    -0.003 C 
ATOM     19  C   UNL     1      35.854 107.293 258.097  1.00  0.00     0.004 C 
ENDBRANCH  17  18
ENDBRANCH  16  17
ENDBRANCH  15  16
ENDBRANCH  14  15
ENDBRANCH  13  14
ENDBRANCH  12  13
ENDBRANCH   1  12
TORSDOF 14
ENDMDL
MODEL 2
REMARK VINA RESULT:    -0.918      1.353      2.503
REMARK INTER + INTRA:          -2.435
REMARK INTER:                  -2.227
REMARK INTRA:                  -0.207
REMARK UNBOUND:                -0.766
REMARK SMILES CCCCCCCCCCCCCC[C@@H](C)C(=O)[O-]
REMARK SMILES IDX 9 1 10 2 11 3 12 4 13 5 14 6 15 7 16 8 17 9 18 10 19 11 8 12
REMARK SMILES IDX 7 13 6 14 5 15 4 16 3 17 2 18 1 19
REMARK H PARENT
REMARK Flexibility Score: inf
ROOT
ATOM      1  C   UNL     1      37.387 106.490 263.239  1.00  0.00     0.000 C 
ENDROOT
BRANCH   1   2
ATOM      2  C   UNL     1      36.212 106.040 262.363  1.00  0.00     0.000 C 
BRANCH   2   3
ATOM      3  C   UNL     1      35.413 104.921 263.048  1.00  0.00     0.000 C 
BRANCH   3   4
ATOM      4  C   UNL     1      34.956 105.305 264.465  1.00  0.00     0.000 C 
BRANCH   4   5
ATOM      5  C   UNL     1      35.274 104.217 265.505  1.00  0.00     0.001 C 
BRANCH   5   6
ATOM      6  C   UNL     1      34.885 104.615 266.941  1.00  0.00     0.009 C 
BRANCH   6   7
ATOM      7  C   UNL     1      35.514 105.946 267.416  1.00  0.00     0.032 C 
ATOM      8  C   UNL     1      34.877 107.133 266.684  1.00  0.00     0.014 C 
BRANCH   7   9
ATOM      9  C   UNL     1      35.356 106.143 268.900  1.00  0.00     0.044 C 
ATOM     10  O   UNL     1      35.156 107.297 269.365  1.00  0.00    -0.550 OA
ATOM     11  O   UNL     1      35.392 105.055 269.764  1.00  0.00    -0.550 OA
ENDBRANCH   7   9
ENDBRANCH   6   7
ENDBRANCH   5   6
ENDBRANCH   4   5
ENDBRANCH   3   4
ENDBRANCH   2   3
ENDBRANCH   1   2
BRANCH   1  12
ATOM     12  C   UNL     1      38.675 106.618 262.414  1.00  0.00     0.000 C 
BRANCH  12  13
ATOM     13  C   UNL     1      38.937 105.387 261.519  1.00  0.00    -0.000 C 
BRANCH  13  14
ATOM     14  C   UNL     1      38.473 105.569 260.063  1.00  0.00    -0.000 C 
BRANCH  14  15
ATOM     15  C   UNL     1      37.375 104.587 259.612  1.00  0.00    -0.000 C 
BRANCH  15  16
ATOM     16  C   UNL     1      36.674 105.000 258.298  1.00  0.00    -0.000 C 
BRANCH  16  17
ATOM     17  C   UNL     1      36.738 106.515 258.042  1.00  0.00    -0.000 C 
BRANCH  17  18
ATOM     18  C   UNL     1      35.549 107.269 258.659  1.00  0.00    -0.003 C 
ATOM     19  C   UNL     1      35.237 108.576 257.931  1.00  0.00     0.004 C 
ENDBRANCH  17  18
ENDBRANCH  16  17
ENDBRANCH  15  16
ENDBRANCH  14  15
ENDBRANCH  13  14
ENDBRANCH  12  13
ENDBRANCH   1  12
TORSDOF 14
ENDMDL
MODEL 3
REMARK VINA RESULT:    -0.332      2.825      7.585
REMARK INTER + INTRA:          -1.369
REMARK INTER:                  -2.106
REMARK INTRA:                   0.736
REMARK UNBOUND:                -0.766
REMARK SMILES CCCCCCCCCCCCCC[C@@H](C)C(=O)[O-]
REMARK SMILES IDX 9 1 10 2 11 3 12 4 13 5 14 6 15 7 16 8 17 9 18 10 19 11 8 12
REMARK SMILES IDX 7 13 6 14 5 15 4 16 3 17 2 18 1 19
REMARK H PARENT
REMARK Flexibility Score: inf
ROOT
ATOM      1  C   UNL     1      35.051 107.112 266.315  1.00  0.00     0.000 C 
ENDROOT
BRANCH   1   2
ATOM      2  C   UNL     1      35.488 107.516 264.902  1.00  0.00     0.000 C 
BRANCH   2   3
ATOM      3  C   UNL     1      34.999 106.496 263.862  1.00  0.00     0.000 C 
BRANCH   3   4
ATOM      4  C   UNL     1      36.156 105.788 263.141  1.00  0.00     0.000 C 
BRANCH   4   5
ATOM      5  C   UNL     1      36.727 106.619 261.979  1.00  0.00     0.001 C 
BRANCH   5   6
ATOM      6  C   UNL     1      37.960 105.975 261.317  1.00  0.00     0.009 C 
BRANCH   6   7
ATOM      7  C   UNL     1      37.642 105.197 260.018  1.00  0.00     0.032 C 
ATOM      8  C   UNL     1      37.065 103.816 260.346  1.00  0.00     0.014 C 
BRANCH   7   9
ATOM      9  C   UNL     1      36.669 105.940 259.143  1.00  0.00     0.044 C 
ATOM     10  O   UNL     1      36.005 105.320 258.270  1.00  0.00    -0.550 OA
ATOM     11  O   UNL     1      36.465 107.304 259.315  1.00  0.00    -0.550 OA
ENDBRANCH   7   9
ENDBRANCH   6   7
ENDBRANCH   5   6
ENDBRANCH   4   5
ENDBRANCH   3   4
ENDBRANCH   2   3
ENDBRANCH   1   2
BRANCH   1  12
ATOM     12  C   UNL     1      35.151 108.297 267.285  1.00  0.00     0.000 C 
BRANCH  12  13
ATOM     13  C   UNL     1      35.055 107.867 268.766  1.00  0.00    -0.000 C 
BRANCH  13  14
ATOM     14  C   UNL     1      35.923 106.645 269.114  1.00  0.00    -0.000 C 
BRANCH  14  15
ATOM     15  C   UNL     1      35.186 105.532 269.883  1.00  0.00    -0.000 C 
BRANCH  15  16
ATOM     16  C   UNL     1      34.875 104.285 269.025  1.00  0.00    -0.000 C 
BRANCH  16  17
ATOM     17  C   UNL     1      34.884 104.586 267.516  1.00  0.00    -0.000 C 
BRANCH  17  18
ATOM     18  C   UNL     1      35.008 103.314 266.662  1.00  0.00    -0.003 C 
ATOM     19  C   UNL     1      35.087 103.615 265.165  1.00  0.00     0.004 C 
ENDBRANCH  17  18
ENDBRANCH  16  17
ENDBRANCH  15  16
ENDBRANCH  14  15
ENDBRANCH  13  14
ENDBRANCH  12  13
ENDBRANCH   1  12
TORSDOF 14
ENDMDL
MODEL 4
REMARK VINA RESULT:    -0.090      2.133      3.364
REMARK INTER + INTRA:          -0.929
REMARK INTER:                  -0.258
REMARK INTRA:                  -0.671
REMARK UNBOUND:                -0.766
REMARK SMILES CCCCCCCCCCCCCC[C@@H](C)C(=O)[O-]
REMARK SMILES IDX 9 1 10 2 11 3 12 4 13 5 14 6 15 7 16 8 17 9 18 10 19 11 8 12
REMARK SMILES IDX 7 13 6 14 5 15 4 16 3 17 2 18 1 19
REMARK H PARENT
REMARK Flexibility Score: inf
ROOT
ATOM      1  C   UNL     1      35.867 105.334 265.606  1.00  0.00     0.000 C 
ENDROOT
BRANCH   1   2
ATOM      2  C   UNL     1      34.888 106.306 266.274  1.00  0.00     0.000 C 
BRANCH   2   3
ATOM      3  C   UNL     1      35.259 107.763 265.960  1.00  0.00     0.000 C 
BRANCH   3   4
ATOM      4  C   UNL     1      34.923 108.720 267.115  1.00  0.00     0.000 C 
BRANCH   4   5
ATOM      5  C   UNL     1      34.875 108.007 268.478  1.00  0.00     0.001 C 
BRANCH   5   6
ATOM      6  C   UNL     1      36.246 107.473 268.934  1.00  0.00     0.009 C 
BRANCH   6   7
ATOM      7  C   UNL     1      36.167 106.446 270.089  1.00  0.00     0.032 C 
ATOM      8  C   UNL     1      35.486 105.156 269.616  1.00  0.00     0.014 C 
BRANCH   7   9
ATOM      9  C   UNL     1      37.529 106.109 270.634  1.00  0.00     0.044 C 
ATOM     10  O   UNL     1      38.391 107.016 270.781  1.00  0.00    -0.550 OA
ATOM     11  O   UNL     1      37.834 104.807 271.015  1.00  0.00    -0.550 OA
ENDBRANCH   7   9
ENDBRANCH   6   7
ENDBRANCH   5   6
ENDBRANCH   4   5
ENDBRANCH   3   4
ENDBRANCH   2   3
ENDBRANCH   1   2
BRANCH   1  12
ATOM     12  C   UNL     1      35.120 104.224 264.854  1.00  0.00     0.000 C 
BRANCH  12  13
ATOM     13  C   UNL     1      35.034 104.485 263.334  1.00  0.00    -0.000 C 
BRANCH  13  14
ATOM     14  C   UNL     1      35.383 105.929 262.932  1.00  0.00    -0.000 C 
BRANCH  14  15
ATOM     15  C   UNL     1      36.738 106.085 262.216  1.00  0.00    -0.000 C 
BRANCH  15  16
ATOM     16  C   UNL     1      36.657 105.883 260.685  1.00  0.00    -0.000 C 
BRANCH  16  17
ATOM     17  C   UNL     1      37.766 104.964 260.148  1.00  0.00    -0.000 C 
BRANCH  17  18
ATOM     18  C   UNL     1      37.848 104.971 258.614  1.00  0.00    -0.003 C 
ATOM     19  C   UNL     1      36.675 105.706 257.964  1.00  0.00     0.004 C 
ENDBRANCH  17  18
ENDBRANCH  16  17
ENDBRANCH  15  16
ENDBRANCH  14  15
ENDBRANCH  13  14
ENDBRANCH  12  13
ENDBRANCH   1  12
TORSDOF 14
ENDMDL
MODEL 5
REMARK VINA RESULT:     0.938      3.449      9.010
REMARK INTER + INTRA:           0.940
REMARK INTER:                   1.565
REMARK INTRA:                  -0.625
REMARK UNBOUND:                -0.766
REMARK SMILES CCCCCCCCCCCCCC[C@@H](C)C(=O)[O-]
REMARK SMILES IDX 9 1 10 2 11 3 12 4 13 5 14 6 15 7 16 8 17 9 18 10 19 11 8 12
REMARK SMILES IDX 7 13 6 14 5 15 4 16 3 17 2 18 1 19
REMARK H PARENT
REMARK Flexibility Score: inf
ROOT
ATOM      1  C   UNL     1      35.606 108.061 266.620  1.00  0.00     0.000 C 
ENDROOT
BRANCH   1   2
ATOM      2  C   UNL     1      35.466 106.697 265.934  1.00  0.00     0.000 C 
BRANCH   2   3
ATOM      3  C   UNL     1      35.060 106.862 264.461  1.00  0.00     0.000 C 
BRANCH   3   4
ATOM      4  C   UNL     1      35.494 105.670 263.593  1.00  0.00     0.000 C 
BRANCH   4   5
ATOM      5  C   UNL     1      36.609 106.038 262.598  1.00  0.00     0.001 C 
BRANCH   5   6
ATOM      6  C   UNL     1      36.470 105.327 261.238  1.00  0.00     0.009 C 
BRANCH   6   7
ATOM      7  C   UNL     1      37.299 105.974 260.103  1.00  0.00     0.032 C 
ATOM      8  C   UNL     1      38.476 105.073 259.715  1.00  0.00     0.014 C 
BRANCH   7   9
ATOM      9  C   UNL     1      36.462 106.241 258.881  1.00  0.00     0.044 C 
ATOM     10  O   UNL     1      36.068 105.283 258.165  1.00  0.00    -0.550 OA
ATOM     11  O   UNL     1      36.087 107.539 258.553  1.00  0.00    -0.550 OA
ENDBRANCH   7   9
ENDBRANCH   6   7
ENDBRANCH   5   6
ENDBRANCH   4   5
ENDBRANCH   3   4
ENDBRANCH   2   3
ENDBRANCH   1   2
BRANCH   1  12
ATOM     12  C   UNL     1      34.875 108.079 267.970  1.00  0.00     0.000 C 
BRANCH  12  13
ATOM     13  C   UNL     1      34.881 106.703 268.672  1.00  0.00    -0.000 C 
BRANCH  13  14
ATOM     14  C   UNL     1      35.613 106.701 270.026  1.00  0.00    -0.000 C 
BRANCH  14  15
ATOM     15  C   UNL     1      36.753 105.671 270.138  1.00  0.00    -0.000 C 
BRANCH  15  16
ATOM     16  C   UNL     1      38.090 106.275 270.625  1.00  0.00    -0.000 C 
BRANCH  16  17
ATOM     17  C   UNL     1      38.818 105.370 271.632  1.00  0.00    -0.000 C 
BRANCH  17  18
ATOM     18  C   UNL     1      37.904 104.282 272.217  1.00  0.00    -0.003 C 
ATOM     19  C   UNL     1      38.659 103.288 273.100  1.00  0.00     0.004 C 
ENDBRANCH  17  18
ENDBRANCH  16  17
ENDBRANCH  15  16
ENDBRANCH  14  15
ENDBRANCH  13  14
ENDBRANCH  12  13
ENDBRANCH   1  12
TORSDOF 14
ENDMDL
