MODEL 1
REMARK VINA RESULT:    -4.862      0.000      0.000
REMARK INTER + INTRA:          -6.676
REMARK INTER:                  -6.568
REMARK INTRA:                  -0.108
REMARK UNBOUND:                -0.108
REMARK SMILES [NH3+]CCCC[C@H]([NH3+])C(=O)[O-]
REMARK SMILES IDX 4 1 3 2 2 3 1 4 5 8 6 9 7 10 8 14 9 15 10 16
REMARK H PARENT 1 5 1 6 1 7 7 11 7 12 7 13
REMARK Flexibility Score: inf
ROOT
ATOM      1  C   UNL     1      14.217  34.924  13.157  1.00  0.00     0.012 C 
ENDROOT
BRANCH   1   2
ATOM      2  C   UNL     1      13.167  36.043  13.175  1.00  0.00     0.061 C 
BRANCH   2   3
ATOM      3  C   UNL     1      13.306  36.949  11.944  1.00  0.00     0.258 C 
BRANCH   3   4
ATOM      4  N   UNL     1      12.070  37.692  11.700  1.00  0.00    -0.358 N 
ATOM      5  H   UNL     1      12.295  38.568  11.176  1.00  0.00     0.344 HD
ATOM      6  H   UNL     1      11.620  37.948  12.609  1.00  0.00     0.344 HD
ATOM      7  H   UNL     1      11.410  37.116  11.129  1.00  0.00     0.344 HD
ENDBRANCH   3   4
ENDBRANCH   2   3
ENDBRANCH   1   2
BRANCH   1   8
ATOM      8  C   UNL     1      13.813  33.775  14.093  1.00  0.00     0.072 C 
BRANCH   8   9
ATOM      9  C   UNL     1      13.396  32.501  13.325  1.00  0.00     0.227 C 
BRANCH   9  10
ATOM     10  N   UNL     1      12.425  31.699  14.083  1.00  0.00    -0.350 N 
ATOM     11  H   UNL     1      12.832  30.765  14.312  1.00  0.00     0.345 HD
ATOM     12  H   UNL     1      12.198  32.175  14.986  1.00  0.00     0.345 HD
ATOM     13  H   UNL     1      11.542  31.569  13.535  1.00  0.00     0.345 HD
ENDBRANCH   9  10
BRANCH   9  14
ATOM     14  C   UNL     1      14.618  31.677  13.013  1.00  0.00     0.099 C 
ATOM     15  O   UNL     1      14.641  30.927  12.001  1.00  0.00    -0.544 OA
ATOM     16  O   UNL     1      15.721  31.724  13.857  1.00  0.00    -0.544 OA
ENDBRANCH   9  14
ENDBRANCH   8   9
ENDBRANCH   1   8
TORSDOF 7
ENDMDL
MODEL 2
REMARK VINA RESULT:    -4.508     12.392     14.152
REMARK INTER + INTRA:          -6.197
REMARK INTER:                  -6.065
REMARK INTRA:                  -0.132
REMARK UNBOUND:                -0.108
REMARK SMILES [NH3+]CCCC[C@H]([NH3+])C(=O)[O-]
REMARK SMILES IDX 4 1 3 2 2 3 1 4 5 8 6 9 7 10 8 14 9 15 10 16
REMARK H PARENT 1 5 1 6 1 7 7 11 7 12 7 13
REMARK Flexibility Score: inf
ROOT
ATOM      1  C   UNL     1       2.724  41.226  11.975  1.00  0.00     0.012 C 
ENDROOT
BRANCH   1   2
ATOM      2  C   UNL     1       4.121  40.824  12.467  1.00  0.00     0.061 C 
BRANCH   2   3
ATOM      3  C   UNL     1       4.131  39.377  12.977  1.00  0.00     0.258 C 
BRANCH   3   4
ATOM      4  N   UNL     1       5.135  39.200  14.027  1.00  0.00    -0.358 N 
ATOM      5  H   UNL     1       5.582  40.122  14.231  1.00  0.00     0.344 HD
ATOM      6  H   UNL     1       5.871  38.529  13.710  1.00  0.00     0.344 HD
ATOM      7  H   UNL     1       4.682  38.843  14.900  1.00  0.00     0.344 HD
ENDBRANCH   3   4
ENDBRANCH   2   3
ENDBRANCH   1   2
BRANCH   1   8
ATOM      8  C   UNL     1       2.585  42.754  11.902  1.00  0.00     0.072 C 
BRANCH   8   9
ATOM      9  C   UNL     1       3.901  43.452  11.492  1.00  0.00     0.227 C 
BRANCH   9  10
ATOM     10  N   UNL     1       4.356  44.403  12.516  1.00  0.00    -0.350 N 
ATOM     11  H   UNL     1       4.709  45.276  12.064  1.00  0.00     0.345 HD
ATOM     12  H   UNL     1       3.556  44.671  13.134  1.00  0.00     0.345 HD
ATOM     13  H   UNL     1       5.114  43.984  13.103  1.00  0.00     0.345 HD
ENDBRANCH   9  10
BRANCH   9  14
ATOM     14  C   UNL     1       3.710  44.159  10.176  1.00  0.00     0.099 C 
ATOM     15  O   UNL     1       4.106  43.629   9.103  1.00  0.00    -0.544 OA
ATOM     16  O   UNL     1       3.114  45.413  10.142  1.00  0.00    -0.544 OA
ENDBRANCH   9  14
ENDBRANCH   8   9
ENDBRANCH   1   8
TORSDOF 7
ENDMDL
MODEL 3
REMARK VINA RESULT:    -4.328     12.525     14.000
REMARK INTER + INTRA:          -5.953
REMARK INTER:                  -5.835
REMARK INTRA:                  -0.119
REMARK UNBOUND:                -0.108
REMARK SMILES [NH3+]CCCC[C@H]([NH3+])C(=O)[O-]
REMARK SMILES IDX 4 1 3 2 2 3 1 4 5 8 6 9 7 10 8 14 9 15 10 16
REMARK H PARENT 1 5 1 6 1 7 7 11 7 12 7 13
REMARK Flexibility Score: inf
ROOT
ATOM      1  C   UNL     1       4.373  40.549  12.752  1.00  0.00     0.012 C 
ENDROOT
BRANCH   1   2
ATOM      2  C   UNL     1       4.374  39.019  12.867  1.00  0.00     0.061 C 
BRANCH   2   3
ATOM      3  C   UNL     1       2.992  38.439  12.536  1.00  0.00     0.258 C 
BRANCH   3   4
ATOM      4  N   UNL     1       3.115  37.211  11.750  1.00  0.00    -0.358 N 
ATOM      5  H   UNL     1       2.850  36.396  12.347  1.00  0.00     0.344 HD
ATOM      6  H   UNL     1       4.102  37.089  11.428  1.00  0.00     0.344 HD
ATOM      7  H   UNL     1       2.476  37.248  10.923  1.00  0.00     0.344 HD
ENDBRANCH   3   4
ENDBRANCH   2   3
ENDBRANCH   1   2
BRANCH   1   8
ATOM      8  C   UNL     1       3.101  41.047  12.048  1.00  0.00     0.072 C 
BRANCH   8   9
ATOM      9  C   UNL     1       3.303  42.410  11.350  1.00  0.00     0.227 C 
BRANCH   9  10
ATOM     10  N   UNL     1       4.156  43.308  12.142  1.00  0.00    -0.350 N 
ATOM     11  H   UNL     1       3.794  43.377  13.120  1.00  0.00     0.345 HD
ATOM     12  H   UNL     1       5.127  42.924  12.193  1.00  0.00     0.345 HD
ATOM     13  H   UNL     1       4.188  44.263  11.715  1.00  0.00     0.345 HD
ENDBRANCH   9  10
BRANCH   9  14
ATOM     14  C   UNL     1       1.964  43.053  11.100  1.00  0.00     0.099 C 
ATOM     15  O   UNL     1       1.695  43.550   9.974  1.00  0.00    -0.544 OA
ATOM     16  O   UNL     1       1.025  43.120  12.122  1.00  0.00    -0.544 OA
ENDBRANCH   9  14
ENDBRANCH   8   9
ENDBRANCH   1   8
TORSDOF 7
ENDMDL
MODEL 4
REMARK VINA RESULT:    -4.229     15.236     16.268
REMARK INTER + INTRA:          -5.820
REMARK INTER:                  -5.684
REMARK INTRA:                  -0.136
REMARK UNBOUND:                -0.108
REMARK SMILES [NH3+]CCCC[C@H]([NH3+])C(=O)[O-]
REMARK SMILES IDX 4 1 3 2 2 3 1 4 5 8 6 9 7 10 8 14 9 15 10 16
REMARK H PARENT 1 5 1 6 1 7 7 11 7 12 7 13
REMARK Flexibility Score: inf
ROOT
ATOM      1  C   UNL     1       6.396  47.575   9.115  1.00  0.00     0.012 C 
ENDROOT
BRANCH   1   2
ATOM      2  C   UNL     1       6.373  49.110   9.109  1.00  0.00     0.061 C 
BRANCH   2   3
ATOM      3  C   UNL     1       5.406  49.651  10.171  1.00  0.00     0.258 C 
BRANCH   3   4
ATOM      4  N   UNL     1       6.053  50.674  10.993  1.00  0.00    -0.358 N 
ATOM      5  H   UNL     1       6.973  50.312  11.328  1.00  0.00     0.344 HD
ATOM      6  H   UNL     1       5.455  50.900  11.821  1.00  0.00     0.344 HD
ATOM      7  H   UNL     1       6.215  51.539  10.428  1.00  0.00     0.344 HD
ENDBRANCH   3   4
ENDBRANCH   2   3
ENDBRANCH   1   2
BRANCH   1   8
ATOM      8  C   UNL     1       5.222  47.011   9.930  1.00  0.00     0.072 C 
BRANCH   8   9
ATOM      9  C   UNL     1       4.504  45.847   9.211  1.00  0.00     0.227 C 
BRANCH   9  10
ATOM     10  N   UNL     1       3.236  46.280   8.605  1.00  0.00    -0.350 N 
ATOM     11  H   UNL     1       3.406  47.069   7.942  1.00  0.00     0.345 HD
ATOM     12  H   UNL     1       2.818  45.493   8.057  1.00  0.00     0.345 HD
ATOM     13  H   UNL     1       2.557  46.583   9.340  1.00  0.00     0.345 HD
ENDBRANCH   9  10
BRANCH   9  14
ATOM     14  C   UNL     1       4.256  44.726  10.186  1.00  0.00     0.099 C 
ATOM     15  O   UNL     1       4.137  43.540   9.779  1.00  0.00    -0.544 OA
ATOM     16  O   UNL     1       4.137  45.000  11.543  1.00  0.00    -0.544 OA
ENDBRANCH   9  14
ENDBRANCH   8   9
ENDBRANCH   1   8
TORSDOF 7
ENDMDL
MODEL 5
REMARK VINA RESULT:    -4.228     14.162     15.089
REMARK INTER + INTRA:          -5.819
REMARK INTER:                  -5.756
REMARK INTRA:                  -0.062
REMARK UNBOUND:                -0.108
REMARK SMILES [NH3+]CCCC[C@H]([NH3+])C(=O)[O-]
REMARK SMILES IDX 4 1 3 2 2 3 1 4 5 8 6 9 7 10 8 14 9 15 10 16
REMARK H PARENT 1 5 1 6 1 7 7 11 7 12 7 13
REMARK Flexibility Score: inf
ROOT
ATOM      1  C   UNL     1       4.512  46.415  10.292  1.00  0.00     0.012 C 
ENDROOT
BRANCH   1   2
ATOM      2  C   UNL     1       5.170  46.921   9.001  1.00  0.00     0.061 C 
BRANCH   2   3
ATOM      3  C   UNL     1       6.557  47.514   9.285  1.00  0.00     0.258 C 
BRANCH   3   4
ATOM      4  N   UNL     1       6.780  48.723   8.492  1.00  0.00    -0.358 N 
ATOM      5  H   UNL     1       5.930  48.915   7.915  1.00  0.00     0.344 HD
ATOM      6  H   UNL     1       7.598  48.588   7.855  1.00  0.00     0.344 HD
ATOM      7  H   UNL     1       6.953  49.540   9.122  1.00  0.00     0.344 HD
ENDBRANCH   3   4
ENDBRANCH   2   3
ENDBRANCH   1   2
BRANCH   1   8
ATOM      8  C   UNL     1       4.289  44.896  10.237  1.00  0.00     0.072 C 
BRANCH   8   9
ATOM      9  C   UNL     1       3.618  44.347  11.515  1.00  0.00     0.227 C 
BRANCH   9  10
ATOM     10  N   UNL     1       4.541  44.345  12.659  1.00  0.00    -0.350 N 
ATOM     11  H   UNL     1       4.591  43.389  13.078  1.00  0.00     0.345 HD
ATOM     12  H   UNL     1       5.504  44.599  12.340  1.00  0.00     0.345 HD
ATOM     13  H   UNL     1       4.232  45.028  13.388  1.00  0.00     0.345 HD
ENDBRANCH   9  10
BRANCH   9  14
ATOM     14  C   UNL     1       3.107  42.953  11.259  1.00  0.00     0.099 C 
ATOM     15  O   UNL     1       3.479  41.993  11.985  1.00  0.00    -0.544 OA
ATOM     16  O   UNL     1       2.235  42.717  10.203  1.00  0.00    -0.544 OA
ENDBRANCH   9  14
ENDBRANCH   8   9
ENDBRANCH   1   8
TORSDOF 7
ENDMDL
MODEL 6
REMARK VINA RESULT:    -4.142      3.265      4.828
REMARK INTER + INTRA:          -5.702
REMARK INTER:                  -5.500
REMARK INTRA:                  -0.203
REMARK UNBOUND:                -0.108
REMARK SMILES [NH3+]CCCC[C@H]([NH3+])C(=O)[O-]
REMARK SMILES IDX 4 1 3 2 2 3 1 4 5 8 6 9 7 10 8 14 9 15 10 16
REMARK H PARENT 1 5 1 6 1 7 7 11 7 12 7 13
REMARK Flexibility Score: inf
ROOT
ATOM      1  C   UNL     1      13.201  32.340  13.707  1.00  0.00     0.012 C 
ENDROOT
BRANCH   1   2
ATOM      2  C   UNL     1      13.875  32.022  12.366  1.00  0.00     0.061 C 
BRANCH   2   3
ATOM      3  C   UNL     1      14.993  30.986  12.543  1.00  0.00     0.258 C 
BRANCH   3   4
ATOM      4  N   UNL     1      16.193  31.603  13.107  1.00  0.00    -0.358 N 
ATOM      5  H   UNL     1      16.098  32.642  13.057  1.00  0.00     0.344 HD
ATOM      6  H   UNL     1      17.036  31.313  12.562  1.00  0.00     0.344 HD
ATOM      7  H   UNL     1      16.305  31.321  14.108  1.00  0.00     0.344 HD
ENDBRANCH   3   4
ENDBRANCH   2   3
ENDBRANCH   1   2
BRANCH   1   8
ATOM      8  C   UNL     1      13.143  33.857  13.948  1.00  0.00     0.072 C 
BRANCH   8   9
ATOM      9  C   UNL     1      14.192  34.630  13.119  1.00  0.00     0.227 C 
BRANCH   9  10
ATOM     10  N   UNL     1      15.440  34.833  13.869  1.00  0.00    -0.350 N 
ATOM     11  H   UNL     1      15.909  35.712  13.554  1.00  0.00     0.345 HD
ATOM     12  H   UNL     1      15.230  34.936  14.888  1.00  0.00     0.345 HD
ATOM     13  H   UNL     1      16.090  34.025  13.734  1.00  0.00     0.345 HD
ENDBRANCH   9  10
BRANCH   9  14
ATOM     14  C   UNL     1      13.621  35.958  12.694  1.00  0.00     0.099 C 
ATOM     15  O   UNL     1      12.804  36.568  13.434  1.00  0.00    -0.544 OA
ATOM     16  O   UNL     1      13.979  36.507  11.468  1.00  0.00    -0.544 OA
ENDBRANCH   9  14
ENDBRANCH   8   9
ENDBRANCH   1   8
TORSDOF 7
ENDMDL
MODEL 7
REMARK VINA RESULT:    -4.115     15.810     17.026
REMARK INTER + INTRA:          -5.666
REMARK INTER:                  -5.542
REMARK INTRA:                  -0.124
REMARK UNBOUND:                -0.108
REMARK SMILES [NH3+]CCCC[C@H]([NH3+])C(=O)[O-]
REMARK SMILES IDX 4 1 3 2 2 3 1 4 5 8 6 9 7 10 8 14 9 15 10 16
REMARK H PARENT 1 5 1 6 1 7 7 11 7 12 7 13
REMARK Flexibility Score: inf
ROOT
ATOM      1  C   UNL     1       4.198  45.990   9.272  1.00  0.00     0.012 C 
ENDROOT
BRANCH   1   2
ATOM      2  C   UNL     1       4.141  44.620   9.961  1.00  0.00     0.061 C 
BRANCH   2   3
ATOM      3  C   UNL     1       3.473  44.722  11.338  1.00  0.00     0.258 C 
BRANCH   3   4
ATOM      4  N   UNL     1       4.429  44.430  12.406  1.00  0.00    -0.358 N 
ATOM      5  H   UNL     1       4.332  45.149  13.158  1.00  0.00     0.344 HD
ATOM      6  H   UNL     1       5.405  44.461  12.032  1.00  0.00     0.344 HD
ATOM      7  H   UNL     1       4.236  43.486  12.813  1.00  0.00     0.344 HD
ENDBRANCH   3   4
ENDBRANCH   2   3
ENDBRANCH   1   2
BRANCH   1   8
ATOM      8  C   UNL     1       5.411  46.799   9.756  1.00  0.00     0.072 C 
BRANCH   8   9
ATOM      9  C   UNL     1       5.478  48.206   9.123  1.00  0.00     0.227 C 
BRANCH   9  10
ATOM     10  N   UNL     1       6.786  48.464   8.502  1.00  0.00    -0.350 N 
ATOM     11  H   UNL     1       7.140  47.597   8.039  1.00  0.00     0.345 HD
ATOM     12  H   UNL     1       6.690  49.198   7.763  1.00  0.00     0.345 HD
ATOM     13  H   UNL     1       7.480  48.786   9.215  1.00  0.00     0.345 HD
ENDBRANCH   9  10
BRANCH   9  14
ATOM     14  C   UNL     1       5.189  49.247  10.172  1.00  0.00     0.099 C 
ATOM     15  O   UNL     1       6.039  50.137  10.441  1.00  0.00    -0.544 OA
ATOM     16  O   UNL     1       3.986  49.217  10.867  1.00  0.00    -0.544 OA
ENDBRANCH   9  14
ENDBRANCH   8   9
ENDBRANCH   1   8
TORSDOF 7
ENDMDL
MODEL 8
REMARK VINA RESULT:    -4.115     16.335     17.369
REMARK INTER + INTRA:          -5.666
REMARK INTER:                  -5.187
REMARK INTRA:                  -0.479
REMARK UNBOUND:                -0.108
REMARK SMILES [NH3+]CCCC[C@H]([NH3+])C(=O)[O-]
REMARK SMILES IDX 4 1 3 2 2 3 1 4 5 8 6 9 7 10 8 14 9 15 10 16
REMARK H PARENT 1 5 1 6 1 7 7 11 7 12 7 13
REMARK Flexibility Score: inf
ROOT
ATOM      1  C   UNL     1       6.616  48.444   9.388  1.00  0.00     0.012 C 
ENDROOT
BRANCH   1   2
ATOM      2  C   UNL     1       6.369  49.730   8.587  1.00  0.00     0.061 C 
BRANCH   2   3
ATOM      3  C   UNL     1       5.815  50.842   9.487  1.00  0.00     0.258 C 
BRANCH   3   4
ATOM      4  N   UNL     1       5.814  50.428  10.890  1.00  0.00    -0.358 N 
ATOM      5  H   UNL     1       6.400  49.569  10.993  1.00  0.00     0.344 HD
ATOM      6  H   UNL     1       4.839  50.212  11.199  1.00  0.00     0.344 HD
ATOM      7  H   UNL     1       6.215  51.186  11.488  1.00  0.00     0.344 HD
ENDBRANCH   3   4
ENDBRANCH   2   3
ENDBRANCH   1   2
BRANCH   1   8
ATOM      8  C   UNL     1       5.645  47.333   8.957  1.00  0.00     0.072 C 
BRANCH   8   9
ATOM      9  C   UNL     1       4.904  46.695  10.153  1.00  0.00     0.227 C 
BRANCH   9  10
ATOM     10  N   UNL     1       4.687  45.254   9.954  1.00  0.00    -0.350 N 
ATOM     11  H   UNL     1       5.033  44.966   9.012  1.00  0.00     0.345 HD
ATOM     12  H   UNL     1       5.227  44.711  10.667  1.00  0.00     0.345 HD
ATOM     13  H   UNL     1       3.672  45.016  10.041  1.00  0.00     0.345 HD
ENDBRANCH   9  10
BRANCH   9  14
ATOM     14  C   UNL     1       3.587  47.394  10.363  1.00  0.00     0.099 C 
ATOM     15  O   UNL     1       3.542  48.512  10.942  1.00  0.00    -0.544 OA
ATOM     16  O   UNL     1       2.408  46.795   9.937  1.00  0.00    -0.544 OA
ENDBRANCH   9  14
ENDBRANCH   8   9
ENDBRANCH   1   8
TORSDOF 7
ENDMDL
MODEL 9
REMARK VINA RESULT:    -4.056     15.714     17.208
REMARK INTER + INTRA:          -5.587
REMARK INTER:                  -5.403
REMARK INTRA:                  -0.184
REMARK UNBOUND:                -0.108
REMARK SMILES [NH3+]CCCC[C@H]([NH3+])C(=O)[O-]
REMARK SMILES IDX 4 1 3 2 2 3 1 4 5 8 6 9 7 10 8 14 9 15 10 16
REMARK H PARENT 1 5 1 6 1 7 7 11 7 12 7 13
REMARK Flexibility Score: inf
ROOT
ATOM      1  C   UNL     1       4.515  46.186  10.525  1.00  0.00     0.012 C 
ENDROOT
BRANCH   1   2
ATOM      2  C   UNL     1       3.784  45.468   9.383  1.00  0.00     0.061 C 
BRANCH   2   3
ATOM      3  C   UNL     1       4.053  43.958   9.419  1.00  0.00     0.258 C 
BRANCH   3   4
ATOM      4  N   UNL     1       4.656  43.564  10.693  1.00  0.00    -0.358 N 
ATOM      5  H   UNL     1       3.974  42.982  11.229  1.00  0.00     0.344 HD
ATOM      6  H   UNL     1       4.891  44.414  11.256  1.00  0.00     0.344 HD
ATOM      7  H   UNL     1       5.521  43.002  10.523  1.00  0.00     0.344 HD
ENDBRANCH   3   4
ENDBRANCH   2   3
ENDBRANCH   1   2
BRANCH   1   8
ATOM      8  C   UNL     1       4.835  47.640  10.145  1.00  0.00     0.072 C 
BRANCH   8   9
ATOM      9  C   UNL     1       5.303  47.782   8.680  1.00  0.00     0.227 C 
BRANCH   9  10
ATOM     10  N   UNL     1       6.750  48.029   8.590  1.00  0.00    -0.350 N 
ATOM     11  H   UNL     1       6.986  48.442   7.661  1.00  0.00     0.345 HD
ATOM     12  H   UNL     1       7.040  48.716   9.323  1.00  0.00     0.345 HD
ATOM     13  H   UNL     1       7.288  47.141   8.723  1.00  0.00     0.345 HD
ENDBRANCH   9  10
BRANCH   9  14
ATOM     14  C   UNL     1       4.545  48.899   8.013  1.00  0.00     0.099 C 
ATOM     15  O   UNL     1       3.576  48.646   7.249  1.00  0.00    -0.544 OA
ATOM     16  O   UNL     1       4.926  50.219   8.223  1.00  0.00    -0.544 OA
ENDBRANCH   9  14
ENDBRANCH   8   9
ENDBRANCH   1   8
TORSDOF 7
ENDMDL
