MODEL 1
REMARK VINA RESULT:    -3.783      0.000      0.000
REMARK INTER + INTRA:          -4.448
REMARK INTER:                  -4.336
REMARK INTRA:                  -0.112
REMARK UNBOUND:                -0.112
REMARK SMILES C=Cc1ccc(O)c(OC)c1
REMARK SMILES IDX 8 1 6 2 5 3 4 4 3 5 11 6 9 7 10 8 7 9 2 11 1 12
REMARK H PARENT 7 10
REMARK Flexibility Score: inf
ROOT
ATOM      1  C   UNL     1     136.340 135.804 128.433  1.00  0.00     0.161 A 
ATOM      2  C   UNL     1     135.141 135.550 129.123  1.00  0.00     0.157 A 
ATOM      3  C   UNL     1     134.265 136.599 129.410  1.00  0.00     0.051 A 
ATOM      4  C   UNL     1     134.565 137.902 129.010  1.00  0.00     0.012 A 
ATOM      5  C   UNL     1     135.745 138.177 128.305  1.00  0.00    -0.022 A 
ATOM      6  C   UNL     1     136.638 137.123 128.029  1.00  0.00     0.058 A 
ENDROOT
BRANCH   1   7
ATOM      7  O   UNL     1     137.207 134.731 128.167  1.00  0.00    -0.493 OA
ATOM      8  C   UNL     1     138.292 134.340 129.002  1.00  0.00     0.278 C 
ENDBRANCH   1   7
BRANCH   2   9
ATOM      9  O   UNL     1     134.807 134.260 129.537  1.00  0.00    -0.504 OA
ATOM     10  H   UNL     1     134.483 133.553 128.890  1.00  0.00     0.293 HD
ENDBRANCH   2   9
BRANCH   5  11
ATOM     11  C   UNL     1     136.020 139.581 127.909  1.00  0.00     0.000 C 
ATOM     12  C   UNL     1     135.510 140.647 128.527  1.00  0.00     0.009 C 
ENDBRANCH   5  11
TORSDOF 3
ENDMDL
MODEL 2
REMARK VINA RESULT:    -3.747      3.992      6.057
REMARK INTER + INTRA:          -4.407
REMARK INTER:                  -4.292
REMARK INTRA:                  -0.115
REMARK UNBOUND:                -0.112
REMARK SMILES C=Cc1ccc(O)c(OC)c1
REMARK SMILES IDX 8 1 6 2 5 3 4 4 3 5 11 6 9 7 10 8 7 9 2 11 1 12
REMARK H PARENT 7 10
REMARK Flexibility Score: inf
ROOT
ATOM      1  C   UNL     1     138.828 139.516 128.665  1.00  0.00     0.161 A 
ATOM      2  C   UNL     1     140.064 139.781 129.279  1.00  0.00     0.157 A 
ATOM      3  C   UNL     1     140.997 138.754 129.442  1.00  0.00     0.051 A 
ATOM      4  C   UNL     1     140.715 137.464 128.993  1.00  0.00     0.012 A 
ATOM      5  C   UNL     1     139.496 137.179 128.361  1.00  0.00    -0.022 A 
ATOM      6  C   UNL     1     138.547 138.210 128.211  1.00  0.00     0.058 A 
ENDROOT
BRANCH   1   7
ATOM      7  O   UNL     1     137.905 140.567 128.523  1.00  0.00    -0.493 OA
ATOM      8  C   UNL     1     136.775 140.771 129.366  1.00  0.00     0.278 C 
ENDBRANCH   1   7
BRANCH   2   9
ATOM      9  O   UNL     1     140.382 141.059 129.740  1.00  0.00    -0.504 OA
ATOM     10  H   UNL     1     140.018 141.424 130.611  1.00  0.00     0.293 HD
ENDBRANCH   2   9
BRANCH   5  11
ATOM     11  C   UNL     1     139.243 135.788 127.908  1.00  0.00     0.000 C 
ATOM     12  C   UNL     1     139.699 134.702 128.533  1.00  0.00     0.009 C 
ENDBRANCH   5  11
TORSDOF 3
ENDMDL
MODEL 3
REMARK VINA RESULT:    -3.736      2.724      4.278
REMARK INTER + INTRA:          -4.394
REMARK INTER:                  -4.290
REMARK INTRA:                  -0.104
REMARK UNBOUND:                -0.112
REMARK SMILES C=Cc1ccc(O)c(OC)c1
REMARK SMILES IDX 8 1 6 2 5 3 4 4 3 5 11 6 9 7 10 8 7 9 2 11 1 12
REMARK H PARENT 7 10
REMARK Flexibility Score: inf
ROOT
ATOM      1  C   UNL     1     137.595 135.024 129.589  1.00  0.00     0.161 A 
ATOM      2  C   UNL     1     138.560 134.228 128.946  1.00  0.00     0.157 A 
ATOM      3  C   UNL     1     139.891 134.646 128.900  1.00  0.00     0.051 A 
ATOM      4  C   UNL     1     140.278 135.847 129.495  1.00  0.00     0.012 A 
ATOM      5  C   UNL     1     139.337 136.650 130.158  1.00  0.00    -0.022 A 
ATOM      6  C   UNL     1     137.990 136.238 130.190  1.00  0.00     0.058 A 
ENDROOT
BRANCH   1   7
ATOM      7  O   UNL     1     136.261 134.583 129.611  1.00  0.00    -0.493 OA
ATOM      8  C   UNL     1     135.164 135.293 129.045  1.00  0.00     0.278 C 
ENDBRANCH   1   7
BRANCH   2   9
ATOM      9  O   UNL     1     138.211 133.020 128.342  1.00  0.00    -0.504 OA
ATOM     10  H   UNL     1     138.390 132.126 128.781  1.00  0.00     0.293 HD
ENDBRANCH   2   9
BRANCH   5  11
ATOM     11  C   UNL     1     139.799 137.922 130.767  1.00  0.00     0.000 C 
ATOM     12  C   UNL     1     140.606 138.794 130.161  1.00  0.00     0.009 C 
ENDBRANCH   5  11
TORSDOF 3
ENDMDL
MODEL 4
REMARK VINA RESULT:    -3.732      2.621      4.218
REMARK INTER + INTRA:          -4.389
REMARK INTER:                  -4.289
REMARK INTRA:                  -0.100
REMARK UNBOUND:                -0.112
REMARK SMILES C=Cc1ccc(O)c(OC)c1
REMARK SMILES IDX 8 1 6 2 5 3 4 4 3 5 11 6 9 7 10 8 7 9 2 11 1 12
REMARK H PARENT 7 10
REMARK Flexibility Score: inf
ROOT
ATOM      1  C   UNL     1     135.180 135.553 130.273  1.00  0.00     0.161 A 
ATOM      2  C   UNL     1     134.626 135.978 129.052  1.00  0.00     0.157 A 
ATOM      3  C   UNL     1     135.376 135.890 127.877  1.00  0.00     0.051 A 
ATOM      4  C   UNL     1     136.672 135.375 127.901  1.00  0.00     0.012 A 
ATOM      5  C   UNL     1     137.240 134.928 129.103  1.00  0.00    -0.022 A 
ATOM      6  C   UNL     1     136.491 135.032 130.292  1.00  0.00     0.058 A 
ENDROOT
BRANCH   1   7
ATOM      7  O   UNL     1     134.406 135.662 131.440  1.00  0.00    -0.493 OA
ATOM      8  C   UNL     1     134.251 134.630 132.409  1.00  0.00     0.278 C 
ENDBRANCH   1   7
BRANCH   2   9
ATOM      9  O   UNL     1     133.332 136.496 128.989  1.00  0.00    -0.504 OA
ATOM     10  H   UNL     1     132.603 136.063 128.436  1.00  0.00     0.293 HD
ENDBRANCH   2   9
BRANCH   5  11
ATOM     11  C   UNL     1     138.625 134.396 129.074  1.00  0.00     0.000 C 
ATOM     12  C   UNL     1     139.148 133.722 128.048  1.00  0.00     0.009 C 
ENDBRANCH   5  11
TORSDOF 3
ENDMDL
MODEL 5
REMARK VINA RESULT:    -3.728      3.438      4.540
REMARK INTER + INTRA:          -4.385
REMARK INTER:                  -4.298
REMARK INTRA:                  -0.088
REMARK UNBOUND:                -0.112
REMARK SMILES C=Cc1ccc(O)c(OC)c1
REMARK SMILES IDX 8 1 6 2 5 3 4 4 3 5 11 6 9 7 10 8 7 9 2 11 1 12
REMARK H PARENT 7 10
REMARK Flexibility Score: inf
ROOT
ATOM      1  C   UNL     1     139.131 134.983 130.637  1.00  0.00     0.161 A 
ATOM      2  C   UNL     1     139.143 134.627 129.276  1.00  0.00     0.157 A 
ATOM      3  C   UNL     1     137.958 134.652 128.538  1.00  0.00     0.051 A 
ATOM      4  C   UNL     1     136.758 135.035 129.137  1.00  0.00     0.012 A 
ATOM      5  C   UNL     1     136.723 135.411 130.488  1.00  0.00    -0.022 A 
ATOM      6  C   UNL     1     137.915 135.371 131.238  1.00  0.00     0.058 A 
ENDROOT
BRANCH   1   7
ATOM      7  O   UNL     1     140.337 134.939 131.357  1.00  0.00    -0.493 OA
ATOM      8  C   UNL     1     140.560 134.140 132.514  1.00  0.00     0.278 C 
ENDBRANCH   1   7
BRANCH   2   9
ATOM      9  O   UNL     1     140.324 134.241 128.643  1.00  0.00    -0.504 OA
ATOM     10  H   UNL     1     141.210 134.696 128.827  1.00  0.00     0.293 HD
ENDBRANCH   2   9
BRANCH   5  11
ATOM     11  C   UNL     1     135.419 135.803 131.078  1.00  0.00     0.000 C 
ATOM     12  C   UNL     1     134.656 134.994 131.813  1.00  0.00     0.009 C 
ENDBRANCH   5  11
TORSDOF 3
ENDMDL
MODEL 6
REMARK VINA RESULT:    -3.725      3.827      4.924
REMARK INTER + INTRA:          -4.382
REMARK INTER:                  -4.279
REMARK INTRA:                  -0.103
REMARK UNBOUND:                -0.112
REMARK SMILES C=Cc1ccc(O)c(OC)c1
REMARK SMILES IDX 8 1 6 2 5 3 4 4 3 5 11 6 9 7 10 8 7 9 2 11 1 12
REMARK H PARENT 7 10
REMARK Flexibility Score: inf
ROOT
ATOM      1  C   UNL     1     140.171 137.550 129.552  1.00  0.00     0.161 A 
ATOM      2  C   UNL     1     140.974 138.538 128.955  1.00  0.00     0.157 A 
ATOM      3  C   UNL     1     140.547 139.867 128.934  1.00  0.00     0.051 A 
ATOM      4  C   UNL     1     139.328 140.228 129.510  1.00  0.00     0.012 A 
ATOM      5  C   UNL     1     138.517 139.264 130.127  1.00  0.00    -0.022 A 
ATOM      6  C   UNL     1     138.940 137.920 130.133  1.00  0.00     0.058 A 
ENDROOT
BRANCH   1   7
ATOM      7  O   UNL     1     140.622 136.219 129.549  1.00  0.00    -0.493 OA
ATOM      8  C   UNL     1     139.885 135.116 129.032  1.00  0.00     0.278 C 
ENDBRANCH   1   7
BRANCH   2   9
ATOM      9  O   UNL     1     142.199 138.215 128.371  1.00  0.00    -0.504 OA
ATOM     10  H   UNL     1     143.007 137.950 128.922  1.00  0.00     0.293 HD
ENDBRANCH   2   9
BRANCH   5  11
ATOM     11  C   UNL     1     137.228 139.700 130.717  1.00  0.00     0.000 C 
ATOM     12  C   UNL     1     136.416 140.602 130.163  1.00  0.00     0.009 C 
ENDBRANCH   5  11
TORSDOF 3
ENDMDL
MODEL 7
REMARK VINA RESULT:    -3.717      5.318      6.648
REMARK INTER + INTRA:          -4.372
REMARK INTER:                  -4.289
REMARK INTRA:                  -0.084
REMARK UNBOUND:                -0.112
REMARK SMILES C=Cc1ccc(O)c(OC)c1
REMARK SMILES IDX 8 1 6 2 5 3 4 4 3 5 11 6 9 7 10 8 7 9 2 11 1 12
REMARK H PARENT 7 10
REMARK Flexibility Score: inf
ROOT
ATOM      1  C   UNL     1     140.228 139.053 130.690  1.00  0.00     0.161 A 
ATOM      2  C   UNL     1     140.561 139.085 129.324  1.00  0.00     0.157 A 
ATOM      3  C   UNL     1     140.542 137.909 128.572  1.00  0.00     0.051 A 
ATOM      4  C   UNL     1     140.187 136.696 129.163  1.00  0.00     0.012 A 
ATOM      5  C   UNL     1     139.834 136.640 130.519  1.00  0.00    -0.022 A 
ATOM      6  C   UNL     1     139.869 137.824 131.283  1.00  0.00     0.058 A 
ENDROOT
BRANCH   1   7
ATOM      7  O   UNL     1     140.266 140.250 131.424  1.00  0.00    -0.493 OA
ATOM      8  C   UNL     1     141.016 140.444 132.619  1.00  0.00     0.278 C 
ENDBRANCH   1   7
BRANCH   2   9
ATOM      9  O   UNL     1     140.920 140.280 128.698  1.00  0.00    -0.504 OA
ATOM     10  H   UNL     1     140.566 140.538 127.785  1.00  0.00     0.293 HD
ENDBRANCH   2   9
BRANCH   5  11
ATOM     11  C   UNL     1     139.471 135.324 131.100  1.00  0.00     0.000 C 
ATOM     12  C   UNL     1     140.258 134.623 131.918  1.00  0.00     0.009 C 
ENDBRANCH   5  11
TORSDOF 3
ENDMDL
MODEL 8
REMARK VINA RESULT:    -3.703      2.833      4.068
REMARK INTER + INTRA:          -4.357
REMARK INTER:                  -4.242
REMARK INTRA:                  -0.114
REMARK UNBOUND:                -0.112
REMARK SMILES C=Cc1ccc(O)c(OC)c1
REMARK SMILES IDX 8 1 6 2 5 3 4 4 3 5 11 6 9 7 10 8 7 9 2 11 1 12
REMARK H PARENT 7 10
REMARK Flexibility Score: inf
ROOT
ATOM      1  C   UNL     1     139.211 136.358 128.395  1.00  0.00     0.161 A 
ATOM      2  C   UNL     1     139.430 135.087 128.954  1.00  0.00     0.157 A 
ATOM      3  C   UNL     1     138.345 134.294 129.333  1.00  0.00     0.051 A 
ATOM      4  C   UNL     1     137.038 134.750 129.154  1.00  0.00     0.012 A 
ATOM      5  C   UNL     1     136.793 136.007 128.583  1.00  0.00    -0.022 A 
ATOM      6  C   UNL     1     137.888 136.815 128.216  1.00  0.00     0.058 A 
ENDROOT
BRANCH   1   7
ATOM      7  O   UNL     1     140.323 137.138 128.033  1.00  0.00    -0.493 OA
ATOM      8  C   UNL     1     140.923 138.127 128.863  1.00  0.00     0.278 C 
ENDBRANCH   1   7
BRANCH   2   9
ATOM      9  O   UNL     1     140.722 134.597 129.146  1.00  0.00    -0.504 OA
ATOM     10  H   UNL     1     141.456 134.728 128.462  1.00  0.00     0.293 HD
ENDBRANCH   2   9
BRANCH   5  11
ATOM     11  C   UNL     1     135.385 136.447 128.422  1.00  0.00     0.000 C 
ATOM     12  C   UNL     1     134.343 135.617 128.360  1.00  0.00     0.009 C 
ENDBRANCH   5  11
TORSDOF 3
ENDMDL
