MODEL 1
REMARK VINA RESULT:    -4.952      0.000      0.000
REMARK INTER + INTRA:          -5.615
REMARK INTER:                  -5.242
REMARK INTRA:                  -0.373
REMARK UNBOUND:                -0.373
REMARK SMILES CC1=CC[C@@H]2[C@H]3[C@H](C(C)C)CC[C@]2(C)[C@@H]13
REMARK SMILES IDX 1 1 2 2 3 3 4 4 5 5 6 6 15 7 13 8 12 9 11 10 7 11 14 12 8 13
REMARK SMILES IDX 9 14 10 15
REMARK H PARENT
REMARK Flexibility Score: inf
ROOT
ATOM      1  C   UNL     1      12.126   5.964  20.248  1.00  0.00     0.039 C 
ATOM      2  C   UNL     1      12.039   6.147  18.762  1.00  0.00    -0.073 C 
ATOM      3  C   UNL     1      10.875   5.987  18.079  1.00  0.00    -0.027 C 
ATOM      4  C   UNL     1      10.878   6.184  16.559  1.00  0.00     0.031 C 
ATOM      5  C   UNL     1      12.322   6.507  16.054  1.00  0.00     0.003 C 
ATOM      6  C   UNL     1      13.287   5.501  16.727  1.00  0.00     0.004 C 
ATOM      7  C   UNL     1      13.289   6.466  17.942  1.00  0.00     0.024 C 
ATOM      8  C   UNL     1      12.998   7.595  16.923  1.00  0.00    -0.022 C 
ATOM      9  C   UNL     1      14.314   8.059  16.226  1.00  0.00     0.008 C 
ATOM     10  C   UNL     1      15.334   6.902  16.051  1.00  0.00     0.005 C 
ATOM     11  C   UNL     1      14.650   5.504  15.966  1.00  0.00    -0.005 C 
ATOM     12  C   UNL     1      12.156   8.809  17.378  1.00  0.00     0.012 C 
ENDROOT
BRANCH  11  13
ATOM     13  C   UNL     1      15.609   4.349  16.389  1.00  0.00    -0.014 C 
ATOM     14  C   UNL     1      16.947   4.833  16.973  1.00  0.00     0.007 C 
ATOM     15  C   UNL     1      14.928   3.385  17.373  1.00  0.00     0.007 C 
ENDBRANCH  11  13
TORSDOF 1
ENDMDL
MODEL 2
REMARK VINA RESULT:    -4.901      1.437      4.513
REMARK INTER + INTRA:          -5.561
REMARK INTER:                  -5.138
REMARK INTRA:                  -0.423
REMARK UNBOUND:                -0.373
REMARK SMILES CC1=CC[C@@H]2[C@H]3[C@H](C(C)C)CC[C@]2(C)[C@@H]13
REMARK SMILES IDX 1 1 2 2 3 3 4 4 5 5 6 6 15 7 13 8 12 9 11 10 7 11 14 12 8 13
REMARK SMILES IDX 9 14 10 15
REMARK H PARENT
REMARK Flexibility Score: inf
ROOT
ATOM      1  C   UNL     1      16.051   6.914  18.849  1.00  0.00     0.039 C 
ATOM      2  C   UNL     1      15.269   6.091  17.870  1.00  0.00    -0.073 C 
ATOM      3  C   UNL     1      15.861   5.439  16.835  1.00  0.00    -0.027 C 
ATOM      4  C   UNL     1      14.985   4.627  15.875  1.00  0.00     0.031 C 
ATOM      5  C   UNL     1      13.478   4.753  16.275  1.00  0.00     0.003 C 
ATOM      6  C   UNL     1      13.190   6.250  16.540  1.00  0.00     0.004 C 
ATOM      7  C   UNL     1      13.745   6.003  17.967  1.00  0.00     0.024 C 
ATOM      8  C   UNL     1      13.273   4.539  17.794  1.00  0.00    -0.022 C 
ATOM      9  C   UNL     1      11.746   4.415  18.089  1.00  0.00     0.008 C 
ATOM     10  C   UNL     1      10.958   5.691  17.687  1.00  0.00     0.005 C 
ATOM     11  C   UNL     1      11.647   6.487  16.539  1.00  0.00    -0.005 C 
ATOM     12  C   UNL     1      14.065   3.412  18.498  1.00  0.00     0.012 C 
ENDROOT
BRANCH  11  13
ATOM     13  C   UNL     1      11.242   7.993  16.538  1.00  0.00    -0.014 C 
ATOM     14  C   UNL     1      10.875   8.541  17.927  1.00  0.00     0.007 C 
ATOM     15  C   UNL     1      12.335   8.868  15.904  1.00  0.00     0.007 C 
ENDBRANCH  11  13
TORSDOF 1
ENDMDL
MODEL 3
REMARK VINA RESULT:    -4.665      2.075      3.585
REMARK INTER + INTRA:          -5.311
REMARK INTER:                  -5.008
REMARK INTRA:                  -0.303
REMARK UNBOUND:                -0.373
REMARK SMILES CC1=CC[C@@H]2[C@H]3[C@H](C(C)C)CC[C@]2(C)[C@@H]13
REMARK SMILES IDX 1 1 2 2 3 3 4 4 5 5 6 6 15 7 13 8 12 9 11 10 7 11 14 12 8 13
REMARK SMILES IDX 9 14 10 15
REMARK H PARENT
REMARK Flexibility Score: inf
ROOT
ATOM      1  C   UNL     1      13.298   8.339  19.085  1.00  0.00     0.039 C 
ATOM      2  C   UNL     1      12.704   7.045  18.614  1.00  0.00    -0.073 C 
ATOM      3  C   UNL     1      11.403   6.940  18.236  1.00  0.00    -0.027 C 
ATOM      4  C   UNL     1      10.875   5.576  17.777  1.00  0.00     0.031 C 
ATOM      5  C   UNL     1      11.998   4.493  17.885  1.00  0.00     0.003 C 
ATOM      6  C   UNL     1      12.674   4.660  19.267  1.00  0.00     0.004 C 
ATOM      7  C   UNL     1      13.538   5.763  18.602  1.00  0.00     0.024 C 
ATOM      8  C   UNL     1      13.330   4.993  17.276  1.00  0.00    -0.022 C 
ATOM      9  C   UNL     1      14.324   3.794  17.175  1.00  0.00     0.008 C 
ATOM     10  C   UNL     1      14.649   3.173  18.560  1.00  0.00     0.005 C 
ATOM     11  C   UNL     1      13.502   3.378  19.595  1.00  0.00    -0.005 C 
ATOM     12  C   UNL     1      13.287   5.788  15.950  1.00  0.00     0.012 C 
ENDROOT
BRANCH  11  13
ATOM     13  C   UNL     1      14.017   3.320  21.067  1.00  0.00    -0.014 C 
ATOM     14  C   UNL     1      13.294   4.289  22.018  1.00  0.00     0.007 C 
ATOM     15  C   UNL     1      13.950   1.891  21.628  1.00  0.00     0.007 C 
ENDBRANCH  11  13
TORSDOF 1
ENDMDL
MODEL 4
REMARK VINA RESULT:    -4.352      1.614      4.812
REMARK INTER + INTRA:          -4.980
REMARK INTER:                  -4.612
REMARK INTRA:                  -0.369
REMARK UNBOUND:                -0.373
REMARK SMILES CC1=CC[C@@H]2[C@H]3[C@H](C(C)C)CC[C@]2(C)[C@@H]13
REMARK SMILES IDX 1 1 2 2 3 3 4 4 5 5 6 6 15 7 13 8 12 9 11 10 7 11 14 12 8 13
REMARK SMILES IDX 9 14 10 15
REMARK H PARENT
REMARK Flexibility Score: inf
ROOT
ATOM      1  C   UNL     1      16.516   7.180  17.252  1.00  0.00     0.039 C 
ATOM      2  C   UNL     1      15.658   5.958  17.114  1.00  0.00    -0.073 C 
ATOM      3  C   UNL     1      15.540   5.284  15.940  1.00  0.00    -0.027 C 
ATOM      4  C   UNL     1      14.633   4.050  15.886  1.00  0.00     0.031 C 
ATOM      5  C   UNL     1      13.942   3.820  17.269  1.00  0.00     0.003 C 
ATOM      6  C   UNL     1      13.396   5.186  17.750  1.00  0.00     0.004 C 
ATOM      7  C   UNL     1      14.824   5.455  18.293  1.00  0.00     0.024 C 
ATOM      8  C   UNL     1      14.956   3.919  18.435  1.00  0.00    -0.022 C 
ATOM      9  C   UNL     1      14.271   3.427  19.748  1.00  0.00     0.008 C 
ATOM     10  C   UNL     1      13.036   4.285  20.132  1.00  0.00     0.005 C 
ATOM     11  C   UNL     1      12.362   4.955  18.896  1.00  0.00    -0.005 C 
ATOM     12  C   UNL     1      16.349   3.271  18.262  1.00  0.00     0.012 C 
ENDROOT
BRANCH  11  13
ATOM     13  C   UNL     1      11.555   6.233  19.283  1.00  0.00    -0.014 C 
ATOM     14  C   UNL     1      12.295   7.166  20.256  1.00  0.00     0.007 C 
ATOM     15  C   UNL     1      11.117   7.019  18.037  1.00  0.00     0.007 C 
ENDBRANCH  11  13
TORSDOF 1
ENDMDL
MODEL 5
REMARK VINA RESULT:    -4.252      1.423      4.409
REMARK INTER + INTRA:          -4.874
REMARK INTER:                  -4.646
REMARK INTRA:                  -0.228
REMARK UNBOUND:                -0.373
REMARK SMILES CC1=CC[C@@H]2[C@H]3[C@H](C(C)C)CC[C@]2(C)[C@@H]13
REMARK SMILES IDX 1 1 2 2 3 3 4 4 5 5 6 6 15 7 13 8 12 9 11 10 7 11 14 12 8 13
REMARK SMILES IDX 9 14 10 15
REMARK H PARENT
REMARK Flexibility Score: inf
ROOT
ATOM      1  C   UNL     1      14.508   8.275  16.571  1.00  0.00     0.039 C 
ATOM      2  C   UNL     1      13.455   7.227  16.772  1.00  0.00    -0.073 C 
ATOM      3  C   UNL     1      12.397   7.092  15.930  1.00  0.00    -0.027 C 
ATOM      4  C   UNL     1      11.361   5.999  16.215  1.00  0.00     0.031 C 
ATOM      5  C   UNL     1      11.723   5.235  17.530  1.00  0.00     0.003 C 
ATOM      6  C   UNL     1      12.078   6.293  18.602  1.00  0.00     0.004 C 
ATOM      7  C   UNL     1      13.502   6.298  17.986  1.00  0.00     0.024 C 
ATOM      8  C   UNL     1      13.219   4.836  17.562  1.00  0.00    -0.022 C 
ATOM      9  C   UNL     1      13.460   3.861  18.756  1.00  0.00     0.008 C 
ATOM     10  C   UNL     1      13.121   4.505  20.127  1.00  0.00     0.005 C 
ATOM     11  C   UNL     1      12.047   5.629  20.014  1.00  0.00    -0.005 C 
ATOM     12  C   UNL     1      13.870   4.296  16.267  1.00  0.00     0.012 C 
ENDROOT
BRANCH  11  13
ATOM     13  C   UNL     1      12.133   6.649  21.192  1.00  0.00    -0.014 C 
ATOM     14  C   UNL     1      11.589   6.109  22.525  1.00  0.00     0.007 C 
ATOM     15  C   UNL     1      13.568   7.165  21.384  1.00  0.00     0.007 C 
ENDBRANCH  11  13
TORSDOF 1
ENDMDL
MODEL 6
REMARK VINA RESULT:    -4.224      1.492      2.831
REMARK INTER + INTRA:          -4.844
REMARK INTER:                  -4.465
REMARK INTRA:                  -0.379
REMARK UNBOUND:                -0.373
REMARK SMILES CC1=CC[C@@H]2[C@H]3[C@H](C(C)C)CC[C@]2(C)[C@@H]13
REMARK SMILES IDX 1 1 2 2 3 3 4 4 5 5 6 6 15 7 13 8 12 9 11 10 7 11 14 12 8 13
REMARK SMILES IDX 9 14 10 15
REMARK H PARENT
REMARK Flexibility Score: inf
ROOT
ATOM      1  C   UNL     1      15.164   8.220  20.083  1.00  0.00     0.039 C 
ATOM      2  C   UNL     1      13.875   7.459  19.983  1.00  0.00    -0.073 C 
ATOM      3  C   UNL     1      13.197   7.034  21.081  1.00  0.00    -0.027 C 
ATOM      4  C   UNL     1      11.892   6.254  20.888  1.00  0.00     0.031 C 
ATOM      5  C   UNL     1      11.602   6.047  19.366  1.00  0.00     0.003 C 
ATOM      6  C   UNL     1      12.917   5.574  18.701  1.00  0.00     0.004 C 
ATOM      7  C   UNL     1      13.301   7.074  18.619  1.00  0.00     0.024 C 
ATOM      8  C   UNL     1      11.781   7.362  18.569  1.00  0.00    -0.022 C 
ATOM      9  C   UNL     1      11.230   7.160  17.123  1.00  0.00     0.008 C 
ATOM     10  C   UNL     1      11.982   6.042  16.352  1.00  0.00     0.005 C 
ATOM     11  C   UNL     1      12.597   4.968  17.298  1.00  0.00    -0.005 C 
ATOM     12  C   UNL     1      11.251   8.679  19.183  1.00  0.00     0.012 C 
ENDROOT
BRANCH  11  13
ATOM     13  C   UNL     1      13.803   4.224  16.644  1.00  0.00    -0.014 C 
ATOM     14  C   UNL     1      14.764   5.149  15.878  1.00  0.00     0.007 C 
ATOM     15  C   UNL     1      14.586   3.403  17.681  1.00  0.00     0.007 C 
ENDBRANCH  11  13
TORSDOF 1
ENDMDL
MODEL 7
REMARK VINA RESULT:    -4.033      1.541      2.324
REMARK INTER + INTRA:          -4.642
REMARK INTER:                  -4.226
REMARK INTRA:                  -0.416
REMARK UNBOUND:                -0.373
REMARK SMILES CC1=CC[C@@H]2[C@H]3[C@H](C(C)C)CC[C@]2(C)[C@@H]13
REMARK SMILES IDX 1 1 2 2 3 3 4 4 5 5 6 6 15 7 13 8 12 9 11 10 7 11 14 12 8 13
REMARK SMILES IDX 9 14 10 15
REMARK H PARENT
REMARK Flexibility Score: inf
ROOT
ATOM      1  C   UNL     1      14.812   7.870  20.223  1.00  0.00     0.039 C 
ATOM      2  C   UNL     1      13.835   7.038  19.448  1.00  0.00    -0.073 C 
ATOM      3  C   UNL     1      12.507   7.023  19.736  1.00  0.00    -0.027 C 
ATOM      4  C   UNL     1      11.579   6.136  18.899  1.00  0.00     0.031 C 
ATOM      5  C   UNL     1      12.403   5.335  17.838  1.00  0.00     0.003 C 
ATOM      6  C   UNL     1      13.636   4.739  18.559  1.00  0.00     0.004 C 
ATOM      7  C   UNL     1      14.315   6.114  18.327  1.00  0.00     0.024 C 
ATOM      8  C   UNL     1      13.401   6.248  17.085  1.00  0.00    -0.022 C 
ATOM      9  C   UNL     1      13.997   5.462  15.877  1.00  0.00     0.008 C 
ATOM     10  C   UNL     1      14.772   4.191  16.318  1.00  0.00     0.005 C 
ATOM     11  C   UNL     1      14.260   3.616  17.672  1.00  0.00    -0.005 C 
ATOM     12  C   UNL     1      12.934   7.657  16.652  1.00  0.00     0.012 C 
ENDROOT
BRANCH  11  13
ATOM     13  C   UNL     1      15.346   2.767  18.403  1.00  0.00    -0.014 C 
ATOM     14  C   UNL     1      16.785   3.254  18.159  1.00  0.00     0.007 C 
ATOM     15  C   UNL     1      15.073   2.685  19.913  1.00  0.00     0.007 C 
ENDBRANCH  11  13
TORSDOF 1
ENDMDL
MODEL 8
REMARK VINA RESULT:    -3.956      2.091      3.765
REMARK INTER + INTRA:          -4.560
REMARK INTER:                  -4.202
REMARK INTRA:                  -0.358
REMARK UNBOUND:                -0.373
REMARK SMILES CC1=CC[C@@H]2[C@H]3[C@H](C(C)C)CC[C@]2(C)[C@@H]13
REMARK SMILES IDX 1 1 2 2 3 3 4 4 5 5 6 6 15 7 13 8 12 9 11 10 7 11 14 12 8 13
REMARK SMILES IDX 9 14 10 15
REMARK H PARENT
REMARK Flexibility Score: inf
ROOT
ATOM      1  C   UNL     1      16.270   6.011  21.015  1.00  0.00     0.039 C 
ATOM      2  C   UNL     1      15.050   5.241  20.608  1.00  0.00    -0.073 C 
ATOM      3  C   UNL     1      14.799   3.987  21.067  1.00  0.00    -0.027 C 
ATOM      4  C   UNL     1      13.532   3.267  20.593  1.00  0.00     0.031 C 
ATOM      5  C   UNL     1      12.750   4.156  19.572  1.00  0.00     0.003 C 
ATOM      6  C   UNL     1      13.776   4.712  18.556  1.00  0.00     0.004 C 
ATOM      7  C   UNL     1      14.061   5.824  19.599  1.00  0.00     0.024 C 
ATOM      8  C   UNL     1      12.605   5.611  20.080  1.00  0.00    -0.022 C 
ATOM      9  C   UNL     1      11.604   6.375  19.159  1.00  0.00     0.008 C 
ATOM     10  C   UNL     1      12.086   6.442  17.684  1.00  0.00     0.005 C 
ATOM     11  C   UNL     1      13.021   5.255  17.303  1.00  0.00    -0.005 C 
ATOM     12  C   UNL     1      12.271   5.846  21.572  1.00  0.00     0.012 C 
ENDROOT
BRANCH  11  13
ATOM     13  C   UNL     1      13.957   5.602  16.104  1.00  0.00    -0.014 C 
ATOM     14  C   UNL     1      14.651   6.969  16.230  1.00  0.00     0.007 C 
ATOM     15  C   UNL     1      15.007   4.503  15.876  1.00  0.00     0.007 C 
ENDBRANCH  11  13
TORSDOF 1
ENDMDL
MODEL 9
REMARK VINA RESULT:    -2.138      1.765      3.613
REMARK INTER + INTRA:          -2.636
REMARK INTER:                  -2.365
REMARK INTRA:                  -0.271
REMARK UNBOUND:                -0.373
REMARK SMILES CC1=CC[C@@H]2[C@H]3[C@H](C(C)C)CC[C@]2(C)[C@@H]13
REMARK SMILES IDX 1 1 2 2 3 3 4 4 5 5 6 6 15 7 13 8 12 9 11 10 7 11 14 12 8 13
REMARK SMILES IDX 9 14 10 15
REMARK H PARENT
REMARK Flexibility Score: inf
ROOT
ATOM      1  C   UNL     1      14.857   8.596  16.711  1.00  0.00     0.039 C 
ATOM      2  C   UNL     1      13.599   8.327  17.481  1.00  0.00    -0.073 C 
ATOM      3  C   UNL     1      12.976   9.289  18.211  1.00  0.00    -0.027 C 
ATOM      4  C   UNL     1      11.699   8.926  18.976  1.00  0.00     0.031 C 
ATOM      5  C   UNL     1      11.367   7.409  18.792  1.00  0.00     0.003 C 
ATOM      6  C   UNL     1      12.678   6.615  19.009  1.00  0.00     0.004 C 
ATOM      7  C   UNL     1      12.996   6.922  17.523  1.00  0.00     0.024 C 
ATOM      8  C   UNL     1      11.464   6.982  17.307  1.00  0.00    -0.022 C 
ATOM      9  C   UNL     1      10.875   5.546  17.151  1.00  0.00     0.008 C 
ATOM     10  C   UNL     1      11.646   4.492  17.989  1.00  0.00     0.005 C 
ATOM     11  C   UNL     1      12.337   5.110  19.242  1.00  0.00    -0.005 C 
ATOM     12  C   UNL     1      10.901   7.931  16.224  1.00  0.00     0.012 C 
ENDROOT
BRANCH  11  13
ATOM     13  C   UNL     1      13.551   4.258  19.729  1.00  0.00    -0.014 C 
ATOM     14  C   UNL     1      13.242   3.375  20.950  1.00  0.00     0.007 C 
ATOM     15  C   UNL     1      14.122   3.395  18.592  1.00  0.00     0.007 C 
ENDBRANCH  11  13
TORSDOF 1
ENDMDL
