MODEL 1
REMARK VINA RESULT:    -3.247      0.000      0.000
REMARK INTER + INTRA:          -4.815
REMARK INTER:                  -4.955
REMARK INTRA:                   0.140
REMARK UNBOUND:                 0.140
REMARK SMILES CC1=CCC[C@@H](C)C(=O)C[C@H](C(C)C)C(=O)C1
REMARK SMILES IDX 8 1 9 2 6 3 7 4 5 5 4 6 3 7 2 8 1 9 10 11 11 12 15 13 16 14
REMARK SMILES IDX 17 15 12 17 13 18 14 19
REMARK H PARENT
REMARK Flexibility Score: 70.00
ROOT
ATOM      1  C   UNL     1       1.250 -15.882   9.992  1.00  0.00     0.136 C 
ATOM      2  O   UNL     1       1.803 -16.831   9.453  1.00  0.00    -0.299 OA
ENDROOT
BRANCH   1   3
ATOM      3  C   UNL     1       0.199 -15.101   9.226  1.00  0.00     0.053 C 
ATOM      4  C   UNL     1      -0.561 -16.030   8.269  1.00  0.00     0.016 C 
BRANCH   3   5
ATOM      5  C   UNL     1       0.849 -13.929   8.457  1.00  0.00     0.015 C 
BRANCH   5   6
ATOM      6  C   UNL     1       1.397 -12.855   9.418  1.00  0.00     0.028 C 
BRANCH   6   7
ATOM      7  C   UNL     1       2.877 -12.605   9.254  1.00  0.00    -0.028 C 
ATOM      8  C   UNL     1       3.822 -12.800  10.208  1.00  0.00    -0.070 CG0
ATOM      9  C   UNL     1       5.237 -12.389   9.882  1.00  0.00     0.039 C 
ATOM     10  G   UNL     1       3.544 -13.453  11.556  1.00  0.00     0.000 G0
ENDBRANCH   6   7
ENDBRANCH   5   6
ENDBRANCH   3   5
ENDBRANCH   1   3
BRANCH   1  11
ATOM     11  C   UNL     1       1.619 -15.533  11.416  1.00  0.00     0.087 C 
BRANCH  11  12
ATOM     12  C   UNL     1       3.037 -16.045  11.792  1.00  0.00     0.066 C 
BRANCH  12  13
ATOM     13  C   UNL     1       4.035 -14.902  11.674  1.00  0.00     0.140 C 
ATOM     14  O   UNL     1       5.234 -15.140  11.628  1.00  0.00    -0.299 OA
BRANCH  13  15
ATOM     15  C   UNL     1       3.545 -13.479  11.565  1.00  0.00     0.106 CG0
ATOM     16  G   UNL     1       3.815 -12.832  10.212  1.00  0.00     0.000 G0
ENDBRANCH  13  15
ENDBRANCH  12  13
BRANCH  12  17
ATOM     17  C   UNL     1       3.098 -16.706  13.210  1.00  0.00    -0.006 C 
ATOM     18  C   UNL     1       3.144 -15.666  14.345  1.00  0.00     0.008 C 
ATOM     19  C   UNL     1       1.886 -17.631  13.439  1.00  0.00     0.008 C 
ENDBRANCH  12  17
ENDBRANCH  11  12
ENDBRANCH   1  11
TORSDOF 1
ENDMDL
MODEL 2
REMARK VINA RESULT:    -3.119      2.066      4.657
REMARK INTER + INTRA:          -4.620
REMARK INTER:                  -4.593
REMARK INTRA:                  -0.027
REMARK UNBOUND:                 0.140
REMARK SMILES CC1=CCC[C@@H](C)C(=O)C[C@H](C(C)C)C(=O)C1
REMARK SMILES IDX 8 1 9 2 6 3 7 4 5 5 4 6 3 7 2 8 1 9 10 11 11 12 15 13 16 14
REMARK SMILES IDX 17 15 12 17 13 18 14 19
REMARK H PARENT
REMARK Flexibility Score: 70.00
ROOT
ATOM      1  C   UNL     1       4.109 -13.809   8.912  1.00  0.00     0.136 C 
ATOM      2  O   UNL     1       4.043 -13.406   7.759  1.00  0.00    -0.299 OA
ENDROOT
BRANCH   1   3
ATOM      3  C   UNL     1       5.357 -14.539   9.373  1.00  0.00     0.053 C 
ATOM      4  C   UNL     1       5.197 -16.051   9.160  1.00  0.00     0.016 C 
BRANCH   3   5
ATOM      5  C   UNL     1       5.654 -14.219  10.855  1.00  0.00     0.015 C 
BRANCH   5   6
ATOM      6  C   UNL     1       5.902 -15.502  11.674  1.00  0.00     0.028 C 
BRANCH   6   7
ATOM      7  C   UNL     1       5.087 -15.569  12.943  1.00  0.00    -0.028 C 
ATOM      8  C   UNL     1       3.762 -15.852  13.019  1.00  0.00    -0.070 CG0
ATOM      9  C   UNL     1       3.106 -15.764  14.375  1.00  0.00     0.039 C 
ATOM     10  G   UNL     1       2.922 -16.300  11.829  1.00  0.00     0.000 G0
ENDBRANCH   6   7
ENDBRANCH   5   6
ENDBRANCH   3   5
ENDBRANCH   1   3
BRANCH   1  11
ATOM     11  C   UNL     1       2.950 -13.545   9.847  1.00  0.00     0.087 C 
BRANCH  11  12
ATOM     12  C   UNL     1       1.976 -14.752   9.922  1.00  0.00     0.066 C 
BRANCH  12  13
ATOM     13  C   UNL     1       1.923 -15.269  11.353  1.00  0.00     0.140 C 
ATOM     14  O   UNL     1       1.045 -14.879  12.112  1.00  0.00    -0.299 OA
BRANCH  13  15
ATOM     15  C   UNL     1       2.921 -16.299  11.823  1.00  0.00     0.106 CG0
ATOM     16  G   UNL     1       3.767 -15.847  13.007  1.00  0.00     0.000 G0
ENDBRANCH  13  15
ENDBRANCH  12  13
BRANCH  12  17
ATOM     17  C   UNL     1       0.544 -14.423   9.386  1.00  0.00    -0.006 C 
ATOM     18  C   UNL     1       0.522 -13.173   8.485  1.00  0.00     0.008 C 
ATOM     19  C   UNL     1      -0.035 -15.611   8.593  1.00  0.00     0.008 C 
ENDBRANCH  12  17
ENDBRANCH  11  12
ENDBRANCH   1  11
TORSDOF 1
ENDMDL
MODEL 3
REMARK VINA RESULT:    -2.686      1.801      3.954
REMARK INTER + INTRA:          -3.959
REMARK INTER:                  -3.661
REMARK INTRA:                  -0.298
REMARK UNBOUND:                 0.140
REMARK SMILES CC1=CCC[C@@H](C)C(=O)C[C@H](C(C)C)C(=O)C1
REMARK SMILES IDX 8 1 9 2 6 3 7 4 5 5 4 6 3 7 2 8 1 9 10 11 11 12 15 13 16 14
REMARK SMILES IDX 17 15 12 17 13 18 14 19
REMARK H PARENT
REMARK Flexibility Score: 70.00
ROOT
ATOM      1  C   UNL     1       1.813 -15.676  10.369  1.00  0.00     0.136 C 
ATOM      2  O   UNL     1       0.878 -16.250   9.828  1.00  0.00    -0.299 OA
ENDROOT
BRANCH   1   3
ATOM      3  C   UNL     1       2.201 -16.058  11.784  1.00  0.00     0.053 C 
ATOM      4  C   UNL     1       1.444 -15.188  12.797  1.00  0.00     0.016 C 
BRANCH   3   5
ATOM      5  C   UNL     1       3.729 -15.930  11.980  1.00  0.00     0.015 C 
BRANCH   5   6
ATOM      6  C   UNL     1       4.088 -14.717  12.862  1.00  0.00     0.028 C 
BRANCH   6   7
ATOM      7  C   UNL     1       5.379 -14.046  12.460  1.00  0.00    -0.028 C 
ATOM      8  C   UNL     1       5.485 -12.891  11.758  1.00  0.00    -0.070 CG0
ATOM      9  C   UNL     1       6.869 -12.438  11.362  1.00  0.00     0.039 C 
ATOM     10  G   UNL     1       4.298 -12.006  11.397  1.00  0.00     0.000 G0
ENDBRANCH   6   7
ENDBRANCH   5   6
ENDBRANCH   3   5
ENDBRANCH   1   3
BRANCH   1  11
ATOM     11  C   UNL     1       2.565 -14.616   9.596  1.00  0.00     0.087 C 
BRANCH  11  12
ATOM     12  C   UNL     1       2.312 -13.192  10.161  1.00  0.00     0.066 C 
BRANCH  12  13
ATOM     13  C   UNL     1       3.603 -12.388  10.102  1.00  0.00     0.140 C 
ATOM     14  O   UNL     1       4.056 -12.037   9.021  1.00  0.00    -0.299 OA
BRANCH  13  15
ATOM     15  C   UNL     1       4.300 -11.981  11.378  1.00  0.00     0.106 CG0
ATOM     16  G   UNL     1       5.470 -12.878  11.759  1.00  0.00     0.000 G0
ENDBRANCH  13  15
ENDBRANCH  12  13
BRANCH  12  17
ATOM     17  C   UNL     1       1.144 -12.441   9.440  1.00  0.00    -0.006 C 
ATOM     18  C   UNL     1       0.790 -13.067   8.077  1.00  0.00     0.008 C 
ATOM     19  C   UNL     1      -0.124 -12.421  10.316  1.00  0.00     0.008 C 
ENDBRANCH  12  17
ENDBRANCH  11  12
ENDBRANCH   1  11
TORSDOF 1
ENDMDL
MODEL 4
REMARK VINA RESULT:    -2.649      1.638      4.075
REMARK INTER + INTRA:          -3.903
REMARK INTER:                  -3.849
REMARK INTRA:                  -0.054
REMARK UNBOUND:                 0.140
REMARK SMILES CC1=CCC[C@@H](C)C(=O)C[C@H](C(C)C)C(=O)C1
REMARK SMILES IDX 8 1 9 2 6 3 7 4 5 5 4 6 3 7 2 8 1 9 10 11 11 12 15 13 16 14
REMARK SMILES IDX 17 15 12 17 13 18 14 19
REMARK H PARENT
REMARK Flexibility Score: 70.00
ROOT
ATOM      1  C   UNL     1       1.939 -15.695  12.800  1.00  0.00     0.136 C 
ATOM      2  O   UNL     1       0.960 -15.703  13.533  1.00  0.00    -0.299 OA
ENDROOT
BRANCH   1   3
ATOM      3  C   UNL     1       3.319 -15.516  13.405  1.00  0.00     0.053 C 
ATOM      4  C   UNL     1       3.643 -16.684  14.346  1.00  0.00     0.016 C 
BRANCH   3   5
ATOM      5  C   UNL     1       3.411 -14.165  14.150  1.00  0.00     0.015 C 
BRANCH   5   6
ATOM      6  C   UNL     1       3.750 -13.008  13.188  1.00  0.00     0.028 C 
BRANCH   6   7
ATOM      7  C   UNL     1       4.970 -13.273  12.340  1.00  0.00    -0.028 C 
ATOM      8  C   UNL     1       4.986 -13.371  10.987  1.00  0.00    -0.070 CG0
ATOM      9  C   UNL     1       6.292 -13.746  10.330  1.00  0.00     0.039 C 
ATOM     10  G   UNL     1       3.783 -13.073  10.101  1.00  0.00     0.000 G0
ENDBRANCH   6   7
ENDBRANCH   5   6
ENDBRANCH   3   5
ENDBRANCH   1   3
BRANCH   1  11
ATOM     11  C   UNL     1       1.741 -15.887  11.313  1.00  0.00     0.087 C 
BRANCH  11  12
ATOM     12  C   UNL     1       1.651 -14.533  10.557  1.00  0.00     0.066 C 
BRANCH  12  13
ATOM     13  C   UNL     1       2.943 -14.298   9.787  1.00  0.00     0.140 C 
ATOM     14  O   UNL     1       3.276 -15.074   8.901  1.00  0.00    -0.299 OA
BRANCH  13  15
ATOM     15  C   UNL     1       3.788 -13.083  10.079  1.00  0.00     0.106 CG0
ATOM     16  G   UNL     1       4.977 -13.359  10.991  1.00  0.00     0.000 G0
ENDBRANCH  13  15
ENDBRANCH  12  13
BRANCH  12  17
ATOM     17  C   UNL     1       0.404 -14.433   9.617  1.00  0.00    -0.006 C 
ATOM     18  C   UNL     1       0.535 -13.302   8.579  1.00  0.00     0.008 C 
ATOM     19  C   UNL     1       0.169 -15.761   8.870  1.00  0.00     0.008 C 
ENDBRANCH  12  17
ENDBRANCH  11  12
ENDBRANCH   1  11
TORSDOF 1
ENDMDL
MODEL 5
REMARK VINA RESULT:    -2.632      4.598      7.209
REMARK INTER + INTRA:          -3.876
REMARK INTER:                  -3.897
REMARK INTRA:                   0.021
REMARK UNBOUND:                 0.140
REMARK SMILES CC1=CCC[C@@H](C)C(=O)C[C@H](C(C)C)C(=O)C1
REMARK SMILES IDX 8 1 9 2 6 3 7 4 5 5 4 6 3 7 2 8 1 9 10 11 11 12 15 13 16 14
REMARK SMILES IDX 17 15 12 17 13 18 14 19
REMARK H PARENT
REMARK Flexibility Score: 70.00
ROOT
ATOM      1  C   UNL     1       2.944 -17.853  13.828  1.00  0.00     0.136 C 
ATOM      2  O   UNL     1       4.044 -17.319  13.883  1.00  0.00    -0.299 OA
ENDROOT
BRANCH   1   3
ATOM      3  C   UNL     1       1.761 -17.063  13.301  1.00  0.00     0.053 C 
ATOM      4  C   UNL     1       2.228 -16.035  12.261  1.00  0.00     0.016 C 
BRANCH   3   5
ATOM      5  C   UNL     1       1.011 -16.372  14.463  1.00  0.00     0.015 C 
BRANCH   5   6
ATOM      6  C   UNL     1       0.116 -17.365  15.231  1.00  0.00     0.028 C 
BRANCH   6   7
ATOM      7  C   UNL     1       0.411 -17.415  16.710  1.00  0.00    -0.028 C 
ATOM      8  C   UNL     1       0.943 -18.471  17.375  1.00  0.00    -0.070 CG0
ATOM      9  C   UNL     1       1.062 -18.363  18.876  1.00  0.00     0.039 C 
ATOM     10  G   UNL     1       1.470 -19.726  16.690  1.00  0.00     0.000 G0
ENDBRANCH   6   7
ENDBRANCH   5   6
ENDBRANCH   3   5
ENDBRANCH   1   3
BRANCH   1  11
ATOM     11  C   UNL     1       2.808 -19.293  14.268  1.00  0.00     0.087 C 
BRANCH  11  12
ATOM     12  C   UNL     1       3.778 -19.641  15.430  1.00  0.00     0.066 C 
BRANCH  12  13
ATOM     13  C   UNL     1       2.980 -19.849  16.710  1.00  0.00     0.140 C 
ATOM     14  O   UNL     1       3.561 -20.071  17.764  1.00  0.00    -0.299 OA
BRANCH  13  15
ATOM     15  C   UNL     1       1.476 -19.733  16.690  1.00  0.00     0.106 CG0
ATOM     16  G   UNL     1       0.942 -18.471  17.357  1.00  0.00     0.000 G0
ENDBRANCH  13  15
ENDBRANCH  12  13
BRANCH  12  17
ATOM     17  C   UNL     1       4.689 -20.876  15.124  1.00  0.00    -0.006 C 
ATOM     18  C   UNL     1       4.158 -21.726  13.954  1.00  0.00     0.008 C 
ATOM     19  C   UNL     1       6.128 -20.432  14.796  1.00  0.00     0.008 C 
ENDBRANCH  12  17
ENDBRANCH  11  12
ENDBRANCH   1  11
TORSDOF 1
ENDMDL
MODEL 6
REMARK VINA RESULT:    -2.531      2.056      4.496
REMARK INTER + INTRA:          -3.722
REMARK INTER:                  -3.590
REMARK INTRA:                  -0.132
REMARK UNBOUND:                 0.140
REMARK SMILES CC1=CCC[C@@H](C)C(=O)C[C@H](C(C)C)C(=O)C1
REMARK SMILES IDX 8 1 9 2 6 3 7 4 5 5 4 6 3 7 2 8 1 9 10 11 11 12 15 13 16 14
REMARK SMILES IDX 17 15 12 17 13 18 14 19
REMARK H PARENT
REMARK Flexibility Score: 70.00
ROOT
ATOM      1  C   UNL     1       1.890 -15.675  10.514  1.00  0.00     0.136 C 
ATOM      2  O   UNL     1       0.922 -15.380   9.826  1.00  0.00    -0.299 OA
ENDROOT
BRANCH   1   3
ATOM      3  C   UNL     1       1.706 -15.887  12.004  1.00  0.00     0.053 C 
ATOM      4  C   UNL     1       1.654 -14.536  12.731  1.00  0.00     0.016 C 
BRANCH   3   5
ATOM      5  C   UNL     1       2.838 -16.774  12.569  1.00  0.00     0.015 C 
BRANCH   5   6
ATOM      6  C   UNL     1       3.606 -16.062  13.700  1.00  0.00     0.028 C 
BRANCH   6   7
ATOM      7  C   UNL     1       5.061 -16.459  13.778  1.00  0.00    -0.028 C 
ATOM      8  C   UNL     1       6.065 -15.933  13.032  1.00  0.00    -0.070 CG0
ATOM      9  C   UNL     1       7.438 -16.540  13.183  1.00  0.00     0.039 C 
ATOM     10  G   UNL     1       5.893 -14.740  12.101  1.00  0.00     0.000 G0
ENDBRANCH   6   7
ENDBRANCH   5   6
ENDBRANCH   3   5
ENDBRANCH   1   3
BRANCH   1  11
ATOM     11  C   UNL     1       3.237 -15.839   9.846  1.00  0.00     0.087 C 
BRANCH  11  12
ATOM     12  C   UNL     1       4.172 -14.628  10.114  1.00  0.00     0.066 C 
BRANCH  12  13
ATOM     13  C   UNL     1       5.495 -15.126  10.680  1.00  0.00     0.140 C 
ATOM     14  O   UNL     1       6.242 -15.801   9.984  1.00  0.00    -0.299 OA
BRANCH  13  15
ATOM     15  C   UNL     1       5.908 -14.749  12.081  1.00  0.00     0.106 CG0
ATOM     16  G   UNL     1       6.051 -15.935  13.027  1.00  0.00     0.000 G0
ENDBRANCH  13  15
ENDBRANCH  12  13
BRANCH  12  17
ATOM     17  C   UNL     1       4.398 -13.733   8.851  1.00  0.00    -0.006 C 
ATOM     18  C   UNL     1       3.099 -13.068   8.357  1.00  0.00     0.008 C 
ATOM     19  C   UNL     1       5.437 -12.630   9.135  1.00  0.00     0.008 C 
ENDBRANCH  12  17
ENDBRANCH  11  12
ENDBRANCH   1  11
TORSDOF 1
ENDMDL
MODEL 7
REMARK VINA RESULT:    -2.451      5.062      6.679
REMARK INTER + INTRA:          -3.600
REMARK INTER:                  -3.300
REMARK INTRA:                  -0.301
REMARK UNBOUND:                 0.140
REMARK SMILES CC1=CCC[C@@H](C)C(=O)C[C@H](C(C)C)C(=O)C1
REMARK SMILES IDX 8 1 9 2 6 3 7 4 5 5 4 6 3 7 2 8 1 9 10 11 11 12 15 13 16 14
REMARK SMILES IDX 17 15 12 17 13 18 14 19
REMARK H PARENT
REMARK Flexibility Score: 70.00
ROOT
ATOM      1  C   UNL     1       2.004 -19.556  16.969  1.00  0.00     0.136 C 
ATOM      2  O   UNL     1       1.475 -20.642  17.162  1.00  0.00    -0.299 OA
ENDROOT
BRANCH   1   3
ATOM      3  C   UNL     1       1.181 -18.291  17.123  1.00  0.00     0.053 C 
ATOM      4  C   UNL     1       0.520 -18.251  18.507  1.00  0.00     0.016 C 
BRANCH   3   5
ATOM      5  C   UNL     1       0.121 -18.196  16.002  1.00  0.00     0.015 C 
BRANCH   5   6
ATOM      6  C   UNL     1       0.622 -17.346  14.817  1.00  0.00     0.028 C 
BRANCH   6   7
ATOM      7  C   UNL     1       1.663 -16.326  15.211  1.00  0.00    -0.028 C 
ATOM      8  C   UNL     1       2.972 -16.354  14.857  1.00  0.00    -0.070 CG0
ATOM      9  C   UNL     1       3.876 -15.297  15.441  1.00  0.00     0.039 C 
ATOM     10  G   UNL     1       3.561 -17.353  13.869  1.00  0.00     0.000 G0
ENDBRANCH   6   7
ENDBRANCH   5   6
ENDBRANCH   3   5
ENDBRANCH   1   3
BRANCH   1  11
ATOM     11  C   UNL     1       3.472 -19.511  16.606  1.00  0.00     0.087 C 
BRANCH  11  12
ATOM     12  C   UNL     1       3.699 -19.689  15.080  1.00  0.00     0.066 C 
BRANCH  12  13
ATOM     13  C   UNL     1       4.386 -18.449  14.524  1.00  0.00     0.140 C 
ATOM     14  O   UNL     1       5.606 -18.355  14.567  1.00  0.00    -0.299 OA
BRANCH  13  15
ATOM     15  C   UNL     1       3.570 -17.357  13.877  1.00  0.00     0.106 CG0
ATOM     16  G   UNL     1       2.983 -16.354  14.862  1.00  0.00     0.000 G0
ENDBRANCH  13  15
ENDBRANCH  12  13
BRANCH  12  17
ATOM     17  C   UNL     1       4.497 -20.986  14.722  1.00  0.00    -0.006 C 
ATOM     18  C   UNL     1       4.557 -21.985  15.893  1.00  0.00     0.008 C 
ATOM     19  C   UNL     1       3.879 -21.695  13.501  1.00  0.00     0.008 C 
ENDBRANCH  12  17
ENDBRANCH  11  12
ENDBRANCH   1  11
TORSDOF 1
ENDMDL
MODEL 8
REMARK VINA RESULT:    -2.414     14.765     17.032
REMARK INTER + INTRA:          -3.545
REMARK INTER:                  -3.274
REMARK INTRA:                  -0.271
REMARK UNBOUND:                 0.140
REMARK SMILES CC1=CCC[C@@H](C)C(=O)C[C@H](C(C)C)C(=O)C1
REMARK SMILES IDX 8 1 9 2 6 3 7 4 5 5 4 6 3 7 2 8 1 9 10 11 11 12 15 13 16 14
REMARK SMILES IDX 17 15 12 17 13 18 14 19
REMARK H PARENT
REMARK Flexibility Score: 70.00
ROOT
ATOM      1  C   UNL     1      -7.315 -29.836  12.783  1.00  0.00     0.136 C 
ATOM      2  O   UNL     1      -7.775 -29.358  11.755  1.00  0.00    -0.299 OA
ENDROOT
BRANCH   1   3
ATOM      3  C   UNL     1      -8.235 -30.085  13.963  1.00  0.00     0.053 C 
ATOM      4  C   UNL     1      -9.488 -30.847  13.509  1.00  0.00     0.016 C 
BRANCH   3   5
ATOM      5  C   UNL     1      -8.616 -28.750  14.642  1.00  0.00     0.015 C 
BRANCH   5   6
ATOM      6  C   UNL     1      -7.760 -28.487  15.897  1.00  0.00     0.028 C 
BRANCH   6   7
ATOM      7  C   UNL     1      -6.846 -27.294  15.759  1.00  0.00    -0.028 C 
ATOM      8  C   UNL     1      -5.522 -27.341  15.471  1.00  0.00    -0.070 CG0
ATOM      9  C   UNL     1      -4.758 -26.039  15.482  1.00  0.00     0.039 C 
ATOM     10  G   UNL     1      -4.782 -28.617  15.088  1.00  0.00     0.000 G0
ENDBRANCH   6   7
ENDBRANCH   5   6
ENDBRANCH   3   5
ENDBRANCH   1   3
BRANCH   1  11
ATOM     11  C   UNL     1      -5.844 -30.185  12.832  1.00  0.00     0.087 C 
BRANCH  11  12
ATOM     12  C   UNL     1      -4.945 -28.964  12.496  1.00  0.00     0.066 C 
BRANCH  12  13
ATOM     13  C   UNL     1      -4.130 -28.583  13.725  1.00  0.00     0.140 C 
ATOM     14  O   UNL     1      -2.971 -28.210  13.598  1.00  0.00    -0.299 OA
BRANCH  13  15
ATOM     15  C   UNL     1      -4.764 -28.618  15.093  1.00  0.00     0.106 CG0
ATOM     16  G   UNL     1      -5.523 -27.349  15.459  1.00  0.00     0.000 G0
ENDBRANCH  13  15
ENDBRANCH  12  13
BRANCH  12  17
ATOM     17  C   UNL     1      -4.021 -29.202  11.256  1.00  0.00    -0.006 C 
ATOM     18  C   UNL     1      -3.621 -30.681  11.091  1.00  0.00     0.008 C 
ATOM     19  C   UNL     1      -4.707 -28.731   9.958  1.00  0.00     0.008 C 
ENDBRANCH  12  17
ENDBRANCH  11  12
ENDBRANCH   1  11
TORSDOF 1
ENDMDL
MODEL 9
REMARK VINA RESULT:    -2.387      4.600      6.259
REMARK INTER + INTRA:          -3.503
REMARK INTER:                  -3.174
REMARK INTRA:                  -0.329
REMARK UNBOUND:                 0.140
REMARK SMILES CC1=CCC[C@@H](C)C(=O)C[C@H](C(C)C)C(=O)C1
REMARK SMILES IDX 8 1 9 2 6 3 7 4 5 5 4 6 3 7 2 8 1 9 10 11 11 12 15 13 16 14
REMARK SMILES IDX 17 15 12 17 13 18 14 19
REMARK H PARENT
REMARK Flexibility Score: 70.00
ROOT
ATOM      1  C   UNL     1       2.756 -19.785  15.233  1.00  0.00     0.136 C 
ATOM      2  O   UNL     1       2.396 -20.496  16.161  1.00  0.00    -0.299 OA
ENDROOT
BRANCH   1   3
ATOM      3  C   UNL     1       4.019 -20.140  14.471  1.00  0.00     0.053 C 
ATOM      4  C   UNL     1       3.899 -21.546  13.867  1.00  0.00     0.016 C 
BRANCH   3   5
ATOM      5  C   UNL     1       5.254 -20.040  15.395  1.00  0.00     0.015 C 
BRANCH   5   6
ATOM      6  C   UNL     1       5.671 -18.574  15.628  1.00  0.00     0.028 C 
BRANCH   6   7
ATOM      7  C   UNL     1       5.966 -17.825  14.351  1.00  0.00    -0.028 C 
ATOM      8  C   UNL     1       5.365 -16.677  13.950  1.00  0.00    -0.070 CG0
ATOM      9  C   UNL     1       5.726 -16.140  12.586  1.00  0.00     0.039 C 
ATOM     10  G   UNL     1       4.397 -15.881  14.815  1.00  0.00     0.000 G0
ENDBRANCH   6   7
ENDBRANCH   5   6
ENDBRANCH   3   5
ENDBRANCH   1   3
BRANCH   1  11
ATOM     11  C   UNL     1       1.913 -18.585  14.862  1.00  0.00     0.087 C 
BRANCH  11  12
ATOM     12  C   UNL     1       2.346 -17.308  15.634  1.00  0.00     0.066 C 
BRANCH  12  13
ATOM     13  C   UNL     1       2.944 -16.306  14.656  1.00  0.00     0.140 C 
ATOM     14  O   UNL     1       2.246 -15.823  13.774  1.00  0.00    -0.299 OA
BRANCH  13  15
ATOM     15  C   UNL     1       4.381 -15.870  14.803  1.00  0.00     0.106 CG0
ATOM     16  G   UNL     1       5.363 -16.675  13.961  1.00  0.00     0.000 G0
ENDBRANCH  13  15
ENDBRANCH  12  13
BRANCH  12  17
ATOM     17  C   UNL     1       1.186 -16.667  16.464  1.00  0.00    -0.006 C 
ATOM     18  C   UNL     1      -0.205 -17.139  16.000  1.00  0.00     0.008 C 
ATOM     19  C   UNL     1       1.339 -16.988  17.964  1.00  0.00     0.008 C 
ENDBRANCH  12  17
ENDBRANCH  11  12
ENDBRANCH   1  11
TORSDOF 1
ENDMDL
