MODEL 1
REMARK VINA RESULT:    -4.589      0.000      0.000
REMARK INTER + INTRA:          -9.777
REMARK INTER:                  -7.004
REMARK INTRA:                  -2.774
REMARK UNBOUND:                -2.774
REMARK SMILES CC(=O)CCC=C(C)CCC=C(C)CCC=C(C)C
REMARK SMILES IDX 10 1 11 2 12 3 13 4 14 5 15 6 16 7 18 8 17 9 19 10 9 11 7 12
REMARK SMILES IDX 6 13 8 14 5 15 4 16 2 17 3 18 1 19
REMARK H PARENT
REMARK Flexibility Score: inf
ROOT
ATOM      1  C   UNL     1      40.089 -40.615  -5.322  1.00  0.00     0.032 C 
ENDROOT
BRANCH   1   2
ATOM      2  C   UNL     1      41.365 -41.329  -5.702  1.00  0.00    -0.028 C 
ATOM      3  C   UNL     1      42.572 -41.177  -5.105  1.00  0.00    -0.077 C 
ATOM      4  C   UNL     1      43.743 -41.926  -5.686  1.00  0.00     0.039 C 
BRANCH   3   5
ATOM      5  C   UNL     1      42.812 -40.300  -3.886  1.00  0.00     0.034 C 
BRANCH   5   6
ATOM      6  C   UNL     1      42.751 -38.803  -4.226  1.00  0.00     0.032 C 
BRANCH   6   7
ATOM      7  C   UNL     1      41.957 -38.008  -3.216  1.00  0.00    -0.028 C 
ATOM      8  C   UNL     1      40.463 -37.080  -4.988  1.00  0.00     0.039 C 
ATOM      9  C   UNL     1      40.915 -37.221  -3.554  1.00  0.00    -0.080 C 
ATOM     10  C   UNL     1      40.193 -36.469  -2.466  1.00  0.00     0.039 C 
ENDBRANCH   6   7
ENDBRANCH   5   6
ENDBRANCH   3   5
ENDBRANCH   1   2
BRANCH   1  11
ATOM     11  C   UNL     1      39.374 -41.311  -4.154  1.00  0.00     0.034 C 
BRANCH  11  12
ATOM     12  C   UNL     1      38.757 -40.325  -3.178  1.00  0.00    -0.077 C 
ATOM     13  C   UNL     1      39.234 -40.132  -1.926  1.00  0.00    -0.028 C 
ATOM     14  C   UNL     1      37.565 -39.515  -3.619  1.00  0.00     0.039 C 
BRANCH  13  15
ATOM     15  C   UNL     1      40.373 -40.901  -1.307  1.00  0.00     0.035 C 
BRANCH  15  16
ATOM     16  C   UNL     1      40.971 -40.122  -0.127  1.00  0.00     0.079 C 
BRANCH  16  17
ATOM     17  C   UNL     1      42.484 -40.028  -0.111  1.00  0.00     0.130 C 
ATOM     18  O   UNL     1      42.981 -38.920   0.024  1.00  0.00    -0.300 OA
ATOM     19  C   UNL     1      43.417 -41.202  -0.251  1.00  0.00     0.087 C 
ENDBRANCH  16  17
ENDBRANCH  15  16
ENDBRANCH  13  15
ENDBRANCH  11  12
ENDBRANCH   1  11
TORSDOF 9
ENDMDL
MODEL 2
REMARK VINA RESULT:    -4.499      2.609      4.245
REMARK INTER + INTRA:          -9.640
REMARK INTER:                  -6.963
REMARK INTRA:                  -2.677
REMARK UNBOUND:                -2.774
REMARK SMILES CC(=O)CCC=C(C)CCC=C(C)CCC=C(C)C
REMARK SMILES IDX 10 1 11 2 12 3 13 4 14 5 15 6 16 7 18 8 17 9 19 10 9 11 7 12
REMARK SMILES IDX 6 13 8 14 5 15 4 16 2 17 3 18 1 19
REMARK H PARENT
REMARK Flexibility Score: inf
ROOT
ATOM      1  C   UNL     1      40.017 -40.616  -5.279  1.00  0.00     0.032 C 
ENDROOT
BRANCH   1   2
ATOM      2  C   UNL     1      41.336 -41.257  -5.639  1.00  0.00    -0.028 C 
ATOM      3  C   UNL     1      42.521 -41.046  -5.015  1.00  0.00    -0.077 C 
ATOM      4  C   UNL     1      43.743 -41.726  -5.577  1.00  0.00     0.039 C 
BRANCH   3   5
ATOM      5  C   UNL     1      42.688 -40.169  -3.784  1.00  0.00     0.034 C 
BRANCH   5   6
ATOM      6  C   UNL     1      42.624 -38.673  -4.123  1.00  0.00     0.032 C 
BRANCH   6   7
ATOM      7  C   UNL     1      41.662 -37.916  -3.236  1.00  0.00    -0.028 C 
ATOM      8  C   UNL     1      40.310 -37.162  -5.196  1.00  0.00     0.039 C 
ATOM      9  C   UNL     1      40.606 -37.226  -3.717  1.00  0.00    -0.080 C 
ATOM     10  C   UNL     1      39.710 -36.504  -2.743  1.00  0.00     0.039 C 
ENDBRANCH   6   7
ENDBRANCH   5   6
ENDBRANCH   3   5
ENDBRANCH   1   2
BRANCH   1  11
ATOM     11  C   UNL     1      39.293 -41.389  -4.167  1.00  0.00     0.034 C 
BRANCH  11  12
ATOM     12  C   UNL     1      38.866 -40.493  -3.017  1.00  0.00    -0.077 C 
ATOM     13  C   UNL     1      37.748 -39.733  -3.051  1.00  0.00    -0.028 C 
ATOM     14  C   UNL     1      39.719 -40.450  -1.774  1.00  0.00     0.039 C 
BRANCH  13  15
ATOM     15  C   UNL     1      36.822 -39.609  -4.235  1.00  0.00     0.035 C 
BRANCH  15  16
ATOM     16  C   UNL     1      36.732 -38.149  -4.700  1.00  0.00     0.079 C 
BRANCH  16  17
ATOM     17  C   UNL     1      36.652 -37.948  -6.200  1.00  0.00     0.130 C 
ATOM     18  O   UNL     1      35.881 -37.097  -6.618  1.00  0.00    -0.300 OA
ATOM     19  C   UNL     1      37.455 -38.723  -7.212  1.00  0.00     0.087 C 
ENDBRANCH  16  17
ENDBRANCH  15  16
ENDBRANCH  13  15
ENDBRANCH  11  12
ENDBRANCH   1  11
TORSDOF 9
ENDMDL
MODEL 3
REMARK VINA RESULT:    -4.387      3.670      5.548
REMARK INTER + INTRA:          -9.469
REMARK INTER:                  -7.408
REMARK INTRA:                  -2.061
REMARK UNBOUND:                -2.774
REMARK SMILES CC(=O)CCC=C(C)CCC=C(C)CCC=C(C)C
REMARK SMILES IDX 10 1 11 2 12 3 13 4 14 5 15 6 16 7 18 8 17 9 19 10 9 11 7 12
REMARK SMILES IDX 6 13 8 14 5 15 4 16 2 17 3 18 1 19
REMARK H PARENT
REMARK Flexibility Score: inf
ROOT
ATOM      1  C   UNL     1      40.024 -41.189  -5.159  1.00  0.00     0.032 C 
ENDROOT
BRANCH   1   2
ATOM      2  C   UNL     1      41.377 -41.553  -5.725  1.00  0.00    -0.028 C 
ATOM      3  C   UNL     1      42.578 -41.221  -5.194  1.00  0.00    -0.077 C 
ATOM      4  C   UNL     1      43.817 -41.616  -5.955  1.00  0.00     0.039 C 
BRANCH   3   5
ATOM      5  C   UNL     1      42.749 -40.480  -3.877  1.00  0.00     0.034 C 
BRANCH   5   6
ATOM      6  C   UNL     1      42.619 -38.959  -4.046  1.00  0.00     0.032 C 
BRANCH   6   7
ATOM      7  C   UNL     1      41.407 -38.396  -3.339  1.00  0.00    -0.028 C 
ATOM      8  C   UNL     1      41.009 -36.732  -5.158  1.00  0.00     0.039 C 
ATOM      9  C   UNL     1      40.669 -37.383  -3.838  1.00  0.00    -0.080 C 
ATOM     10  C   UNL     1      39.481 -36.897  -3.049  1.00  0.00     0.039 C 
ENDBRANCH   6   7
ENDBRANCH   5   6
ENDBRANCH   3   5
ENDBRANCH   1   2
BRANCH   1  11
ATOM     11  C   UNL     1      39.370 -40.041  -5.941  1.00  0.00     0.034 C 
BRANCH  11  12
ATOM     12  C   UNL     1      37.951 -39.757  -5.481  1.00  0.00    -0.077 C 
ATOM     13  C   UNL     1      37.248 -38.675  -5.888  1.00  0.00    -0.028 C 
ATOM     14  C   UNL     1      37.286 -40.724  -4.535  1.00  0.00     0.039 C 
BRANCH  13  15
ATOM     15  C   UNL     1      37.782 -37.580  -6.776  1.00  0.00     0.035 C 
BRANCH  15  16
ATOM     16  C   UNL     1      37.460 -37.875  -8.248  1.00  0.00     0.079 C 
BRANCH  16  17
ATOM     17  C   UNL     1      35.995 -37.776  -8.625  1.00  0.00     0.130 C 
ATOM     18  O   UNL     1      35.545 -38.626  -9.379  1.00  0.00    -0.300 OA
ATOM     19  C   UNL     1      35.056 -36.705  -8.137  1.00  0.00     0.087 C 
ENDBRANCH  16  17
ENDBRANCH  15  16
ENDBRANCH  13  15
ENDBRANCH  11  12
ENDBRANCH   1  11
TORSDOF 9
ENDMDL
MODEL 4
REMARK VINA RESULT:    -4.310      2.410      5.673
REMARK INTER + INTRA:          -9.352
REMARK INTER:                  -7.295
REMARK INTRA:                  -2.057
REMARK UNBOUND:                -2.774
REMARK SMILES CC(=O)CCC=C(C)CCC=C(C)CCC=C(C)C
REMARK SMILES IDX 10 1 11 2 12 3 13 4 14 5 15 6 16 7 18 8 17 9 19 10 9 11 7 12
REMARK SMILES IDX 6 13 8 14 5 15 4 16 2 17 3 18 1 19
REMARK H PARENT
REMARK Flexibility Score: inf
ROOT
ATOM      1  C   UNL     1      42.913 -40.186  -2.848  1.00  0.00     0.032 C 
ENDROOT
BRANCH   1   2
ATOM      2  C   UNL     1      41.959 -39.239  -2.158  1.00  0.00    -0.028 C 
ATOM      3  C   UNL     1      40.916 -39.594  -1.369  1.00  0.00    -0.077 C 
ATOM      4  C   UNL     1      40.033 -38.496  -0.834  1.00  0.00     0.039 C 
BRANCH   3   5
ATOM      5  C   UNL     1      40.587 -41.029  -0.990  1.00  0.00     0.034 C 
BRANCH   5   6
ATOM      6  C   UNL     1      41.509 -41.564   0.115  1.00  0.00     0.032 C 
BRANCH   6   7
ATOM      7  C   UNL     1      41.259 -40.904   1.452  1.00  0.00    -0.028 C 
ATOM      8  C   UNL     1      43.501 -39.804   1.427  1.00  0.00     0.039 C 
ATOM      9  C   UNL     1      42.161 -40.102   2.056  1.00  0.00    -0.080 C 
ATOM     10  C   UNL     1      41.810 -39.495   3.390  1.00  0.00     0.039 C 
ENDBRANCH   6   7
ENDBRANCH   5   6
ENDBRANCH   3   5
ENDBRANCH   1   2
BRANCH   1  11
ATOM     11  C   UNL     1      43.013 -39.896  -4.353  1.00  0.00     0.034 C 
BRANCH  11  12
ATOM     12  C   UNL     1      42.684 -41.112  -5.203  1.00  0.00    -0.077 C 
ATOM     13  C   UNL     1      41.441 -41.370  -5.670  1.00  0.00    -0.028 C 
ATOM     14  C   UNL     1      43.791 -42.074  -5.553  1.00  0.00     0.039 C 
BRANCH  13  15
ATOM     15  C   UNL     1      40.214 -40.551  -5.361  1.00  0.00     0.035 C 
BRANCH  15  16
ATOM     16  C   UNL     1      39.317 -41.281  -4.353  1.00  0.00     0.079 C 
BRANCH  16  17
ATOM     17  C   UNL     1      37.907 -40.739  -4.225  1.00  0.00     0.130 C 
ATOM     18  O   UNL     1      37.031 -41.276  -4.886  1.00  0.00    -0.300 OA
ATOM     19  C   UNL     1      37.510 -39.584  -3.343  1.00  0.00     0.087 C 
ENDBRANCH  16  17
ENDBRANCH  15  16
ENDBRANCH  13  15
ENDBRANCH  11  12
ENDBRANCH   1  11
TORSDOF 9
ENDMDL
MODEL 5
REMARK VINA RESULT:    -4.308      2.483      4.686
REMARK INTER + INTRA:          -9.348
REMARK INTER:                  -7.697
REMARK INTRA:                  -1.652
REMARK UNBOUND:                -2.774
REMARK SMILES CC(=O)CCC=C(C)CCC=C(C)CCC=C(C)C
REMARK SMILES IDX 10 1 11 2 12 3 13 4 14 5 15 6 16 7 18 8 17 9 19 10 9 11 7 12
REMARK SMILES IDX 6 13 8 14 5 15 4 16 2 17 3 18 1 19
REMARK H PARENT
REMARK Flexibility Score: inf
ROOT
ATOM      1  C   UNL     1      40.148 -40.595  -5.463  1.00  0.00     0.032 C 
ENDROOT
BRANCH   1   2
ATOM      2  C   UNL     1      41.398 -41.401  -5.724  1.00  0.00    -0.028 C 
ATOM      3  C   UNL     1      42.626 -41.157  -5.206  1.00  0.00    -0.077 C 
ATOM      4  C   UNL     1      43.766 -42.037  -5.653  1.00  0.00     0.039 C 
BRANCH   3   5
ATOM      5  C   UNL     1      42.921 -40.054  -4.202  1.00  0.00     0.034 C 
BRANCH   5   6
ATOM      6  C   UNL     1      43.204 -40.607  -2.798  1.00  0.00     0.032 C 
BRANCH   6   7
ATOM      7  C   UNL     1      42.932 -39.596  -1.708  1.00  0.00    -0.028 C 
ATOM      8  C   UNL     1      42.973 -41.358   0.061  1.00  0.00     0.039 C 
ATOM      9  C   UNL     1      42.825 -39.929  -0.405  1.00  0.00    -0.080 C 
ATOM     10  C   UNL     1      42.549 -38.841   0.600  1.00  0.00     0.039 C 
ENDBRANCH   6   7
ENDBRANCH   5   6
ENDBRANCH   3   5
ENDBRANCH   1   2
BRANCH   1  11
ATOM     11  C   UNL     1      39.208 -41.305  -4.478  1.00  0.00     0.034 C 
BRANCH  11  12
ATOM     12  C   UNL     1      38.741 -40.393  -3.357  1.00  0.00    -0.077 C 
ATOM     13  C   UNL     1      37.569 -39.719  -3.396  1.00  0.00    -0.028 C 
ATOM     14  C   UNL     1      39.615 -40.233  -2.139  1.00  0.00     0.039 C 
BRANCH  13  15
ATOM     15  C   UNL     1      36.612 -39.715  -4.560  1.00  0.00     0.035 C 
BRANCH  15  16
ATOM     16  C   UNL     1      36.662 -38.369  -5.296  1.00  0.00     0.079 C 
BRANCH  16  17
ATOM     17  C   UNL     1      37.584 -38.319  -6.497  1.00  0.00     0.130 C 
ATOM     18  O   UNL     1      38.508 -37.521  -6.470  1.00  0.00    -0.300 OA
ATOM     19  C   UNL     1      37.441 -39.183  -7.723  1.00  0.00     0.087 C 
ENDBRANCH  16  17
ENDBRANCH  15  16
ENDBRANCH  13  15
ENDBRANCH  11  12
ENDBRANCH   1  11
TORSDOF 9
ENDMDL
MODEL 6
REMARK VINA RESULT:    -4.296      1.465      3.799
REMARK INTER + INTRA:          -9.330
REMARK INTER:                  -6.962
REMARK INTRA:                  -2.369
REMARK UNBOUND:                -2.774
REMARK SMILES CC(=O)CCC=C(C)CCC=C(C)CCC=C(C)C
REMARK SMILES IDX 10 1 11 2 12 3 13 4 14 5 15 6 16 7 18 8 17 9 19 10 9 11 7 12
REMARK SMILES IDX 6 13 8 14 5 15 4 16 2 17 3 18 1 19
REMARK H PARENT
REMARK Flexibility Score: inf
ROOT
ATOM      1  C   UNL     1      40.712 -41.209  -5.579  1.00  0.00     0.032 C 
ENDROOT
BRANCH   1   2
ATOM      2  C   UNL     1      39.374 -41.172  -4.878  1.00  0.00    -0.028 C 
ATOM      3  C   UNL     1      38.352 -40.327  -5.157  1.00  0.00    -0.077 C 
ATOM      4  C   UNL     1      37.123 -40.399  -4.288  1.00  0.00     0.039 C 
BRANCH   3   5
ATOM      5  C   UNL     1      38.371 -39.316  -6.293  1.00  0.00     0.034 C 
BRANCH   5   6
ATOM      6  C   UNL     1      38.273 -37.870  -5.785  1.00  0.00     0.032 C 
BRANCH   6   7
ATOM      7  C   UNL     1      39.623 -37.201  -5.666  1.00  0.00    -0.028 C 
ATOM      8  C   UNL     1      39.687 -37.569  -3.197  1.00  0.00     0.039 C 
ATOM      9  C   UNL     1      40.273 -37.060  -4.492  1.00  0.00    -0.080 C 
ATOM     10  C   UNL     1      41.616 -36.375  -4.486  1.00  0.00     0.039 C 
ENDBRANCH   6   7
ENDBRANCH   5   6
ENDBRANCH   3   5
ENDBRANCH   1   2
BRANCH   1  11
ATOM     11  C   UNL     1      41.698 -40.197  -4.977  1.00  0.00     0.034 C 
BRANCH  11  12
ATOM     12  C   UNL     1      42.964 -40.856  -4.457  1.00  0.00    -0.077 C 
ATOM     13  C   UNL     1      43.401 -40.711  -3.185  1.00  0.00    -0.028 C 
ATOM     14  C   UNL     1      43.771 -41.719  -5.393  1.00  0.00     0.039 C 
BRANCH  13  15
ATOM     15  C   UNL     1      42.752 -39.836  -2.142  1.00  0.00     0.035 C 
BRANCH  15  16
ATOM     16  C   UNL     1      42.628 -40.587  -0.809  1.00  0.00     0.079 C 
BRANCH  16  17
ATOM     17  C   UNL     1      41.216 -40.960  -0.403  1.00  0.00     0.130 C 
ATOM     18  O   UNL     1      41.022 -41.256   0.766  1.00  0.00    -0.300 OA
ATOM     19  C   UNL     1      40.036 -40.994  -1.339  1.00  0.00     0.087 C 
ENDBRANCH  16  17
ENDBRANCH  15  16
ENDBRANCH  13  15
ENDBRANCH  11  12
ENDBRANCH   1  11
TORSDOF 9
ENDMDL
MODEL 7
REMARK VINA RESULT:    -4.286      2.253      4.853
REMARK INTER + INTRA:          -9.315
REMARK INTER:                  -6.892
REMARK INTRA:                  -2.423
REMARK UNBOUND:                -2.774
REMARK SMILES CC(=O)CCC=C(C)CCC=C(C)CCC=C(C)C
REMARK SMILES IDX 10 1 11 2 12 3 13 4 14 5 15 6 16 7 18 8 17 9 19 10 9 11 7 12
REMARK SMILES IDX 6 13 8 14 5 15 4 16 2 17 3 18 1 19
REMARK H PARENT
REMARK Flexibility Score: inf
ROOT
ATOM      1  C   UNL     1      42.868 -39.570  -2.884  1.00  0.00     0.032 C 
ENDROOT
BRANCH   1   2
ATOM      2  C   UNL     1      41.674 -40.201  -2.208  1.00  0.00    -0.028 C 
ATOM      3  C   UNL     1      40.659 -39.539  -1.602  1.00  0.00    -0.077 C 
ATOM      4  C   UNL     1      39.595 -40.358  -0.916  1.00  0.00     0.039 C 
BRANCH   3   5
ATOM      5  C   UNL     1      40.528 -38.024  -1.576  1.00  0.00     0.034 C 
BRANCH   5   6
ATOM      6  C   UNL     1      39.853 -37.478  -2.843  1.00  0.00     0.032 C 
BRANCH   6   7
ATOM      7  C   UNL     1      40.724 -36.495  -3.589  1.00  0.00    -0.028 C 
ATOM      8  C   UNL     1      39.579 -36.986  -5.754  1.00  0.00     0.039 C 
ATOM      9  C   UNL     1      40.606 -36.265  -4.914  1.00  0.00    -0.080 C 
ATOM     10  C   UNL     1      41.529 -35.263  -5.560  1.00  0.00     0.039 C 
ENDBRANCH   6   7
ENDBRANCH   5   6
ENDBRANCH   3   5
ENDBRANCH   1   2
BRANCH   1  11
ATOM     11  C   UNL     1      42.676 -39.474  -4.405  1.00  0.00     0.034 C 
BRANCH  11  12
ATOM     12  C   UNL     1      42.563 -40.837  -5.065  1.00  0.00    -0.077 C 
ATOM     13  C   UNL     1      41.410 -41.307  -5.592  1.00  0.00    -0.028 C 
ATOM     14  C   UNL     1      43.791 -41.708  -5.148  1.00  0.00     0.039 C 
BRANCH  13  15
ATOM     15  C   UNL     1      40.081 -40.596  -5.538  1.00  0.00     0.035 C 
BRANCH  15  16
ATOM     16  C   UNL     1      39.162 -41.250  -4.497  1.00  0.00     0.079 C 
BRANCH  16  17
ATOM     17  C   UNL     1      37.711 -40.817  -4.549  1.00  0.00     0.130 C 
ATOM     18  O   UNL     1      36.862 -41.689  -4.656  1.00  0.00    -0.300 OA
ATOM     19  C   UNL     1      37.240 -39.387  -4.479  1.00  0.00     0.087 C 
ENDBRANCH  16  17
ENDBRANCH  15  16
ENDBRANCH  13  15
ENDBRANCH  11  12
ENDBRANCH   1  11
TORSDOF 9
ENDMDL
MODEL 8
REMARK VINA RESULT:    -4.277      1.961      3.523
REMARK INTER + INTRA:          -9.301
REMARK INTER:                  -7.125
REMARK INTRA:                  -2.175
REMARK UNBOUND:                -2.774
REMARK SMILES CC(=O)CCC=C(C)CCC=C(C)CCC=C(C)C
REMARK SMILES IDX 10 1 11 2 12 3 13 4 14 5 15 6 16 7 18 8 17 9 19 10 9 11 7 12
REMARK SMILES IDX 6 13 8 14 5 15 4 16 2 17 3 18 1 19
REMARK H PARENT
REMARK Flexibility Score: inf
ROOT
ATOM      1  C   UNL     1      40.253 -40.759  -5.641  1.00  0.00     0.032 C 
ENDROOT
BRANCH   1   2
ATOM      2  C   UNL     1      41.545 -41.520  -5.827  1.00  0.00    -0.028 C 
ATOM      3  C   UNL     1      42.749 -41.184  -5.306  1.00  0.00    -0.077 C 
ATOM      4  C   UNL     1      43.938 -42.035  -5.673  1.00  0.00     0.039 C 
BRANCH   3   5
ATOM      5  C   UNL     1      42.972 -40.004  -4.372  1.00  0.00     0.034 C 
BRANCH   5   6
ATOM      6  C   UNL     1      43.088 -40.438  -2.904  1.00  0.00     0.032 C 
BRANCH   6   7
ATOM      7  C   UNL     1      42.749 -39.326  -1.939  1.00  0.00    -0.028 C 
ATOM      8  C   UNL     1      41.113 -40.763  -0.716  1.00  0.00     0.039 C 
ATOM      9  C   UNL     1      41.852 -39.465  -0.941  1.00  0.00    -0.080 C 
ATOM     10  C   UNL     1      41.588 -38.289  -0.036  1.00  0.00     0.039 C 
ENDBRANCH   6   7
ENDBRANCH   5   6
ENDBRANCH   3   5
ENDBRANCH   1   2
BRANCH   1  11
ATOM     11  C   UNL     1      39.608 -41.057  -4.280  1.00  0.00     0.034 C 
BRANCH  11  12
ATOM     12  C   UNL     1      38.229 -40.435  -4.139  1.00  0.00    -0.077 C 
ATOM     13  C   UNL     1      38.014 -39.251  -3.521  1.00  0.00    -0.028 C 
ATOM     14  C   UNL     1      37.042 -41.161  -4.720  1.00  0.00     0.039 C 
BRANCH  13  15
ATOM     15  C   UNL     1      39.076 -38.431  -2.832  1.00  0.00     0.035 C 
BRANCH  15  16
ATOM     16  C   UNL     1      39.213 -37.056  -3.501  1.00  0.00     0.079 C 
BRANCH  16  17
ATOM     17  C   UNL     1      40.142 -37.005  -4.697  1.00  0.00     0.130 C 
ATOM     18  O   UNL     1      39.664 -37.239  -5.797  1.00  0.00    -0.300 OA
ATOM     19  C   UNL     1      41.613 -36.688  -4.626  1.00  0.00     0.087 C 
ENDBRANCH  16  17
ENDBRANCH  15  16
ENDBRANCH  13  15
ENDBRANCH  11  12
ENDBRANCH   1  11
TORSDOF 9
ENDMDL
MODEL 9
REMARK VINA RESULT:    -4.262      2.498      4.371
REMARK INTER + INTRA:          -9.278
REMARK INTER:                  -6.775
REMARK INTRA:                  -2.504
REMARK UNBOUND:                -2.774
REMARK SMILES CC(=O)CCC=C(C)CCC=C(C)CCC=C(C)C
REMARK SMILES IDX 10 1 11 2 12 3 13 4 14 5 15 6 16 7 18 8 17 9 19 10 9 11 7 12
REMARK SMILES IDX 6 13 8 14 5 15 4 16 2 17 3 18 1 19
REMARK H PARENT
REMARK Flexibility Score: inf
ROOT
ATOM      1  C   UNL     1      39.939 -40.788  -5.124  1.00  0.00     0.032 C 
ENDROOT
BRANCH   1   2
ATOM      2  C   UNL     1      41.244 -41.425  -5.541  1.00  0.00    -0.028 C 
ATOM      3  C   UNL     1      42.483 -41.011  -5.181  1.00  0.00    -0.077 C 
ATOM      4  C   UNL     1      43.666 -41.738  -5.769  1.00  0.00     0.039 C 
BRANCH   3   5
ATOM      5  C   UNL     1      42.750 -39.864  -4.219  1.00  0.00     0.034 C 
BRANCH   5   6
ATOM      6  C   UNL     1      42.404 -40.230  -2.769  1.00  0.00     0.032 C 
BRANCH   6   7
ATOM      7  C   UNL     1      41.406 -39.278  -2.150  1.00  0.00    -0.028 C 
ATOM      8  C   UNL     1      39.809 -41.133  -1.654  1.00  0.00     0.039 C 
ATOM      9  C   UNL     1      40.223 -39.680  -1.641  1.00  0.00    -0.080 C 
ATOM     10  C   UNL     1      39.300 -38.646  -1.049  1.00  0.00     0.039 C 
ENDBRANCH   6   7
ENDBRANCH   5   6
ENDBRANCH   3   5
ENDBRANCH   1   2
BRANCH   1  11
ATOM     11  C   UNL     1      39.573 -39.598  -6.022  1.00  0.00     0.034 C 
BRANCH  11  12
ATOM     12  C   UNL     1      39.262 -38.342  -5.227  1.00  0.00    -0.077 C 
ATOM     13  C   UNL     1      38.046 -38.092  -4.690  1.00  0.00    -0.028 C 
ATOM     14  C   UNL     1      40.356 -37.326  -5.017  1.00  0.00     0.039 C 
BRANCH  13  15
ATOM     15  C   UNL     1      36.830 -38.967  -4.860  1.00  0.00     0.035 C 
BRANCH  15  16
ATOM     16  C   UNL     1      36.674 -39.913  -3.661  1.00  0.00     0.079 C 
BRANCH  16  17
ATOM     17  C   UNL     1      35.560 -39.561  -2.696  1.00  0.00     0.130 C 
ATOM     18  O   UNL     1      34.635 -40.352  -2.586  1.00  0.00    -0.300 OA
ATOM     19  C   UNL     1      35.511 -38.306  -1.865  1.00  0.00     0.087 C 
ENDBRANCH  16  17
ENDBRANCH  15  16
ENDBRANCH  13  15
ENDBRANCH  11  12
ENDBRANCH   1  11
TORSDOF 9
ENDMDL
