MODEL 1
REMARK VINA RESULT:    -3.828      0.000      0.000
REMARK INTER + INTRA:          -7.234
REMARK INTER:                  -6.514
REMARK INTRA:                  -0.720
REMARK UNBOUND:                -0.720
REMARK SMILES CCCCCCCCCCCCCC(=O)[O-]
REMARK SMILES IDX 8 1 9 2 10 3 11 4 12 5 13 6 14 7 15 8 16 9 7 10 6 11 5 12
REMARK SMILES IDX 4 13 3 14 2 15 1 16
REMARK H PARENT
REMARK Flexibility Score: inf
ROOT
ATOM      1  C   UNL     1      -9.811  -8.526  -6.831  1.00  0.00     0.000 C 
ENDROOT
BRANCH   1   2
ATOM      2  C   UNL     1     -10.263  -7.789  -5.563  1.00  0.00     0.000 C 
BRANCH   2   3
ATOM      3  C   UNL     1     -11.790  -7.853  -5.406  1.00  0.00     0.000 C 
BRANCH   3   4
ATOM      4  C   UNL     1     -12.512  -8.215  -6.714  1.00  0.00     0.000 C 
BRANCH   4   5
ATOM      5  C   UNL     1     -13.577  -7.202  -7.180  1.00  0.00     0.006 C 
BRANCH   5   6
ATOM      6  C   UNL     1     -14.955  -7.392  -6.520  1.00  0.00     0.053 C 
BRANCH   6   7
ATOM      7  C   UNL     1     -16.028  -7.729  -7.511  1.00  0.00     0.041 C 
ATOM      8  O   UNL     1     -16.257  -6.964  -8.485  1.00  0.00    -0.550 OA
ATOM      9  O   UNL     1     -16.751  -8.909  -7.381  1.00  0.00    -0.550 OA
ENDBRANCH   6   7
ENDBRANCH   5   6
ENDBRANCH   4   5
ENDBRANCH   3   4
ENDBRANCH   2   3
ENDBRANCH   1   2
BRANCH   1  10
ATOM     10  C   UNL     1      -9.341  -9.965  -6.551  1.00  0.00     0.000 C 
BRANCH  10  11
ATOM     11  C   UNL     1      -7.962 -10.294  -7.164  1.00  0.00    -0.000 C 
BRANCH  11  12
ATOM     12  C   UNL     1      -6.809  -9.990  -6.193  1.00  0.00    -0.000 C 
BRANCH  12  13
ATOM     13  C   UNL     1      -6.126  -8.645  -6.486  1.00  0.00    -0.000 C 
BRANCH  13  14
ATOM     14  C   UNL     1      -4.705  -8.815  -7.052  1.00  0.00    -0.000 C 
BRANCH  14  15
ATOM     15  C   UNL     1      -4.688  -8.899  -8.586  1.00  0.00    -0.003 C 
ATOM     16  C   UNL     1      -4.415 -10.314  -9.097  1.00  0.00     0.004 C 
ENDBRANCH  14  15
ENDBRANCH  13  14
ENDBRANCH  12  13
ENDBRANCH  11  12
ENDBRANCH  10  11
ENDBRANCH   1  10
TORSDOF 12
ENDMDL
MODEL 2
REMARK VINA RESULT:    -3.596      4.595      8.721
REMARK INTER + INTRA:          -6.839
REMARK INTER:                  -6.229
REMARK INTRA:                  -0.610
REMARK UNBOUND:                -0.720
REMARK SMILES CCCCCCCCCCCCCC(=O)[O-]
REMARK SMILES IDX 8 1 9 2 10 3 11 4 12 5 13 6 14 7 15 8 16 9 7 10 6 11 5 12
REMARK SMILES IDX 4 13 3 14 2 15 1 16
REMARK H PARENT
REMARK Flexibility Score: inf
ROOT
ATOM      1  C   UNL     1      -9.546  -8.350  -6.814  1.00  0.00     0.000 C 
ENDROOT
BRANCH   1   2
ATOM      2  C   UNL     1      -9.339  -9.871  -6.794  1.00  0.00     0.000 C 
BRANCH   2   3
ATOM      3  C   UNL     1      -7.881 -10.221  -6.465  1.00  0.00     0.000 C 
BRANCH   3   4
ATOM      4  C   UNL     1      -7.138 -10.867  -7.646  1.00  0.00     0.000 C 
BRANCH   4   5
ATOM      5  C   UNL     1      -5.761 -10.256  -7.971  1.00  0.00     0.006 C 
BRANCH   5   6
ATOM      6  C   UNL     1      -5.608  -8.787  -7.534  1.00  0.00     0.053 C 
BRANCH   6   7
ATOM      7  C   UNL     1      -4.269  -8.503  -6.922  1.00  0.00     0.041 C 
ATOM      8  O   UNL     1      -3.468  -9.444  -6.682  1.00  0.00    -0.550 OA
ATOM      9  O   UNL     1      -3.891  -7.193  -6.652  1.00  0.00    -0.550 OA
ENDBRANCH   6   7
ENDBRANCH   5   6
ENDBRANCH   4   5
ENDBRANCH   3   4
ENDBRANCH   2   3
ENDBRANCH   1   2
BRANCH   1  10
ATOM     10  C   UNL     1     -10.199  -7.817  -5.526  1.00  0.00     0.000 C 
BRANCH  10  11
ATOM     11  C   UNL     1     -11.730  -8.008  -5.486  1.00  0.00    -0.000 C 
BRANCH  11  12
ATOM     12  C   UNL     1     -12.353  -8.009  -6.893  1.00  0.00    -0.000 C 
BRANCH  12  13
ATOM     13  C   UNL     1     -13.671  -7.223  -6.958  1.00  0.00    -0.000 C 
BRANCH  13  14
ATOM     14  C   UNL     1     -14.861  -8.017  -6.391  1.00  0.00    -0.000 C 
BRANCH  14  15
ATOM     15  C   UNL     1     -16.194  -7.630  -7.050  1.00  0.00    -0.003 C 
ATOM     16  C   UNL     1     -16.015  -7.086  -8.467  1.00  0.00     0.004 C 
ENDBRANCH  14  15
ENDBRANCH  13  14
ENDBRANCH  12  13
ENDBRANCH  11  12
ENDBRANCH  10  11
ENDBRANCH   1  10
TORSDOF 12
ENDMDL
MODEL 3
REMARK VINA RESULT:    -3.381      4.507      8.942
REMARK INTER + INTRA:          -6.473
REMARK INTER:                  -5.990
REMARK INTRA:                  -0.483
REMARK UNBOUND:                -0.720
REMARK SMILES CCCCCCCCCCCCCC(=O)[O-]
REMARK SMILES IDX 8 1 9 2 10 3 11 4 12 5 13 6 14 7 15 8 16 9 7 10 6 11 5 12
REMARK SMILES IDX 4 13 3 14 2 15 1 16
REMARK H PARENT
REMARK Flexibility Score: inf
ROOT
ATOM      1  C   UNL     1     -10.392  -8.488  -7.186  1.00  0.00     0.000 C 
ENDROOT
BRANCH   1   2
ATOM      2  C   UNL     1      -9.517  -9.195  -6.142  1.00  0.00     0.000 C 
BRANCH   2   3
ATOM      3  C   UNL     1      -8.686 -10.313  -6.788  1.00  0.00     0.000 C 
BRANCH   3   4
ATOM      4  C   UNL     1      -7.368 -10.586  -6.045  1.00  0.00     0.000 C 
BRANCH   4   5
ATOM      5  C   UNL     1      -6.116  -9.937  -6.666  1.00  0.00     0.006 C 
BRANCH   5   6
ATOM      6  C   UNL     1      -5.630 -10.620  -7.958  1.00  0.00     0.053 C 
BRANCH   6   7
ATOM      7  C   UNL     1      -4.651  -9.781  -8.723  1.00  0.00     0.041 C 
ATOM      8  O   UNL     1      -3.816 -10.324  -9.493  1.00  0.00    -0.550 OA
ATOM      9  O   UNL     1      -4.686  -8.396  -8.614  1.00  0.00    -0.550 OA
ENDBRANCH   6   7
ENDBRANCH   5   6
ENDBRANCH   4   5
ENDBRANCH   3   4
ENDBRANCH   2   3
ENDBRANCH   1   2
BRANCH   1  10
ATOM     10  C   UNL     1     -11.894  -8.765  -6.996  1.00  0.00     0.000 C 
BRANCH  10  11
ATOM     11  C   UNL     1     -12.583  -7.785  -6.022  1.00  0.00    -0.000 C 
BRANCH  11  12
ATOM     12  C   UNL     1     -13.972  -7.352  -6.521  1.00  0.00    -0.000 C 
BRANCH  12  13
ATOM     13  C   UNL     1     -15.030  -7.354  -5.407  1.00  0.00    -0.000 C 
BRANCH  13  14
ATOM     14  C   UNL     1     -16.341  -8.035  -5.838  1.00  0.00    -0.000 C 
BRANCH  14  15
ATOM     15  C   UNL     1     -16.111  -9.437  -6.423  1.00  0.00    -0.003 C 
ATOM     16  C   UNL     1     -17.073  -9.765  -7.564  1.00  0.00     0.004 C 
ENDBRANCH  14  15
ENDBRANCH  13  14
ENDBRANCH  12  13
ENDBRANCH  11  12
ENDBRANCH  10  11
ENDBRANCH   1  10
TORSDOF 12
ENDMDL
MODEL 4
REMARK VINA RESULT:    -3.250      1.313      2.298
REMARK INTER + INTRA:          -6.250
REMARK INTER:                  -5.709
REMARK INTRA:                  -0.541
REMARK UNBOUND:                -0.720
REMARK SMILES CCCCCCCCCCCCCC(=O)[O-]
REMARK SMILES IDX 8 1 9 2 10 3 11 4 12 5 13 6 14 7 15 8 16 9 7 10 6 11 5 12
REMARK SMILES IDX 4 13 3 14 2 15 1 16
REMARK H PARENT
REMARK Flexibility Score: inf
ROOT
ATOM      1  C   UNL     1     -11.637  -8.490  -7.365  1.00  0.00     0.000 C 
ENDROOT
BRANCH   1   2
ATOM      2  C   UNL     1     -12.776  -7.586  -6.872  1.00  0.00     0.000 C 
BRANCH   2   3
ATOM      3  C   UNL     1     -13.357  -8.107  -5.550  1.00  0.00     0.000 C 
BRANCH   3   4
ATOM      4  C   UNL     1     -14.618  -7.346  -5.108  1.00  0.00     0.000 C 
BRANCH   4   5
ATOM      5  C   UNL     1     -15.943  -8.117  -5.274  1.00  0.00     0.006 C 
BRANCH   5   6
ATOM      6  C   UNL     1     -16.425  -8.229  -6.732  1.00  0.00     0.053 C 
BRANCH   6   7
ATOM      7  C   UNL     1     -17.096  -9.539  -7.020  1.00  0.00     0.041 C 
ATOM      8  O   UNL     1     -17.479 -10.277  -6.075  1.00  0.00    -0.550 OA
ATOM      9  O   UNL     1     -17.332  -9.926  -8.333  1.00  0.00    -0.550 OA
ENDBRANCH   6   7
ENDBRANCH   5   6
ENDBRANCH   4   5
ENDBRANCH   3   4
ENDBRANCH   2   3
ENDBRANCH   1   2
BRANCH   1  10
ATOM     10  C   UNL     1     -10.502  -8.637  -6.336  1.00  0.00     0.000 C 
BRANCH  10  11
ATOM     11  C   UNL     1     -10.196 -10.103  -5.960  1.00  0.00    -0.000 C 
BRANCH  11  12
ATOM     12  C   UNL     1      -8.833 -10.568  -6.502  1.00  0.00    -0.000 C 
BRANCH  12  13
ATOM     13  C   UNL     1      -7.814  -9.422  -6.604  1.00  0.00    -0.000 C 
BRANCH  13  14
ATOM     14  C   UNL     1      -6.383  -9.926  -6.866  1.00  0.00    -0.000 C 
BRANCH  14  15
ATOM     15  C   UNL     1      -5.514  -8.882  -7.582  1.00  0.00    -0.003 C 
ATOM     16  C   UNL     1      -4.621  -9.497  -8.660  1.00  0.00     0.004 C 
ENDBRANCH  14  15
ENDBRANCH  13  14
ENDBRANCH  12  13
ENDBRANCH  11  12
ENDBRANCH  10  11
ENDBRANCH   1  10
TORSDOF 12
ENDMDL
MODEL 5
REMARK VINA RESULT:    -3.087      1.982      2.574
REMARK INTER + INTRA:          -5.973
REMARK INTER:                  -5.063
REMARK INTRA:                  -0.910
REMARK UNBOUND:                -0.720
REMARK SMILES CCCCCCCCCCCCCC(=O)[O-]
REMARK SMILES IDX 8 1 9 2 10 3 11 4 12 5 13 6 14 7 15 8 16 9 7 10 6 11 5 12
REMARK SMILES IDX 4 13 3 14 2 15 1 16
REMARK H PARENT
REMARK Flexibility Score: inf
ROOT
ATOM      1  C   UNL     1     -11.914 -10.265  -5.138  1.00  0.00     0.000 C 
ENDROOT
BRANCH   1   2
ATOM      2  C   UNL     1     -12.667 -10.918  -6.305  1.00  0.00     0.000 C 
BRANCH   2   3
ATOM      3  C   UNL     1     -14.182 -10.906  -6.054  1.00  0.00     0.000 C 
BRANCH   3   4
ATOM      4  C   UNL     1     -14.600  -9.918  -4.952  1.00  0.00     0.000 C 
BRANCH   4   5
ATOM      5  C   UNL     1     -15.313  -8.644  -5.447  1.00  0.00     0.006 C 
BRANCH   5   6
ATOM      6  C   UNL     1     -14.369  -7.452  -5.691  1.00  0.00     0.053 C 
BRANCH   6   7
ATOM      7  C   UNL     1     -13.904  -7.367  -7.114  1.00  0.00     0.041 C 
ATOM      8  O   UNL     1     -12.707  -7.626  -7.407  1.00  0.00    -0.550 OA
ATOM      9  O   UNL     1     -14.801  -7.037  -8.122  1.00  0.00    -0.550 OA
ENDBRANCH   6   7
ENDBRANCH   5   6
ENDBRANCH   4   5
ENDBRANCH   3   4
ENDBRANCH   2   3
ENDBRANCH   1   2
BRANCH   1  10
ATOM     10  C   UNL     1     -10.384 -10.353  -5.289  1.00  0.00     0.000 C 
BRANCH  10  11
ATOM     11  C   UNL     1      -9.840  -9.585  -6.512  1.00  0.00    -0.000 C 
BRANCH  11  12
ATOM     12  C   UNL     1      -8.381  -9.957  -6.829  1.00  0.00    -0.000 C 
BRANCH  12  13
ATOM     13  C   UNL     1      -7.383  -8.880  -6.376  1.00  0.00    -0.000 C 
BRANCH  13  14
ATOM     14  C   UNL     1      -6.037  -8.973  -7.116  1.00  0.00    -0.000 C 
BRANCH  14  15
ATOM     15  C   UNL     1      -5.852 -10.319  -7.833  1.00  0.00    -0.003 C 
ATOM     16  C   UNL     1      -4.633 -10.333  -8.756  1.00  0.00     0.004 C 
ENDBRANCH  14  15
ENDBRANCH  13  14
ENDBRANCH  12  13
ENDBRANCH  11  12
ENDBRANCH  10  11
ENDBRANCH   1  10
TORSDOF 12
ENDMDL
MODEL 6
REMARK VINA RESULT:    -2.784      2.176      4.256
REMARK INTER + INTRA:          -5.458
REMARK INTER:                  -4.381
REMARK INTRA:                  -1.077
REMARK UNBOUND:                -0.720
REMARK SMILES CCCCCCCCCCCCCC(=O)[O-]
REMARK SMILES IDX 8 1 9 2 10 3 11 4 12 5 13 6 14 7 15 8 16 9 7 10 6 11 5 12
REMARK SMILES IDX 4 13 3 14 2 15 1 16
REMARK H PARENT
REMARK Flexibility Score: inf
ROOT
ATOM      1  C   UNL     1     -14.398 -10.370  -4.875  1.00  0.00     0.000 C 
ENDROOT
BRANCH   1   2
ATOM      2  C   UNL     1     -14.770 -11.125  -6.159  1.00  0.00     0.000 C 
BRANCH   2   3
ATOM      3  C   UNL     1     -16.187 -10.758  -6.621  1.00  0.00     0.000 C 
BRANCH   3   4
ATOM      4  C   UNL     1     -17.002 -10.032  -5.537  1.00  0.00     0.000 C 
BRANCH   4   5
ATOM      5  C   UNL     1     -17.490  -8.620  -5.916  1.00  0.00     0.006 C 
BRANCH   5   6
ATOM      6  C   UNL     1     -16.388  -7.546  -5.883  1.00  0.00     0.053 C 
BRANCH   6   7
ATOM      7  C   UNL     1     -15.658  -7.426  -7.188  1.00  0.00     0.041 C 
ATOM      8  O   UNL     1     -14.401  -7.356  -7.208  1.00  0.00    -0.550 OA
ATOM      9  O   UNL     1     -16.365  -7.433  -8.384  1.00  0.00    -0.550 OA
ENDBRANCH   6   7
ENDBRANCH   5   6
ENDBRANCH   4   5
ENDBRANCH   3   4
ENDBRANCH   2   3
ENDBRANCH   1   2
BRANCH   1  10
ATOM     10  C   UNL     1     -12.972  -9.793  -4.911  1.00  0.00     0.000 C 
BRANCH  10  11
ATOM     11  C   UNL     1     -12.264  -9.979  -6.270  1.00  0.00    -0.000 C 
BRANCH  11  12
ATOM     12  C   UNL     1     -10.858  -9.356  -6.283  1.00  0.00    -0.000 C 
BRANCH  12  13
ATOM     13  C   UNL     1     -10.550  -8.562  -5.004  1.00  0.00    -0.000 C 
BRANCH  13  14
ATOM     14  C   UNL     1      -9.531  -7.433  -5.240  1.00  0.00    -0.000 C 
BRANCH  14  15
ATOM     15  C   UNL     1      -8.674  -7.667  -6.494  1.00  0.00    -0.003 C 
ATOM     16  C   UNL     1      -7.286  -8.217  -6.165  1.00  0.00     0.004 C 
ENDBRANCH  14  15
ENDBRANCH  13  14
ENDBRANCH  12  13
ENDBRANCH  11  12
ENDBRANCH  10  11
ENDBRANCH   1  10
TORSDOF 12
ENDMDL
MODEL 7
REMARK VINA RESULT:    -2.603     15.335     17.511
REMARK INTER + INTRA:          -5.149
REMARK INTER:                  -3.318
REMARK INTRA:                  -1.831
REMARK UNBOUND:                -0.720
REMARK SMILES CCCCCCCCCCCCCC(=O)[O-]
REMARK SMILES IDX 8 1 9 2 10 3 11 4 12 5 13 6 14 7 15 8 16 9 7 10 6 11 5 12
REMARK SMILES IDX 4 13 3 14 2 15 1 16
REMARK H PARENT
REMARK Flexibility Score: inf
ROOT
ATOM      1  C   UNL     1     -17.182  -9.469 -20.965  1.00  0.00     0.000 C 
ENDROOT
BRANCH   1   2
ATOM      2  C   UNL     1     -15.685  -9.211 -20.742  1.00  0.00     0.000 C 
BRANCH   2   3
ATOM      3  C   UNL     1     -15.414  -7.716 -20.519  1.00  0.00     0.000 C 
BRANCH   3   4
ATOM      4  C   UNL     1     -16.700  -6.878 -20.438  1.00  0.00     0.000 C 
BRANCH   4   5
ATOM      5  C   UNL     1     -17.043  -6.075 -21.709  1.00  0.00     0.006 C 
BRANCH   5   6
ATOM      6  C   UNL     1     -15.886  -5.203 -22.230  1.00  0.00     0.053 C 
BRANCH   6   7
ATOM      7  C   UNL     1     -16.336  -3.836 -22.650  1.00  0.00     0.041 C 
ATOM      8  O   UNL     1     -16.110  -2.838 -21.915  1.00  0.00    -0.550 OA
ATOM      9  O   UNL     1     -16.972  -3.657 -23.873  1.00  0.00    -0.550 OA
ENDBRANCH   6   7
ENDBRANCH   5   6
ENDBRANCH   4   5
ENDBRANCH   3   4
ENDBRANCH   2   3
ENDBRANCH   1   2
BRANCH   1  10
ATOM     10  C   UNL     1     -17.522  -9.793 -22.430  1.00  0.00     0.000 C 
BRANCH  10  11
ATOM     11  C   UNL     1     -18.639  -8.903 -23.017  1.00  0.00    -0.000 C 
BRANCH  11  12
ATOM     12  C   UNL     1     -18.261  -8.329 -24.393  1.00  0.00    -0.000 C 
BRANCH  12  13
ATOM     13  C   UNL     1     -16.950  -8.915 -24.940  1.00  0.00    -0.000 C 
BRANCH  13  14
ATOM     14  C   UNL     1     -15.833  -7.862 -25.051  1.00  0.00    -0.000 C 
BRANCH  14  15
ATOM     15  C   UNL     1     -14.621  -8.195 -24.169  1.00  0.00    -0.003 C 
ATOM     16  C   UNL     1     -14.428  -9.699 -23.974  1.00  0.00     0.004 C 
ENDBRANCH  14  15
ENDBRANCH  13  14
ENDBRANCH  12  13
ENDBRANCH  11  12
ENDBRANCH  10  11
ENDBRANCH   1  10
TORSDOF 12
ENDMDL
MODEL 8
REMARK VINA RESULT:    -2.593      2.743      5.022
REMARK INTER + INTRA:          -5.131
REMARK INTER:                  -4.435
REMARK INTRA:                  -0.696
REMARK UNBOUND:                -0.720
REMARK SMILES CCCCCCCCCCCCCC(=O)[O-]
REMARK SMILES IDX 8 1 9 2 10 3 11 4 12 5 13 6 14 7 15 8 16 9 7 10 6 11 5 12
REMARK SMILES IDX 4 13 3 14 2 15 1 16
REMARK H PARENT
REMARK Flexibility Score: inf
ROOT
ATOM      1  C   UNL     1     -16.049 -11.095  -5.237  1.00  0.00     0.000 C 
ENDROOT
BRANCH   1   2
ATOM      2  C   UNL     1     -17.295 -10.425  -5.835  1.00  0.00     0.000 C 
BRANCH   2   3
ATOM      3  C   UNL     1     -17.051  -8.928  -6.075  1.00  0.00     0.000 C 
BRANCH   3   4
ATOM      4  C   UNL     1     -16.682  -8.607  -7.532  1.00  0.00     0.000 C 
BRANCH   4   5
ATOM      5  C   UNL     1     -16.189  -7.168  -7.784  1.00  0.00     0.006 C 
BRANCH   5   6
ATOM      6  C   UNL     1     -14.728  -7.080  -8.262  1.00  0.00     0.053 C 
BRANCH   6   7
ATOM      7  C   UNL     1     -13.743  -7.314  -7.156  1.00  0.00     0.041 C 
ATOM      8  O   UNL     1     -12.581  -7.723  -7.416  1.00  0.00    -0.550 OA
ATOM      9  O   UNL     1     -14.096  -7.043  -5.840  1.00  0.00    -0.550 OA
ENDBRANCH   6   7
ENDBRANCH   5   6
ENDBRANCH   4   5
ENDBRANCH   3   4
ENDBRANCH   2   3
ENDBRANCH   1   2
BRANCH   1  10
ATOM     10  C   UNL     1     -14.757 -10.740  -5.993  1.00  0.00     0.000 C 
BRANCH  10  11
ATOM     11  C   UNL     1     -13.511 -10.665  -5.086  1.00  0.00    -0.000 C 
BRANCH  11  12
ATOM     12  C   UNL     1     -12.204 -10.843  -5.878  1.00  0.00    -0.000 C 
BRANCH  12  13
ATOM     13  C   UNL     1     -11.098  -9.879  -5.421  1.00  0.00    -0.000 C 
BRANCH  13  14
ATOM     14  C   UNL     1      -9.688 -10.406  -5.735  1.00  0.00    -0.000 C 
BRANCH  14  15
ATOM     15  C   UNL     1      -8.947  -9.532  -6.759  1.00  0.00    -0.003 C 
ATOM     16  C   UNL     1      -9.046  -8.040  -6.441  1.00  0.00     0.004 C 
ENDBRANCH  14  15
ENDBRANCH  13  14
ENDBRANCH  12  13
ENDBRANCH  11  12
ENDBRANCH  10  11
ENDBRANCH   1  10
TORSDOF 12
ENDMDL
MODEL 9
REMARK VINA RESULT:    -2.408     15.400     17.732
REMARK INTER + INTRA:          -4.816
REMARK INTER:                  -3.828
REMARK INTRA:                  -0.989
REMARK UNBOUND:                -0.720
REMARK SMILES CCCCCCCCCCCCCC(=O)[O-]
REMARK SMILES IDX 8 1 9 2 10 3 11 4 12 5 13 6 14 7 15 8 16 9 7 10 6 11 5 12
REMARK SMILES IDX 4 13 3 14 2 15 1 16
REMARK H PARENT
REMARK Flexibility Score: inf
ROOT
ATOM      1  C   UNL     1     -14.742  -8.547 -22.663  1.00  0.00     0.000 C 
ENDROOT
BRANCH   1   2
ATOM      2  C   UNL     1     -15.467  -8.997 -21.386  1.00  0.00     0.000 C 
BRANCH   2   3
ATOM      3  C   UNL     1     -15.347  -7.934 -20.284  1.00  0.00     0.000 C 
BRANCH   3   4
ATOM      4  C   UNL     1     -16.603  -7.056 -20.159  1.00  0.00     0.000 C 
BRANCH   4   5
ATOM      5  C   UNL     1     -16.994  -6.281 -21.434  1.00  0.00     0.006 C 
BRANCH   5   6
ATOM      6  C   UNL     1     -15.851  -5.439 -22.031  1.00  0.00     0.053 C 
BRANCH   6   7
ATOM      7  C   UNL     1     -16.335  -4.151 -22.629  1.00  0.00     0.041 C 
ATOM      8  O   UNL     1     -16.262  -3.079 -21.973  1.00  0.00    -0.550 OA
ATOM      9  O   UNL     1     -16.830  -4.129 -23.927  1.00  0.00    -0.550 OA
ENDBRANCH   6   7
ENDBRANCH   5   6
ENDBRANCH   4   5
ENDBRANCH   3   4
ENDBRANCH   2   3
ENDBRANCH   1   2
BRANCH   1  10
ATOM     10  C   UNL     1     -14.675  -9.651 -23.733  1.00  0.00     0.000 C 
BRANCH  10  11
ATOM     11  C   UNL     1     -15.510  -9.340 -24.994  1.00  0.00    -0.000 C 
BRANCH  11  12
ATOM     12  C   UNL     1     -15.863  -7.846 -25.102  1.00  0.00    -0.000 C 
BRANCH  12  13
ATOM     13  C   UNL     1     -17.334  -7.560 -24.768  1.00  0.00    -0.000 C 
BRANCH  13  14
ATOM     14  C   UNL     1     -18.116  -8.834 -24.402  1.00  0.00    -0.000 C 
BRANCH  14  15
ATOM     15  C   UNL     1     -18.743  -8.758 -23.002  1.00  0.00    -0.003 C 
ATOM     16  C   UNL     1     -18.171  -9.803 -22.043  1.00  0.00     0.004 C 
ENDBRANCH  14  15
ENDBRANCH  13  14
ENDBRANCH  12  13
ENDBRANCH  11  12
ENDBRANCH  10  11
ENDBRANCH   1  10
TORSDOF 12
ENDMDL
