MODEL 1
REMARK VINA RESULT:    -5.077      0.000      0.000
REMARK INTER + INTRA:          -5.798
REMARK INTER:                  -5.671
REMARK INTRA:                  -0.127
REMARK UNBOUND:                -0.127
REMARK SMILES COc1cc2ccc(=O)oc2cc1OC
REMARK SMILES IDX 3 1 13 2 12 3 11 4 5 5 4 6 6 7 7 8 8 9 9 10 10 11 2 12 1 13
REMARK SMILES IDX 14 14 15 15
REMARK H PARENT
REMARK Flexibility Score: inf
ROOT
ATOM      1  C   UNL     1      48.992   8.481  22.309  1.00  0.00     0.161 A 
ATOM      2  C   UNL     1      47.933   9.128  21.649  1.00  0.00     0.164 A 
ATOM      3  C   UNL     1      47.926   9.200  20.242  1.00  0.00     0.098 A 
ATOM      4  C   UNL     1      48.964   8.634  19.499  1.00  0.00     0.142 A 
ATOM      5  C   UNL     1      50.026   7.985  20.161  1.00  0.00     0.022 A 
ATOM      6  C   UNL     1      50.039   7.909  21.559  1.00  0.00     0.062 A 
ATOM      7  C   UNL     1      51.051   7.427  19.389  1.00  0.00     0.019 A 
ATOM      8  C   UNL     1      50.994   7.528  17.998  1.00  0.00     0.094 A 
ATOM      9  C   UNL     1      49.908   8.187  17.412  1.00  0.00     0.336 A 
ATOM     10  O   UNL     1      49.837   8.288  16.159  1.00  0.00    -0.246 OA
ATOM     11  O   UNL     1      48.946   8.708  18.170  1.00  0.00    -0.423 OA
ENDROOT
BRANCH   1  12
ATOM     12  O   UNL     1      48.968   8.427  23.712  1.00  0.00    -0.493 OA
ATOM     13  C   UNL     1      50.099   8.642  24.549  1.00  0.00     0.278 C 
ENDBRANCH   1  12
BRANCH   2  14
ATOM     14  O   UNL     1      46.907   9.686  22.428  1.00  0.00    -0.493 OA
ATOM     15  C   UNL     1      46.789  11.070  22.737  1.00  0.00     0.278 C 
ENDBRANCH   2  14
TORSDOF 2
ENDMDL
MODEL 2
REMARK VINA RESULT:    -4.970      6.856      7.803
REMARK INTER + INTRA:          -5.679
REMARK INTER:                  -5.574
REMARK INTRA:                  -0.105
REMARK UNBOUND:                -0.127
REMARK SMILES COc1cc2ccc(=O)oc2cc1OC
REMARK SMILES IDX 3 1 13 2 12 3 11 4 5 5 4 6 6 7 7 8 8 9 9 10 10 11 2 12 1 13
REMARK SMILES IDX 14 14 15 15
REMARK H PARENT
REMARK Flexibility Score: inf
ROOT
ATOM      1  C   UNL     1      49.073   1.528  21.396  1.00  0.00     0.161 A 
ATOM      2  C   UNL     1      49.949   0.971  22.344  1.00  0.00     0.164 A 
ATOM      3  C   UNL     1      51.333   1.216  22.247  1.00  0.00     0.098 A 
ATOM      4  C   UNL     1      51.840   2.009  21.214  1.00  0.00     0.142 A 
ATOM      5  C   UNL     1      50.963   2.568  20.264  1.00  0.00     0.022 A 
ATOM      6  C   UNL     1      49.586   2.328  20.356  1.00  0.00     0.062 A 
ATOM      7  C   UNL     1      51.501   3.358  19.242  1.00  0.00     0.019 A 
ATOM      8  C   UNL     1      52.880   3.567  19.193  1.00  0.00     0.094 A 
ATOM      9  C   UNL     1      53.689   2.979  20.172  1.00  0.00     0.336 A 
ATOM     10  O   UNL     1      54.935   3.157  20.145  1.00  0.00    -0.246 OA
ATOM     11  O   UNL     1      53.150   2.233  21.133  1.00  0.00    -0.423 OA
ENDROOT
BRANCH   1  12
ATOM     12  O   UNL     1      47.700   1.265  21.523  1.00  0.00    -0.493 OA
ATOM     13  C   UNL     1      46.769   1.293  20.447  1.00  0.00     0.278 C 
ENDBRANCH   1  12
BRANCH   2  14
ATOM     14  O   UNL     1      49.404   0.180  23.368  1.00  0.00    -0.493 OA
ATOM     15  C   UNL     1      49.964   0.046  24.670  1.00  0.00     0.278 C 
ENDBRANCH   2  14
TORSDOF 2
ENDMDL
MODEL 3
REMARK VINA RESULT:    -4.956      1.515      4.972
REMARK INTER + INTRA:          -5.663
REMARK INTER:                  -5.544
REMARK INTRA:                  -0.118
REMARK UNBOUND:                -0.127
REMARK SMILES COc1cc2ccc(=O)oc2cc1OC
REMARK SMILES IDX 3 1 13 2 12 3 11 4 5 5 4 6 6 7 7 8 8 9 9 10 10 11 2 12 1 13
REMARK SMILES IDX 14 14 15 15
REMARK H PARENT
REMARK Flexibility Score: inf
ROOT
ATOM      1  C   UNL     1      50.954   7.435  19.069  1.00  0.00     0.161 A 
ATOM      2  C   UNL     1      50.085   8.038  18.144  1.00  0.00     0.164 A 
ATOM      3  C   UNL     1      48.954   8.743  18.603  1.00  0.00     0.098 A 
ATOM      4  C   UNL     1      48.691   8.845  19.971  1.00  0.00     0.142 A 
ATOM      5  C   UNL     1      49.563   8.241  20.899  1.00  0.00     0.022 A 
ATOM      6  C   UNL     1      50.689   7.540  20.450  1.00  0.00     0.062 A 
ATOM      7  C   UNL     1      49.273   8.362  22.263  1.00  0.00     0.019 A 
ATOM      8  C   UNL     1      48.139   9.071  22.662  1.00  0.00     0.094 A 
ATOM      9  C   UNL     1      47.320   9.644  21.683  1.00  0.00     0.336 A 
ATOM     10  O   UNL     1      46.293  10.288  22.022  1.00  0.00    -0.246 OA
ATOM     11  O   UNL     1      47.620   9.514  20.393  1.00  0.00    -0.423 OA
ENDROOT
BRANCH   1  12
ATOM     12  O   UNL     1      52.071   6.742  18.578  1.00  0.00    -0.493 OA
ATOM     13  C   UNL     1      52.216   5.325  18.595  1.00  0.00     0.278 C 
ENDBRANCH   1  12
BRANCH   2  14
ATOM     14  O   UNL     1      50.380   7.915  16.777  1.00  0.00    -0.493 OA
ATOM     15  C   UNL     1      49.687   8.596  15.737  1.00  0.00     0.278 C 
ENDBRANCH   2  14
TORSDOF 2
ENDMDL
MODEL 4
REMARK VINA RESULT:    -4.940      1.452      5.681
REMARK INTER + INTRA:          -5.645
REMARK INTER:                  -5.529
REMARK INTRA:                  -0.116
REMARK UNBOUND:                -0.127
REMARK SMILES COc1cc2ccc(=O)oc2cc1OC
REMARK SMILES IDX 3 1 13 2 12 3 11 4 5 5 4 6 6 7 7 8 8 9 9 10 10 11 2 12 1 13
REMARK SMILES IDX 14 14 15 15
REMARK H PARENT
REMARK Flexibility Score: inf
ROOT
ATOM      1  C   UNL     1      50.110   8.102  18.144  1.00  0.00     0.161 A 
ATOM      2  C   UNL     1      50.962   7.432  19.037  1.00  0.00     0.164 A 
ATOM      3  C   UNL     1      50.727   7.514  20.424  1.00  0.00     0.098 A 
ATOM      4  C   UNL     1      49.651   8.258  20.916  1.00  0.00     0.142 A 
ATOM      5  C   UNL     1      48.796   8.930  20.020  1.00  0.00     0.022 A 
ATOM      6  C   UNL     1      49.025   8.852  18.640  1.00  0.00     0.062 A 
ATOM      7  C   UNL     1      47.728   9.667  20.543  1.00  0.00     0.019 A 
ATOM      8  C   UNL     1      47.541   9.715  21.924  1.00  0.00     0.094 A 
ATOM      9  C   UNL     1      48.431   9.022  22.753  1.00  0.00     0.336 A 
ATOM     10  O   UNL     1      48.279   9.053  24.002  1.00  0.00    -0.246 OA
ATOM     11  O   UNL     1      49.438   8.329  22.228  1.00  0.00    -0.423 OA
ENDROOT
BRANCH   1  12
ATOM     12  O   UNL     1      50.373   7.998  16.768  1.00  0.00    -0.493 OA
ATOM     13  C   UNL     1      49.640   8.672  15.751  1.00  0.00     0.278 C 
ENDBRANCH   1  12
BRANCH   2  14
ATOM     14  O   UNL     1      52.033   6.693  18.508  1.00  0.00    -0.493 OA
ATOM     15  C   UNL     1      52.173   5.281  18.621  1.00  0.00     0.278 C 
ENDBRANCH   2  14
TORSDOF 2
ENDMDL
MODEL 5
REMARK VINA RESULT:    -4.846      2.668      3.845
REMARK INTER + INTRA:          -5.540
REMARK INTER:                  -5.436
REMARK INTRA:                  -0.104
REMARK UNBOUND:                -0.127
REMARK SMILES COc1cc2ccc(=O)oc2cc1OC
REMARK SMILES IDX 3 1 13 2 12 3 11 4 5 5 4 6 6 7 7 8 8 9 9 10 10 11 2 12 1 13
REMARK SMILES IDX 14 14 15 15
REMARK H PARENT
REMARK Flexibility Score: inf
ROOT
ATOM      1  C   UNL     1      48.786  11.627  19.168  1.00  0.00     0.161 A 
ATOM      2  C   UNL     1      47.859  11.178  20.124  1.00  0.00     0.164 A 
ATOM      3  C   UNL     1      47.964   9.871  20.640  1.00  0.00     0.098 A 
ATOM      4  C   UNL     1      48.983   9.019  20.206  1.00  0.00     0.142 A 
ATOM      5  C   UNL     1      49.912   9.469  19.248  1.00  0.00     0.022 A 
ATOM      6  C   UNL     1      49.813  10.768  18.731  1.00  0.00     0.062 A 
ATOM      7  C   UNL     1      50.921   8.593  18.834  1.00  0.00     0.019 A 
ATOM      8  C   UNL     1      50.979   7.309  19.377  1.00  0.00     0.094 A 
ATOM      9  C   UNL     1      50.021   6.932  20.325  1.00  0.00     0.336 A 
ATOM     10  O   UNL     1      50.055   5.779  20.828  1.00  0.00    -0.246 OA
ATOM     11  O   UNL     1      49.072   7.787  20.701  1.00  0.00    -0.423 OA
ENDROOT
BRANCH   1  12
ATOM     12  O   UNL     1      48.652  12.935  18.675  1.00  0.00    -0.493 OA
ATOM     13  C   UNL     1      49.729  13.728  18.185  1.00  0.00     0.278 C 
ENDBRANCH   1  12
BRANCH   2  14
ATOM     14  O   UNL     1      46.849  12.062  20.537  1.00  0.00    -0.493 OA
ATOM     15  C   UNL     1      45.627  11.662  21.149  1.00  0.00     0.278 C 
ENDBRANCH   2  14
TORSDOF 2
ENDMDL
MODEL 6
REMARK VINA RESULT:    -4.826      6.862      7.661
REMARK INTER + INTRA:          -5.518
REMARK INTER:                  -5.414
REMARK INTRA:                  -0.103
REMARK UNBOUND:                -0.127
REMARK SMILES COc1cc2ccc(=O)oc2cc1OC
REMARK SMILES IDX 3 1 13 2 12 3 11 4 5 5 4 6 6 7 7 8 8 9 9 10 10 11 2 12 1 13
REMARK SMILES IDX 14 14 15 15
REMARK H PARENT
REMARK Flexibility Score: inf
ROOT
ATOM      1  C   UNL     1      50.628   0.203  22.347  1.00  0.00     0.161 A 
ATOM      2  C   UNL     1      49.435   0.807  21.917  1.00  0.00     0.164 A 
ATOM      3  C   UNL     1      49.479   1.848  20.968  1.00  0.00     0.098 A 
ATOM      4  C   UNL     1      50.703   2.283  20.452  1.00  0.00     0.142 A 
ATOM      5  C   UNL     1      51.900   1.677  20.883  1.00  0.00     0.022 A 
ATOM      6  C   UNL     1      51.862   0.642  21.826  1.00  0.00     0.062 A 
ATOM      7  C   UNL     1      53.109   2.135  20.348  1.00  0.00     0.019 A 
ATOM      8  C   UNL     1      53.096   3.169  19.411  1.00  0.00     0.094 A 
ATOM      9  C   UNL     1      51.868   3.722  19.031  1.00  0.00     0.336 A 
ATOM     10  O   UNL     1      51.835   4.655  18.187  1.00  0.00    -0.246 OA
ATOM     11  O   UNL     1      50.733   3.267  19.556  1.00  0.00    -0.423 OA
ENDROOT
BRANCH   1  12
ATOM     12  O   UNL     1      50.547  -0.832  23.292  1.00  0.00    -0.493 OA
ATOM     13  C   UNL     1      51.482  -1.900  23.404  1.00  0.00     0.278 C 
ENDBRANCH   1  12
BRANCH   2  14
ATOM     14  O   UNL     1      48.224   0.344  22.456  1.00  0.00    -0.493 OA
ATOM     15  C   UNL     1      46.947   0.911  22.178  1.00  0.00     0.278 C 
ENDBRANCH   2  14
TORSDOF 2
ENDMDL
MODEL 7
REMARK VINA RESULT:    -4.792      1.632      2.987
REMARK INTER + INTRA:          -5.480
REMARK INTER:                  -5.378
REMARK INTRA:                  -0.102
REMARK UNBOUND:                -0.127
REMARK SMILES COc1cc2ccc(=O)oc2cc1OC
REMARK SMILES IDX 3 1 13 2 12 3 11 4 5 5 4 6 6 7 7 8 8 9 9 10 10 11 2 12 1 13
REMARK SMILES IDX 14 14 15 15
REMARK H PARENT
REMARK Flexibility Score: inf
ROOT
ATOM      1  C   UNL     1      47.420   9.722  21.597  1.00  0.00     0.161 A 
ATOM      2  C   UNL     1      48.147   8.974  22.539  1.00  0.00     0.164 A 
ATOM      3  C   UNL     1      49.296   8.265  22.135  1.00  0.00     0.098 A 
ATOM      4  C   UNL     1      49.716   8.301  20.803  1.00  0.00     0.142 A 
ATOM      5  C   UNL     1      48.988   9.051  19.858  1.00  0.00     0.022 A 
ATOM      6  C   UNL     1      47.846   9.758  20.254  1.00  0.00     0.062 A 
ATOM      7  C   UNL     1      49.435   9.067  18.532  1.00  0.00     0.019 A 
ATOM      8  C   UNL     1      50.579   8.347  18.186  1.00  0.00     0.094 A 
ATOM      9  C   UNL     1      51.250   7.625  19.179  1.00  0.00     0.336 A 
ATOM     10  O   UNL     1      52.284   6.969  18.888  1.00  0.00    -0.246 OA
ATOM     11  O   UNL     1      50.803   7.627  20.432  1.00  0.00    -0.423 OA
ENDROOT
BRANCH   1  12
ATOM     12  O   UNL     1      46.281  10.417  22.034  1.00  0.00    -0.493 OA
ATOM     13  C   UNL     1      45.697  11.522  21.351  1.00  0.00     0.278 C 
ENDBRANCH   1  12
BRANCH   2  14
ATOM     14  O   UNL     1      47.695   8.962  23.868  1.00  0.00    -0.493 OA
ATOM     15  C   UNL     1      48.245   8.151  24.901  1.00  0.00     0.278 C 
ENDBRANCH   2  14
TORSDOF 2
ENDMDL
MODEL 8
REMARK VINA RESULT:    -4.635      1.774      5.428
REMARK INTER + INTRA:          -5.304
REMARK INTER:                  -5.161
REMARK INTRA:                  -0.143
REMARK UNBOUND:                -0.127
REMARK SMILES COc1cc2ccc(=O)oc2cc1OC
REMARK SMILES IDX 3 1 13 2 12 3 11 4 5 5 4 6 6 7 7 8 8 9 9 10 10 11 2 12 1 13
REMARK SMILES IDX 14 14 15 15
REMARK H PARENT
REMARK Flexibility Score: inf
ROOT
ATOM      1  C   UNL     1      48.035   9.405  21.389  1.00  0.00     0.161 A 
ATOM      2  C   UNL     1      49.033   8.607  20.806  1.00  0.00     0.164 A 
ATOM      3  C   UNL     1      49.831   7.778  21.620  1.00  0.00     0.098 A 
ATOM      4  C   UNL     1      49.636   7.747  23.003  1.00  0.00     0.142 A 
ATOM      5  C   UNL     1      48.634   8.547  23.588  1.00  0.00     0.022 A 
ATOM      6  C   UNL     1      47.837   9.372  22.784  1.00  0.00     0.062 A 
ATOM      7  C   UNL     1      48.463   8.493  24.975  1.00  0.00     0.019 A 
ATOM      8  C   UNL     1      49.281   7.655  25.734  1.00  0.00     0.094 A 
ATOM      9  C   UNL     1      50.255   6.889  25.084  1.00  0.00     0.336 A 
ATOM     10  O   UNL     1      51.002   6.127  25.750  1.00  0.00    -0.246 OA
ATOM     11  O   UNL     1      50.395   6.960  23.762  1.00  0.00    -0.423 OA
ENDROOT
BRANCH   1  12
ATOM     12  O   UNL     1      47.257  10.218  20.548  1.00  0.00    -0.493 OA
ATOM     13  C   UNL     1      47.267  11.642  20.565  1.00  0.00     0.278 C 
ENDBRANCH   1  12
BRANCH   2  14
ATOM     14  O   UNL     1      49.201   8.664  19.413  1.00  0.00    -0.493 OA
ATOM     15  C   UNL     1      50.360   9.170  18.759  1.00  0.00     0.278 C 
ENDBRANCH   2  14
TORSDOF 2
ENDMDL
MODEL 9
REMARK VINA RESULT:    -4.609     12.931     14.939
REMARK INTER + INTRA:          -5.275
REMARK INTER:                  -5.160
REMARK INTRA:                  -0.115
REMARK UNBOUND:                -0.127
REMARK SMILES COc1cc2ccc(=O)oc2cc1OC
REMARK SMILES IDX 3 1 13 2 12 3 11 4 5 5 4 6 6 7 7 8 8 9 9 10 10 11 2 12 1 13
REMARK SMILES IDX 14 14 15 15
REMARK H PARENT
REMARK Flexibility Score: inf
ROOT
ATOM      1  C   UNL     1      60.045  -0.542  14.995  1.00  0.00     0.161 A 
ATOM      2  C   UNL     1      59.523   0.615  15.598  1.00  0.00     0.164 A 
ATOM      3  C   UNL     1      58.704   0.501  16.739  1.00  0.00     0.098 A 
ATOM      4  C   UNL     1      58.408  -0.755  17.274  1.00  0.00     0.142 A 
ATOM      5  C   UNL     1      58.931  -1.915  16.671  1.00  0.00     0.022 A 
ATOM      6  C   UNL     1      59.746  -1.809  15.536  1.00  0.00     0.062 A 
ATOM      7  C   UNL     1      58.616  -3.158  17.231  1.00  0.00     0.019 A 
ATOM      8  C   UNL     1      57.800  -3.213  18.361  1.00  0.00     0.094 A 
ATOM      9  C   UNL     1      57.317  -2.018  18.906  1.00  0.00     0.336 A 
ATOM     10  O   UNL     1      56.580  -2.046  19.926  1.00  0.00    -0.246 OA
ATOM     11  O   UNL     1      57.633  -0.850  18.353  1.00  0.00    -0.423 OA
ENDROOT
BRANCH   1  12
ATOM     12  O   UNL     1      60.858  -0.393  13.860  1.00  0.00    -0.493 OA
ATOM     13  C   UNL     1      62.281  -0.413  13.877  1.00  0.00     0.278 C 
ENDBRANCH   1  12
BRANCH   2  14
ATOM     14  O   UNL     1      59.842   1.860  15.033  1.00  0.00    -0.493 OA
ATOM     15  C   UNL     1      59.084   3.050  15.220  1.00  0.00     0.278 C 
ENDBRANCH   2  14
TORSDOF 2
ENDMDL
