MODEL 1
REMARK VINA RESULT:    -3.846      0.000      0.000
REMARK INTER + INTRA:          -5.949
REMARK INTER:                  -5.532
REMARK INTRA:                  -0.416
REMARK UNBOUND:                -0.416
REMARK SMILES CCCCCCCCCO
REMARK SMILES IDX 6 1 5 2 4 3 3 4 2 5 1 6 7 7 8 8 9 9 10 10
REMARK H PARENT 10 11
REMARK Flexibility Score: inf
ROOT
ATOM      1  C   UNL     1     179.151 168.097 184.627  1.00  0.00     0.000 C 
ENDROOT
BRANCH   1   2
ATOM      2  C   UNL     1     177.928 168.287 185.533  1.00  0.00     0.000 C 
BRANCH   2   3
ATOM      3  C   UNL     1     177.933 169.681 186.180  1.00  0.00    -0.000 C 
BRANCH   3   4
ATOM      4  C   UNL     1     176.821 170.597 185.638  1.00  0.00    -0.000 C 
BRANCH   4   5
ATOM      5  C   UNL     1     175.869 169.930 184.629  1.00  0.00    -0.003 C 
ATOM      6  C   UNL     1     174.411 169.933 185.089  1.00  0.00     0.004 C 
ENDBRANCH   4   5
ENDBRANCH   3   4
ENDBRANCH   2   3
ENDBRANCH   1   2
BRANCH   1   7
ATOM      7  C   UNL     1     178.737 168.049 183.148  1.00  0.00     0.002 C 
BRANCH   7   8
ATOM      8  C   UNL     1     178.761 166.624 182.571  1.00  0.00     0.028 C 
BRANCH   8   9
ATOM      9  C   UNL     1     180.113 165.920 182.731  1.00  0.00     0.156 C 
BRANCH   9  10
ATOM     10  O   UNL     1     179.924 164.597 183.151  1.00  0.00    -0.396 OA
ATOM     11  H   UNL     1     180.560 164.048 182.622  1.00  0.00     0.210 HD
ENDBRANCH   9  10
ENDBRANCH   8   9
ENDBRANCH   7   8
ENDBRANCH   1   7
TORSDOF 8
ENDMDL
MODEL 2
REMARK VINA RESULT:    -3.825     12.162     15.132
REMARK INTER + INTRA:          -5.918
REMARK INTER:                  -5.612
REMARK INTRA:                  -0.307
REMARK UNBOUND:                -0.416
REMARK SMILES CCCCCCCCCO
REMARK SMILES IDX 6 1 5 2 4 3 3 4 2 5 1 6 7 7 8 8 9 9 10 10
REMARK H PARENT 10 11
REMARK Flexibility Score: inf
ROOT
ATOM      1  C   UNL     1     165.515 175.781 184.000  1.00  0.00     0.000 C 
ENDROOT
BRANCH   1   2
ATOM      2  C   UNL     1     166.208 175.952 185.358  1.00  0.00     0.000 C 
BRANCH   2   3
ATOM      3  C   UNL     1     166.301 174.611 186.101  1.00  0.00    -0.000 C 
BRANCH   3   4
ATOM      4  C   UNL     1     166.460 173.409 185.152  1.00  0.00    -0.000 C 
BRANCH   4   5
ATOM      5  C   UNL     1     167.768 172.617 185.328  1.00  0.00    -0.003 C 
ATOM      6  C   UNL     1     168.790 173.334 186.209  1.00  0.00     0.004 C 
ENDBRANCH   4   5
ENDBRANCH   3   4
ENDBRANCH   2   3
ENDBRANCH   1   2
BRANCH   1   7
ATOM      7  C   UNL     1     164.395 176.817 183.821  1.00  0.00     0.002 C 
BRANCH   7   8
ATOM      8  C   UNL     1     164.457 177.530 182.460  1.00  0.00     0.028 C 
BRANCH   8   9
ATOM      9  C   UNL     1     165.346 178.779 182.462  1.00  0.00     0.156 C 
BRANCH   9  10
ATOM     10  O   UNL     1     164.675 179.851 183.066  1.00  0.00    -0.396 OA
ATOM     11  H   UNL     1     163.965 180.125 182.428  1.00  0.00     0.210 HD
ENDBRANCH   9  10
ENDBRANCH   8   9
ENDBRANCH   7   8
ENDBRANCH   1   7
TORSDOF 8
ENDMDL
MODEL 3
REMARK VINA RESULT:    -3.825     12.925     15.722
REMARK INTER + INTRA:          -5.918
REMARK INTER:                  -5.533
REMARK INTRA:                  -0.385
REMARK UNBOUND:                -0.416
REMARK SMILES CCCCCCCCCO
REMARK SMILES IDX 6 1 5 2 4 3 3 4 2 5 1 6 7 7 8 8 9 9 10 10
REMARK H PARENT 10 11
REMARK Flexibility Score: inf
ROOT
ATOM      1  C   UNL     1     165.263 175.962 183.194  1.00  0.00     0.000 C 
ENDROOT
BRANCH   1   2
ATOM      2  C   UNL     1     165.305 176.364 184.674  1.00  0.00     0.000 C 
BRANCH   2   3
ATOM      3  C   UNL     1     166.535 175.765 185.372  1.00  0.00    -0.000 C 
BRANCH   3   4
ATOM      4  C   UNL     1     166.225 174.452 186.112  1.00  0.00    -0.000 C 
BRANCH   4   5
ATOM      5  C   UNL     1     167.278 173.344 185.930  1.00  0.00    -0.003 C 
ATOM      6  C   UNL     1     167.210 172.672 184.560  1.00  0.00     0.004 C 
ENDBRANCH   4   5
ENDBRANCH   3   4
ENDBRANCH   2   3
ENDBRANCH   1   2
BRANCH   1   7
ATOM      7  C   UNL     1     164.107 176.664 182.467  1.00  0.00     0.002 C 
BRANCH   7   8
ATOM      8  C   UNL     1     163.583 177.892 183.230  1.00  0.00     0.028 C 
BRANCH   8   9
ATOM      9  C   UNL     1     163.846 179.220 182.510  1.00  0.00     0.156 C 
BRANCH   9  10
ATOM     10  O   UNL     1     164.902 179.904 183.126  1.00  0.00    -0.396 OA
ATOM     11  H   UNL     1     164.515 180.339 183.930  1.00  0.00     0.210 HD
ENDBRANCH   9  10
ENDBRANCH   8   9
ENDBRANCH   7   8
ENDBRANCH   1   7
TORSDOF 8
ENDMDL
MODEL 4
REMARK VINA RESULT:    -3.669     11.721     14.696
REMARK INTER + INTRA:          -5.694
REMARK INTER:                  -5.339
REMARK INTRA:                  -0.355
REMARK UNBOUND:                -0.416
REMARK SMILES CCCCCCCCCO
REMARK SMILES IDX 6 1 5 2 4 3 3 4 2 5 1 6 7 7 8 8 9 9 10 10
REMARK H PARENT 10 11
REMARK Flexibility Score: inf
ROOT
ATOM      1  C   UNL     1     166.331 174.894 183.912  1.00  0.00     0.000 C 
ENDROOT
BRANCH   1   2
ATOM      2  C   UNL     1     166.443 175.064 185.432  1.00  0.00     0.000 C 
BRANCH   2   3
ATOM      3  C   UNL     1     166.558 173.702 186.132  1.00  0.00    -0.000 C 
BRANCH   3   4
ATOM      4  C   UNL     1     167.807 172.911 185.702  1.00  0.00    -0.000 C 
BRANCH   4   5
ATOM      5  C   UNL     1     169.135 173.438 186.277  1.00  0.00    -0.003 C 
ATOM      6  C   UNL     1     169.976 174.192 185.247  1.00  0.00     0.004 C 
ENDBRANCH   4   5
ENDBRANCH   3   4
ENDBRANCH   2   3
ENDBRANCH   1   2
BRANCH   1   7
ATOM      7  C   UNL     1     165.344 175.909 183.316  1.00  0.00     0.002 C 
BRANCH   7   8
ATOM      8  C   UNL     1     164.693 176.802 184.385  1.00  0.00     0.028 C 
BRANCH   8   9
ATOM      9  C   UNL     1     163.424 177.512 183.902  1.00  0.00     0.156 C 
BRANCH   9  10
ATOM     10  O   UNL     1     162.732 178.063 184.989  1.00  0.00    -0.396 OA
ATOM     11  H   UNL     1     163.085 177.608 185.797  1.00  0.00     0.210 HD
ENDBRANCH   9  10
ENDBRANCH   8   9
ENDBRANCH   7   8
ENDBRANCH   1   7
TORSDOF 8
ENDMDL
MODEL 5
REMARK VINA RESULT:    -3.638      8.840     11.728
REMARK INTER + INTRA:          -5.650
REMARK INTER:                  -5.159
REMARK INTRA:                  -0.490
REMARK UNBOUND:                -0.416
REMARK SMILES CCCCCCCCCO
REMARK SMILES IDX 6 1 5 2 4 3 3 4 2 5 1 6 7 7 8 8 9 9 10 10
REMARK H PARENT 10 11
REMARK Flexibility Score: inf
ROOT
ATOM      1  C   UNL     1     168.372 173.795 185.079  1.00  0.00     0.000 C 
ENDROOT
BRANCH   1   2
ATOM      2  C   UNL     1     167.391 173.422 186.198  1.00  0.00     0.000 C 
BRANCH   2   3
ATOM      3  C   UNL     1     166.142 174.314 186.156  1.00  0.00    -0.000 C 
BRANCH   3   4
ATOM      4  C   UNL     1     166.420 175.707 185.563  1.00  0.00    -0.000 C 
BRANCH   4   5
ATOM      5  C   UNL     1     165.402 176.174 184.507  1.00  0.00    -0.003 C 
ATOM      6  C   UNL     1     165.632 175.545 183.133  1.00  0.00     0.004 C 
ENDBRANCH   4   5
ENDBRANCH   3   4
ENDBRANCH   2   3
ENDBRANCH   1   2
BRANCH   1   7
ATOM      7  C   UNL     1     169.806 173.899 185.617  1.00  0.00     0.002 C 
BRANCH   7   8
ATOM      8  C   UNL     1     170.176 172.735 186.552  1.00  0.00     0.028 C 
BRANCH   8   9
ATOM      9  C   UNL     1     170.452 171.420 185.815  1.00  0.00     0.156 C 
BRANCH   9  10
ATOM     10  O   UNL     1     169.457 170.479 186.114  1.00  0.00    -0.396 OA
ATOM     11  H   UNL     1     169.236 170.033 185.255  1.00  0.00     0.210 HD
ENDBRANCH   9  10
ENDBRANCH   8   9
ENDBRANCH   7   8
ENDBRANCH   1   7
TORSDOF 8
ENDMDL
MODEL 6
REMARK VINA RESULT:    -3.591      2.740      5.287
REMARK INTER + INTRA:          -5.582
REMARK INTER:                  -5.108
REMARK INTRA:                  -0.474
REMARK UNBOUND:                -0.416
REMARK SMILES CCCCCCCCCO
REMARK SMILES IDX 6 1 5 2 4 3 3 4 2 5 1 6 7 7 8 8 9 9 10 10
REMARK H PARENT 10 11
REMARK Flexibility Score: inf
ROOT
ATOM      1  C   UNL     1     177.554 171.365 185.179  1.00  0.00     0.000 C 
ENDROOT
BRANCH   1   2
ATOM      2  C   UNL     1     177.812 170.442 186.377  1.00  0.00     0.000 C 
BRANCH   2   3
ATOM      3  C   UNL     1     178.054 168.997 185.917  1.00  0.00    -0.000 C 
BRANCH   3   4
ATOM      4  C   UNL     1     178.474 168.900 184.439  1.00  0.00    -0.000 C 
BRANCH   4   5
ATOM      5  C   UNL     1     179.612 167.904 184.155  1.00  0.00    -0.003 C 
ATOM      6  C   UNL     1     180.337 168.181 182.839  1.00  0.00     0.004 C 
ENDBRANCH   4   5
ENDBRANCH   3   4
ENDBRANCH   2   3
ENDBRANCH   1   2
BRANCH   1   7
ATOM      7  C   UNL     1     176.246 172.150 185.362  1.00  0.00     0.002 C 
BRANCH   7   8
ATOM      8  C   UNL     1     175.052 171.488 184.655  1.00  0.00     0.028 C 
BRANCH   8   9
ATOM      9  C   UNL     1     174.186 170.631 185.584  1.00  0.00     0.156 C 
BRANCH   9  10
ATOM     10  O   UNL     1     174.534 169.280 185.462  1.00  0.00    -0.396 OA
ATOM     11  H   UNL     1     174.784 169.146 184.511  1.00  0.00     0.210 HD
ENDBRANCH   9  10
ENDBRANCH   8   9
ENDBRANCH   7   8
ENDBRANCH   1   7
TORSDOF 8
ENDMDL
MODEL 7
REMARK VINA RESULT:    -3.585     12.032     14.653
REMARK INTER + INTRA:          -5.574
REMARK INTER:                  -5.227
REMARK INTRA:                  -0.347
REMARK UNBOUND:                -0.416
REMARK SMILES CCCCCCCCCO
REMARK SMILES IDX 6 1 5 2 4 3 3 4 2 5 1 6 7 7 8 8 9 9 10 10
REMARK H PARENT 10 11
REMARK Flexibility Score: inf
ROOT
ATOM      1  C   UNL     1     166.299 175.115 184.804  1.00  0.00     0.000 C 
ENDROOT
BRANCH   1   2
ATOM      2  C   UNL     1     166.293 174.428 186.175  1.00  0.00     0.000 C 
BRANCH   2   3
ATOM      3  C   UNL     1     167.419 173.388 186.274  1.00  0.00    -0.000 C 
BRANCH   3   4
ATOM      4  C   UNL     1     168.174 173.192 184.947  1.00  0.00    -0.000 C 
BRANCH   4   5
ATOM      5  C   UNL     1     168.140 171.757 184.390  1.00  0.00    -0.003 C 
ATOM      6  C   UNL     1     166.883 171.461 183.573  1.00  0.00     0.004 C 
ENDBRANCH   4   5
ENDBRANCH   3   4
ENDBRANCH   2   3
ENDBRANCH   1   2
BRANCH   1   7
ATOM      7  C   UNL     1     165.391 176.354 184.807  1.00  0.00     0.002 C 
BRANCH   7   8
ATOM      8  C   UNL     1     164.484 176.428 183.567  1.00  0.00     0.028 C 
BRANCH   8   9
ATOM      9  C   UNL     1     163.573 177.661 183.546  1.00  0.00     0.156 C 
BRANCH   9  10
ATOM     10  O   UNL     1     162.970 177.840 184.798  1.00  0.00    -0.396 OA
ATOM     11  H   UNL     1     162.215 177.196 184.833  1.00  0.00     0.210 HD
ENDBRANCH   9  10
ENDBRANCH   8   9
ENDBRANCH   7   8
ENDBRANCH   1   7
TORSDOF 8
ENDMDL
MODEL 8
REMARK VINA RESULT:    -3.562      9.990     12.775
REMARK INTER + INTRA:          -5.540
REMARK INTER:                  -5.095
REMARK INTRA:                  -0.445
REMARK UNBOUND:                -0.416
REMARK SMILES CCCCCCCCCO
REMARK SMILES IDX 6 1 5 2 4 3 3 4 2 5 1 6 7 7 8 8 9 9 10 10
REMARK H PARENT 10 11
REMARK Flexibility Score: inf
ROOT
ATOM      1  C   UNL     1     166.793 173.123 184.976  1.00  0.00     0.000 C 
ENDROOT
BRANCH   1   2
ATOM      2  C   UNL     1     166.219 174.093 186.016  1.00  0.00     0.000 C 
BRANCH   2   3
ATOM      3  C   UNL     1     166.062 175.503 185.427  1.00  0.00    -0.000 C 
BRANCH   3   4
ATOM      4  C   UNL     1     166.222 175.535 183.897  1.00  0.00    -0.000 C 
BRANCH   4   5
ATOM      5  C   UNL     1     165.054 176.190 183.139  1.00  0.00    -0.003 C 
ATOM      6  C   UNL     1     164.098 176.952 184.055  1.00  0.00     0.004 C 
ENDBRANCH   4   5
ENDBRANCH   3   4
ENDBRANCH   2   3
ENDBRANCH   1   2
BRANCH   1   7
ATOM      7  C   UNL     1     168.108 172.502 185.470  1.00  0.00     0.002 C 
BRANCH   7   8
ATOM      8  C   UNL     1     169.234 173.538 185.622  1.00  0.00     0.028 C 
BRANCH   8   9
ATOM      9  C   UNL     1     170.276 173.161 186.681  1.00  0.00     0.156 C 
BRANCH   9  10
ATOM     10  O   UNL     1     169.707 173.209 187.960  1.00  0.00    -0.396 OA
ATOM     11  H   UNL     1     170.221 172.566 188.514  1.00  0.00     0.210 HD
ENDBRANCH   9  10
ENDBRANCH   8   9
ENDBRANCH   7   8
ENDBRANCH   1   7
TORSDOF 8
ENDMDL
MODEL 9
REMARK VINA RESULT:    -3.498     11.033     13.718
REMARK INTER + INTRA:          -5.448
REMARK INTER:                  -5.096
REMARK INTRA:                  -0.351
REMARK UNBOUND:                -0.416
REMARK SMILES CCCCCCCCCO
REMARK SMILES IDX 6 1 5 2 4 3 3 4 2 5 1 6 7 7 8 8 9 9 10 10
REMARK H PARENT 10 11
REMARK Flexibility Score: inf
ROOT
ATOM      1  C   UNL     1     166.396 174.603 184.850  1.00  0.00     0.000 C 
ENDROOT
BRANCH   1   2
ATOM      2  C   UNL     1     165.804 175.975 185.194  1.00  0.00     0.000 C 
BRANCH   2   3
ATOM      3  C   UNL     1     164.905 176.488 184.058  1.00  0.00    -0.000 C 
BRANCH   3   4
ATOM      4  C   UNL     1     165.384 176.039 182.666  1.00  0.00    -0.000 C 
BRANCH   4   5
ATOM      5  C   UNL     1     165.803 177.184 181.727  1.00  0.00    -0.003 C 
ATOM      6  C   UNL     1     165.810 178.550 182.413  1.00  0.00     0.004 C 
ENDBRANCH   4   5
ENDBRANCH   3   4
ENDBRANCH   2   3
ENDBRANCH   1   2
BRANCH   1   7
ATOM      7  C   UNL     1     166.722 173.810 186.124  1.00  0.00     0.002 C 
BRANCH   7   8
ATOM      8  C   UNL     1     168.195 173.370 186.189  1.00  0.00     0.028 C 
BRANCH   8   9
ATOM      9  C   UNL     1     169.058 173.948 185.062  1.00  0.00     0.156 C 
BRANCH   9  10
ATOM     10  O   UNL     1     169.880 174.970 185.554  1.00  0.00    -0.396 OA
ATOM     11  H   UNL     1     170.702 174.524 185.887  1.00  0.00     0.210 HD
ENDBRANCH   9  10
ENDBRANCH   8   9
ENDBRANCH   7   8
ENDBRANCH   1   7
TORSDOF 8
ENDMDL
