MODEL 1
REMARK VINA RESULT:    -3.691      0.000      0.000
REMARK INTER + INTRA:          -5.520
REMARK INTER:                  -5.201
REMARK INTRA:                  -0.318
REMARK UNBOUND:                -0.318
REMARK SMILES CCCCCCCCC(=O)[O-]
REMARK SMILES IDX 6 1 7 2 8 3 9 4 10 5 11 6 5 7 4 8 3 9 2 10 1 11
REMARK H PARENT
REMARK Flexibility Score: inf
ROOT
ATOM      1  C   UNL     1      59.540  23.076  23.146  1.00  0.00     0.000 C 
ENDROOT
BRANCH   1   2
ATOM      2  C   UNL     1      58.356  22.585  23.993  1.00  0.00     0.006 C 
BRANCH   2   3
ATOM      3  C   UNL     1      57.572  21.463  23.300  1.00  0.00     0.053 C 
BRANCH   3   4
ATOM      4  C   UNL     1      56.169  21.882  22.980  1.00  0.00     0.041 C 
ATOM      5  O   UNL     1      55.958  22.863  22.218  1.00  0.00    -0.550 OA
ATOM      6  O   UNL     1      55.095  21.170  23.498  1.00  0.00    -0.550 OA
ENDBRANCH   3   4
ENDBRANCH   2   3
ENDBRANCH   1   2
BRANCH   1   7
ATOM      7  C   UNL     1      59.590  22.347  21.797  1.00  0.00     0.000 C 
BRANCH   7   8
ATOM      8  C   UNL     1      61.019  22.313  21.242  1.00  0.00    -0.000 C 
BRANCH   8   9
ATOM      9  C   UNL     1      61.020  21.976  19.747  1.00  0.00    -0.000 C 
BRANCH   9  10
ATOM     10  C   UNL     1      62.442  22.027  19.173  1.00  0.00    -0.003 C 
ATOM     11  C   UNL     1      63.479  22.179  20.282  1.00  0.00     0.004 C 
ENDBRANCH   9  10
ENDBRANCH   8   9
ENDBRANCH   7   8
ENDBRANCH   1   7
TORSDOF 7
ENDMDL
MODEL 2
REMARK VINA RESULT:    -3.679      3.411      6.129
REMARK INTER + INTRA:          -5.503
REMARK INTER:                  -5.198
REMARK INTRA:                  -0.305
REMARK UNBOUND:                -0.318
REMARK SMILES CCCCCCCCC(=O)[O-]
REMARK SMILES IDX 6 1 7 2 8 3 9 4 10 5 11 6 5 7 4 8 3 9 2 10 1 11
REMARK H PARENT
REMARK Flexibility Score: inf
ROOT
ATOM      1  C   UNL     1      59.255  22.528  22.258  1.00  0.00     0.000 C 
ENDROOT
BRANCH   1   2
ATOM      2  C   UNL     1      60.688  22.692  21.731  1.00  0.00     0.006 C 
BRANCH   2   3
ATOM      3  C   UNL     1      61.097  21.548  20.794  1.00  0.00     0.053 C 
BRANCH   3   4
ATOM      4  C   UNL     1      62.148  21.980  19.817  1.00  0.00     0.041 C 
ATOM      5  O   UNL     1      63.368  21.906  20.122  1.00  0.00    -0.550 OA
ATOM      6  O   UNL     1      61.780  22.433  18.557  1.00  0.00    -0.550 OA
ENDBRANCH   3   4
ENDBRANCH   2   3
ENDBRANCH   1   2
BRANCH   1   7
ATOM      7  C   UNL     1      58.904  21.047  22.445  1.00  0.00     0.000 C 
BRANCH   7   8
ATOM      8  C   UNL     1      57.435  20.875  22.848  1.00  0.00    -0.000 C 
BRANCH   8   9
ATOM      9  C   UNL     1      56.896  22.145  23.516  1.00  0.00    -0.000 C 
BRANCH   9  10
ATOM     10  C   UNL     1      55.545  22.552  22.913  1.00  0.00    -0.003 C 
ATOM     11  C   UNL     1      54.406  21.729  23.507  1.00  0.00     0.004 C 
ENDBRANCH   9  10
ENDBRANCH   8   9
ENDBRANCH   7   8
ENDBRANCH   1   7
TORSDOF 7
ENDMDL
MODEL 3
REMARK VINA RESULT:    -3.619      1.266      1.552
REMARK INTER + INTRA:          -5.419
REMARK INTER:                  -4.993
REMARK INTRA:                  -0.426
REMARK UNBOUND:                -0.318
REMARK SMILES CCCCCCCCC(=O)[O-]
REMARK SMILES IDX 6 1 7 2 8 3 9 4 10 5 11 6 5 7 4 8 3 9 2 10 1 11
REMARK H PARENT
REMARK Flexibility Score: inf
ROOT
ATOM      1  C   UNL     1      60.026  21.037  22.202  1.00  0.00     0.000 C 
ENDROOT
BRANCH   1   2
ATOM      2  C   UNL     1      58.982  20.908  23.321  1.00  0.00     0.006 C 
BRANCH   2   3
ATOM      3  C   UNL     1      57.557  21.170  22.818  1.00  0.00     0.053 C 
BRANCH   3   4
ATOM      4  C   UNL     1      56.867  22.225  23.630  1.00  0.00     0.041 C 
ATOM      5  O   UNL     1      55.609  22.292  23.644  1.00  0.00    -0.550 OA
ATOM      6  O   UNL     1      57.612  23.111  24.395  1.00  0.00    -0.550 OA
ENDBRANCH   3   4
ENDBRANCH   2   3
ENDBRANCH   1   2
BRANCH   1   7
ATOM      7  C   UNL     1      59.915  22.396  21.500  1.00  0.00     0.000 C 
BRANCH   7   8
ATOM      8  C   UNL     1      61.234  22.773  20.815  1.00  0.00    -0.000 C 
BRANCH   8   9
ATOM      9  C   UNL     1      61.380  22.054  19.469  1.00  0.00    -0.000 C 
BRANCH   9  10
ATOM     10  C   UNL     1      62.817  21.558  19.264  1.00  0.00    -0.003 C 
ATOM     11  C   UNL     1      63.373  20.937  20.541  1.00  0.00     0.004 C 
ENDBRANCH   9  10
ENDBRANCH   8   9
ENDBRANCH   7   8
ENDBRANCH   1   7
TORSDOF 7
ENDMDL
MODEL 4
REMARK VINA RESULT:    -3.386      1.616      2.412
REMARK INTER + INTRA:          -5.089
REMARK INTER:                  -4.708
REMARK INTRA:                  -0.381
REMARK UNBOUND:                -0.318
REMARK SMILES CCCCCCCCC(=O)[O-]
REMARK SMILES IDX 6 1 7 2 8 3 9 4 10 5 11 6 5 7 4 8 3 9 2 10 1 11
REMARK H PARENT
REMARK Flexibility Score: inf
ROOT
ATOM      1  C   UNL     1      59.296  22.309  21.919  1.00  0.00     0.000 C 
ENDROOT
BRANCH   1   2
ATOM      2  C   UNL     1      58.868  21.236  22.932  1.00  0.00     0.006 C 
BRANCH   2   3
ATOM      3  C   UNL     1      57.381  20.879  22.805  1.00  0.00     0.053 C 
BRANCH   3   4
ATOM      4  C   UNL     1      56.501  21.962  23.350  1.00  0.00     0.041 C 
ATOM      5  O   UNL     1      56.926  22.731  24.253  1.00  0.00    -0.550 OA
ATOM      6  O   UNL     1      55.224  22.145  22.837  1.00  0.00    -0.550 OA
ENDBRANCH   3   4
ENDBRANCH   2   3
ENDBRANCH   1   2
BRANCH   1   7
ATOM      7  C   UNL     1      60.398  21.780  20.992  1.00  0.00     0.000 C 
BRANCH   7   8
ATOM      8  C   UNL     1      61.489  22.834  20.776  1.00  0.00    -0.000 C 
BRANCH   8   9
ATOM      9  C   UNL     1      62.196  23.173  22.093  1.00  0.00    -0.000 C 
BRANCH   9  10
ATOM     10  C   UNL     1      62.201  24.687  22.341  1.00  0.00    -0.003 C 
ATOM     11  C   UNL     1      61.214  25.069  23.439  1.00  0.00     0.004 C 
ENDBRANCH   9  10
ENDBRANCH   8   9
ENDBRANCH   7   8
ENDBRANCH   1   7
TORSDOF 7
ENDMDL
MODEL 5
REMARK VINA RESULT:    -3.319      3.989      4.697
REMARK INTER + INTRA:          -4.996
REMARK INTER:                  -4.538
REMARK INTRA:                  -0.458
REMARK UNBOUND:                -0.318
REMARK SMILES CCCCCCCCC(=O)[O-]
REMARK SMILES IDX 6 1 7 2 8 3 9 4 10 5 11 6 5 7 4 8 3 9 2 10 1 11
REMARK H PARENT
REMARK Flexibility Score: inf
ROOT
ATOM      1  C   UNL     1      59.773  23.097  22.975  1.00  0.00     0.000 C 
ENDROOT
BRANCH   1   2
ATOM      2  C   UNL     1      61.185  23.669  23.172  1.00  0.00     0.006 C 
BRANCH   2   3
ATOM      3  C   UNL     1      61.170  25.185  23.404  1.00  0.00     0.053 C 
BRANCH   3   4
ATOM      4  C   UNL     1      62.520  25.699  23.802  1.00  0.00     0.041 C 
ATOM      5  O   UNL     1      63.321  26.124  22.927  1.00  0.00    -0.550 OA
ATOM      6  O   UNL     1      62.882  25.739  25.142  1.00  0.00    -0.550 OA
ENDBRANCH   3   4
ENDBRANCH   2   3
ENDBRANCH   1   2
BRANCH   1   7
ATOM      7  C   UNL     1      59.655  22.379  21.624  1.00  0.00     0.000 C 
BRANCH   7   8
ATOM      8  C   UNL     1      60.999  21.778  21.201  1.00  0.00    -0.000 C 
BRANCH   8   9
ATOM      9  C   UNL     1      61.316  22.112  19.739  1.00  0.00    -0.000 C 
BRANCH   9  10
ATOM     10  C   UNL     1      62.804  21.900  19.436  1.00  0.00    -0.003 C 
ATOM     11  C   UNL     1      63.677  22.408  20.578  1.00  0.00     0.004 C 
ENDBRANCH   9  10
ENDBRANCH   8   9
ENDBRANCH   7   8
ENDBRANCH   1   7
TORSDOF 7
ENDMDL
MODEL 6
REMARK VINA RESULT:    -3.300      1.892      2.351
REMARK INTER + INTRA:          -4.969
REMARK INTER:                  -4.589
REMARK INTRA:                  -0.380
REMARK UNBOUND:                -0.318
REMARK SMILES CCCCCCCCC(=O)[O-]
REMARK SMILES IDX 6 1 7 2 8 3 9 4 10 5 11 6 5 7 4 8 3 9 2 10 1 11
REMARK H PARENT
REMARK Flexibility Score: inf
ROOT
ATOM      1  C   UNL     1      60.391  21.602  23.113  1.00  0.00     0.000 C 
ENDROOT
BRANCH   1   2
ATOM      2  C   UNL     1      59.414  21.232  24.239  1.00  0.00     0.006 C 
BRANCH   2   3
ATOM      3  C   UNL     1      59.364  22.301  25.339  1.00  0.00     0.053 C 
BRANCH   3   4
ATOM      4  C   UNL     1      58.200  23.227  25.160  1.00  0.00     0.041 C 
ATOM      5  O   UNL     1      58.173  24.335  25.759  1.00  0.00    -0.550 OA
ATOM      6  O   UNL     1      57.161  22.881  24.306  1.00  0.00    -0.550 OA
ENDBRANCH   3   4
ENDBRANCH   2   3
ENDBRANCH   1   2
BRANCH   1   7
ATOM      7  C   UNL     1      59.637  22.101  21.873  1.00  0.00     0.000 C 
BRANCH   7   8
ATOM      8  C   UNL     1      60.508  21.989  20.617  1.00  0.00    -0.000 C 
BRANCH   8   9
ATOM      9  C   UNL     1      61.971  21.716  20.984  1.00  0.00    -0.000 C 
BRANCH   9  10
ATOM     10  C   UNL     1      62.849  21.643  19.728  1.00  0.00    -0.003 C 
ATOM     11  C   UNL     1      62.180  22.337  18.546  1.00  0.00     0.004 C 
ENDBRANCH   9  10
ENDBRANCH   8   9
ENDBRANCH   7   8
ENDBRANCH   1   7
TORSDOF 7
ENDMDL
MODEL 7
REMARK VINA RESULT:    -3.288      3.447      5.655
REMARK INTER + INTRA:          -4.952
REMARK INTER:                  -4.338
REMARK INTRA:                  -0.613
REMARK UNBOUND:                -0.318
REMARK SMILES CCCCCCCCC(=O)[O-]
REMARK SMILES IDX 6 1 7 2 8 3 9 4 10 5 11 6 5 7 4 8 3 9 2 10 1 11
REMARK H PARENT
REMARK Flexibility Score: inf
ROOT
ATOM      1  C   UNL     1      60.896  23.790  22.833  1.00  0.00     0.000 C 
ENDROOT
BRANCH   1   2
ATOM      2  C   UNL     1      61.218  22.421  22.215  1.00  0.00     0.006 C 
BRANCH   2   3
ATOM      3  C   UNL     1      60.710  22.301  20.772  1.00  0.00     0.053 C 
BRANCH   3   4
ATOM      4  C   UNL     1      61.811  21.930  19.826  1.00  0.00     0.041 C 
ATOM      5  O   UNL     1      62.730  21.152  20.196  1.00  0.00    -0.550 OA
ATOM      6  O   UNL     1      61.803  22.416  18.525  1.00  0.00    -0.550 OA
ENDBRANCH   3   4
ENDBRANCH   2   3
ENDBRANCH   1   2
BRANCH   1   7
ATOM      7  C   UNL     1      60.657  23.668  24.343  1.00  0.00     0.000 C 
BRANCH   7   8
ATOM      8  C   UNL     1      59.245  24.135  24.717  1.00  0.00    -0.000 C 
BRANCH   8   9
ATOM      9  C   UNL     1      58.350  22.944  25.076  1.00  0.00    -0.000 C 
BRANCH   9  10
ATOM     10  C   UNL     1      57.379  22.621  23.933  1.00  0.00    -0.003 C 
ATOM     11  C   UNL     1      57.766  21.322  23.232  1.00  0.00     0.004 C 
ENDBRANCH   9  10
ENDBRANCH   8   9
ENDBRANCH   7   8
ENDBRANCH   1   7
TORSDOF 7
ENDMDL
MODEL 8
REMARK VINA RESULT:    -3.287      3.303      5.627
REMARK INTER + INTRA:          -4.950
REMARK INTER:                  -4.410
REMARK INTRA:                  -0.540
REMARK UNBOUND:                -0.318
REMARK SMILES CCCCCCCCC(=O)[O-]
REMARK SMILES IDX 6 1 7 2 8 3 9 4 10 5 11 6 5 7 4 8 3 9 2 10 1 11
REMARK H PARENT
REMARK Flexibility Score: inf
ROOT
ATOM      1  C   UNL     1      59.013  22.493  22.019  1.00  0.00     0.000 C 
ENDROOT
BRANCH   1   2
ATOM      2  C   UNL     1      60.299  21.780  21.575  1.00  0.00     0.006 C 
BRANCH   2   3
ATOM      3  C   UNL     1      61.398  22.767  21.162  1.00  0.00     0.053 C 
BRANCH   3   4
ATOM      4  C   UNL     1      62.167  22.276  19.973  1.00  0.00     0.041 C 
ATOM      5  O   UNL     1      63.382  21.962  20.088  1.00  0.00    -0.550 OA
ATOM      6  O   UNL     1      61.533  22.133  18.746  1.00  0.00    -0.550 OA
ENDBRANCH   3   4
ENDBRANCH   2   3
ENDBRANCH   1   2
BRANCH   1   7
ATOM      7  C   UNL     1      58.208  21.621  22.990  1.00  0.00     0.000 C 
BRANCH   7   8
ATOM      8  C   UNL     1      57.436  22.483  23.994  1.00  0.00    -0.000 C 
BRANCH   8   9
ATOM      9  C   UNL     1      58.394  23.236  24.924  1.00  0.00    -0.000 C 
BRANCH   9  10
ATOM     10  C   UNL     1      59.368  22.270  25.609  1.00  0.00    -0.003 C 
ATOM     11  C   UNL     1      60.812  22.737  25.448  1.00  0.00     0.004 C 
ENDBRANCH   9  10
ENDBRANCH   8   9
ENDBRANCH   7   8
ENDBRANCH   1   7
TORSDOF 7
ENDMDL
MODEL 9
REMARK VINA RESULT:    -3.206      2.717      5.254
REMARK INTER + INTRA:          -4.836
REMARK INTER:                  -4.271
REMARK INTRA:                  -0.565
REMARK UNBOUND:                -0.318
REMARK SMILES CCCCCCCCC(=O)[O-]
REMARK SMILES IDX 6 1 7 2 8 3 9 4 10 5 11 6 5 7 4 8 3 9 2 10 1 11
REMARK H PARENT
REMARK Flexibility Score: inf
ROOT
ATOM      1  C   UNL     1      60.176  22.363  21.192  1.00  0.00     0.000 C 
ENDROOT
BRANCH   1   2
ATOM      2  C   UNL     1      61.652  22.750  21.368  1.00  0.00     0.006 C 
BRANCH   2   3
ATOM      3  C   UNL     1      61.826  23.996  22.245  1.00  0.00     0.053 C 
BRANCH   3   4
ATOM      4  C   UNL     1      61.159  23.834  23.578  1.00  0.00     0.041 C 
ATOM      5  O   UNL     1      61.604  23.002  24.412  1.00  0.00    -0.550 OA
ATOM      6  O   UNL     1      60.068  24.625  23.910  1.00  0.00    -0.550 OA
ENDBRANCH   3   4
ENDBRANCH   2   3
ENDBRANCH   1   2
BRANCH   1   7
ATOM      7  C   UNL     1      59.929  20.918  21.641  1.00  0.00     0.000 C 
BRANCH   7   8
ATOM      8  C   UNL     1      59.075  20.875  22.913  1.00  0.00    -0.000 C 
BRANCH   8   9
ATOM      9  C   UNL     1      57.947  21.911  22.854  1.00  0.00    -0.000 C 
BRANCH   9  10
ATOM     10  C   UNL     1      56.586  21.259  23.125  1.00  0.00    -0.003 C 
ATOM     11  C   UNL     1      55.473  22.302  23.168  1.00  0.00     0.004 C 
ENDBRANCH   9  10
ENDBRANCH   8   9
ENDBRANCH   7   8
ENDBRANCH   1   7
TORSDOF 7
ENDMDL
