MODEL 1
REMARK VINA RESULT:    -1.963      0.000      0.000
REMARK INTER + INTRA:          -4.247
REMARK INTER:                  -4.489
REMARK INTRA:                   0.242
REMARK UNBOUND:                 0.242
REMARK SMILES CCCCCCCCCCCCCCCCCCCCCCCC(=O)[O-]
REMARK SMILES IDX 13 1 14 2 15 3 16 4 17 5 18 6 19 7 20 8 21 9 22 10 23 11
REMARK SMILES IDX 24 12 25 13 26 14 12 15 11 16 10 17 9 18 8 19 7 20 6 21 5 22
REMARK SMILES IDX 4 23 3 24 2 25 1 26
REMARK H PARENT
REMARK Flexibility Score: inf
ROOT
ATOM      1  C   UNL     1      27.380  19.808  59.288  1.00  0.00     0.000 C 
ENDROOT
BRANCH   1   2
ATOM      2  C   UNL     1      27.773  21.215  59.764  1.00  0.00     0.000 C 
BRANCH   2   3
ATOM      3  C   UNL     1      26.558  22.124  60.006  1.00  0.00     0.000 C 
BRANCH   3   4
ATOM      4  C   UNL     1      25.502  22.014  58.892  1.00  0.00     0.000 C 
BRANCH   4   5
ATOM      5  C   UNL     1      24.180  21.410  59.395  1.00  0.00     0.000 C 
BRANCH   5   6
ATOM      6  C   UNL     1      23.667  22.095  60.675  1.00  0.00     0.000 C 
BRANCH   6   7
ATOM      7  C   UNL     1      23.158  21.089  61.720  1.00  0.00     0.000 C 
BRANCH   7   8
ATOM      8  C   UNL     1      23.035  21.710  63.123  1.00  0.00     0.000 C 
BRANCH   8   9
ATOM      9  C   UNL     1      24.341  21.618  63.928  1.00  0.00     0.000 C 
BRANCH   9  10
ATOM     10  C   UNL     1      25.573  22.046  63.116  1.00  0.00     0.006 C 
BRANCH  10  11
ATOM     11  C   UNL     1      26.801  21.216  63.505  1.00  0.00     0.053 C 
BRANCH  11  12
ATOM     12  C   UNL     1      26.451  19.763  63.584  1.00  0.00     0.041 C 
ATOM     13  O   UNL     1      25.996  19.164  62.574  1.00  0.00    -0.550 OA
ATOM     14  O   UNL     1      26.627  19.070  64.776  1.00  0.00    -0.550 OA
ENDBRANCH  11  12
ENDBRANCH  10  11
ENDBRANCH   9  10
ENDBRANCH   8   9
ENDBRANCH   7   8
ENDBRANCH   6   7
ENDBRANCH   5   6
ENDBRANCH   4   5
ENDBRANCH   3   4
ENDBRANCH   2   3
ENDBRANCH   1   2
BRANCH   1  15
ATOM     15  C   UNL     1      26.312  19.882  58.185  1.00  0.00     0.000 C 
BRANCH  15  16
ATOM     16  C   UNL     1      26.910  19.833  56.769  1.00  0.00     0.000 C 
BRANCH  16  17
ATOM     17  C   UNL     1      27.194  21.208  56.132  1.00  0.00     0.000 C 
BRANCH  17  18
ATOM     18  C   UNL     1      26.747  21.318  54.657  1.00  0.00    -0.000 C 
BRANCH  18  19
ATOM     19  C   UNL     1      25.450  22.125  54.502  1.00  0.00    -0.000 C 
BRANCH  19  20
ATOM     20  C   UNL     1      24.498  21.878  55.683  1.00  0.00    -0.000 C 
BRANCH  20  21
ATOM     21  C   UNL     1      23.073  21.527  55.227  1.00  0.00    -0.000 C 
BRANCH  21  22
ATOM     22  C   UNL     1      22.912  21.581  53.697  1.00  0.00    -0.000 C 
BRANCH  22  23
ATOM     23  C   UNL     1      22.942  20.188  53.041  1.00  0.00    -0.000 C 
BRANCH  23  24
ATOM     24  C   UNL     1      22.901  19.004  54.025  1.00  0.00    -0.000 C 
BRANCH  24  25
ATOM     25  C   UNL     1      24.299  18.513  54.427  1.00  0.00    -0.003 C 
ATOM     26  C   UNL     1      24.241  17.664  55.694  1.00  0.00     0.004 C 
ENDBRANCH  24  25
ENDBRANCH  23  24
ENDBRANCH  22  23
ENDBRANCH  21  22
ENDBRANCH  20  21
ENDBRANCH  19  20
ENDBRANCH  18  19
ENDBRANCH  17  18
ENDBRANCH  16  17
ENDBRANCH  15  16
ENDBRANCH   1  15
TORSDOF 22
ENDMDL
MODEL 2
REMARK VINA RESULT:    -1.752      1.686      3.500
REMARK INTER + INTRA:          -3.764
REMARK INTER:                  -2.225
REMARK INTRA:                  -1.539
REMARK UNBOUND:                 0.242
REMARK SMILES CCCCCCCCCCCCCCCCCCCCCCCC(=O)[O-]
REMARK SMILES IDX 13 1 14 2 15 3 16 4 17 5 18 6 19 7 20 8 21 9 22 10 23 11
REMARK SMILES IDX 24 12 25 13 26 14 12 15 11 16 10 17 9 18 8 19 7 20 6 21 5 22
REMARK SMILES IDX 4 23 3 24 2 25 1 26
REMARK H PARENT
REMARK Flexibility Score: inf
ROOT
ATOM      1  C   UNL     1      27.001  18.898  58.077  1.00  0.00     0.000 C 
ENDROOT
BRANCH   1   2
ATOM      2  C   UNL     1      27.186  19.673  59.390  1.00  0.00     0.000 C 
BRANCH   2   3
ATOM      3  C   UNL     1      27.478  21.165  59.167  1.00  0.00     0.000 C 
BRANCH   3   4
ATOM      4  C   UNL     1      26.229  21.959  58.749  1.00  0.00     0.000 C 
BRANCH   4   5
ATOM      5  C   UNL     1      25.198  22.071  59.884  1.00  0.00     0.000 C 
BRANCH   5   6
ATOM      6  C   UNL     1      23.789  21.628  59.449  1.00  0.00     0.000 C 
BRANCH   6   7
ATOM      7  C   UNL     1      22.924  21.161  60.632  1.00  0.00     0.000 C 
BRANCH   7   8
ATOM      8  C   UNL     1      22.995  22.125  61.829  1.00  0.00     0.000 C 
BRANCH   8   9
ATOM      9  C   UNL     1      22.875  21.403  63.179  1.00  0.00     0.000 C 
BRANCH   9  10
ATOM     10  C   UNL     1      24.211  20.818  63.664  1.00  0.00     0.006 C 
BRANCH  10  11
ATOM     11  C   UNL     1      25.327  21.865  63.591  1.00  0.00     0.053 C 
BRANCH  11  12
ATOM     12  C   UNL     1      26.605  21.242  63.125  1.00  0.00     0.041 C 
ATOM     13  O   UNL     1      27.466  21.935  62.521  1.00  0.00    -0.550 OA
ATOM     14  O   UNL     1      26.845  19.892  63.356  1.00  0.00    -0.550 OA
ENDBRANCH  11  12
ENDBRANCH  10  11
ENDBRANCH   9  10
ENDBRANCH   8   9
ENDBRANCH   7   8
ENDBRANCH   6   7
ENDBRANCH   5   6
ENDBRANCH   4   5
ENDBRANCH   3   4
ENDBRANCH   2   3
ENDBRANCH   1   2
BRANCH   1  15
ATOM     15  C   UNL     1      25.797  19.437  57.289  1.00  0.00     0.000 C 
BRANCH  15  16
ATOM     16  C   UNL     1      24.704  18.378  57.066  1.00  0.00     0.000 C 
BRANCH  16  17
ATOM     17  C   UNL     1      23.694  18.708  55.949  1.00  0.00     0.000 C 
BRANCH  17  18
ATOM     18  C   UNL     1      23.484  20.221  55.722  1.00  0.00    -0.000 C 
BRANCH  18  19
ATOM     19  C   UNL     1      23.489  20.590  54.231  1.00  0.00    -0.000 C 
BRANCH  19  20
ATOM     20  C   UNL     1      24.762  21.363  53.854  1.00  0.00    -0.000 C 
BRANCH  20  21
ATOM     21  C   UNL     1      25.516  21.891  55.085  1.00  0.00    -0.000 C 
BRANCH  21  22
ATOM     22  C   UNL     1      26.816  21.112  55.359  1.00  0.00    -0.000 C 
BRANCH  22  23
ATOM     23  C   UNL     1      28.024  22.033  55.612  1.00  0.00    -0.000 C 
BRANCH  23  24
ATOM     24  C   UNL     1      29.399  21.350  55.502  1.00  0.00    -0.000 C 
BRANCH  24  25
ATOM     25  C   UNL     1      30.367  22.098  54.573  1.00  0.00    -0.003 C 
ATOM     26  C   UNL     1      31.653  21.305  54.364  1.00  0.00     0.004 C 
ENDBRANCH  24  25
ENDBRANCH  23  24
ENDBRANCH  22  23
ENDBRANCH  21  22
ENDBRANCH  20  21
ENDBRANCH  19  20
ENDBRANCH  18  19
ENDBRANCH  17  18
ENDBRANCH  16  17
ENDBRANCH  15  16
ENDBRANCH   1  15
TORSDOF 22
ENDMDL
MODEL 3
REMARK VINA RESULT:    -1.602      2.306      7.532
REMARK INTER + INTRA:          -3.421
REMARK INTER:                  -3.767
REMARK INTRA:                   0.345
REMARK UNBOUND:                 0.242
REMARK SMILES CCCCCCCCCCCCCCCCCCCCCCCC(=O)[O-]
REMARK SMILES IDX 13 1 14 2 15 3 16 4 17 5 18 6 19 7 20 8 21 9 22 10 23 11
REMARK SMILES IDX 24 12 25 13 26 14 12 15 11 16 10 17 9 18 8 19 7 20 6 21 5 22
REMARK SMILES IDX 4 23 3 24 2 25 1 26
REMARK H PARENT
REMARK Flexibility Score: inf
ROOT
ATOM      1  C   UNL     1      27.255  19.693  59.719  1.00  0.00     0.000 C 
ENDROOT
BRANCH   1   2
ATOM      2  C   UNL     1      27.224  19.373  58.217  1.00  0.00     0.000 C 
BRANCH   2   3
ATOM      3  C   UNL     1      26.672  20.531  57.371  1.00  0.00     0.000 C 
BRANCH   3   4
ATOM      4  C   UNL     1      27.302  20.595  55.969  1.00  0.00     0.000 C 
BRANCH   4   5
ATOM      5  C   UNL     1      26.336  21.163  54.917  1.00  0.00     0.000 C 
BRANCH   5   6
ATOM      6  C   UNL     1      25.295  22.120  55.525  1.00  0.00     0.000 C 
BRANCH   6   7
ATOM      7  C   UNL     1      23.851  21.636  55.315  1.00  0.00     0.000 C 
BRANCH   7   8
ATOM      8  C   UNL     1      23.344  21.900  53.886  1.00  0.00     0.000 C 
BRANCH   8   9
ATOM      9  C   UNL     1      23.232  20.616  53.050  1.00  0.00     0.000 C 
BRANCH   9  10
ATOM     10  C   UNL     1      22.947  19.371  53.904  1.00  0.00     0.006 C 
BRANCH  10  11
ATOM     11  C   UNL     1      24.226  18.863  54.577  1.00  0.00     0.053 C 
BRANCH  11  12
ATOM     12  C   UNL     1      23.909  18.209  55.886  1.00  0.00     0.041 C 
ATOM     13  O   UNL     1      23.025  18.694  56.640  1.00  0.00    -0.550 OA
ATOM     14  O   UNL     1      24.595  17.064  56.275  1.00  0.00    -0.550 OA
ENDBRANCH  11  12
ENDBRANCH  10  11
ENDBRANCH   9  10
ENDBRANCH   8   9
ENDBRANCH   7   8
ENDBRANCH   6   7
ENDBRANCH   5   6
ENDBRANCH   4   5
ENDBRANCH   3   4
ENDBRANCH   2   3
ENDBRANCH   1   2
BRANCH   1  15
ATOM     15  C   UNL     1      27.850  21.088  59.968  1.00  0.00     0.000 C 
BRANCH  15  16
ATOM     16  C   UNL     1      26.888  22.024  60.719  1.00  0.00     0.000 C 
BRANCH  16  17
ATOM     17  C   UNL     1      25.467  22.110  60.128  1.00  0.00     0.000 C 
BRANCH  17  18
ATOM     18  C   UNL     1      24.627  20.830  60.331  1.00  0.00    -0.000 C 
BRANCH  18  19
ATOM     19  C   UNL     1      23.297  21.116  61.044  1.00  0.00    -0.000 C 
BRANCH  19  20
ATOM     20  C   UNL     1      23.496  22.080  62.224  1.00  0.00    -0.000 C 
BRANCH  20  21
ATOM     21  C   UNL     1      24.080  21.382  63.463  1.00  0.00    -0.000 C 
BRANCH  21  22
ATOM     22  C   UNL     1      25.335  22.092  64.003  1.00  0.00    -0.000 C 
BRANCH  22  23
ATOM     23  C   UNL     1      26.624  21.279  63.783  1.00  0.00    -0.000 C 
BRANCH  23  24
ATOM     24  C   UNL     1      26.434  19.945  63.038  1.00  0.00    -0.000 C 
BRANCH  24  25
ATOM     25  C   UNL     1      25.444  19.003  63.738  1.00  0.00    -0.003 C 
ATOM     26  C   UNL     1      26.088  18.323  64.943  1.00  0.00     0.004 C 
ENDBRANCH  24  25
ENDBRANCH  23  24
ENDBRANCH  22  23
ENDBRANCH  21  22
ENDBRANCH  20  21
ENDBRANCH  19  20
ENDBRANCH  18  19
ENDBRANCH  17  18
ENDBRANCH  16  17
ENDBRANCH  15  16
ENDBRANCH   1  15
TORSDOF 22
ENDMDL
MODEL 4
REMARK VINA RESULT:    -0.876      2.390      6.954
REMARK INTER + INTRA:          -1.762
REMARK INTER:                  -3.574
REMARK INTRA:                   1.812
REMARK UNBOUND:                 0.242
REMARK SMILES CCCCCCCCCCCCCCCCCCCCCCCC(=O)[O-]
REMARK SMILES IDX 13 1 14 2 15 3 16 4 17 5 18 6 19 7 20 8 21 9 22 10 23 11
REMARK SMILES IDX 24 12 25 13 26 14 12 15 11 16 10 17 9 18 8 19 7 20 6 21 5 22
REMARK SMILES IDX 4 23 3 24 2 25 1 26
REMARK H PARENT
REMARK Flexibility Score: inf
ROOT
ATOM      1  C   UNL     1      27.498  20.475  59.765  1.00  0.00     0.000 C 
ENDROOT
BRANCH   1   2
ATOM      2  C   UNL     1      26.782  21.059  58.538  1.00  0.00     0.000 C 
BRANCH   2   3
ATOM      3  C   UNL     1      27.756  21.632  57.496  1.00  0.00     0.000 C 
BRANCH   3   4
ATOM      4  C   UNL     1      27.363  21.267  56.053  1.00  0.00     0.000 C 
BRANCH   4   5
ATOM      5  C   UNL     1      26.147  22.066  55.557  1.00  0.00     0.000 C 
BRANCH   5   6
ATOM      6  C   UNL     1      25.494  21.437  54.313  1.00  0.00     0.000 C 
BRANCH   6   7
ATOM      7  C   UNL     1      24.173  22.123  53.927  1.00  0.00     0.000 C 
BRANCH   7   8
ATOM      8  C   UNL     1      22.979  21.154  53.948  1.00  0.00     0.000 C 
BRANCH   8   9
ATOM      9  C   UNL     1      23.267  19.842  53.201  1.00  0.00     0.000 C 
BRANCH   9  10
ATOM     10  C   UNL     1      24.093  18.850  54.035  1.00  0.00     0.006 C 
BRANCH  10  11
ATOM     11  C   UNL     1      23.193  17.784  54.668  1.00  0.00     0.053 C 
BRANCH  11  12
ATOM     12  C   UNL     1      23.696  17.409  56.027  1.00  0.00     0.041 C 
ATOM     13  O   UNL     1      22.931  17.467  57.025  1.00  0.00    -0.550 OA
ATOM     14  O   UNL     1      25.014  16.997  56.191  1.00  0.00    -0.550 OA
ENDBRANCH  11  12
ENDBRANCH  10  11
ENDBRANCH   9  10
ENDBRANCH   8   9
ENDBRANCH   7   8
ENDBRANCH   6   7
ENDBRANCH   5   6
ENDBRANCH   4   5
ENDBRANCH   3   4
ENDBRANCH   2   3
ENDBRANCH   1   2
BRANCH   1  15
ATOM     15  C   UNL     1      27.529  21.493  60.916  1.00  0.00     0.000 C 
BRANCH  15  16
ATOM     16  C   UNL     1      26.813  20.991  62.181  1.00  0.00     0.000 C 
BRANCH  16  17
ATOM     17  C   UNL     1      27.073  21.823  63.452  1.00  0.00     0.000 C 
BRANCH  17  18
ATOM     18  C   UNL     1      25.817  22.043  64.323  1.00  0.00    -0.000 C 
BRANCH  18  19
ATOM     19  C   UNL     1      24.569  21.383  63.719  1.00  0.00    -0.000 C 
BRANCH  19  20
ATOM     20  C   UNL     1      24.209  22.011  62.364  1.00  0.00    -0.000 C 
BRANCH  20  21
ATOM     21  C   UNL     1      22.890  21.467  61.794  1.00  0.00    -0.000 C 
BRANCH  21  22
ATOM     22  C   UNL     1      22.875  21.446  60.255  1.00  0.00    -0.000 C 
BRANCH  22  23
ATOM     23  C   UNL     1      24.200  21.928  59.637  1.00  0.00    -0.000 C 
BRANCH  23  24
ATOM     24  C   UNL     1      24.174  22.125  58.110  1.00  0.00    -0.000 C 
BRANCH  24  25
ATOM     25  C   UNL     1      23.208  21.166  57.399  1.00  0.00    -0.003 C 
ATOM     26  C   UNL     1      23.224  19.786  58.050  1.00  0.00     0.004 C 
ENDBRANCH  24  25
ENDBRANCH  23  24
ENDBRANCH  22  23
ENDBRANCH  21  22
ENDBRANCH  20  21
ENDBRANCH  19  20
ENDBRANCH  18  19
ENDBRANCH  17  18
ENDBRANCH  16  17
ENDBRANCH  15  16
ENDBRANCH   1  15
TORSDOF 22
ENDMDL
MODEL 5
REMARK VINA RESULT:    -0.471      2.557      7.534
REMARK INTER + INTRA:          -0.835
REMARK INTER:                   1.071
REMARK INTRA:                  -1.906
REMARK UNBOUND:                 0.242
REMARK SMILES CCCCCCCCCCCCCCCCCCCCCCCC(=O)[O-]
REMARK SMILES IDX 13 1 14 2 15 3 16 4 17 5 18 6 19 7 20 8 21 9 22 10 23 11
REMARK SMILES IDX 24 12 25 13 26 14 12 15 11 16 10 17 9 18 8 19 7 20 6 21 5 22
REMARK SMILES IDX 4 23 3 24 2 25 1 26
REMARK H PARENT
REMARK Flexibility Score: inf
ROOT
ATOM      1  C   UNL     1      27.379  19.629  59.225  1.00  0.00     0.000 C 
ENDROOT
BRANCH   1   2
ATOM      2  C   UNL     1      26.675  18.731  58.196  1.00  0.00     0.000 C 
BRANCH   2   3
ATOM      3  C   UNL     1      25.404  19.371  57.615  1.00  0.00     0.000 C 
BRANCH   3   4
ATOM      4  C   UNL     1      24.931  18.682  56.324  1.00  0.00     0.000 C 
BRANCH   4   5
ATOM      5  C   UNL     1      23.398  18.587  56.238  1.00  0.00     0.000 C 
BRANCH   5   6
ATOM      6  C   UNL     1      22.877  18.731  54.796  1.00  0.00     0.000 C 
BRANCH   6   7
ATOM      7  C   UNL     1      23.985  19.119  53.803  1.00  0.00     0.000 C 
BRANCH   7   8
ATOM      8  C   UNL     1      23.797  20.538  53.238  1.00  0.00     0.000 C 
BRANCH   8   9
ATOM      9  C   UNL     1      23.408  21.559  54.318  1.00  0.00     0.000 C 
BRANCH   9  10
ATOM     10  C   UNL     1      24.622  22.124  55.071  1.00  0.00     0.006 C 
BRANCH  10  11
ATOM     11  C   UNL     1      25.895  22.005  54.226  1.00  0.00     0.053 C 
BRANCH  11  12
ATOM     12  C   UNL     1      26.993  21.364  55.015  1.00  0.00     0.041 C 
ATOM     13  O   UNL     1      27.658  22.040  55.843  1.00  0.00    -0.550 OA
ATOM     14  O   UNL     1      27.285  20.017  54.832  1.00  0.00    -0.550 OA
ENDBRANCH  11  12
ENDBRANCH  10  11
ENDBRANCH   9  10
ENDBRANCH   8   9
ENDBRANCH   7   8
ENDBRANCH   6   7
ENDBRANCH   5   6
ENDBRANCH   4   5
ENDBRANCH   3   4
ENDBRANCH   2   3
ENDBRANCH   1   2
BRANCH   1  15
ATOM     15  C   UNL     1      27.222  21.112  58.854  1.00  0.00     0.000 C 
BRANCH  15  16
ATOM     16  C   UNL     1      27.704  22.062  59.963  1.00  0.00     0.000 C 
BRANCH  16  17
ATOM     17  C   UNL     1      26.814  22.101  61.221  1.00  0.00     0.000 C 
BRANCH  17  18
ATOM     18  C   UNL     1      27.606  22.125  62.547  1.00  0.00    -0.000 C 
BRANCH  18  19
ATOM     19  C   UNL     1      26.770  21.620  63.732  1.00  0.00    -0.000 C 
BRANCH  19  20
ATOM     20  C   UNL     1      26.205  20.218  63.457  1.00  0.00    -0.000 C 
BRANCH  20  21
ATOM     21  C   UNL     1      25.083  19.833  64.433  1.00  0.00    -0.000 C 
BRANCH  21  22
ATOM     22  C   UNL     1      23.686  20.204  63.904  1.00  0.00    -0.000 C 
BRANCH  22  23
ATOM     23  C   UNL     1      23.608  21.649  63.380  1.00  0.00    -0.000 C 
BRANCH  23  24
ATOM     24  C   UNL     1      22.997  21.802  61.975  1.00  0.00    -0.000 C 
BRANCH  24  25
ATOM     25  C   UNL     1      24.039  21.679  60.853  1.00  0.00    -0.003 C 
ATOM     26  C   UNL     1      23.370  21.412  59.508  1.00  0.00     0.004 C 
ENDBRANCH  24  25
ENDBRANCH  23  24
ENDBRANCH  22  23
ENDBRANCH  21  22
ENDBRANCH  20  21
ENDBRANCH  19  20
ENDBRANCH  18  19
ENDBRANCH  17  18
ENDBRANCH  16  17
ENDBRANCH  15  16
ENDBRANCH   1  15
TORSDOF 22
ENDMDL
MODEL 6
REMARK VINA RESULT:    -0.404      2.427      7.467
REMARK INTER + INTRA:          -0.681
REMARK INTER:                  -0.194
REMARK INTRA:                  -0.487
REMARK UNBOUND:                 0.242
REMARK SMILES CCCCCCCCCCCCCCCCCCCCCCCC(=O)[O-]
REMARK SMILES IDX 13 1 14 2 15 3 16 4 17 5 18 6 19 7 20 8 21 9 22 10 23 11
REMARK SMILES IDX 24 12 25 13 26 14 12 15 11 16 10 17 9 18 8 19 7 20 6 21 5 22
REMARK SMILES IDX 4 23 3 24 2 25 1 26
REMARK H PARENT
REMARK Flexibility Score: inf
ROOT
ATOM      1  C   UNL     1      26.816  18.223  58.585  1.00  0.00     0.000 C 
ENDROOT
BRANCH   1   2
ATOM      2  C   UNL     1      25.982  19.265  57.823  1.00  0.00     0.000 C 
BRANCH   2   3
ATOM      3  C   UNL     1      25.162  18.651  56.677  1.00  0.00     0.000 C 
BRANCH   3   4
ATOM      4  C   UNL     1      23.813  19.360  56.467  1.00  0.00     0.000 C 
BRANCH   4   5
ATOM      5  C   UNL     1      22.938  18.657  55.417  1.00  0.00     0.000 C 
BRANCH   5   6
ATOM      6  C   UNL     1      23.744  18.196  54.189  1.00  0.00     0.000 C 
BRANCH   6   7
ATOM      7  C   UNL     1      23.952  19.322  53.162  1.00  0.00     0.000 C 
BRANCH   7   8
ATOM      8  C   UNL     1      23.521  20.697  53.701  1.00  0.00     0.000 C 
BRANCH   8   9
ATOM      9  C   UNL     1      24.304  21.855  53.065  1.00  0.00     0.000 C 
BRANCH   9  10
ATOM     10  C   UNL     1      25.646  22.122  53.763  1.00  0.00     0.006 C 
BRANCH  10  11
ATOM     11  C   UNL     1      25.808  21.233  55.000  1.00  0.00     0.053 C 
BRANCH  11  12
ATOM     12  C   UNL     1      27.233  21.216  55.455  1.00  0.00     0.041 C 
ATOM     13  O   UNL     1      28.086  20.518  54.846  1.00  0.00    -0.550 OA
ATOM     14  O   UNL     1      27.620  21.971  56.557  1.00  0.00    -0.550 OA
ENDBRANCH  11  12
ENDBRANCH  10  11
ENDBRANCH   9  10
ENDBRANCH   8   9
ENDBRANCH   7   8
ENDBRANCH   6   7
ENDBRANCH   5   6
ENDBRANCH   4   5
ENDBRANCH   3   4
ENDBRANCH   2   3
ENDBRANCH   1   2
BRANCH   1  15
ATOM     15  C   UNL     1      27.684  18.898  59.658  1.00  0.00     0.000 C 
BRANCH  15  16
ATOM     16  C   UNL     1      27.517  20.427  59.690  1.00  0.00     0.000 C 
BRANCH  16  17
ATOM     17  C   UNL     1      27.404  21.042  61.099  1.00  0.00     0.000 C 
BRANCH  17  18
ATOM     18  C   UNL     1      26.269  22.080  61.238  1.00  0.00    -0.000 C 
BRANCH  18  19
ATOM     19  C   UNL     1      25.264  22.000  60.079  1.00  0.00    -0.000 C 
BRANCH  19  20
ATOM     20  C   UNL     1      24.018  21.194  60.480  1.00  0.00    -0.000 C 
BRANCH  20  21
ATOM     21  C   UNL     1      22.998  22.037  61.262  1.00  0.00    -0.000 C 
BRANCH  21  22
ATOM     22  C   UNL     1      22.875  21.599  62.733  1.00  0.00    -0.000 C 
BRANCH  22  23
ATOM     23  C   UNL     1      24.190  21.758  63.517  1.00  0.00    -0.000 C 
BRANCH  23  24
ATOM     24  C   UNL     1      24.747  20.459  64.127  1.00  0.00    -0.000 C 
BRANCH  24  25
ATOM     25  C   UNL     1      26.278  20.366  64.043  1.00  0.00    -0.003 C 
ATOM     26  C   UNL     1      26.741  18.912  64.026  1.00  0.00     0.004 C 
ENDBRANCH  24  25
ENDBRANCH  23  24
ENDBRANCH  22  23
ENDBRANCH  21  22
ENDBRANCH  20  21
ENDBRANCH  19  20
ENDBRANCH  18  19
ENDBRANCH  17  18
ENDBRANCH  16  17
ENDBRANCH  15  16
ENDBRANCH   1  15
TORSDOF 22
ENDMDL
