MODEL 1
REMARK VINA RESULT:    -4.857      0.000      0.000
REMARK INTER + INTRA:          -6.494
REMARK INTER:                  -6.277
REMARK INTRA:                  -0.217
REMARK UNBOUND:                -0.217
REMARK SMILES CCCCCCC(=O)[O-]
REMARK SMILES IDX 5 1 6 2 7 3 8 4 9 5 4 6 3 7 2 8 1 9
REMARK H PARENT
REMARK Flexibility Score: inf
ROOT
ATOM      1  C   UNL     1      30.591  -5.635 -13.252  1.00  0.00     0.006 C 
ENDROOT
BRANCH   1   2
ATOM      2  C   UNL     1      31.113  -5.207 -11.874  1.00  0.00     0.053 C 
BRANCH   2   3
ATOM      3  C   UNL     1      32.209  -6.105 -11.390  1.00  0.00     0.041 C 
ATOM      4  O   UNL     1      32.697  -6.978 -12.154  1.00  0.00    -0.550 OA
ATOM      5  O   UNL     1      32.668  -6.001 -10.082  1.00  0.00    -0.550 OA
ENDBRANCH   2   3
ENDBRANCH   1   2
BRANCH   1   6
ATOM      6  C   UNL     1      29.343  -6.523 -13.150  1.00  0.00     0.000 C 
BRANCH   6   7
ATOM      7  C   UNL     1      29.592  -7.896 -13.787  1.00  0.00    -0.000 C 
BRANCH   7   8
ATOM      8  C   UNL     1      29.988  -7.755 -15.260  1.00  0.00    -0.003 C 
ATOM      9  C   UNL     1      29.788  -9.068 -16.013  1.00  0.00     0.004 C 
ENDBRANCH   7   8
ENDBRANCH   6   7
ENDBRANCH   1   6
TORSDOF 5
ENDMDL
MODEL 2
REMARK VINA RESULT:    -4.773      0.126      1.086
REMARK INTER + INTRA:          -6.385
REMARK INTER:                  -6.174
REMARK INTRA:                  -0.211
REMARK UNBOUND:                -0.217
REMARK SMILES CCCCCCC(=O)[O-]
REMARK SMILES IDX 5 1 6 2 7 3 8 4 9 5 4 6 3 7 2 8 1 9
REMARK H PARENT
REMARK Flexibility Score: inf
ROOT
ATOM      1  C   UNL     1      30.533  -5.502 -13.222  1.00  0.00     0.006 C 
ENDROOT
BRANCH   1   2
ATOM      2  C   UNL     1      30.991  -5.147 -11.802  1.00  0.00     0.053 C 
BRANCH   2   3
ATOM      3  C   UNL     1      32.127  -6.013 -11.349  1.00  0.00     0.041 C 
ATOM      4  O   UNL     1      32.615  -5.868 -10.198  1.00  0.00    -0.550 OA
ATOM      5  O   UNL     1      32.670  -6.957 -12.213  1.00  0.00    -0.550 OA
ENDBRANCH   2   3
ENDBRANCH   1   2
BRANCH   1   6
ATOM      6  C   UNL     1      29.290  -6.403 -13.224  1.00  0.00     0.000 C 
BRANCH   6   7
ATOM      7  C   UNL     1      29.623  -7.798 -13.769  1.00  0.00    -0.000 C 
BRANCH   7   8
ATOM      8  C   UNL     1      29.973  -7.737 -15.259  1.00  0.00    -0.003 C 
ATOM      9  C   UNL     1      29.777  -9.095 -15.927  1.00  0.00     0.004 C 
ENDBRANCH   7   8
ENDBRANCH   6   7
ENDBRANCH   1   6
TORSDOF 5
ENDMDL
MODEL 3
REMARK VINA RESULT:    -4.585      2.723      4.550
REMARK INTER + INTRA:          -6.142
REMARK INTER:                  -5.963
REMARK INTRA:                  -0.180
REMARK UNBOUND:                -0.217
REMARK SMILES CCCCCCC(=O)[O-]
REMARK SMILES IDX 5 1 6 2 7 3 8 4 9 5 4 6 3 7 2 8 1 9
REMARK H PARENT
REMARK Flexibility Score: inf
ROOT
ATOM      1  C   UNL     1      29.008  -6.273 -13.482  1.00  0.00     0.006 C 
ENDROOT
BRANCH   1   2
ATOM      2  C   UNL     1      29.651  -7.645 -13.721  1.00  0.00     0.053 C 
BRANCH   2   3
ATOM      3  C   UNL     1      29.891  -7.904 -15.177  1.00  0.00     0.041 C 
ATOM      4  O   UNL     1      30.187  -6.954 -15.948  1.00  0.00    -0.550 OA
ATOM      5  O   UNL     1      29.753  -9.188 -15.688  1.00  0.00    -0.550 OA
ENDBRANCH   2   3
ENDBRANCH   1   2
BRANCH   1   6
ATOM      6  C   UNL     1      30.018  -5.243 -12.954  1.00  0.00     0.000 C 
BRANCH   6   7
ATOM      7  C   UNL     1      31.371  -5.901 -12.659  1.00  0.00    -0.000 C 
BRANCH   7   8
ATOM      8  C   UNL     1      31.856  -5.553 -11.248  1.00  0.00    -0.003 C 
ATOM      9  C   UNL     1      32.795  -6.628 -10.707  1.00  0.00     0.004 C 
ENDBRANCH   7   8
ENDBRANCH   6   7
ENDBRANCH   1   6
TORSDOF 5
ENDMDL
MODEL 4
REMARK VINA RESULT:    -3.908      2.728      4.812
REMARK INTER + INTRA:          -5.267
REMARK INTER:                  -5.166
REMARK INTRA:                  -0.101
REMARK UNBOUND:                -0.217
REMARK SMILES CCCCCCC(=O)[O-]
REMARK SMILES IDX 5 1 6 2 7 3 8 4 9 5 4 6 3 7 2 8 1 9
REMARK H PARENT
REMARK Flexibility Score: inf
ROOT
ATOM      1  C   UNL     1      30.267  -7.042 -12.785  1.00  0.00     0.006 C 
ENDROOT
BRANCH   1   2
ATOM      2  C   UNL     1      29.316  -6.518 -13.869  1.00  0.00     0.053 C 
BRANCH   2   3
ATOM      3  C   UNL     1      29.894  -6.676 -15.242  1.00  0.00     0.041 C 
ATOM      4  O   UNL     1      29.629  -7.698 -15.928  1.00  0.00    -0.550 OA
ATOM      5  O   UNL     1      30.754  -5.711 -15.751  1.00  0.00    -0.550 OA
ENDBRANCH   2   3
ENDBRANCH   1   2
BRANCH   1   6
ATOM      6  C   UNL     1      31.308  -5.993 -12.371  1.00  0.00     0.000 C 
BRANCH   6   7
ATOM      7  C   UNL     1      32.490  -6.649 -11.644  1.00  0.00    -0.000 C 
BRANCH   7   8
ATOM      8  C   UNL     1      32.654  -6.076 -10.233  1.00  0.00    -0.003 C 
ATOM      9  C   UNL     1      33.453  -7.024  -9.343  1.00  0.00     0.004 C 
ENDBRANCH   7   8
ENDBRANCH   6   7
ENDBRANCH   1   6
TORSDOF 5
ENDMDL
MODEL 5
REMARK VINA RESULT:    -3.513      2.504      4.019
REMARK INTER + INTRA:          -4.757
REMARK INTER:                  -5.066
REMARK INTRA:                   0.309
REMARK UNBOUND:                -0.217
REMARK SMILES CCCCCCC(=O)[O-]
REMARK SMILES IDX 5 1 6 2 7 3 8 4 9 5 4 6 3 7 2 8 1 9
REMARK H PARENT
REMARK Flexibility Score: inf
ROOT
ATOM      1  C   UNL     1      30.043  -7.918 -14.529  1.00  0.00     0.006 C 
ENDROOT
BRANCH   1   2
ATOM      2  C   UNL     1      29.633  -6.757 -15.445  1.00  0.00     0.053 C 
BRANCH   2   3
ATOM      3  C   UNL     1      30.579  -5.601 -15.339  1.00  0.00     0.041 C 
ATOM      4  O   UNL     1      31.678  -5.624 -15.953  1.00  0.00    -0.550 OA
ATOM      5  O   UNL     1      30.263  -4.514 -14.534  1.00  0.00    -0.550 OA
ENDBRANCH   2   3
ENDBRANCH   1   2
BRANCH   1   6
ATOM      6  C   UNL     1      29.498  -7.753 -13.103  1.00  0.00     0.000 C 
BRANCH   6   7
ATOM      7  C   UNL     1      30.256  -6.654 -12.348  1.00  0.00    -0.000 C 
BRANCH   7   8
ATOM      8  C   UNL     1      31.753  -6.972 -12.271  1.00  0.00    -0.003 C 
ATOM      9  C   UNL     1      32.418  -6.223 -11.119  1.00  0.00     0.004 C 
ENDBRANCH   7   8
ENDBRANCH   6   7
ENDBRANCH   1   6
TORSDOF 5
ENDMDL
MODEL 6
REMARK VINA RESULT:    -3.439      1.683      2.347
REMARK INTER + INTRA:          -4.662
REMARK INTER:                  -4.545
REMARK INTRA:                  -0.117
REMARK UNBOUND:                -0.217
REMARK SMILES CCCCCCC(=O)[O-]
REMARK SMILES IDX 5 1 6 2 7 3 8 4 9 5 4 6 3 7 2 8 1 9
REMARK H PARENT
REMARK Flexibility Score: inf
ROOT
ATOM      1  C   UNL     1      30.156  -7.402 -13.514  1.00  0.00     0.006 C 
ENDROOT
BRANCH   1   2
ATOM      2  C   UNL     1      31.262  -6.347 -13.382  1.00  0.00     0.053 C 
BRANCH   2   3
ATOM      3  C   UNL     1      30.913  -5.295 -12.375  1.00  0.00     0.041 C 
ATOM      4  O   UNL     1      31.607  -5.158 -11.335  1.00  0.00    -0.550 OA
ATOM      5  O   UNL     1      29.798  -4.488 -12.570  1.00  0.00    -0.550 OA
ENDBRANCH   2   3
ENDBRANCH   1   2
BRANCH   1   6
ATOM      6  C   UNL     1      29.714  -7.602 -14.971  1.00  0.00     0.000 C 
BRANCH   6   7
ATOM      7  C   UNL     1      29.734  -9.087 -15.352  1.00  0.00    -0.000 C 
BRANCH   7   8
ATOM      8  C   UNL     1      29.863  -9.264 -16.869  1.00  0.00    -0.003 C 
ATOM      9  C   UNL     1      28.537  -8.985 -17.572  1.00  0.00     0.004 C 
ENDBRANCH   7   8
ENDBRANCH   6   7
ENDBRANCH   1   6
TORSDOF 5
ENDMDL
MODEL 7
REMARK VINA RESULT:    -3.282      4.612      5.303
REMARK INTER + INTRA:          -4.459
REMARK INTER:                  -4.363
REMARK INTRA:                  -0.096
REMARK UNBOUND:                -0.217
REMARK SMILES CCCCCCC(=O)[O-]
REMARK SMILES IDX 5 1 6 2 7 3 8 4 9 5 4 6 3 7 2 8 1 9
REMARK H PARENT
REMARK Flexibility Score: inf
ROOT
ATOM      1  C   UNL     1      33.250  -5.543 -16.386  1.00  0.00     0.006 C 
ENDROOT
BRANCH   1   2
ATOM      2  C   UNL     1      33.961  -5.226 -17.708  1.00  0.00     0.053 C 
BRANCH   2   3
ATOM      3  C   UNL     1      35.450  -5.211 -17.551  1.00  0.00     0.041 C 
ATOM      4  O   UNL     1      36.089  -6.291 -17.464  1.00  0.00    -0.550 OA
ATOM      5  O   UNL     1      36.129  -4.001 -17.464  1.00  0.00    -0.550 OA
ENDBRANCH   2   3
ENDBRANCH   1   2
BRANCH   1   6
ATOM      6  C   UNL     1      31.741  -5.268 -16.458  1.00  0.00     0.000 C 
BRANCH   6   7
ATOM      7  C   UNL     1      31.054  -5.625 -15.133  1.00  0.00    -0.000 C 
BRANCH   7   8
ATOM      8  C   UNL     1      29.951  -6.666 -15.349  1.00  0.00    -0.003 C 
ATOM      9  C   UNL     1      29.856  -7.622 -14.162  1.00  0.00     0.004 C 
ENDBRANCH   7   8
ENDBRANCH   6   7
ENDBRANCH   1   6
TORSDOF 5
ENDMDL
MODEL 8
REMARK VINA RESULT:    -3.256     13.033     15.042
REMARK INTER + INTRA:          -4.425
REMARK INTER:                  -4.082
REMARK INTRA:                  -0.343
REMARK UNBOUND:                -0.217
REMARK SMILES CCCCCCC(=O)[O-]
REMARK SMILES IDX 5 1 6 2 7 3 8 4 9 5 4 6 3 7 2 8 1 9
REMARK H PARENT
REMARK Flexibility Score: inf
ROOT
ATOM      1  C   UNL     1      42.782 -13.422  -6.198  1.00  0.00     0.006 C 
ENDROOT
BRANCH   1   2
ATOM      2  C   UNL     1      41.689 -14.102  -7.032  1.00  0.00     0.053 C 
BRANCH   2   3
ATOM      3  C   UNL     1      40.502 -13.209  -7.230  1.00  0.00     0.041 C 
ATOM      4  O   UNL     1      40.617 -11.963  -7.098  1.00  0.00    -0.550 OA
ATOM      5  O   UNL     1      39.260 -13.758  -7.525  1.00  0.00    -0.550 OA
ENDBRANCH   2   3
ENDBRANCH   1   2
BRANCH   1   6
ATOM      6  C   UNL     1      43.003 -14.123  -4.849  1.00  0.00     0.000 C 
BRANCH   6   7
ATOM      7  C   UNL     1      43.014 -13.109  -3.698  1.00  0.00    -0.000 C 
BRANCH   7   8
ATOM      8  C   UNL     1      42.191 -11.866  -4.052  1.00  0.00    -0.003 C 
ATOM      9  C   UNL     1      40.819 -11.904  -3.385  1.00  0.00     0.004 C 
ENDBRANCH   7   8
ENDBRANCH   6   7
ENDBRANCH   1   6
TORSDOF 5
ENDMDL
MODEL 9
REMARK VINA RESULT:    -3.236     13.087     14.765
REMARK INTER + INTRA:          -4.399
REMARK INTER:                  -4.047
REMARK INTRA:                  -0.352
REMARK UNBOUND:                -0.217
REMARK SMILES CCCCCCC(=O)[O-]
REMARK SMILES IDX 5 1 6 2 7 3 8 4 9 5 4 6 3 7 2 8 1 9
REMARK H PARENT
REMARK Flexibility Score: inf
ROOT
ATOM      1  C   UNL     1      43.125 -13.984  -5.074  1.00  0.00     0.006 C 
ENDROOT
BRANCH   1   2
ATOM      2  C   UNL     1      42.251 -13.826  -3.824  1.00  0.00     0.053 C 
BRANCH   2   3
ATOM      3  C   UNL     1      41.607 -12.475  -3.761  1.00  0.00     0.041 C 
ATOM      4  O   UNL     1      40.353 -12.371  -3.730  1.00  0.00    -0.550 OA
ATOM      5  O   UNL     1      42.392 -11.328  -3.771  1.00  0.00    -0.550 OA
ENDBRANCH   2   3
ENDBRANCH   1   2
BRANCH   1   6
ATOM      6  C   UNL     1      42.288 -14.121  -6.354  1.00  0.00     0.000 C 
BRANCH   6   7
ATOM      7  C   UNL     1      42.268 -12.804  -7.141  1.00  0.00    -0.000 C 
BRANCH   7   8
ATOM      8  C   UNL     1      40.835 -12.287  -7.312  1.00  0.00    -0.003 C 
ATOM      9  C   UNL     1      39.835 -13.439  -7.353  1.00  0.00     0.004 C 
ENDBRANCH   7   8
ENDBRANCH   6   7
ENDBRANCH   1   6
TORSDOF 5
ENDMDL
