MODEL 1
REMARK VINA RESULT:    -3.945      0.000      0.000
REMARK INTER + INTRA:          -8.934
REMARK INTER:                  -7.173
REMARK INTRA:                  -1.761
REMARK UNBOUND:                -1.761
REMARK SMILES CCCCCCCCCCCCCCCC(=O)[O-]
REMARK SMILES IDX 9 1 10 2 11 3 12 4 13 5 14 6 15 7 16 8 17 9 18 10 8 11 7 12
REMARK SMILES IDX 6 13 5 14 4 15 3 16 2 17 1 18
REMARK H PARENT
REMARK Flexibility Score: inf
ROOT
ATOM      1  C   UNL     1      16.773 130.310  61.424  1.00  0.00     0.000 C 
ENDROOT
BRANCH   1   2
ATOM      2  C   UNL     1      15.555 130.155  60.491  1.00  0.00     0.000 C 
BRANCH   2   3
ATOM      3  C   UNL     1      15.038 128.714  60.318  1.00  0.00     0.000 C 
BRANCH   3   4
ATOM      4  C   UNL     1      15.017 128.258  58.849  1.00  0.00     0.000 C 
BRANCH   4   5
ATOM      5  C   UNL     1      15.737 129.239  57.906  1.00  0.00     0.000 C 
BRANCH   5   6
ATOM      6  C   UNL     1      16.927 128.647  57.123  1.00  0.00     0.006 C 
BRANCH   6   7
ATOM      7  C   UNL     1      18.152 129.570  57.026  1.00  0.00     0.053 C 
BRANCH   7   8
ATOM      8  C   UNL     1      19.021 129.228  55.855  1.00  0.00     0.041 C 
ATOM      9  O   UNL     1      18.504 128.846  54.773  1.00  0.00    -0.550 OA
ATOM     10  O   UNL     1      20.400 129.365  55.948  1.00  0.00    -0.550 OA
ENDBRANCH   7   8
ENDBRANCH   6   7
ENDBRANCH   5   6
ENDBRANCH   4   5
ENDBRANCH   3   4
ENDBRANCH   2   3
ENDBRANCH   1   2
BRANCH   1  11
ATOM     11  C   UNL     1      18.100 129.759  60.865  1.00  0.00     0.000 C 
BRANCH  11  12
ATOM     12  C   UNL     1      18.843 128.787  61.802  1.00  0.00    -0.000 C 
BRANCH  12  13
ATOM     13  C   UNL     1      18.480 128.914  63.296  1.00  0.00    -0.000 C 
BRANCH  13  14
ATOM     14  C   UNL     1      17.864 127.654  63.929  1.00  0.00    -0.000 C 
BRANCH  14  15
ATOM     15  C   UNL     1      16.914 126.910  62.975  1.00  0.00    -0.000 C 
BRANCH  15  16
ATOM     16  C   UNL     1      17.406 125.492  62.640  1.00  0.00    -0.000 C 
BRANCH  16  17
ATOM     17  C   UNL     1      18.780 125.181  63.253  1.00  0.00    -0.003 C 
ATOM     18  C   UNL     1      19.635 124.359  62.293  1.00  0.00     0.004 C 
ENDBRANCH  16  17
ENDBRANCH  15  16
ENDBRANCH  14  15
ENDBRANCH  13  14
ENDBRANCH  12  13
ENDBRANCH  11  12
ENDBRANCH   1  11
TORSDOF 14
ENDMDL
MODEL 2
REMARK VINA RESULT:    -3.923      5.821      8.599
REMARK INTER + INTRA:          -8.895
REMARK INTER:                  -6.642
REMARK INTRA:                  -2.254
REMARK UNBOUND:                -1.761
REMARK SMILES CCCCCCCCCCCCCCCC(=O)[O-]
REMARK SMILES IDX 9 1 10 2 11 3 12 4 13 5 14 6 15 7 16 8 17 9 18 10 8 11 7 12
REMARK SMILES IDX 6 13 5 14 4 15 3 16 2 17 1 18
REMARK H PARENT
REMARK Flexibility Score: inf
ROOT
ATOM      1  C   UNL     1      15.407 128.488  53.505  1.00  0.00     0.000 C 
ENDROOT
BRANCH   1   2
ATOM      2  C   UNL     1      16.610 127.851  52.779  1.00  0.00     0.000 C 
BRANCH   2   3
ATOM      3  C   UNL     1      17.084 128.592  51.515  1.00  0.00     0.000 C 
BRANCH   3   4
ATOM      4  C   UNL     1      16.651 130.068  51.489  1.00  0.00     0.000 C 
BRANCH   4   5
ATOM      5  C   UNL     1      16.787 130.708  50.095  1.00  0.00     0.000 C 
BRANCH   5   6
ATOM      6  C   UNL     1      15.995 130.011  48.969  1.00  0.00     0.006 C 
BRANCH   6   7
ATOM      7  C   UNL     1      16.744 129.908  47.631  1.00  0.00     0.053 C 
BRANCH   7   8
ATOM      8  C   UNL     1      17.985 129.077  47.745  1.00  0.00     0.041 C 
ATOM      9  O   UNL     1      19.114 129.592  47.535  1.00  0.00    -0.550 OA
ATOM     10  O   UNL     1      17.896 127.741  48.116  1.00  0.00    -0.550 OA
ENDBRANCH   7   8
ENDBRANCH   6   7
ENDBRANCH   5   6
ENDBRANCH   4   5
ENDBRANCH   3   4
ENDBRANCH   2   3
ENDBRANCH   1   2
BRANCH   1  11
ATOM     11  C   UNL     1      15.453 128.406  55.043  1.00  0.00     0.000 C 
BRANCH  11  12
ATOM     12  C   UNL     1      16.741 127.788  55.621  1.00  0.00    -0.000 C 
BRANCH  12  13
ATOM     13  C   UNL     1      17.733 128.799  56.232  1.00  0.00    -0.000 C 
BRANCH  13  14
ATOM     14  C   UNL     1      18.993 129.070  55.390  1.00  0.00    -0.000 C 
BRANCH  14  15
ATOM     15  C   UNL     1      18.833 130.277  54.449  1.00  0.00    -0.000 C 
BRANCH  15  16
ATOM     16  C   UNL     1      18.200 131.491  55.149  1.00  0.00    -0.000 C 
BRANCH  16  17
ATOM     17  C   UNL     1      16.902 131.955  54.472  1.00  0.00    -0.003 C 
ATOM     18  C   UNL     1      15.770 132.085  55.488  1.00  0.00     0.004 C 
ENDBRANCH  16  17
ENDBRANCH  15  16
ENDBRANCH  14  15
ENDBRANCH  13  14
ENDBRANCH  12  13
ENDBRANCH  11  12
ENDBRANCH   1  11
TORSDOF 14
ENDMDL
MODEL 3
REMARK VINA RESULT:    -3.789      1.735      2.376
REMARK INTER + INTRA:          -8.651
REMARK INTER:                  -7.460
REMARK INTRA:                  -1.192
REMARK UNBOUND:                -1.761
REMARK SMILES CCCCCCCCCCCCCCCC(=O)[O-]
REMARK SMILES IDX 9 1 10 2 11 3 12 4 13 5 14 6 15 7 16 8 17 9 18 10 8 11 7 12
REMARK SMILES IDX 6 13 5 14 4 15 3 16 2 17 1 18
REMARK H PARENT
REMARK Flexibility Score: inf
ROOT
ATOM      1  C   UNL     1      16.697 130.664  60.008  1.00  0.00     0.000 C 
ENDROOT
BRANCH   1   2
ATOM      2  C   UNL     1      16.113 129.237  59.955  1.00  0.00     0.000 C 
BRANCH   2   3
ATOM      3  C   UNL     1      15.534 128.814  58.592  1.00  0.00     0.000 C 
BRANCH   3   4
ATOM      4  C   UNL     1      16.614 128.639  57.511  1.00  0.00     0.000 C 
BRANCH   4   5
ATOM      5  C   UNL     1      16.030 128.543  56.089  1.00  0.00     0.000 C 
BRANCH   5   6
ATOM      6  C   UNL     1      16.691 127.491  55.174  1.00  0.00     0.006 C 
BRANCH   6   7
ATOM      7  C   UNL     1      16.317 127.610  53.688  1.00  0.00     0.053 C 
BRANCH   7   8
ATOM      8  C   UNL     1      17.109 128.674  52.994  1.00  0.00     0.041 C 
ATOM      9  O   UNL     1      18.203 129.067  53.478  1.00  0.00    -0.550 OA
ATOM     10  O   UNL     1      16.656 129.208  51.794  1.00  0.00    -0.550 OA
ENDBRANCH   7   8
ENDBRANCH   6   7
ENDBRANCH   5   6
ENDBRANCH   4   5
ENDBRANCH   3   4
ENDBRANCH   2   3
ENDBRANCH   1   2
BRANCH   1  11
ATOM     11  C   UNL     1      18.017 130.801  60.792  1.00  0.00     0.000 C 
BRANCH  11  12
ATOM     12  C   UNL     1      19.064 129.711  60.494  1.00  0.00    -0.000 C 
BRANCH  12  13
ATOM     13  C   UNL     1      19.385 128.772  61.675  1.00  0.00    -0.000 C 
BRANCH  13  14
ATOM     14  C   UNL     1      18.483 128.944  62.911  1.00  0.00    -0.000 C 
BRANCH  14  15
ATOM     15  C   UNL     1      18.158 127.609  63.602  1.00  0.00    -0.000 C 
BRANCH  15  16
ATOM     16  C   UNL     1      17.112 126.785  62.832  1.00  0.00    -0.000 C 
BRANCH  16  17
ATOM     17  C   UNL     1      17.431 125.283  62.823  1.00  0.00    -0.003 C 
ATOM     18  C   UNL     1      18.933 125.042  62.698  1.00  0.00     0.004 C 
ENDBRANCH  16  17
ENDBRANCH  15  16
ENDBRANCH  14  15
ENDBRANCH  13  14
ENDBRANCH  12  13
ENDBRANCH  11  12
ENDBRANCH   1  11
TORSDOF 14
ENDMDL
MODEL 4
REMARK VINA RESULT:    -3.752      5.569      9.355
REMARK INTER + INTRA:          -8.583
REMARK INTER:                  -6.471
REMARK INTRA:                  -2.113
REMARK UNBOUND:                -1.761
REMARK SMILES CCCCCCCCCCCCCCCC(=O)[O-]
REMARK SMILES IDX 9 1 10 2 11 3 12 4 13 5 14 6 15 7 16 8 17 9 18 10 8 11 7 12
REMARK SMILES IDX 6 13 5 14 4 15 3 16 2 17 1 18
REMARK H PARENT
REMARK Flexibility Score: inf
ROOT
ATOM      1  C   UNL     1      15.371 128.736  55.129  1.00  0.00     0.000 C 
ENDROOT
BRANCH   1   2
ATOM      2  C   UNL     1      16.588 128.003  55.730  1.00  0.00     0.000 C 
BRANCH   2   3
ATOM      3  C   UNL     1      17.726 128.915  56.224  1.00  0.00     0.000 C 
BRANCH   3   4
ATOM      4  C   UNL     1      18.861 129.066  55.197  1.00  0.00     0.000 C 
BRANCH   4   5
ATOM      5  C   UNL     1      18.828 130.419  54.462  1.00  0.00     0.000 C 
BRANCH   5   6
ATOM      6  C   UNL     1      17.860 131.466  55.051  1.00  0.00     0.006 C 
BRANCH   6   7
ATOM      7  C   UNL     1      17.004 132.203  54.009  1.00  0.00     0.053 C 
BRANCH   7   8
ATOM      8  C   UNL     1      17.206 133.686  54.065  1.00  0.00     0.041 C 
ATOM      9  O   UNL     1      18.310 134.188  53.727  1.00  0.00    -0.550 OA
ATOM     10  O   UNL     1      16.164 134.516  54.458  1.00  0.00    -0.550 OA
ENDBRANCH   7   8
ENDBRANCH   6   7
ENDBRANCH   5   6
ENDBRANCH   4   5
ENDBRANCH   3   4
ENDBRANCH   2   3
ENDBRANCH   1   2
BRANCH   1  11
ATOM     11  C   UNL     1      15.246 128.647  53.595  1.00  0.00     0.000 C 
BRANCH  11  12
ATOM     12  C   UNL     1      16.319 127.782  52.907  1.00  0.00    -0.000 C 
BRANCH  12  13
ATOM     13  C   UNL     1      17.148 128.506  51.827  1.00  0.00    -0.000 C 
BRANCH  13  14
ATOM     14  C   UNL     1      16.541 129.822  51.309  1.00  0.00    -0.000 C 
BRANCH  14  15
ATOM     15  C   UNL     1      16.957 130.143  49.863  1.00  0.00    -0.000 C 
BRANCH  15  16
ATOM     16  C   UNL     1      16.282 129.217  48.837  1.00  0.00    -0.000 C 
BRANCH  16  17
ATOM     17  C   UNL     1      17.291 128.530  47.904  1.00  0.00    -0.003 C 
ATOM     18  C   UNL     1      18.698 128.569  48.496  1.00  0.00     0.004 C 
ENDBRANCH  16  17
ENDBRANCH  15  16
ENDBRANCH  14  15
ENDBRANCH  13  14
ENDBRANCH  12  13
ENDBRANCH  11  12
ENDBRANCH   1  11
TORSDOF 14
ENDMDL
MODEL 5
REMARK VINA RESULT:    -3.707      3.248      7.095
REMARK INTER + INTRA:          -8.503
REMARK INTER:                  -6.906
REMARK INTRA:                  -1.597
REMARK UNBOUND:                -1.761
REMARK SMILES CCCCCCCCCCCCCCCC(=O)[O-]
REMARK SMILES IDX 9 1 10 2 11 3 12 4 13 5 14 6 15 7 16 8 17 9 18 10 8 11 7 12
REMARK SMILES IDX 6 13 5 14 4 15 3 16 2 17 1 18
REMARK H PARENT
REMARK Flexibility Score: inf
ROOT
ATOM      1  C   UNL     1      17.013 131.115  57.801  1.00  0.00     0.000 C 
ENDROOT
BRANCH   1   2
ATOM      2  C   UNL     1      17.679 129.875  58.432  1.00  0.00     0.000 C 
BRANCH   2   3
ATOM      3  C   UNL     1      17.759 129.883  59.970  1.00  0.00     0.000 C 
BRANCH   3   4
ATOM      4  C   UNL     1      19.189 129.673  60.496  1.00  0.00     0.000 C 
BRANCH   4   5
ATOM      5  C   UNL     1      19.232 128.892  61.822  1.00  0.00     0.000 C 
BRANCH   5   6
ATOM      6  C   UNL     1      17.914 128.195  62.220  1.00  0.00     0.006 C 
BRANCH   6   7
ATOM      7  C   UNL     1      18.036 127.224  63.405  1.00  0.00     0.053 C 
BRANCH   7   8
ATOM      8  C   UNL     1      18.035 125.794  62.961  1.00  0.00     0.041 C 
ATOM      9  O   UNL     1      16.951 125.161  62.866  1.00  0.00    -0.550 OA
ATOM     10  O   UNL     1      19.228 125.170  62.619  1.00  0.00    -0.550 OA
ENDBRANCH   7   8
ENDBRANCH   6   7
ENDBRANCH   5   6
ENDBRANCH   4   5
ENDBRANCH   3   4
ENDBRANCH   2   3
ENDBRANCH   1   2
BRANCH   1  11
ATOM     11  C   UNL     1      17.823 131.790  56.676  1.00  0.00     0.000 C 
BRANCH  11  12
ATOM     12  C   UNL     1      18.765 130.848  55.901  1.00  0.00    -0.000 C 
BRANCH  12  13
ATOM     13  C   UNL     1      18.427 130.671  54.407  1.00  0.00    -0.000 C 
BRANCH  13  14
ATOM     14  C   UNL     1      18.267 129.213  53.940  1.00  0.00    -0.000 C 
BRANCH  14  15
ATOM     15  C   UNL     1      17.952 128.248  55.095  1.00  0.00    -0.000 C 
BRANCH  15  16
ATOM     16  C   UNL     1      16.567 127.594  54.955  1.00  0.00    -0.000 C 
BRANCH  16  17
ATOM     17  C   UNL     1      15.544 128.153  55.955  1.00  0.00    -0.003 C 
ATOM     18  C   UNL     1      14.800 129.349  55.366  1.00  0.00     0.004 C 
ENDBRANCH  16  17
ENDBRANCH  15  16
ENDBRANCH  14  15
ENDBRANCH  13  14
ENDBRANCH  12  13
ENDBRANCH  11  12
ENDBRANCH   1  11
TORSDOF 14
ENDMDL
MODEL 6
REMARK VINA RESULT:    -3.687      3.274      7.157
REMARK INTER + INTRA:          -8.466
REMARK INTER:                  -6.189
REMARK INTRA:                  -2.277
REMARK UNBOUND:                -1.761
REMARK SMILES CCCCCCCCCCCCCCCC(=O)[O-]
REMARK SMILES IDX 9 1 10 2 11 3 12 4 13 5 14 6 15 7 16 8 17 9 18 10 8 11 7 12
REMARK SMILES IDX 6 13 5 14 4 15 3 16 2 17 1 18
REMARK H PARENT
REMARK Flexibility Score: inf
ROOT
ATOM      1  C   UNL     1      16.846 132.277  55.368  1.00  0.00     0.000 C 
ENDROOT
BRANCH   1   2
ATOM      2  C   UNL     1      17.372 131.812  56.742  1.00  0.00     0.000 C 
BRANCH   2   3
ATOM      3  C   UNL     1      16.393 130.954  57.564  1.00  0.00     0.000 C 
BRANCH   3   4
ATOM      4  C   UNL     1      17.106 129.935  58.470  1.00  0.00     0.000 C 
BRANCH   4   5
ATOM      5  C   UNL     1      18.633 130.126  58.501  1.00  0.00     0.000 C 
BRANCH   5   6
ATOM      6  C   UNL     1      19.293 129.939  59.884  1.00  0.00     0.006 C 
BRANCH   6   7
ATOM      7  C   UNL     1      18.304 129.732  61.042  1.00  0.00     0.053 C 
BRANCH   7   8
ATOM      8  C   UNL     1      18.878 128.868  62.122  1.00  0.00     0.041 C 
ATOM      9  O   UNL     1      19.883 128.146  61.889  1.00  0.00    -0.550 OA
ATOM     10  O   UNL     1      18.324 128.887  63.396  1.00  0.00    -0.550 OA
ENDBRANCH   7   8
ENDBRANCH   6   7
ENDBRANCH   5   6
ENDBRANCH   4   5
ENDBRANCH   3   4
ENDBRANCH   2   3
ENDBRANCH   1   2
BRANCH   1  11
ATOM     11  C   UNL     1      17.464 131.558  54.153  1.00  0.00     0.000 C 
BRANCH  11  12
ATOM     12  C   UNL     1      18.656 130.639  54.482  1.00  0.00    -0.000 C 
BRANCH  12  13
ATOM     13  C   UNL     1      18.445 129.149  54.145  1.00  0.00    -0.000 C 
BRANCH  13  14
ATOM     14  C   UNL     1      17.942 128.279  55.311  1.00  0.00    -0.000 C 
BRANCH  14  15
ATOM     15  C   UNL     1      16.532 127.713  55.068  1.00  0.00    -0.000 C 
BRANCH  15  16
ATOM     16  C   UNL     1      16.049 127.934  53.625  1.00  0.00    -0.000 C 
BRANCH  16  17
ATOM     17  C   UNL     1      14.867 128.911  53.538  1.00  0.00    -0.003 C 
ATOM     18  C   UNL     1      14.420 129.354  54.929  1.00  0.00     0.004 C 
ENDBRANCH  16  17
ENDBRANCH  15  16
ENDBRANCH  14  15
ENDBRANCH  13  14
ENDBRANCH  12  13
ENDBRANCH  11  12
ENDBRANCH   1  11
TORSDOF 14
ENDMDL
MODEL 7
REMARK VINA RESULT:    -3.665      5.198      7.252
REMARK INTER + INTRA:          -8.426
REMARK INTER:                  -5.988
REMARK INTRA:                  -2.438
REMARK UNBOUND:                -1.761
REMARK SMILES CCCCCCCCCCCCCCCC(=O)[O-]
REMARK SMILES IDX 9 1 10 2 11 3 12 4 13 5 14 6 15 7 16 8 17 9 18 10 8 11 7 12
REMARK SMILES IDX 6 13 5 14 4 15 3 16 2 17 1 18
REMARK H PARENT
REMARK Flexibility Score: inf
ROOT
ATOM      1  C   UNL     1      15.850 128.202  54.007  1.00  0.00     0.000 C 
ENDROOT
BRANCH   1   2
ATOM      2  C   UNL     1      16.757 128.142  52.760  1.00  0.00     0.000 C 
BRANCH   2   3
ATOM      3  C   UNL     1      17.181 129.508  52.189  1.00  0.00     0.000 C 
BRANCH   3   4
ATOM      4  C   UNL     1      16.388 130.681  52.791  1.00  0.00     0.000 C 
BRANCH   4   5
ATOM      5  C   UNL     1      16.829 132.049  52.239  1.00  0.00     0.000 C 
BRANCH   5   6
ATOM      6  C   UNL     1      18.045 132.683  52.945  1.00  0.00     0.006 C 
BRANCH   6   7
ATOM      7  C   UNL     1      17.695 133.571  54.150  1.00  0.00     0.053 C 
BRANCH   7   8
ATOM      8  C   UNL     1      18.035 135.009  53.905  1.00  0.00     0.041 C 
ATOM      9  O   UNL     1      18.695 135.658  54.758  1.00  0.00    -0.550 OA
ATOM     10  O   UNL     1      17.653 135.622  52.718  1.00  0.00    -0.550 OA
ENDBRANCH   7   8
ENDBRANCH   6   7
ENDBRANCH   5   6
ENDBRANCH   4   5
ENDBRANCH   3   4
ENDBRANCH   2   3
ENDBRANCH   1   2
BRANCH   1  11
ATOM     11  C   UNL     1      16.418 127.513  55.263  1.00  0.00     0.000 C 
BRANCH  11  12
ATOM     12  C   UNL     1      16.287 128.329  56.564  1.00  0.00    -0.000 C 
BRANCH  12  13
ATOM     13  C   UNL     1      15.763 129.768  56.383  1.00  0.00    -0.000 C 
BRANCH  13  14
ATOM     14  C   UNL     1      16.645 130.869  57.001  1.00  0.00    -0.000 C 
BRANCH  14  15
ATOM     15  C   UNL     1      18.067 130.381  57.327  1.00  0.00    -0.000 C 
BRANCH  15  16
ATOM     16  C   UNL     1      19.122 130.957  56.368  1.00  0.00    -0.000 C 
BRANCH  16  17
ATOM     17  C   UNL     1      19.327 130.085  55.120  1.00  0.00    -0.003 C 
ATOM     18  C   UNL     1      19.975 128.752  55.483  1.00  0.00     0.004 C 
ENDBRANCH  16  17
ENDBRANCH  15  16
ENDBRANCH  14  15
ENDBRANCH  13  14
ENDBRANCH  12  13
ENDBRANCH  11  12
ENDBRANCH   1  11
TORSDOF 14
ENDMDL
MODEL 8
REMARK VINA RESULT:    -3.665      4.786      7.123
REMARK INTER + INTRA:          -8.426
REMARK INTER:                  -6.041
REMARK INTRA:                  -2.385
REMARK UNBOUND:                -1.761
REMARK SMILES CCCCCCCCCCCCCCCC(=O)[O-]
REMARK SMILES IDX 9 1 10 2 11 3 12 4 13 5 14 6 15 7 16 8 17 9 18 10 8 11 7 12
REMARK SMILES IDX 6 13 5 14 4 15 3 16 2 17 1 18
REMARK H PARENT
REMARK Flexibility Score: inf
ROOT
ATOM      1  C   UNL     1      16.208 130.179  56.712  1.00  0.00     0.000 C 
ENDROOT
BRANCH   1   2
ATOM      2  C   UNL     1      15.405 129.116  55.935  1.00  0.00     0.000 C 
BRANCH   2   3
ATOM      3  C   UNL     1      16.093 127.744  55.797  1.00  0.00     0.000 C 
BRANCH   3   4
ATOM      4  C   UNL     1      16.933 127.622  54.515  1.00  0.00     0.000 C 
BRANCH   4   5
ATOM      5  C   UNL     1      16.150 128.005  53.246  1.00  0.00     0.000 C 
BRANCH   5   6
ATOM      6  C   UNL     1      16.867 128.991  52.301  1.00  0.00     0.006 C 
BRANCH   6   7
ATOM      7  C   UNL     1      16.788 130.464  52.734  1.00  0.00     0.053 C 
BRANCH   7   8
ATOM      8  C   UNL     1      16.824 131.396  51.563  1.00  0.00     0.041 C 
ATOM      9  O   UNL     1      16.779 132.641  51.742  1.00  0.00    -0.550 OA
ATOM     10  O   UNL     1      16.942 130.890  50.274  1.00  0.00    -0.550 OA
ENDBRANCH   7   8
ENDBRANCH   6   7
ENDBRANCH   5   6
ENDBRANCH   4   5
ENDBRANCH   3   4
ENDBRANCH   2   3
ENDBRANCH   1   2
BRANCH   1  11
ATOM     11  C   UNL     1      17.262 129.620  57.688  1.00  0.00     0.000 C 
BRANCH  11  12
ATOM     12  C   UNL     1      18.681 130.192  57.507  1.00  0.00    -0.000 C 
BRANCH  12  13
ATOM     13  C   UNL     1      19.582 129.408  56.532  1.00  0.00    -0.000 C 
BRANCH  13  14
ATOM     14  C   UNL     1      19.692 130.005  55.117  1.00  0.00    -0.000 C 
BRANCH  14  15
ATOM     15  C   UNL     1      20.292 131.422  55.112  1.00  0.00    -0.000 C 
BRANCH  15  16
ATOM     16  C   UNL     1      19.487 132.400  54.240  1.00  0.00    -0.000 C 
BRANCH  16  17
ATOM     17  C   UNL     1      18.853 133.537  55.055  1.00  0.00    -0.003 C 
ATOM     18  C   UNL     1      17.345 133.342  55.188  1.00  0.00     0.004 C 
ENDBRANCH  16  17
ENDBRANCH  15  16
ENDBRANCH  14  15
ENDBRANCH  13  14
ENDBRANCH  12  13
ENDBRANCH  11  12
ENDBRANCH   1  11
TORSDOF 14
ENDMDL
MODEL 9
REMARK VINA RESULT:    -3.646      4.490      7.927
REMARK INTER + INTRA:          -8.391
REMARK INTER:                  -5.981
REMARK INTRA:                  -2.410
REMARK UNBOUND:                -1.761
REMARK SMILES CCCCCCCCCCCCCCCC(=O)[O-]
REMARK SMILES IDX 9 1 10 2 11 3 12 4 13 5 14 6 15 7 16 8 17 9 18 10 8 11 7 12
REMARK SMILES IDX 6 13 5 14 4 15 3 16 2 17 1 18
REMARK H PARENT
REMARK Flexibility Score: inf
ROOT
ATOM      1  C   UNL     1      15.228 128.977  55.636  1.00  0.00     0.000 C 
ENDROOT
BRANCH   1   2
ATOM      2  C   UNL     1      15.602 129.816  56.875  1.00  0.00     0.000 C 
BRANCH   2   3
ATOM      3  C   UNL     1      16.844 129.331  57.647  1.00  0.00     0.000 C 
BRANCH   3   4
ATOM      4  C   UNL     1      18.094 130.182  57.366  1.00  0.00     0.000 C 
BRANCH   4   5
ATOM      5  C   UNL     1      19.154 129.434  56.538  1.00  0.00     0.000 C 
BRANCH   5   6
ATOM      6  C   UNL     1      19.246 129.850  55.055  1.00  0.00     0.006 C 
BRANCH   6   7
ATOM      7  C   UNL     1      18.558 131.183  54.720  1.00  0.00     0.053 C 
BRANCH   7   8
ATOM      8  C   UNL     1      19.530 132.321  54.677  1.00  0.00     0.041 C 
ATOM      9  O   UNL     1      19.133 133.483  54.401  1.00  0.00    -0.550 OA
ATOM     10  O   UNL     1      20.870 132.104  54.974  1.00  0.00    -0.550 OA
ENDBRANCH   7   8
ENDBRANCH   6   7
ENDBRANCH   5   6
ENDBRANCH   4   5
ENDBRANCH   3   4
ENDBRANCH   2   3
ENDBRANCH   1   2
BRANCH   1  11
ATOM     11  C   UNL     1      15.879 127.582  55.570  1.00  0.00     0.000 C 
BRANCH  11  12
ATOM     12  C   UNL     1      16.795 127.351  54.352  1.00  0.00    -0.000 C 
BRANCH  12  13
ATOM     13  C   UNL     1      16.229 127.849  53.007  1.00  0.00    -0.000 C 
BRANCH  13  14
ATOM     14  C   UNL     1      17.226 128.621  52.123  1.00  0.00    -0.000 C 
BRANCH  14  15
ATOM     15  C   UNL     1      16.584 129.821  51.406  1.00  0.00    -0.000 C 
BRANCH  15  16
ATOM     16  C   UNL     1      15.677 130.646  52.335  1.00  0.00    -0.000 C 
BRANCH  16  17
ATOM     17  C   UNL     1      14.246 130.786  51.794  1.00  0.00    -0.003 C 
ATOM     18  C   UNL     1      13.235 130.163  52.753  1.00  0.00     0.004 C 
ENDBRANCH  16  17
ENDBRANCH  15  16
ENDBRANCH  14  15
ENDBRANCH  13  14
ENDBRANCH  12  13
ENDBRANCH  11  12
ENDBRANCH   1  11
TORSDOF 14
ENDMDL
