MODEL 1
REMARK VINA RESULT:    -2.914      0.000      0.000
REMARK INTER + INTRA:          -7.811
REMARK INTER:                  -5.468
REMARK INTRA:                  -2.343
REMARK UNBOUND:                -2.343
REMARK SMILES O=C([O-])CCCCCCCCCCCCCCC(=O)[O-]
REMARK SMILES IDX 10 1 9 2 8 3 7 4 6 5 5 6 4 7 2 8 1 9 3 10 11 11 12 12 13 13
REMARK SMILES IDX 14 14 15 15 16 16 17 17 18 18 19 19 20 20
REMARK H PARENT
REMARK Flexibility Score: inf
ROOT
ATOM      1  C   UNL     1     147.827 165.794 153.773  1.00  0.00     0.000 C 
ENDROOT
BRANCH   1   2
ATOM      2  C   UNL     1     146.988 166.215 154.985  1.00  0.00     0.000 C 
BRANCH   2   3
ATOM      3  C   UNL     1     146.482 164.988 155.758  1.00  0.00     0.000 C 
BRANCH   3   4
ATOM      4  C   UNL     1     147.427 163.781 155.640  1.00  0.00     0.000 C 
BRANCH   4   5
ATOM      5  C   UNL     1     146.679 162.465 155.381  1.00  0.00     0.000 C 
BRANCH   5   6
ATOM      6  C   UNL     1     147.649 161.278 155.367  1.00  0.00     0.006 C 
BRANCH   6   7
ATOM      7  C   UNL     1     149.101 161.753 155.467  1.00  0.00     0.053 C 
BRANCH   7   8
ATOM      8  C   UNL     1     150.040 160.657 155.069  1.00  0.00     0.041 C 
ATOM      9  O   UNL     1     149.610 159.485 154.902  1.00  0.00    -0.550 OA
ATOM     10  O   UNL     1     151.397 160.919 154.934  1.00  0.00    -0.550 OA
ENDBRANCH   7   8
ENDBRANCH   6   7
ENDBRANCH   5   6
ENDBRANCH   4   5
ENDBRANCH   3   4
ENDBRANCH   2   3
ENDBRANCH   1   2
BRANCH   1  11
ATOM     11  C   UNL     1     147.178 166.264 152.464  1.00  0.00     0.000 C 
BRANCH  11  12
ATOM     12  C   UNL     1     145.892 165.490 152.120  1.00  0.00     0.000 C 
BRANCH  12  13
ATOM     13  C   UNL     1     146.018 163.956 152.196  1.00  0.00     0.000 C 
BRANCH  13  14
ATOM     14  C   UNL     1     146.487 163.275 150.896  1.00  0.00     0.000 C 
BRANCH  14  15
ATOM     15  C   UNL     1     148.023 163.200 150.754  1.00  0.00     0.000 C 
BRANCH  15  16
ATOM     16  C   UNL     1     148.683 162.427 151.909  1.00  0.00     0.006 C 
BRANCH  16  17
ATOM     17  C   UNL     1     148.757 160.919 151.630  1.00  0.00     0.053 C 
BRANCH  17  18
ATOM     18  C   UNL     1     150.142 160.494 151.250  1.00  0.00     0.041 C 
ATOM     19  O   UNL     1     150.786 161.141 150.382  1.00  0.00    -0.550 OA
ATOM     20  O   UNL     1     150.708 159.363 151.825  1.00  0.00    -0.550 OA
ENDBRANCH  17  18
ENDBRANCH  16  17
ENDBRANCH  15  16
ENDBRANCH  14  15
ENDBRANCH  13  14
ENDBRANCH  12  13
ENDBRANCH  11  12
ENDBRANCH   1  11
TORSDOF 15
ENDMDL
MODEL 2
REMARK VINA RESULT:    -2.887      1.508      4.287
REMARK INTER + INTRA:          -7.761
REMARK INTER:                  -5.561
REMARK INTRA:                  -2.200
REMARK UNBOUND:                -2.343
REMARK SMILES O=C([O-])CCCCCCCCCCCCCCC(=O)[O-]
REMARK SMILES IDX 10 1 9 2 8 3 7 4 6 5 5 6 4 7 2 8 1 9 3 10 11 11 12 12 13 13
REMARK SMILES IDX 14 14 15 15 16 16 17 17 18 18 19 19 20 20
REMARK H PARENT
REMARK Flexibility Score: inf
ROOT
ATOM      1  C   UNL     1     145.941 163.839 152.202  1.00  0.00     0.000 C 
ENDROOT
BRANCH   1   2
ATOM      2  C   UNL     1     146.633 162.976 151.141  1.00  0.00     0.000 C 
BRANCH   2   3
ATOM      3  C   UNL     1     147.940 163.630 150.666  1.00  0.00     0.000 C 
BRANCH   3   4
ATOM      4  C   UNL     1     149.169 163.133 151.445  1.00  0.00     0.000 C 
BRANCH   4   5
ATOM      5  C   UNL     1     149.722 161.808 150.899  1.00  0.00     0.000 C 
BRANCH   5   6
ATOM      6  C   UNL     1     149.326 160.635 151.802  1.00  0.00     0.006 C 
BRANCH   6   7
ATOM      7  C   UNL     1     150.375 160.404 152.894  1.00  0.00     0.053 C 
BRANCH   7   8
ATOM      8  C   UNL     1     151.046 159.079 152.705  1.00  0.00     0.041 C 
ATOM      9  O   UNL     1     151.506 158.759 151.578  1.00  0.00    -0.550 OA
ATOM     10  O   UNL     1     151.116 158.179 153.760  1.00  0.00    -0.550 OA
ENDBRANCH   7   8
ENDBRANCH   6   7
ENDBRANCH   5   6
ENDBRANCH   4   5
ENDBRANCH   3   4
ENDBRANCH   2   3
ENDBRANCH   1   2
BRANCH   1  11
ATOM     11  C   UNL     1     146.188 165.332 151.945  1.00  0.00     0.000 C 
BRANCH  11  12
ATOM     12  C   UNL     1     146.972 166.016 153.081  1.00  0.00     0.000 C 
BRANCH  12  13
ATOM     13  C   UNL     1     146.470 165.693 154.501  1.00  0.00     0.000 C 
BRANCH  13  14
ATOM     14  C   UNL     1     147.562 165.257 155.495  1.00  0.00     0.000 C 
BRANCH  14  15
ATOM     15  C   UNL     1     148.774 164.573 154.825  1.00  0.00     0.000 C 
BRANCH  15  16
ATOM     16  C   UNL     1     148.965 163.122 155.297  1.00  0.00     0.006 C 
BRANCH  16  17
ATOM     17  C   UNL     1     147.817 162.209 154.847  1.00  0.00     0.053 C 
BRANCH  17  18
ATOM     18  C   UNL     1     147.581 161.094 155.821  1.00  0.00     0.041 C 
ATOM     19  O   UNL     1     148.093 159.961 155.620  1.00  0.00    -0.550 OA
ATOM     20  O   UNL     1     146.768 161.296 156.928  1.00  0.00    -0.550 OA
ENDBRANCH  17  18
ENDBRANCH  16  17
ENDBRANCH  15  16
ENDBRANCH  14  15
ENDBRANCH  13  14
ENDBRANCH  12  13
ENDBRANCH  11  12
ENDBRANCH   1  11
TORSDOF 15
ENDMDL
MODEL 3
REMARK VINA RESULT:    -2.867      2.196      2.769
REMARK INTER + INTRA:          -7.725
REMARK INTER:                  -5.365
REMARK INTRA:                  -2.360
REMARK UNBOUND:                -2.343
REMARK SMILES O=C([O-])CCCCCCCCCCCCCCC(=O)[O-]
REMARK SMILES IDX 10 1 9 2 8 3 7 4 6 5 5 6 4 7 2 8 1 9 3 10 11 11 12 12 13 13
REMARK SMILES IDX 14 14 15 15 16 16 17 17 18 18 19 19 20 20
REMARK H PARENT
REMARK Flexibility Score: inf
ROOT
ATOM      1  C   UNL     1     146.359 165.748 153.510  1.00  0.00     0.000 C 
ENDROOT
BRANCH   1   2
ATOM      2  C   UNL     1     146.630 166.134 154.969  1.00  0.00     0.000 C 
BRANCH   2   3
ATOM      3  C   UNL     1     147.452 165.049 155.682  1.00  0.00     0.000 C 
BRANCH   3   4
ATOM      4  C   UNL     1     147.255 163.655 155.065  1.00  0.00     0.000 C 
BRANCH   4   5
ATOM      5  C   UNL     1     148.572 162.879 154.921  1.00  0.00     0.000 C 
BRANCH   5   6
ATOM      6  C   UNL     1     149.771 163.834 154.902  1.00  0.00     0.006 C 
BRANCH   6   7
ATOM      7  C   UNL     1     150.217 164.129 153.467  1.00  0.00     0.053 C 
BRANCH   7   8
ATOM      8  C   UNL     1     151.259 165.203 153.452  1.00  0.00     0.041 C 
ATOM      9  O   UNL     1     152.451 164.934 153.754  1.00  0.00    -0.550 OA
ATOM     10  O   UNL     1     150.903 166.512 153.154  1.00  0.00    -0.550 OA
ENDBRANCH   7   8
ENDBRANCH   6   7
ENDBRANCH   5   6
ENDBRANCH   4   5
ENDBRANCH   3   4
ENDBRANCH   2   3
ENDBRANCH   1   2
BRANCH   1  11
ATOM     11  C   UNL     1     147.403 166.372 152.573  1.00  0.00     0.000 C 
BRANCH  11  12
ATOM     12  C   UNL     1     147.130 166.074 151.087  1.00  0.00     0.000 C 
BRANCH  12  13
ATOM     13  C   UNL     1     146.377 164.758 150.817  1.00  0.00     0.000 C 
BRANCH  13  14
ATOM     14  C   UNL     1     147.236 163.483 150.911  1.00  0.00     0.000 C 
BRANCH  14  15
ATOM     15  C   UNL     1     146.529 162.310 151.623  1.00  0.00     0.000 C 
BRANCH  15  16
ATOM     16  C   UNL     1     147.447 161.087 151.792  1.00  0.00     0.006 C 
BRANCH  16  17
ATOM     17  C   UNL     1     148.904 161.398 151.423  1.00  0.00     0.053 C 
BRANCH  17  18
ATOM     18  C   UNL     1     149.846 160.371 151.972  1.00  0.00     0.041 C 
ATOM     19  O   UNL     1     149.791 160.048 153.189  1.00  0.00    -0.550 OA
ATOM     20  O   UNL     1     150.808 159.797 151.151  1.00  0.00    -0.550 OA
ENDBRANCH  17  18
ENDBRANCH  16  17
ENDBRANCH  15  16
ENDBRANCH  14  15
ENDBRANCH  13  14
ENDBRANCH  12  13
ENDBRANCH  11  12
ENDBRANCH   1  11
TORSDOF 15
ENDMDL
MODEL 4
REMARK VINA RESULT:    -2.836      2.840      5.772
REMARK INTER + INTRA:          -7.666
REMARK INTER:                  -5.153
REMARK INTRA:                  -2.513
REMARK UNBOUND:                -2.343
REMARK SMILES O=C([O-])CCCCCCCCCCCCCCC(=O)[O-]
REMARK SMILES IDX 10 1 9 2 8 3 7 4 6 5 5 6 4 7 2 8 1 9 3 10 11 11 12 12 13 13
REMARK SMILES IDX 14 14 15 15 16 16 17 17 18 18 19 19 20 20
REMARK H PARENT
REMARK Flexibility Score: inf
ROOT
ATOM      1  C   UNL     1     149.106 164.877 152.975  1.00  0.00     0.000 C 
ENDROOT
BRANCH   1   2
ATOM      2  C   UNL     1     148.218 166.011 152.447  1.00  0.00     0.000 C 
BRANCH   2   3
ATOM      3  C   UNL     1     146.734 165.617 152.497  1.00  0.00     0.000 C 
BRANCH   3   4
ATOM      4  C   UNL     1     146.076 165.610 151.108  1.00  0.00     0.000 C 
BRANCH   4   5
ATOM      5  C   UNL     1     146.644 164.518 150.189  1.00  0.00     0.000 C 
BRANCH   5   6
ATOM      6  C   UNL     1     147.230 165.129 148.910  1.00  0.00     0.006 C 
BRANCH   6   7
ATOM      7  C   UNL     1     148.587 164.503 148.575  1.00  0.00     0.053 C 
BRANCH   7   8
ATOM      8  C   UNL     1     148.720 164.301 147.098  1.00  0.00     0.041 C 
ATOM      9  O   UNL     1     147.693 164.220 146.375  1.00  0.00    -0.550 OA
ATOM     10  O   UNL     1     149.978 164.152 146.527  1.00  0.00    -0.550 OA
ENDBRANCH   7   8
ENDBRANCH   6   7
ENDBRANCH   5   6
ENDBRANCH   4   5
ENDBRANCH   3   4
ENDBRANCH   2   3
ENDBRANCH   1   2
BRANCH   1  11
ATOM     11  C   UNL     1     150.115 164.427 151.910  1.00  0.00     0.000 C 
BRANCH  11  12
ATOM     12  C   UNL     1     150.378 162.910 151.935  1.00  0.00     0.000 C 
BRANCH  12  13
ATOM     13  C   UNL     1     149.401 162.068 151.092  1.00  0.00     0.000 C 
BRANCH  13  14
ATOM     14  C   UNL     1     148.530 161.083 151.894  1.00  0.00     0.000 C 
BRANCH  14  15
ATOM     15  C   UNL     1     147.020 161.401 151.837  1.00  0.00     0.000 C 
BRANCH  15  16
ATOM     16  C   UNL     1     146.513 162.076 153.123  1.00  0.00     0.006 C 
BRANCH  16  17
ATOM     17  C   UNL     1     147.467 161.862 154.306  1.00  0.00     0.053 C 
BRANCH  17  18
ATOM     18  C   UNL     1     146.981 162.557 155.542  1.00  0.00     0.041 C 
ATOM     19  O   UNL     1     146.944 163.815 155.587  1.00  0.00    -0.550 OA
ATOM     20  O   UNL     1     146.605 161.818 156.656  1.00  0.00    -0.550 OA
ENDBRANCH  17  18
ENDBRANCH  16  17
ENDBRANCH  15  16
ENDBRANCH  14  15
ENDBRANCH  13  14
ENDBRANCH  12  13
ENDBRANCH  11  12
ENDBRANCH   1  11
TORSDOF 15
ENDMDL
MODEL 5
REMARK VINA RESULT:    -2.822      7.360      9.835
REMARK INTER + INTRA:          -7.639
REMARK INTER:                  -5.006
REMARK INTRA:                  -2.633
REMARK UNBOUND:                -2.343
REMARK SMILES O=C([O-])CCCCCCCCCCCCCCC(=O)[O-]
REMARK SMILES IDX 10 1 9 2 8 3 7 4 6 5 5 6 4 7 2 8 1 9 3 10 11 11 12 12 13 13
REMARK SMILES IDX 14 14 15 15 16 16 17 17 18 18 19 19 20 20
REMARK H PARENT
REMARK Flexibility Score: inf
ROOT
ATOM      1  C   UNL     1     146.152 159.876 161.792  1.00  0.00     0.000 C 
ENDROOT
BRANCH   1   2
ATOM      2  C   UNL     1     146.229 160.528 160.406  1.00  0.00     0.000 C 
BRANCH   2   3
ATOM      3  C   UNL     1     146.380 159.467 159.305  1.00  0.00     0.000 C 
BRANCH   3   4
ATOM      4  C   UNL     1     147.576 159.740 158.379  1.00  0.00     0.000 C 
BRANCH   4   5
ATOM      5  C   UNL     1     148.462 158.501 158.173  1.00  0.00     0.000 C 
BRANCH   5   6
ATOM      6  C   UNL     1     147.864 157.278 158.877  1.00  0.00     0.006 C 
BRANCH   6   7
ATOM      7  C   UNL     1     148.876 156.130 158.939  1.00  0.00     0.053 C 
BRANCH   7   8
ATOM      8  C   UNL     1     148.380 155.042 159.838  1.00  0.00     0.041 C 
ATOM      9  O   UNL     1     148.932 154.840 160.952  1.00  0.00    -0.550 OA
ATOM     10  O   UNL     1     147.342 154.217 159.425  1.00  0.00    -0.550 OA
ENDBRANCH   7   8
ENDBRANCH   6   7
ENDBRANCH   5   6
ENDBRANCH   4   5
ENDBRANCH   3   4
ENDBRANCH   2   3
ENDBRANCH   1   2
BRANCH   1  11
ATOM     11  C   UNL     1     145.893 158.367 161.676  1.00  0.00     0.000 C 
BRANCH  11  12
ATOM     12  C   UNL     1     146.931 157.519 162.434  1.00  0.00     0.000 C 
BRANCH  12  13
ATOM     13  C   UNL     1     148.132 158.308 162.990  1.00  0.00     0.000 C 
BRANCH  13  14
ATOM     14  C   UNL     1     149.463 158.076 162.251  1.00  0.00     0.000 C 
BRANCH  14  15
ATOM     15  C   UNL     1     149.904 159.269 161.376  1.00  0.00     0.000 C 
BRANCH  15  16
ATOM     16  C   UNL     1     149.631 160.625 162.051  1.00  0.00     0.006 C 
BRANCH  16  17
ATOM     17  C   UNL     1     150.665 160.952 163.137  1.00  0.00     0.053 C 
BRANCH  17  18
ATOM     18  C   UNL     1     151.893 161.586 162.558  1.00  0.00     0.041 C 
ATOM     19  O   UNL     1     151.877 162.797 162.212  1.00  0.00    -0.550 OA
ATOM     20  O   UNL     1     153.043 160.832 162.367  1.00  0.00    -0.550 OA
ENDBRANCH  17  18
ENDBRANCH  16  17
ENDBRANCH  15  16
ENDBRANCH  14  15
ENDBRANCH  13  14
ENDBRANCH  12  13
ENDBRANCH  11  12
ENDBRANCH   1  11
TORSDOF 15
ENDMDL
MODEL 6
REMARK VINA RESULT:    -2.805      1.834      4.706
REMARK INTER + INTRA:          -7.607
REMARK INTER:                  -5.656
REMARK INTRA:                  -1.951
REMARK UNBOUND:                -2.343
REMARK SMILES O=C([O-])CCCCCCCCCCCCCCC(=O)[O-]
REMARK SMILES IDX 10 1 9 2 8 3 7 4 6 5 5 6 4 7 2 8 1 9 3 10 11 11 12 12 13 13
REMARK SMILES IDX 14 14 15 15 16 16 17 17 18 18 19 19 20 20
REMARK H PARENT
REMARK Flexibility Score: inf
ROOT
ATOM      1  C   UNL     1     147.035 166.205 153.727  1.00  0.00     0.000 C 
ENDROOT
BRANCH   1   2
ATOM      2  C   UNL     1     146.032 165.397 152.894  1.00  0.00     0.000 C 
BRANCH   2   3
ATOM      3  C   UNL     1     146.477 165.311 151.426  1.00  0.00     0.000 C 
BRANCH   3   4
ATOM      4  C   UNL     1     146.323 163.898 150.842  1.00  0.00     0.000 C 
BRANCH   4   5
ATOM      5  C   UNL     1     146.691 162.797 151.847  1.00  0.00     0.000 C 
BRANCH   5   6
ATOM      6  C   UNL     1     148.196 162.504 151.812  1.00  0.00     0.006 C 
BRANCH   6   7
ATOM      7  C   UNL     1     148.462 160.997 151.764  1.00  0.00     0.053 C 
BRANCH   7   8
ATOM      8  C   UNL     1     149.846 160.693 152.247  1.00  0.00     0.041 C 
ATOM      9  O   UNL     1     150.026 159.836 153.152  1.00  0.00    -0.550 OA
ATOM     10  O   UNL     1     150.930 161.392 151.733  1.00  0.00    -0.550 OA
ENDBRANCH   7   8
ENDBRANCH   6   7
ENDBRANCH   5   6
ENDBRANCH   4   5
ENDBRANCH   3   4
ENDBRANCH   2   3
ENDBRANCH   1   2
BRANCH   1  11
ATOM     11  C   UNL     1     146.902 165.875 155.220  1.00  0.00     0.000 C 
BRANCH  11  12
ATOM     12  C   UNL     1     147.154 164.388 155.532  1.00  0.00     0.000 C 
BRANCH  12  13
ATOM     13  C   UNL     1     148.578 163.891 155.215  1.00  0.00     0.000 C 
BRANCH  13  14
ATOM     14  C   UNL     1     148.821 162.394 155.483  1.00  0.00     0.000 C 
BRANCH  14  15
ATOM     15  C   UNL     1     147.543 161.532 155.388  1.00  0.00     0.000 C 
BRANCH  15  16
ATOM     16  C   UNL     1     147.782 160.078 155.831  1.00  0.00     0.006 C 
BRANCH  16  17
ATOM     17  C   UNL     1     147.014 159.728 157.112  1.00  0.00     0.053 C 
BRANCH  17  18
ATOM     18  C   UNL     1     147.752 158.724 157.944  1.00  0.00     0.041 C 
ATOM     19  O   UNL     1     148.978 158.515 157.743  1.00  0.00    -0.550 OA
ATOM     20  O   UNL     1     147.080 157.992 158.915  1.00  0.00    -0.550 OA
ENDBRANCH  17  18
ENDBRANCH  16  17
ENDBRANCH  15  16
ENDBRANCH  14  15
ENDBRANCH  13  14
ENDBRANCH  12  13
ENDBRANCH  11  12
ENDBRANCH   1  11
TORSDOF 15
ENDMDL
MODEL 7
REMARK VINA RESULT:    -2.800      1.316      4.248
REMARK INTER + INTRA:          -7.599
REMARK INTER:                  -5.453
REMARK INTRA:                  -2.146
REMARK UNBOUND:                -2.343
REMARK SMILES O=C([O-])CCCCCCCCCCCCCCC(=O)[O-]
REMARK SMILES IDX 10 1 9 2 8 3 7 4 6 5 5 6 4 7 2 8 1 9 3 10 11 11 12 12 13 13
REMARK SMILES IDX 14 14 15 15 16 16 17 17 18 18 19 19 20 20
REMARK H PARENT
REMARK Flexibility Score: inf
ROOT
ATOM      1  C   UNL     1     147.195 165.747 153.728  1.00  0.00     0.000 C 
ENDROOT
BRANCH   1   2
ATOM      2  C   UNL     1     145.875 165.218 153.152  1.00  0.00     0.000 C 
BRANCH   2   3
ATOM      3  C   UNL     1     145.961 165.069 151.626  1.00  0.00     0.000 C 
BRANCH   3   4
ATOM      4  C   UNL     1     146.429 163.670 151.192  1.00  0.00     0.000 C 
BRANCH   4   5
ATOM      5  C   UNL     1     145.912 162.558 152.117  1.00  0.00     0.000 C 
BRANCH   5   6
ATOM      6  C   UNL     1     147.044 161.604 152.513  1.00  0.00     0.006 C 
BRANCH   6   7
ATOM      7  C   UNL     1     148.359 162.363 152.710  1.00  0.00     0.053 C 
BRANCH   7   8
ATOM      8  C   UNL     1     149.439 161.770 151.861  1.00  0.00     0.041 C 
ATOM      9  O   UNL     1     150.300 161.007 152.373  1.00  0.00    -0.550 OA
ATOM     10  O   UNL     1     149.525 162.099 150.514  1.00  0.00    -0.550 OA
ENDBRANCH   7   8
ENDBRANCH   6   7
ENDBRANCH   5   6
ENDBRANCH   4   5
ENDBRANCH   3   4
ENDBRANCH   2   3
ENDBRANCH   1   2
BRANCH   1  11
ATOM     11  C   UNL     1     147.219 165.620 155.257  1.00  0.00     0.000 C 
BRANCH  11  12
ATOM     12  C   UNL     1     146.234 164.561 155.787  1.00  0.00     0.000 C 
BRANCH  12  13
ATOM     13  C   UNL     1     146.847 163.169 156.028  1.00  0.00     0.000 C 
BRANCH  13  14
ATOM     14  C   UNL     1     146.130 162.316 157.092  1.00  0.00     0.000 C 
BRANCH  14  15
ATOM     15  C   UNL     1     146.622 160.854 157.150  1.00  0.00     0.000 C 
BRANCH  15  16
ATOM     16  C   UNL     1     147.641 160.532 156.043  1.00  0.00     0.006 C 
BRANCH  16  17
ATOM     17  C   UNL     1     148.962 159.995 156.609  1.00  0.00     0.053 C 
BRANCH  17  18
ATOM     18  C   UNL     1     150.142 160.496 155.832  1.00  0.00     0.041 C 
ATOM     19  O   UNL     1     150.956 159.681 155.323  1.00  0.00    -0.550 OA
ATOM     20  O   UNL     1     150.362 161.860 155.701  1.00  0.00    -0.550 OA
ENDBRANCH  17  18
ENDBRANCH  16  17
ENDBRANCH  15  16
ENDBRANCH  14  15
ENDBRANCH  13  14
ENDBRANCH  12  13
ENDBRANCH  11  12
ENDBRANCH   1  11
TORSDOF 15
ENDMDL
MODEL 8
REMARK VINA RESULT:    -2.792      7.520     10.847
REMARK INTER + INTRA:          -7.583
REMARK INTER:                  -5.072
REMARK INTRA:                  -2.511
REMARK UNBOUND:                -2.343
REMARK SMILES O=C([O-])CCCCCCCCCCCCCCC(=O)[O-]
REMARK SMILES IDX 10 1 9 2 8 3 7 4 6 5 5 6 4 7 2 8 1 9 3 10 11 11 12 12 13 13
REMARK SMILES IDX 14 14 15 15 16 16 17 17 18 18 19 19 20 20
REMARK H PARENT
REMARK Flexibility Score: inf
ROOT
ATOM      1  C   UNL     1     145.914 156.106 160.935  1.00  0.00     0.000 C 
ENDROOT
BRANCH   1   2
ATOM      2  C   UNL     1     146.323 154.713 160.442  1.00  0.00     0.000 C 
BRANCH   2   3
ATOM      3  C   UNL     1     147.664 154.765 159.694  1.00  0.00     0.000 C 
BRANCH   3   4
ATOM      4  C   UNL     1     148.849 155.078 160.624  1.00  0.00     0.000 C 
BRANCH   4   5
ATOM      5  C   UNL     1     149.839 156.077 160.007  1.00  0.00     0.000 C 
BRANCH   5   6
ATOM      6  C   UNL     1     149.301 156.636 158.685  1.00  0.00     0.006 C 
BRANCH   6   7
ATOM      7  C   UNL     1     150.413 157.321 157.885  1.00  0.00     0.053 C 
BRANCH   7   8
ATOM      8  C   UNL     1     150.325 158.808 158.032  1.00  0.00     0.041 C 
ATOM      9  O   UNL     1     149.998 159.524 157.050  1.00  0.00    -0.550 OA
ATOM     10  O   UNL     1     150.655 159.407 159.242  1.00  0.00    -0.550 OA
ENDBRANCH   7   8
ENDBRANCH   6   7
ENDBRANCH   5   6
ENDBRANCH   4   5
ENDBRANCH   3   4
ENDBRANCH   2   3
ENDBRANCH   1   2
BRANCH   1  11
ATOM     11  C   UNL     1     145.875 157.111 159.775  1.00  0.00     0.000 C 
BRANCH  11  12
ATOM     12  C   UNL     1     145.899 158.576 160.249  1.00  0.00     0.000 C 
BRANCH  12  13
ATOM     13  C   UNL     1     147.307 159.168 160.453  1.00  0.00     0.000 C 
BRANCH  13  14
ATOM     14  C   UNL     1     147.694 159.438 161.919  1.00  0.00     0.000 C 
BRANCH  14  15
ATOM     15  C   UNL     1     148.941 158.655 162.385  1.00  0.00     0.000 C 
BRANCH  15  16
ATOM     16  C   UNL     1     148.608 157.611 163.465  1.00  0.00     0.006 C 
BRANCH  16  17
ATOM     17  C   UNL     1     147.163 157.733 163.966  1.00  0.00     0.053 C 
BRANCH  17  18
ATOM     18  C   UNL     1     146.762 156.550 164.794  1.00  0.00     0.041 C 
ATOM     19  O   UNL     1     146.725 155.401 164.279  1.00  0.00    -0.550 OA
ATOM     20  O   UNL     1     146.393 156.721 166.122  1.00  0.00    -0.550 OA
ENDBRANCH  17  18
ENDBRANCH  16  17
ENDBRANCH  15  16
ENDBRANCH  14  15
ENDBRANCH  13  14
ENDBRANCH  12  13
ENDBRANCH  11  12
ENDBRANCH   1  11
TORSDOF 15
ENDMDL
MODEL 9
REMARK VINA RESULT:    -2.768      1.872      2.339
REMARK INTER + INTRA:          -7.538
REMARK INTER:                  -5.000
REMARK INTRA:                  -2.538
REMARK UNBOUND:                -2.343
REMARK SMILES O=C([O-])CCCCCCCCCCCCCCC(=O)[O-]
REMARK SMILES IDX 10 1 9 2 8 3 7 4 6 5 5 6 4 7 2 8 1 9 3 10 11 11 12 12 13 13
REMARK SMILES IDX 14 14 15 15 16 16 17 17 18 18 19 19 20 20
REMARK H PARENT
REMARK Flexibility Score: inf
ROOT
ATOM      1  C   UNL     1     147.059 165.938 153.884  1.00  0.00     0.000 C 
ENDROOT
BRANCH   1   2
ATOM      2  C   UNL     1     147.971 165.114 154.801  1.00  0.00     0.000 C 
BRANCH   2   3
ATOM      3  C   UNL     1     147.195 163.965 155.462  1.00  0.00     0.000 C 
BRANCH   3   4
ATOM      4  C   UNL     1     148.083 162.748 155.769  1.00  0.00     0.000 C 
BRANCH   4   5
ATOM      5  C   UNL     1     147.326 161.417 155.655  1.00  0.00     0.000 C 
BRANCH   5   6
ATOM      6  C   UNL     1     148.282 160.273 155.294  1.00  0.00     0.006 C 
BRANCH   6   7
ATOM      7  C   UNL     1     149.634 160.446 155.992  1.00  0.00     0.053 C 
BRANCH   7   8
ATOM      8  C   UNL     1     149.836 159.372 157.016  1.00  0.00     0.041 C 
ATOM      9  O   UNL     1     149.320 159.482 158.159  1.00  0.00    -0.550 OA
ATOM     10  O   UNL     1     150.637 158.276 156.724  1.00  0.00    -0.550 OA
ENDBRANCH   7   8
ENDBRANCH   6   7
ENDBRANCH   5   6
ENDBRANCH   4   5
ENDBRANCH   3   4
ENDBRANCH   2   3
ENDBRANCH   1   2
BRANCH   1  11
ATOM     11  C   UNL     1     145.955 165.062 153.275  1.00  0.00     0.000 C 
BRANCH  11  12
ATOM     12  C   UNL     1     146.010 165.011 151.737  1.00  0.00     0.000 C 
BRANCH  12  13
ATOM     13  C   UNL     1     146.159 163.599 151.140  1.00  0.00     0.000 C 
BRANCH  13  14
ATOM     14  C   UNL     1     146.158 162.452 152.168  1.00  0.00     0.000 C 
BRANCH  14  15
ATOM     15  C   UNL     1     147.232 161.376 151.899  1.00  0.00     0.000 C 
BRANCH  15  16
ATOM     16  C   UNL     1     148.547 161.977 151.373  1.00  0.00     0.006 C 
BRANCH  16  17
ATOM     17  C   UNL     1     149.428 162.526 152.504  1.00  0.00     0.053 C 
BRANCH  17  18
ATOM     18  C   UNL     1     150.171 163.756 152.080  1.00  0.00     0.041 C 
ATOM     19  O   UNL     1     151.411 163.846 152.277  1.00  0.00    -0.550 OA
ATOM     20  O   UNL     1     149.488 164.819 151.502  1.00  0.00    -0.550 OA
ENDBRANCH  17  18
ENDBRANCH  16  17
ENDBRANCH  15  16
ENDBRANCH  14  15
ENDBRANCH  13  14
ENDBRANCH  12  13
ENDBRANCH  11  12
ENDBRANCH   1  11
TORSDOF 15
ENDMDL
