MODEL 1
REMARK VINA RESULT:    -4.671      0.000      0.000
REMARK INTER + INTRA:          -5.399
REMARK INTER:                  -5.354
REMARK INTRA:                  -0.045
REMARK UNBOUND:                -0.045
REMARK SMILES O=C([O-])c1cc(O)c(O)c(O)c1
REMARK SMILES IDX 4 1 5 2 12 3 6 4 10 5 8 6 2 7 1 8 3 9 7 10 11 12 9 14
REMARK H PARENT 7 11 11 13 9 15
REMARK Flexibility Score: inf
ROOT
ATOM      1  C   UNL     1      10.082 -16.584   7.906  1.00  0.00     0.005 A 
ATOM      2  C   UNL     1      10.897 -15.483   7.598  1.00  0.00     0.060 A 
ATOM      3  C   UNL     1      10.680 -17.764   8.383  1.00  0.00     0.060 A 
ATOM      4  C   UNL     1      12.287 -15.556   7.763  1.00  0.00     0.162 A 
ATOM      5  C   UNL     1      12.070 -17.843   8.550  1.00  0.00     0.162 A 
ATOM      6  C   UNL     1      12.876 -16.736   8.238  1.00  0.00     0.200 A 
ENDROOT
BRANCH   1   7
ATOM      7  C   UNL     1       8.615 -16.500   7.730  1.00  0.00     0.072 C 
ATOM      8  O   UNL     1       7.877 -16.115   8.675  1.00  0.00    -0.545 OA
ATOM      9  O   UNL     1       8.031 -16.848   6.517  1.00  0.00    -0.545 OA
ENDBRANCH   1   7
BRANCH   4  10
ATOM     10  O   UNL     1      13.092 -14.460   7.456  1.00  0.00    -0.504 OA
ATOM     11  H   UNL     1      12.720 -13.518   7.435  1.00  0.00     0.293 HD
ENDBRANCH   4  10
BRANCH   5  12
ATOM     12  O   UNL     1      12.652 -19.018   9.023  1.00  0.00    -0.504 OA
ATOM     13  H   UNL     1      13.650 -19.181   8.955  1.00  0.00     0.293 HD
ENDBRANCH   5  12
BRANCH   6  14
ATOM     14  O   UNL     1      14.261 -16.789   8.396  1.00  0.00    -0.502 OA
ATOM     15  H   UNL     1      14.834 -15.954   8.415  1.00  0.00     0.293 HD
ENDBRANCH   6  14
TORSDOF 4
ENDMDL
MODEL 2
REMARK VINA RESULT:    -4.648      0.049      2.422
REMARK INTER + INTRA:          -5.372
REMARK INTER:                  -5.327
REMARK INTRA:                  -0.045
REMARK UNBOUND:                -0.045
REMARK SMILES O=C([O-])c1cc(O)c(O)c(O)c1
REMARK SMILES IDX 4 1 5 2 12 3 6 4 10 5 8 6 2 7 1 8 3 9 7 10 11 12 9 14
REMARK H PARENT 7 11 11 13 9 15
REMARK Flexibility Score: inf
ROOT
ATOM      1  C   UNL     1      10.109 -16.553   7.885  1.00  0.00     0.005 A 
ATOM      2  C   UNL     1      10.712 -17.733   8.352  1.00  0.00     0.060 A 
ATOM      3  C   UNL     1      10.922 -15.446   7.583  1.00  0.00     0.060 A 
ATOM      4  C   UNL     1      12.102 -17.808   8.515  1.00  0.00     0.162 A 
ATOM      5  C   UNL     1      12.313 -15.515   7.744  1.00  0.00     0.162 A 
ATOM      6  C   UNL     1      12.905 -16.700   8.212  1.00  0.00     0.200 A 
ENDROOT
BRANCH   1   7
ATOM      7  C   UNL     1       8.642 -16.480   7.715  1.00  0.00     0.072 C 
ATOM      8  O   UNL     1       7.904 -16.100   8.662  1.00  0.00    -0.545 OA
ATOM      9  O   UNL     1       8.055 -16.833   6.504  1.00  0.00    -0.545 OA
ENDBRANCH   1   7
BRANCH   4  10
ATOM     10  O   UNL     1      12.695 -18.982   8.979  1.00  0.00    -0.504 OA
ATOM     11  H   UNL     1      13.698 -19.119   8.945  1.00  0.00     0.293 HD
ENDBRANCH   4  10
BRANCH   5  12
ATOM     12  O   UNL     1      13.108 -14.411   7.441  1.00  0.00    -0.504 OA
ATOM     13  H   UNL     1      13.447 -14.242   6.501  1.00  0.00     0.293 HD
ENDBRANCH   5  12
BRANCH   6  14
ATOM     14  O   UNL     1      14.287 -16.794   8.380  1.00  0.00    -0.502 OA
ATOM     15  H   UNL     1      14.702 -17.326   9.136  1.00  0.00     0.293 HD
ENDBRANCH   6  14
TORSDOF 4
ENDMDL
MODEL 3
REMARK VINA RESULT:    -4.331      1.319      2.687
REMARK INTER + INTRA:          -5.009
REMARK INTER:                  -4.956
REMARK INTRA:                  -0.053
REMARK UNBOUND:                -0.045
REMARK SMILES O=C([O-])c1cc(O)c(O)c(O)c1
REMARK SMILES IDX 4 1 5 2 12 3 6 4 10 5 8 6 2 7 1 8 3 9 7 10 11 12 9 14
REMARK H PARENT 7 11 11 13 9 15
REMARK Flexibility Score: inf
ROOT
ATOM      1  C   UNL     1       9.846 -17.112   7.859  1.00  0.00     0.005 A 
ATOM      2  C   UNL     1      10.675 -18.192   7.515  1.00  0.00     0.060 A 
ATOM      3  C   UNL     1      10.379 -15.810   7.841  1.00  0.00     0.060 A 
ATOM      4  C   UNL     1      12.014 -17.979   7.159  1.00  0.00     0.162 A 
ATOM      5  C   UNL     1      11.717 -15.591   7.487  1.00  0.00     0.162 A 
ATOM      6  C   UNL     1      12.538 -16.679   7.145  1.00  0.00     0.200 A 
ENDROOT
BRANCH   1   7
ATOM      7  C   UNL     1       8.433 -17.343   8.233  1.00  0.00     0.072 C 
ATOM      8  O   UNL     1       7.967 -18.511   8.288  1.00  0.00    -0.545 OA
ATOM      9  O   UNL     1       7.598 -16.270   8.528  1.00  0.00    -0.545 OA
ENDBRANCH   1   7
BRANCH   4  10
ATOM     10  O   UNL     1      12.832 -19.055   6.819  1.00  0.00    -0.504 OA
ATOM     11  H   UNL     1      13.243 -19.138   5.897  1.00  0.00     0.293 HD
ENDBRANCH   4  10
BRANCH   5  12
ATOM     12  O   UNL     1      12.235 -14.297   7.474  1.00  0.00    -0.504 OA
ATOM     13  H   UNL     1      12.593 -13.860   8.315  1.00  0.00     0.293 HD
ENDBRANCH   5  12
BRANCH   6  14
ATOM     14  O   UNL     1      13.872 -16.487   6.788  1.00  0.00    -0.502 OA
ATOM     15  H   UNL     1      14.611 -17.100   7.114  1.00  0.00     0.293 HD
ENDBRANCH   6  14
TORSDOF 4
ENDMDL
MODEL 4
REMARK VINA RESULT:    -4.241      1.768      1.911
REMARK INTER + INTRA:          -4.906
REMARK INTER:                  -4.861
REMARK INTRA:                  -0.045
REMARK UNBOUND:                -0.045
REMARK SMILES O=C([O-])c1cc(O)c(O)c(O)c1
REMARK SMILES IDX 4 1 5 2 12 3 6 4 10 5 8 6 2 7 1 8 3 9 7 10 11 12 9 14
REMARK H PARENT 7 11 11 13 9 15
REMARK Flexibility Score: inf
ROOT
ATOM      1  C   UNL     1      10.889 -17.782   7.607  1.00  0.00     0.005 A 
ATOM      2  C   UNL     1      10.828 -16.379   7.632  1.00  0.00     0.060 A 
ATOM      3  C   UNL     1      12.139 -18.408   7.449  1.00  0.00     0.060 A 
ATOM      4  C   UNL     1      11.994 -15.612   7.503  1.00  0.00     0.162 A 
ATOM      5  C   UNL     1      13.308 -17.646   7.319  1.00  0.00     0.162 A 
ATOM      6  C   UNL     1      13.236 -16.243   7.345  1.00  0.00     0.200 A 
ENDROOT
BRANCH   1   7
ATOM      7  C   UNL     1       9.655 -18.587   7.744  1.00  0.00     0.072 C 
ATOM      8  O   UNL     1       9.327 -19.072   8.859  1.00  0.00    -0.545 OA
ATOM      9  O   UNL     1       8.840 -18.819   6.642  1.00  0.00    -0.545 OA
ENDBRANCH   1   7
BRANCH   4  10
ATOM     10  O   UNL     1      11.928 -14.220   7.529  1.00  0.00    -0.504 OA
ATOM     11  H   UNL     1      12.716 -13.656   7.823  1.00  0.00     0.293 HD
ENDBRANCH   4  10
BRANCH   5  12
ATOM     12  O   UNL     1      14.541 -18.277   7.163  1.00  0.00    -0.504 OA
ATOM     13  H   UNL     1      14.904 -18.515   6.247  1.00  0.00     0.293 HD
ENDBRANCH   5  12
BRANCH   6  14
ATOM     14  O   UNL     1      14.385 -15.462   7.218  1.00  0.00    -0.502 OA
ATOM     15  H   UNL     1      14.626 -14.744   7.892  1.00  0.00     0.293 HD
ENDBRANCH   6  14
TORSDOF 4
ENDMDL
MODEL 5
REMARK VINA RESULT:    -4.234      1.394      4.012
REMARK INTER + INTRA:          -4.898
REMARK INTER:                  -4.853
REMARK INTRA:                  -0.045
REMARK UNBOUND:                -0.045
REMARK SMILES O=C([O-])c1cc(O)c(O)c(O)c1
REMARK SMILES IDX 4 1 5 2 12 3 6 4 10 5 8 6 2 7 1 8 3 9 7 10 11 12 9 14
REMARK H PARENT 7 11 11 13 9 15
REMARK Flexibility Score: inf
ROOT
ATOM      1  C   UNL     1      12.896 -15.714   7.768  1.00  0.00     0.005 A 
ATOM      2  C   UNL     1      11.576 -15.310   7.509  1.00  0.00     0.060 A 
ATOM      3  C   UNL     1      13.126 -16.995   8.302  1.00  0.00     0.060 A 
ATOM      4  C   UNL     1      10.501 -16.169   7.778  1.00  0.00     0.162 A 
ATOM      5  C   UNL     1      12.054 -17.858   8.573  1.00  0.00     0.162 A 
ATOM      6  C   UNL     1      10.738 -17.444   8.311  1.00  0.00     0.200 A 
ENDROOT
BRANCH   1   7
ATOM      7  C   UNL     1      14.026 -14.803   7.482  1.00  0.00     0.072 C 
ATOM      8  O   UNL     1      14.279 -13.835   8.246  1.00  0.00    -0.545 OA
ATOM      9  O   UNL     1      14.826 -15.005   6.361  1.00  0.00    -0.545 OA
ENDBRANCH   1   7
BRANCH   4  10
ATOM     10  O   UNL     1       9.193 -15.763   7.519  1.00  0.00    -0.504 OA
ATOM     11  H   UNL     1       8.671 -15.202   8.182  1.00  0.00     0.293 HD
ENDBRANCH   4  10
BRANCH   5  12
ATOM     12  O   UNL     1      12.294 -19.125   9.103  1.00  0.00    -0.504 OA
ATOM     13  H   UNL     1      11.747 -19.931   8.821  1.00  0.00     0.293 HD
ENDBRANCH   5  12
BRANCH   6  14
ATOM     14  O   UNL     1       9.655 -18.284   8.571  1.00  0.00    -0.502 OA
ATOM     15  H   UNL     1       8.709 -17.932   8.660  1.00  0.00     0.293 HD
ENDBRANCH   6  14
TORSDOF 4
ENDMDL
MODEL 6
REMARK VINA RESULT:    -4.222      1.320      4.463
REMARK INTER + INTRA:          -4.884
REMARK INTER:                  -4.839
REMARK INTRA:                  -0.045
REMARK UNBOUND:                -0.045
REMARK SMILES O=C([O-])c1cc(O)c(O)c(O)c1
REMARK SMILES IDX 4 1 5 2 12 3 6 4 10 5 8 6 2 7 1 8 3 9 7 10 11 12 9 14
REMARK H PARENT 7 11 11 13 9 15
REMARK Flexibility Score: inf
ROOT
ATOM      1  C   UNL     1      12.728 -15.744   7.786  1.00  0.00     0.005 A 
ATOM      2  C   UNL     1      12.949 -17.011   8.351  1.00  0.00     0.060 A 
ATOM      3  C   UNL     1      11.410 -15.348   7.494  1.00  0.00     0.060 A 
ATOM      4  C   UNL     1      11.874 -17.869   8.621  1.00  0.00     0.162 A 
ATOM      5  C   UNL     1      10.331 -16.202   7.761  1.00  0.00     0.162 A 
ATOM      6  C   UNL     1      10.564 -17.467   8.327  1.00  0.00     0.200 A 
ENDROOT
BRANCH   1   7
ATOM      7  C   UNL     1      13.866 -14.843   7.503  1.00  0.00     0.072 C 
ATOM      8  O   UNL     1      14.131 -13.883   8.275  1.00  0.00    -0.545 OA
ATOM      9  O   UNL     1      14.660 -15.043   6.379  1.00  0.00    -0.545 OA
ENDBRANCH   1   7
BRANCH   4  10
ATOM     10  O   UNL     1      12.099 -19.125   9.183  1.00  0.00    -0.504 OA
ATOM     11  H   UNL     1      12.619 -19.235  10.045  1.00  0.00     0.293 HD
ENDBRANCH   4  10
BRANCH   5  12
ATOM     12  O   UNL     1       9.030 -15.799   7.467  1.00  0.00    -0.504 OA
ATOM     13  H   UNL     1       8.442 -16.325   6.831  1.00  0.00     0.293 HD
ENDBRANCH   5  12
BRANCH   6  14
ATOM     14  O   UNL     1       9.507 -18.335   8.603  1.00  0.00    -0.502 OA
ATOM     15  H   UNL     1       8.541 -18.078   8.437  1.00  0.00     0.293 HD
ENDBRANCH   6  14
TORSDOF 4
ENDMDL
MODEL 7
REMARK VINA RESULT:    -3.947      1.915      2.193
REMARK INTER + INTRA:          -4.569
REMARK INTER:                  -4.519
REMARK INTRA:                  -0.050
REMARK UNBOUND:                -0.045
REMARK SMILES O=C([O-])c1cc(O)c(O)c(O)c1
REMARK SMILES IDX 4 1 5 2 12 3 6 4 10 5 8 6 2 7 1 8 3 9 7 10 11 12 9 14
REMARK H PARENT 7 11 11 13 9 15
REMARK Flexibility Score: inf
ROOT
ATOM      1  C   UNL     1       8.917 -17.394   8.006  1.00  0.00     0.005 A 
ATOM      2  C   UNL     1       9.864 -16.779   8.840  1.00  0.00     0.060 A 
ATOM      3  C   UNL     1       9.365 -18.179   6.927  1.00  0.00     0.060 A 
ATOM      4  C   UNL     1      11.236 -16.942   8.604  1.00  0.00     0.162 A 
ATOM      5  C   UNL     1      10.736 -18.346   6.687  1.00  0.00     0.162 A 
ATOM      6  C   UNL     1      11.675 -17.725   7.528  1.00  0.00     0.200 A 
ENDROOT
BRANCH   1   7
ATOM      7  C   UNL     1       7.470 -17.218   8.260  1.00  0.00     0.072 C 
ATOM      8  O   UNL     1       7.022 -16.120   8.682  1.00  0.00    -0.545 OA
ATOM      9  O   UNL     1       6.584 -18.267   8.037  1.00  0.00    -0.545 OA
ENDBRANCH   1   7
BRANCH   4  10
ATOM     10  O   UNL     1      12.172 -16.329   9.436  1.00  0.00    -0.504 OA
ATOM     11  H   UNL     1      12.156 -15.330   9.606  1.00  0.00     0.293 HD
ENDBRANCH   4  10
BRANCH   5  12
ATOM     12  O   UNL     1      11.168 -19.125   5.615  1.00  0.00    -0.504 OA
ATOM     13  H   UNL     1      11.470 -20.084   5.743  1.00  0.00     0.293 HD
ENDBRANCH   5  12
BRANCH   6  14
ATOM     14  O   UNL     1      13.044 -17.876   7.309  1.00  0.00    -0.502 OA
ATOM     15  H   UNL     1      13.591 -17.181   6.814  1.00  0.00     0.293 HD
ENDBRANCH   6  14
TORSDOF 4
ENDMDL
MODEL 8
REMARK VINA RESULT:    -3.946      1.603      4.403
REMARK INTER + INTRA:          -4.567
REMARK INTER:                  -4.522
REMARK INTRA:                  -0.045
REMARK UNBOUND:                -0.045
REMARK SMILES O=C([O-])c1cc(O)c(O)c(O)c1
REMARK SMILES IDX 4 1 5 2 12 3 6 4 10 5 8 6 2 7 1 8 3 9 7 10 11 12 9 14
REMARK H PARENT 7 11 11 13 9 15
REMARK Flexibility Score: inf
ROOT
ATOM      1  C   UNL     1      11.902 -16.443   8.073  1.00  0.00     0.005 A 
ATOM      2  C   UNL     1      12.018 -17.456   7.107  1.00  0.00     0.060 A 
ATOM      3  C   UNL     1      10.623 -16.084   8.536  1.00  0.00     0.060 A 
ATOM      4  C   UNL     1      10.876 -18.101   6.610  1.00  0.00     0.162 A 
ATOM      5  C   UNL     1       9.479 -16.725   8.041  1.00  0.00     0.162 A 
ATOM      6  C   UNL     1       9.606 -17.737   7.075  1.00  0.00     0.200 A 
ENDROOT
BRANCH   1   7
ATOM      7  C   UNL     1      13.110 -15.766   8.594  1.00  0.00     0.072 C 
ATOM      8  O   UNL     1      13.710 -16.215   9.607  1.00  0.00    -0.545 OA
ATOM      9  O   UNL     1      13.600 -14.623   7.972  1.00  0.00    -0.545 OA
ENDBRANCH   1   7
BRANCH   4  10
ATOM     10  O   UNL     1      10.997 -19.106   5.651  1.00  0.00    -0.504 OA
ATOM     11  H   UNL     1      10.188 -19.479   5.169  1.00  0.00     0.293 HD
ENDBRANCH   4  10
BRANCH   5  12
ATOM     12  O   UNL     1       8.217 -16.360   8.507  1.00  0.00    -0.504 OA
ATOM     13  H   UNL     1       7.574 -15.825   7.935  1.00  0.00     0.293 HD
ENDBRANCH   5  12
BRANCH   6  14
ATOM     14  O   UNL     1       8.482 -18.390   6.568  1.00  0.00    -0.502 OA
ATOM     15  H   UNL     1       8.521 -19.345   6.232  1.00  0.00     0.293 HD
ENDBRANCH   6  14
TORSDOF 4
ENDMDL
MODEL 9
REMARK VINA RESULT:    -3.867      1.800      4.280
REMARK INTER + INTRA:          -4.477
REMARK INTER:                  -4.432
REMARK INTRA:                  -0.045
REMARK UNBOUND:                -0.045
REMARK SMILES O=C([O-])c1cc(O)c(O)c(O)c1
REMARK SMILES IDX 4 1 5 2 12 3 6 4 10 5 8 6 2 7 1 8 3 9 7 10 11 12 9 14
REMARK H PARENT 7 11 11 13 9 15
REMARK Flexibility Score: inf
ROOT
ATOM      1  C   UNL     1      12.117 -16.613   8.046  1.00  0.00     0.005 A 
ATOM      2  C   UNL     1      10.820 -16.594   8.583  1.00  0.00     0.060 A 
ATOM      3  C   UNL     1      12.394 -17.465   6.961  1.00  0.00     0.060 A 
ATOM      4  C   UNL     1       9.814 -17.412   8.048  1.00  0.00     0.162 A 
ATOM      5  C   UNL     1      11.393 -18.284   6.423  1.00  0.00     0.162 A 
ATOM      6  C   UNL     1      10.098 -18.258   6.968  1.00  0.00     0.200 A 
ENDROOT
BRANCH   1   7
ATOM      7  C   UNL     1      13.174 -15.748   8.614  1.00  0.00     0.072 C 
ATOM      8  O   UNL     1      13.492 -14.668   8.049  1.00  0.00    -0.545 OA
ATOM      9  O   UNL     1      13.833 -16.116   9.782  1.00  0.00    -0.545 OA
ENDBRANCH   1   7
BRANCH   4  10
ATOM     10  O   UNL     1       8.528 -17.389   8.586  1.00  0.00    -0.504 OA
ATOM     11  H   UNL     1       8.021 -18.243   8.785  1.00  0.00     0.293 HD
ENDBRANCH   4  10
BRANCH   5  12
ATOM     12  O   UNL     1      11.679 -19.125   5.348  1.00  0.00    -0.504 OA
ATOM     13  H   UNL     1      12.545 -19.044   4.827  1.00  0.00     0.293 HD
ENDBRANCH   5  12
BRANCH   6  14
ATOM     14  O   UNL     1       9.085 -19.064   6.450  1.00  0.00    -0.502 OA
ATOM     15  H   UNL     1       9.062 -19.341   5.475  1.00  0.00     0.293 HD
ENDBRANCH   6  14
TORSDOF 4
ENDMDL
