MODEL 1
REMARK VINA RESULT:    -5.135      0.000      0.000
REMARK INTER + INTRA:          -6.550
REMARK INTER:                  -6.186
REMARK INTRA:                  -0.365
REMARK UNBOUND:                -0.365
REMARK SMILES Oc1cc(O)c2c(c1)O[C@@H](c1ccc(O)c(O)c1)[C@H](O)C2
REMARK SMILES IDX 21 1 19 2 10 3 9 4 7 5 8 6 2 7 3 8 4 9 6 10 20 11 11 13
REMARK SMILES IDX 18 14 12 15 16 16 13 17 14 18 17 19 15 21 5 23 1 25
REMARK H PARENT 20 12 17 20 15 22 5 24 1 26
REMARK Flexibility Score: inf
ROOT
ATOM      1  C   UNL     1      12.798  31.159  58.166  1.00  0.00     0.079 C 
ATOM      2  C   UNL     1      14.141  31.347  58.893  1.00  0.00     0.164 C 
ATOM      3  C   UNL     1      15.287  31.390  57.863  1.00  0.00     0.232 C 
ATOM      4  O   UNL     1      15.044  32.419  56.901  1.00  0.00    -0.482 OA
ATOM      5  C   UNL     1      13.762  32.720  56.430  1.00  0.00     0.131 A 
ATOM      6  C   UNL     1      13.614  33.617  55.369  1.00  0.00     0.093 A 
ATOM      7  C   UNL     1      12.339  33.931  54.883  1.00  0.00     0.122 A 
ATOM      8  C   UNL     1      11.211  33.343  55.462  1.00  0.00     0.092 A 
ATOM      9  C   UNL     1      11.346  32.446  56.531  1.00  0.00     0.126 A 
ATOM     10  C   UNL     1      12.626  32.144  57.035  1.00  0.00     0.039 A 
ENDROOT
BRANCH   2  11
ATOM     11  O   UNL     1      14.351  30.287  59.789  1.00  0.00    -0.389 OA
ATOM     12  H   UNL     1      15.052  30.585  60.425  1.00  0.00     0.211 HD
ENDBRANCH   2  11
BRANCH   3  13
ATOM     13  C   UNL     1      16.617  31.631  58.537  1.00  0.00    -0.001 A 
ATOM     14  C   UNL     1      16.882  32.852  59.179  1.00  0.00     0.057 A 
ATOM     15  C   UNL     1      17.585  30.617  58.571  1.00  0.00     0.012 A 
ATOM     16  C   UNL     1      18.102  33.073  59.829  1.00  0.00     0.157 A 
ATOM     17  C   UNL     1      18.805  30.829  59.217  1.00  0.00     0.050 A 
ATOM     18  C   UNL     1      19.078  32.049  59.848  1.00  0.00     0.157 A 
BRANCH  16  19
ATOM     19  O   UNL     1      18.300  34.312  60.443  1.00  0.00    -0.504 OA
ATOM     20  H   UNL     1      18.518  35.161  59.942  1.00  0.00     0.293 HD
ENDBRANCH  16  19
BRANCH  18  21
ATOM     21  O   UNL     1      20.318  32.196  60.473  1.00  0.00    -0.504 OA
ATOM     22  H   UNL     1      20.470  32.061  61.462  1.00  0.00     0.293 HD
ENDBRANCH  18  21
ENDBRANCH   3  13
BRANCH   9  23
ATOM     23  O   UNL     1      10.214  31.855  57.092  1.00  0.00    -0.507 OA
ATOM     24  H   UNL     1      10.286  31.068  57.726  1.00  0.00     0.293 HD
ENDBRANCH   9  23
BRANCH   7  25
ATOM     25  O   UNL     1      12.183  34.822  53.823  1.00  0.00    -0.508 OA
ATOM     26  H   UNL     1      12.910  34.954  53.131  1.00  0.00     0.293 HD
ENDBRANCH   7  25
TORSDOF 6
ENDMDL
MODEL 2
REMARK VINA RESULT:    -5.082      4.293      7.557
REMARK INTER + INTRA:          -6.487
REMARK INTER:                  -6.524
REMARK INTRA:                   0.037
REMARK UNBOUND:                -0.365
REMARK SMILES Oc1cc(O)c2c(c1)O[C@@H](c1ccc(O)c(O)c1)[C@H](O)C2
REMARK SMILES IDX 21 1 19 2 10 3 9 4 7 5 8 6 2 7 3 8 4 9 6 10 20 11 11 13
REMARK SMILES IDX 18 14 12 15 16 16 13 17 14 18 17 19 15 21 5 23 1 25
REMARK H PARENT 20 12 17 20 15 22 5 24 1 26
REMARK Flexibility Score: inf
ROOT
ATOM      1  C   UNL     1      12.510  34.931  50.430  1.00  0.00     0.079 C 
ATOM      2  C   UNL     1      12.069  34.500  51.839  1.00  0.00     0.164 C 
ATOM      3  C   UNL     1      13.272  33.914  52.604  1.00  0.00     0.232 C 
ATOM      4  O   UNL     1      14.340  34.862  52.639  1.00  0.00    -0.482 OA
ATOM      5  C   UNL     1      14.629  35.710  51.564  1.00  0.00     0.131 A 
ATOM      6  C   UNL     1      15.787  36.491  51.598  1.00  0.00     0.093 A 
ATOM      7  C   UNL     1      16.093  37.344  50.531  1.00  0.00     0.122 A 
ATOM      8  C   UNL     1      15.237  37.415  49.429  1.00  0.00     0.092 A 
ATOM      9  C   UNL     1      14.069  36.640  49.386  1.00  0.00     0.126 A 
ATOM     10  C   UNL     1      13.748  35.796  50.466  1.00  0.00     0.039 A 
ENDROOT
BRANCH   2  11
ATOM     11  O   UNL     1      11.053  33.535  51.746  1.00  0.00    -0.389 OA
ATOM     12  H   UNL     1      10.198  34.029  51.642  1.00  0.00     0.211 HD
ENDBRANCH   2  11
BRANCH   3  13
ATOM     13  C   UNL     1      12.888  33.531  54.013  1.00  0.00    -0.001 A 
ATOM     14  C   UNL     1      11.690  33.999  54.579  1.00  0.00     0.057 A 
ATOM     15  C   UNL     1      13.701  32.664  54.757  1.00  0.00     0.012 A 
ATOM     16  C   UNL     1      11.313  33.627  55.876  1.00  0.00     0.157 A 
ATOM     17  C   UNL     1      13.333  32.289  56.050  1.00  0.00     0.050 A 
ATOM     18  C   UNL     1      12.147  32.762  56.623  1.00  0.00     0.157 A 
BRANCH  16  19
ATOM     19  O   UNL     1      10.112  34.133  56.376  1.00  0.00    -0.504 OA
ATOM     20  H   UNL     1       9.503  34.753  55.863  1.00  0.00     0.293 HD
ENDBRANCH  16  19
BRANCH  18  21
ATOM     21  O   UNL     1      11.839  32.350  57.921  1.00  0.00    -0.504 OA
ATOM     22  H   UNL     1      12.287  32.714  58.749  1.00  0.00     0.293 HD
ENDBRANCH  18  21
ENDBRANCH   3  13
BRANCH   9  23
ATOM     23  O   UNL     1      13.228  36.707  48.275  1.00  0.00    -0.507 OA
ATOM     24  H   UNL     1      13.595  36.798  47.336  1.00  0.00     0.293 HD
ENDBRANCH   9  23
BRANCH   7  25
ATOM     25  O   UNL     1      17.247  38.125  50.555  1.00  0.00    -0.508 OA
ATOM     26  H   UNL     1      18.129  37.755  50.890  1.00  0.00     0.293 HD
ENDBRANCH   7  25
TORSDOF 6
ENDMDL
MODEL 3
REMARK VINA RESULT:    -5.002      3.964      6.925
REMARK INTER + INTRA:          -6.391
REMARK INTER:                  -6.016
REMARK INTRA:                  -0.375
REMARK UNBOUND:                -0.365
REMARK SMILES Oc1cc(O)c2c(c1)O[C@@H](c1ccc(O)c(O)c1)[C@H](O)C2
REMARK SMILES IDX 21 1 19 2 10 3 9 4 7 5 8 6 2 7 3 8 4 9 6 10 20 11 11 13
REMARK SMILES IDX 18 14 12 15 16 16 13 17 14 18 17 19 15 21 5 23 1 25
REMARK H PARENT 20 12 17 20 15 22 5 24 1 26
REMARK Flexibility Score: inf
ROOT
ATOM      1  C   UNL     1      15.321  32.523  55.019  1.00  0.00     0.079 C 
ATOM      2  C   UNL     1      15.920  33.468  53.962  1.00  0.00     0.164 C 
ATOM      3  C   UNL     1      14.935  33.624  52.787  1.00  0.00     0.232 C 
ATOM      4  O   UNL     1      13.669  34.082  53.265  1.00  0.00    -0.482 OA
ATOM      5  C   UNL     1      13.131  33.664  54.486  1.00  0.00     0.131 A 
ATOM      6  C   UNL     1      11.819  34.016  54.814  1.00  0.00     0.093 A 
ATOM      7  C   UNL     1      11.262  33.606  56.032  1.00  0.00     0.122 A 
ATOM      8  C   UNL     1      12.023  32.843  56.923  1.00  0.00     0.092 A 
ATOM      9  C   UNL     1      13.342  32.489  56.607  1.00  0.00     0.126 A 
ATOM     10  C   UNL     1      13.911  32.917  55.393  1.00  0.00     0.039 A 
ENDROOT
BRANCH   2  11
ATOM     11  O   UNL     1      17.137  32.947  53.494  1.00  0.00    -0.389 OA
ATOM     12  H   UNL     1      17.373  32.190  54.092  1.00  0.00     0.211 HD
ENDBRANCH   2  11
BRANCH   3  13
ATOM     13  C   UNL     1      15.467  34.590  51.755  1.00  0.00    -0.001 A 
ATOM     14  C   UNL     1      15.752  35.921  52.103  1.00  0.00     0.057 A 
ATOM     15  C   UNL     1      15.729  34.155  50.448  1.00  0.00     0.012 A 
ATOM     16  C   UNL     1      16.271  36.816  51.158  1.00  0.00     0.157 A 
ATOM     17  C   UNL     1      16.245  35.040  49.501  1.00  0.00     0.050 A 
ATOM     18  C   UNL     1      16.519  36.371  49.839  1.00  0.00     0.157 A 
BRANCH  16  19
ATOM     19  O   UNL     1      16.526  38.125  51.572  1.00  0.00    -0.504 OA
ATOM     20  H   UNL     1      17.037  38.800  51.024  1.00  0.00     0.293 HD
ENDBRANCH  16  19
BRANCH  18  21
ATOM     21  O   UNL     1      17.032  37.205  48.843  1.00  0.00    -0.504 OA
ATOM     22  H   UNL     1      16.973  38.212  48.867  1.00  0.00     0.293 HD
ENDBRANCH  18  21
ENDBRANCH   3  13
BRANCH   9  23
ATOM     23  O   UNL     1      14.088  31.716  57.497  1.00  0.00    -0.507 OA
ATOM     24  H   UNL     1      13.736  31.475  58.415  1.00  0.00     0.293 HD
ENDBRANCH   9  23
BRANCH   7  25
ATOM     25  O   UNL     1       9.953  33.950  56.365  1.00  0.00    -0.508 OA
ATOM     26  H   UNL     1       9.160  33.486  55.940  1.00  0.00     0.293 HD
ENDBRANCH   7  25
TORSDOF 6
ENDMDL
MODEL 4
REMARK VINA RESULT:    -4.987      4.647      8.154
REMARK INTER + INTRA:          -6.373
REMARK INTER:                  -6.009
REMARK INTRA:                  -0.364
REMARK UNBOUND:                -0.365
REMARK SMILES Oc1cc(O)c2c(c1)O[C@@H](c1ccc(O)c(O)c1)[C@H](O)C2
REMARK SMILES IDX 21 1 19 2 10 3 9 4 7 5 8 6 2 7 3 8 4 9 6 10 20 11 11 13
REMARK SMILES IDX 18 14 12 15 16 16 13 17 14 18 17 19 15 21 5 23 1 25
REMARK H PARENT 20 12 17 20 15 22 5 24 1 26
REMARK Flexibility Score: inf
ROOT
ATOM      1  C   UNL     1      16.222  33.260  54.150  1.00  0.00     0.079 C 
ATOM      2  C   UNL     1      16.456  34.270  53.013  1.00  0.00     0.164 C 
ATOM      3  C   UNL     1      15.285  34.207  52.014  1.00  0.00     0.232 C 
ATOM      4  O   UNL     1      14.048  34.433  52.691  1.00  0.00    -0.482 OA
ATOM      5  C   UNL     1      13.800  33.957  53.983  1.00  0.00     0.131 A 
ATOM      6  C   UNL     1      12.514  34.066  54.520  1.00  0.00     0.093 A 
ATOM      7  C   UNL     1      12.247  33.594  55.810  1.00  0.00     0.122 A 
ATOM      8  C   UNL     1      13.270  33.011  56.564  1.00  0.00     0.092 A 
ATOM      9  C   UNL     1      14.565  32.900  56.038  1.00  0.00     0.126 A 
ATOM     10  C   UNL     1      14.842  33.393  54.748  1.00  0.00     0.039 A 
ENDROOT
BRANCH   2  11
ATOM     11  O   UNL     1      17.659  33.972  52.352  1.00  0.00    -0.389 OA
ATOM     12  H   UNL     1      17.621  33.010  52.112  1.00  0.00     0.211 HD
ENDBRANCH   2  11
BRANCH   3  13
ATOM     13  C   UNL     1      15.454  35.226  50.912  1.00  0.00    -0.001 A 
ATOM     14  C   UNL     1      15.709  34.816  49.593  1.00  0.00     0.057 A 
ATOM     15  C   UNL     1      15.309  36.593  51.186  1.00  0.00     0.012 A 
ATOM     16  C   UNL     1      15.841  35.754  48.561  1.00  0.00     0.157 A 
ATOM     17  C   UNL     1      15.438  37.535  50.163  1.00  0.00     0.050 A 
ATOM     18  C   UNL     1      15.705  37.132  48.850  1.00  0.00     0.157 A 
BRANCH  16  19
ATOM     19  O   UNL     1      16.099  35.276  47.274  1.00  0.00    -0.504 OA
ATOM     20  H   UNL     1      15.526  35.482  46.470  1.00  0.00     0.293 HD
ENDBRANCH  16  19
BRANCH  18  21
ATOM     21  O   UNL     1      15.825  38.125  47.875  1.00  0.00    -0.504 OA
ATOM     22  H   UNL     1      16.259  37.981  46.974  1.00  0.00     0.293 HD
ENDBRANCH  18  21
ENDBRANCH   3  13
BRANCH   9  23
ATOM     23  O   UNL     1      15.575  32.305  56.793  1.00  0.00    -0.507 OA
ATOM     24  H   UNL     1      15.597  31.306  56.957  1.00  0.00     0.293 HD
ENDBRANCH   9  23
BRANCH   7  25
ATOM     25  O   UNL     1      10.967  33.696  56.352  1.00  0.00    -0.508 OA
ATOM     26  H   UNL     1      10.781  33.456  57.319  1.00  0.00     0.293 HD
ENDBRANCH   7  25
TORSDOF 6
ENDMDL
MODEL 5
REMARK VINA RESULT:    -4.950      2.067      2.673
REMARK INTER + INTRA:          -6.327
REMARK INTER:                  -6.138
REMARK INTRA:                  -0.190
REMARK UNBOUND:                -0.365
REMARK SMILES Oc1cc(O)c2c(c1)O[C@@H](c1ccc(O)c(O)c1)[C@H](O)C2
REMARK SMILES IDX 21 1 19 2 10 3 9 4 7 5 8 6 2 7 3 8 4 9 6 10 20 11 11 13
REMARK SMILES IDX 18 14 12 15 16 16 13 17 14 18 17 19 15 21 5 23 1 25
REMARK H PARENT 20 12 17 20 15 22 5 24 1 26
REMARK Flexibility Score: inf
ROOT
ATOM      1  C   UNL     1      13.375  32.997  56.751  1.00  0.00     0.079 C 
ATOM      2  C   UNL     1      14.209  32.736  58.017  1.00  0.00     0.164 C 
ATOM      3  C   UNL     1      15.320  31.714  57.704  1.00  0.00     0.232 C 
ATOM      4  O   UNL     1      16.121  32.177  56.615  1.00  0.00    -0.482 OA
ATOM      5  C   UNL     1      15.582  32.873  55.528  1.00  0.00     0.131 A 
ATOM      6  C   UNL     1      16.388  33.147  54.421  1.00  0.00     0.093 A 
ATOM      7  C   UNL     1      15.866  33.842  53.323  1.00  0.00     0.122 A 
ATOM      8  C   UNL     1      14.533  34.263  53.336  1.00  0.00     0.092 A 
ATOM      9  C   UNL     1      13.716  33.999  54.444  1.00  0.00     0.126 A 
ATOM     10  C   UNL     1      14.244  33.318  55.558  1.00  0.00     0.039 A 
ENDROOT
BRANCH   2  11
ATOM     11  O   UNL     1      13.383  32.239  59.038  1.00  0.00    -0.389 OA
ATOM     12  H   UNL     1      13.950  32.158  59.849  1.00  0.00     0.211 HD
ENDBRANCH   2  11
BRANCH   3  13
ATOM     13  C   UNL     1      16.196  31.475  58.911  1.00  0.00    -0.001 A 
ATOM     14  C   UNL     1      17.329  32.273  59.141  1.00  0.00     0.057 A 
ATOM     15  C   UNL     1      15.860  30.483  59.843  1.00  0.00     0.012 A 
ATOM     16  C   UNL     1      18.131  32.076  60.272  1.00  0.00     0.157 A 
ATOM     17  C   UNL     1      16.654  30.279  60.973  1.00  0.00     0.050 A 
ATOM     18  C   UNL     1      17.790  31.063  61.200  1.00  0.00     0.157 A 
BRANCH  16  19
ATOM     19  O   UNL     1      19.244  32.903  60.435  1.00  0.00    -0.504 OA
ATOM     20  H   UNL     1      20.045  32.898  59.821  1.00  0.00     0.293 HD
ENDBRANCH  16  19
BRANCH  18  21
ATOM     21  O   UNL     1      18.542  30.806  62.348  1.00  0.00    -0.504 OA
ATOM     22  H   UNL     1      19.344  30.192  62.371  1.00  0.00     0.293 HD
ENDBRANCH  18  21
ENDBRANCH   3  13
BRANCH   9  23
ATOM     23  O   UNL     1      12.383  34.411  54.442  1.00  0.00    -0.507 OA
ATOM     24  H   UNL     1      12.044  35.114  55.088  1.00  0.00     0.293 HD
ENDBRANCH   9  23
BRANCH   7  25
ATOM     25  O   UNL     1      16.662  34.117  52.213  1.00  0.00    -0.508 OA
ATOM     26  H   UNL     1      16.266  34.483  51.355  1.00  0.00     0.293 HD
ENDBRANCH   7  25
TORSDOF 6
ENDMDL
MODEL 6
REMARK VINA RESULT:    -4.941      1.478      6.723
REMARK INTER + INTRA:          -6.317
REMARK INTER:                  -5.983
REMARK INTRA:                  -0.334
REMARK UNBOUND:                -0.365
REMARK SMILES Oc1cc(O)c2c(c1)O[C@@H](c1ccc(O)c(O)c1)[C@H](O)C2
REMARK SMILES IDX 21 1 19 2 10 3 9 4 7 5 8 6 2 7 3 8 4 9 6 10 20 11 11 13
REMARK SMILES IDX 18 14 12 15 16 16 13 17 14 18 17 19 15 21 5 23 1 25
REMARK H PARENT 20 12 17 20 15 22 5 24 1 26
REMARK Flexibility Score: inf
ROOT
ATOM      1  C   UNL     1      15.172  29.579  58.812  1.00  0.00     0.079 C 
ATOM      2  C   UNL     1      14.436  30.305  57.673  1.00  0.00     0.164 C 
ATOM      3  C   UNL     1      14.211  31.781  58.059  1.00  0.00     0.232 C 
ATOM      4  O   UNL     1      15.459  32.401  58.377  1.00  0.00    -0.482 OA
ATOM      5  C   UNL     1      16.485  31.725  59.044  1.00  0.00     0.131 A 
ATOM      6  C   UNL     1      17.609  32.436  59.474  1.00  0.00     0.093 A 
ATOM      7  C   UNL     1      18.647  31.776  60.144  1.00  0.00     0.122 A 
ATOM      8  C   UNL     1      18.557  30.402  60.384  1.00  0.00     0.092 A 
ATOM      9  C   UNL     1      17.437  29.677  59.953  1.00  0.00     0.126 A 
ATOM     10  C   UNL     1      16.402  30.334  59.261  1.00  0.00     0.039 A 
ENDROOT
BRANCH   2  11
ATOM     11  O   UNL     1      13.198  29.685  57.436  1.00  0.00    -0.389 OA
ATOM     12  H   UNL     1      13.396  28.803  57.025  1.00  0.00     0.211 HD
ENDBRANCH   2  11
BRANCH   3  13
ATOM     13  C   UNL     1      13.539  32.540  56.940  1.00  0.00    -0.001 A 
ATOM     14  C   UNL     1      12.182  32.894  57.031  1.00  0.00     0.057 A 
ATOM     15  C   UNL     1      14.275  32.942  55.816  1.00  0.00     0.012 A 
ATOM     16  C   UNL     1      11.558  33.621  56.009  1.00  0.00     0.157 A 
ATOM     17  C   UNL     1      13.661  33.666  54.793  1.00  0.00     0.050 A 
ATOM     18  C   UNL     1      12.306  34.011  54.874  1.00  0.00     0.157 A 
BRANCH  16  19
ATOM     19  O   UNL     1      10.206  33.934  56.165  1.00  0.00    -0.504 OA
ATOM     20  H   UNL     1       9.751  34.042  57.059  1.00  0.00     0.293 HD
ENDBRANCH  16  19
BRANCH  18  21
ATOM     21  O   UNL     1      11.753  34.734  53.816  1.00  0.00    -0.504 OA
ATOM     22  H   UNL     1      11.266  34.312  53.038  1.00  0.00     0.293 HD
ENDBRANCH  18  21
ENDBRANCH   3  13
BRANCH   9  23
ATOM     23  O   UNL     1      17.351  28.309  60.210  1.00  0.00    -0.507 OA
ATOM     24  H   UNL     1      16.748  27.942  60.936  1.00  0.00     0.293 HD
ENDBRANCH   9  23
BRANCH   7  25
ATOM     25  O   UNL     1      19.770  32.478  60.578  1.00  0.00    -0.508 OA
ATOM     26  H   UNL     1      20.172  33.227  60.026  1.00  0.00     0.293 HD
ENDBRANCH   7  25
TORSDOF 6
ENDMDL
MODEL 7
REMARK VINA RESULT:    -4.841      3.349      6.912
REMARK INTER + INTRA:          -6.196
REMARK INTER:                  -5.906
REMARK INTRA:                  -0.290
REMARK UNBOUND:                -0.365
REMARK SMILES Oc1cc(O)c2c(c1)O[C@@H](c1ccc(O)c(O)c1)[C@H](O)C2
REMARK SMILES IDX 21 1 19 2 10 3 9 4 7 5 8 6 2 7 3 8 4 9 6 10 20 11 11 13
REMARK SMILES IDX 18 14 12 15 16 16 13 17 14 18 17 19 15 21 5 23 1 25
REMARK H PARENT 20 12 17 20 15 22 5 24 1 26
REMARK Flexibility Score: inf
ROOT
ATOM      1  C   UNL     1      12.349  33.684  55.498  1.00  0.00     0.079 C 
ATOM      2  C   UNL     1      12.813  33.872  54.043  1.00  0.00     0.164 C 
ATOM      3  C   UNL     1      14.259  34.405  54.024  1.00  0.00     0.232 C 
ATOM      4  O   UNL     1      15.116  33.526  54.755  1.00  0.00    -0.482 OA
ATOM      5  C   UNL     1      14.703  32.868  55.918  1.00  0.00     0.131 A 
ATOM      6  C   UNL     1      15.639  32.159  56.675  1.00  0.00     0.093 A 
ATOM      7  C   UNL     1      15.245  31.494  57.842  1.00  0.00     0.122 A 
ATOM      8  C   UNL     1      13.909  31.541  58.251  1.00  0.00     0.092 A 
ATOM      9  C   UNL     1      12.959  32.244  57.497  1.00  0.00     0.126 A 
ATOM     10  C   UNL     1      13.349  32.896  56.312  1.00  0.00     0.039 A 
ENDROOT
BRANCH   2  11
ATOM     11  O   UNL     1      11.966  34.780  53.387  1.00  0.00    -0.389 OA
ATOM     12  H   UNL     1      11.133  34.833  53.926  1.00  0.00     0.211 HD
ENDBRANCH   2  11
BRANCH   3  13
ATOM     13  C   UNL     1      14.768  34.550  52.610  1.00  0.00    -0.001 A 
ATOM     14  C   UNL     1      15.528  35.670  52.235  1.00  0.00     0.057 A 
ATOM     15  C   UNL     1      14.526  33.542  51.665  1.00  0.00     0.012 A 
ATOM     16  C   UNL     1      16.026  35.799  50.932  1.00  0.00     0.157 A 
ATOM     17  C   UNL     1      15.019  33.662  50.365  1.00  0.00     0.050 A 
ATOM     18  C   UNL     1      15.767  34.782  49.983  1.00  0.00     0.157 A 
BRANCH  16  19
ATOM     19  O   UNL     1      16.770  36.940  50.628  1.00  0.00    -0.504 OA
ATOM     20  H   UNL     1      16.363  37.827  50.371  1.00  0.00     0.293 HD
ENDBRANCH  16  19
BRANCH  18  21
ATOM     21  O   UNL     1      16.228  34.841  48.666  1.00  0.00    -0.504 OA
ATOM     22  H   UNL     1      16.280  35.692  48.125  1.00  0.00     0.293 HD
ENDBRANCH  18  21
ENDBRANCH   3  13
BRANCH   9  23
ATOM     23  O   UNL     1      11.631  32.296  57.921  1.00  0.00    -0.507 OA
ATOM     24  H   UNL     1      11.046  33.102  57.738  1.00  0.00     0.293 HD
ENDBRANCH   9  23
BRANCH   7  25
ATOM     25  O   UNL     1      16.173  30.788  58.605  1.00  0.00    -0.508 OA
ATOM     26  H   UNL     1      15.881  30.117  59.305  1.00  0.00     0.293 HD
ENDBRANCH   7  25
TORSDOF 6
ENDMDL
MODEL 8
REMARK VINA RESULT:    -4.840      2.024      6.784
REMARK INTER + INTRA:          -6.195
REMARK INTER:                  -6.422
REMARK INTRA:                   0.227
REMARK UNBOUND:                -0.365
REMARK SMILES Oc1cc(O)c2c(c1)O[C@@H](c1ccc(O)c(O)c1)[C@H](O)C2
REMARK SMILES IDX 21 1 19 2 10 3 9 4 7 5 8 6 2 7 3 8 4 9 6 10 20 11 11 13
REMARK SMILES IDX 18 14 12 15 16 16 13 17 14 18 17 19 15 21 5 23 1 25
REMARK H PARENT 20 12 17 20 15 22 5 24 1 26
REMARK Flexibility Score: inf
ROOT
ATOM      1  C   UNL     1      16.585  31.029  58.713  1.00  0.00     0.079 C 
ATOM      2  C   UNL     1      15.856  31.935  57.706  1.00  0.00     0.164 C 
ATOM      3  C   UNL     1      14.484  31.325  57.359  1.00  0.00     0.232 C 
ATOM      4  O   UNL     1      13.722  31.119  58.551  1.00  0.00    -0.482 OA
ATOM      5  C   UNL     1      14.306  30.711  59.754  1.00  0.00     0.131 A 
ATOM      6  C   UNL     1      13.486  30.365  60.832  1.00  0.00     0.093 A 
ATOM      7  C   UNL     1      14.052  29.954  62.045  1.00  0.00     0.122 A 
ATOM      8  C   UNL     1      15.442  29.890  62.177  1.00  0.00     0.092 A 
ATOM      9  C   UNL     1      16.275  30.240  61.105  1.00  0.00     0.126 A 
ATOM     10  C   UNL     1      15.709  30.674  59.891  1.00  0.00     0.039 A 
ENDROOT
BRANCH   2  11
ATOM     11  O   UNL     1      16.625  32.065  56.539  1.00  0.00    -0.389 OA
ATOM     12  H   UNL     1      17.571  31.917  56.802  1.00  0.00     0.211 HD
ENDBRANCH   2  11
BRANCH   3  13
ATOM     13  C   UNL     1      13.714  32.218  56.414  1.00  0.00    -0.001 A 
ATOM     14  C   UNL     1      12.446  32.707  56.768  1.00  0.00     0.057 A 
ATOM     15  C   UNL     1      14.280  32.607  55.192  1.00  0.00     0.012 A 
ATOM     16  C   UNL     1      11.737  33.556  55.908  1.00  0.00     0.157 A 
ATOM     17  C   UNL     1      13.581  33.454  54.330  1.00  0.00     0.050 A 
ATOM     18  C   UNL     1      12.311  33.934  54.672  1.00  0.00     0.157 A 
BRANCH  16  19
ATOM     19  O   UNL     1      10.480  34.001  56.322  1.00  0.00    -0.504 OA
ATOM     20  H   UNL     1       9.625  33.480  56.189  1.00  0.00     0.293 HD
ENDBRANCH  16  19
BRANCH  18  21
ATOM     21  O   UNL     1      11.665  34.774  53.763  1.00  0.00    -0.504 OA
ATOM     22  H   UNL     1      10.718  34.635  53.442  1.00  0.00     0.293 HD
ENDBRANCH  18  21
ENDBRANCH   3  13
BRANCH   9  23
ATOM     23  O   UNL     1      17.661  30.160  61.244  1.00  0.00    -0.507 OA
ATOM     24  H   UNL     1      18.099  30.059  62.151  1.00  0.00     0.293 HD
ENDBRANCH   9  23
BRANCH   7  25
ATOM     25  O   UNL     1      13.242  29.604  63.124  1.00  0.00    -0.508 OA
ATOM     26  H   UNL     1      13.441  29.929  64.062  1.00  0.00     0.293 HD
ENDBRANCH   7  25
TORSDOF 6
ENDMDL
MODEL 9
REMARK VINA RESULT:    -4.813      5.389      9.038
REMARK INTER + INTRA:          -6.163
REMARK INTER:                  -5.918
REMARK INTRA:                  -0.245
REMARK UNBOUND:                -0.365
REMARK SMILES Oc1cc(O)c2c(c1)O[C@@H](c1ccc(O)c(O)c1)[C@H](O)C2
REMARK SMILES IDX 21 1 19 2 10 3 9 4 7 5 8 6 2 7 3 8 4 9 6 10 20 11 11 13
REMARK SMILES IDX 18 14 12 15 16 16 13 17 14 18 17 19 15 21 5 23 1 25
REMARK H PARENT 20 12 17 20 15 22 5 24 1 26
REMARK Flexibility Score: inf
ROOT
ATOM      1  C   UNL     1      14.726  37.015  49.826  1.00  0.00     0.079 C 
ATOM      2  C   UNL     1      14.001  36.590  51.115  1.00  0.00     0.164 C 
ATOM      3  C   UNL     1      14.053  35.057  51.258  1.00  0.00     0.232 C 
ATOM      4  O   UNL     1      15.409  34.606  51.227  1.00  0.00    -0.482 OA
ATOM      5  C   UNL     1      16.378  35.195  50.409  1.00  0.00     0.131 A 
ATOM      6  C   UNL     1      17.638  34.600  50.301  1.00  0.00     0.093 A 
ATOM      7  C   UNL     1      18.622  35.175  49.487  1.00  0.00     0.122 A 
ATOM      8  C   UNL     1      18.341  36.348  48.780  1.00  0.00     0.092 A 
ATOM      9  C   UNL     1      17.082  36.957  48.885  1.00  0.00     0.126 A 
ATOM     10  C   UNL     1      16.099  36.393  49.719  1.00  0.00     0.039 A 
ENDROOT
BRANCH   2  11
ATOM     11  O   UNL     1      12.664  37.016  51.071  1.00  0.00    -0.389 OA
ATOM     12  H   UNL     1      12.156  36.310  50.592  1.00  0.00     0.211 HD
ENDBRANCH   2  11
BRANCH   3  13
ATOM     13  C   UNL     1      13.399  34.607  52.543  1.00  0.00    -0.001 A 
ATOM     14  C   UNL     1      12.048  34.220  52.559  1.00  0.00     0.057 A 
ATOM     15  C   UNL     1      14.146  34.526  53.726  1.00  0.00     0.012 A 
ATOM     16  C   UNL     1      11.441  33.777  53.741  1.00  0.00     0.157 A 
ATOM     17  C   UNL     1      13.549  34.085  54.908  1.00  0.00     0.050 A 
ATOM     18  C   UNL     1      12.201  33.710  54.932  1.00  0.00     0.157 A 
BRANCH  16  19
ATOM     19  O   UNL     1      10.094  33.412  53.685  1.00  0.00    -0.504 OA
ATOM     20  H   UNL     1       9.549  33.397  52.836  1.00  0.00     0.293 HD
ENDBRANCH  16  19
BRANCH  18  21
ATOM     21  O   UNL     1      11.664  33.281  56.148  1.00  0.00    -0.504 OA
ATOM     22  H   UNL     1      11.430  32.321  56.353  1.00  0.00     0.293 HD
ENDBRANCH  18  21
ENDBRANCH   3  13
BRANCH   9  23
ATOM     23  O   UNL     1      16.808  38.119  48.165  1.00  0.00    -0.507 OA
ATOM     24  H   UNL     1      15.864  38.365  47.893  1.00  0.00     0.293 HD
ENDBRANCH   9  23
BRANCH   7  25
ATOM     25  O   UNL     1      19.880  34.587  49.370  1.00  0.00    -0.508 OA
ATOM     26  H   UNL     1      20.236  33.955  50.078  1.00  0.00     0.293 HD
ENDBRANCH   7  25
TORSDOF 6
ENDMDL
