MODEL 1
REMARK VINA RESULT:    -3.349      0.000      0.000
REMARK INTER + INTRA:          -6.100
REMARK INTER:                  -5.307
REMARK INTRA:                  -0.793
REMARK UNBOUND:                -0.793
REMARK SMILES CCCCCCCCCCCC=O
REMARK SMILES IDX 7 1 6 2 5 3 4 4 3 5 2 6 1 7 8 8 9 9 10 10 11 11 12 12 13 13
REMARK H PARENT
REMARK Flexibility Score: inf
ROOT
ATOM      1  C   UNL     1       3.638  -6.788  -6.281  1.00  0.00     0.000 C 
ENDROOT
BRANCH   1   2
ATOM      2  C   UNL     1       3.530  -5.664  -7.323  1.00  0.00     0.000 C 
BRANCH   2   3
ATOM      3  C   UNL     1       2.083  -5.190  -7.548  1.00  0.00    -0.000 C 
BRANCH   3   4
ATOM      4  C   UNL     1       1.842  -3.692  -7.293  1.00  0.00    -0.000 C 
BRANCH   4   5
ATOM      5  C   UNL     1       3.120  -2.850  -7.414  1.00  0.00    -0.000 C 
BRANCH   5   6
ATOM      6  C   UNL     1       2.972  -1.516  -6.674  1.00  0.00    -0.003 C 
ATOM      7  C   UNL     1       1.806  -0.703  -7.226  1.00  0.00     0.004 C 
ENDBRANCH   5   6
ENDBRANCH   4   5
ENDBRANCH   3   4
ENDBRANCH   2   3
ENDBRANCH   1   2
BRANCH   1   8
ATOM      8  C   UNL     1       4.742  -6.481  -5.257  1.00  0.00     0.000 C 
BRANCH   8   9
ATOM      9  C   UNL     1       5.305  -5.059  -5.402  1.00  0.00     0.000 C 
BRANCH   9  10
ATOM     10  C   UNL     1       5.979  -4.553  -4.117  1.00  0.00     0.008 C 
BRANCH  10  11
ATOM     11  C   UNL     1       5.781  -3.043  -3.951  1.00  0.00     0.072 C 
BRANCH  11  12
ATOM     12  C   UNL     1       7.024  -2.385  -3.431  1.00  0.00     0.224 C 
ATOM     13  O   UNL     1       7.567  -2.818  -2.427  1.00  0.00    -0.303 OA
ENDBRANCH  11  12
ENDBRANCH  10  11
ENDBRANCH   9  10
ENDBRANCH   8   9
ENDBRANCH   1   8
TORSDOF 10
ENDMDL
MODEL 2
REMARK VINA RESULT:    -3.329      2.443      4.704
REMARK INTER + INTRA:          -6.069
REMARK INTER:                  -4.913
REMARK INTRA:                  -1.156
REMARK UNBOUND:                -0.793
REMARK SMILES CCCCCCCCCCCC=O
REMARK SMILES IDX 7 1 6 2 5 3 4 4 3 5 2 6 1 7 8 8 9 9 10 10 11 11 12 12 13 13
REMARK H PARENT
REMARK Flexibility Score: inf
ROOT
ATOM      1  C   UNL     1       2.042  -6.053  -7.432  1.00  0.00     0.000 C 
ENDROOT
BRANCH   1   2
ATOM      2  C   UNL     1       3.342  -6.862  -7.315  1.00  0.00     0.000 C 
BRANCH   2   3
ATOM      3  C   UNL     1       3.563  -7.447  -5.909  1.00  0.00    -0.000 C 
BRANCH   3   4
ATOM      4  C   UNL     1       4.715  -6.808  -5.112  1.00  0.00    -0.000 C 
BRANCH   4   5
ATOM      5  C   UNL     1       5.570  -5.852  -5.957  1.00  0.00    -0.000 C 
BRANCH   5   6
ATOM      6  C   UNL     1       5.662  -4.471  -5.298  1.00  0.00    -0.003 C 
ATOM      7  C   UNL     1       5.962  -4.588  -3.807  1.00  0.00     0.004 C 
ENDBRANCH   5   6
ENDBRANCH   4   5
ENDBRANCH   3   4
ENDBRANCH   2   3
ENDBRANCH   1   2
BRANCH   1   8
ATOM      8  C   UNL     1       2.287  -4.571  -7.106  1.00  0.00     0.000 C 
BRANCH   8   9
ATOM      9  C   UNL     1       2.790  -3.774  -8.320  1.00  0.00     0.000 C 
BRANCH   9  10
ATOM     10  C   UNL     1       3.807  -2.688  -7.937  1.00  0.00     0.008 C 
BRANCH  10  11
ATOM     11  C   UNL     1       3.308  -1.866  -6.744  1.00  0.00     0.072 C 
BRANCH  11  12
ATOM     12  C   UNL     1       2.232  -0.907  -7.157  1.00  0.00     0.224 C 
ATOM     13  O   UNL     1       1.101  -1.035  -6.716  1.00  0.00    -0.303 OA
ENDBRANCH  11  12
ENDBRANCH  10  11
ENDBRANCH   9  10
ENDBRANCH   8   9
ENDBRANCH   1   8
TORSDOF 10
ENDMDL
MODEL 3
REMARK VINA RESULT:    -3.303      2.462      5.132
REMARK INTER + INTRA:          -6.027
REMARK INTER:                  -5.244
REMARK INTRA:                  -0.783
REMARK UNBOUND:                -0.793
REMARK SMILES CCCCCCCCCCCC=O
REMARK SMILES IDX 7 1 6 2 5 3 4 4 3 5 2 6 1 7 8 8 9 9 10 10 11 11 12 12 13 13
REMARK H PARENT
REMARK Flexibility Score: inf
ROOT
ATOM      1  C   UNL     1       4.703  -6.080  -5.504  1.00  0.00     0.000 C 
ENDROOT
BRANCH   1   2
ATOM      2  C   UNL     1       5.791  -5.013  -5.308  1.00  0.00     0.000 C 
BRANCH   2   3
ATOM      3  C   UNL     1       6.043  -4.676  -3.828  1.00  0.00    -0.000 C 
BRANCH   3   4
ATOM      4  C   UNL     1       5.837  -3.197  -3.453  1.00  0.00    -0.000 C 
BRANCH   4   5
ATOM      5  C   UNL     1       6.678  -2.239  -4.308  1.00  0.00    -0.000 C 
BRANCH   5   6
ATOM      6  C   UNL     1       7.893  -1.727  -3.526  1.00  0.00    -0.003 C 
ATOM      7  C   UNL     1       9.145  -1.710  -4.399  1.00  0.00     0.004 C 
ENDBRANCH   5   6
ENDBRANCH   4   5
ENDBRANCH   3   4
ENDBRANCH   2   3
ENDBRANCH   1   2
BRANCH   1   8
ATOM      8  C   UNL     1       3.678  -5.630  -6.556  1.00  0.00     0.000 C 
BRANCH   8   9
ATOM      9  C   UNL     1       4.029  -4.272  -7.183  1.00  0.00     0.000 C 
BRANCH   9  10
ATOM     10  C   UNL     1       2.851  -3.286  -7.160  1.00  0.00     0.008 C 
BRANCH  10  11
ATOM     11  C   UNL     1       3.338  -1.856  -6.905  1.00  0.00     0.072 C 
BRANCH  11  12
ATOM     12  C   UNL     1       2.208  -0.873  -6.991  1.00  0.00     0.224 C 
ATOM     13  O   UNL     1       1.057  -1.274  -7.064  1.00  0.00    -0.303 OA
ENDBRANCH  11  12
ENDBRANCH  10  11
ENDBRANCH   9  10
ENDBRANCH   8   9
ENDBRANCH   1   8
TORSDOF 10
ENDMDL
MODEL 4
REMARK VINA RESULT:    -3.245      2.338      4.629
REMARK INTER + INTRA:          -5.935
REMARK INTER:                  -4.773
REMARK INTRA:                  -1.162
REMARK UNBOUND:                -0.793
REMARK SMILES CCCCCCCCCCCC=O
REMARK SMILES IDX 7 1 6 2 5 3 4 4 3 5 2 6 1 7 8 8 9 9 10 10 11 11 12 12 13 13
REMARK H PARENT
REMARK Flexibility Score: inf
ROOT
ATOM      1  C   UNL     1       4.566  -6.189  -7.364  1.00  0.00     0.000 C 
ENDROOT
BRANCH   1   2
ATOM      2  C   UNL     1       4.025  -6.665  -6.007  1.00  0.00     0.000 C 
BRANCH   2   3
ATOM      3  C   UNL     1       5.053  -6.532  -4.869  1.00  0.00    -0.000 C 
BRANCH   3   4
ATOM      4  C   UNL     1       6.082  -5.402  -5.051  1.00  0.00    -0.000 C 
BRANCH   4   5
ATOM      5  C   UNL     1       5.891  -4.250  -4.053  1.00  0.00    -0.000 C 
BRANCH   5   6
ATOM      6  C   UNL     1       5.847  -2.899  -4.776  1.00  0.00    -0.003 C 
ATOM      7  C   UNL     1       6.470  -2.994  -6.165  1.00  0.00     0.004 C 
ENDBRANCH   5   6
ENDBRANCH   4   5
ENDBRANCH   3   4
ENDBRANCH   2   3
ENDBRANCH   1   2
BRANCH   1   8
ATOM      8  C   UNL     1       3.492  -5.414  -8.141  1.00  0.00     0.000 C 
BRANCH   8   9
ATOM      9  C   UNL     1       2.235  -5.140  -7.301  1.00  0.00     0.000 C 
BRANCH   9  10
ATOM     10  C   UNL     1       1.784  -3.673  -7.369  1.00  0.00     0.008 C 
BRANCH  10  11
ATOM     11  C   UNL     1       2.970  -2.724  -7.171  1.00  0.00     0.072 C 
BRANCH  11  12
ATOM     12  C   UNL     1       2.511  -1.307  -7.003  1.00  0.00     0.224 C 
ATOM     13  O   UNL     1       1.333  -1.070  -6.787  1.00  0.00    -0.303 OA
ENDBRANCH  11  12
ENDBRANCH  10  11
ENDBRANCH   9  10
ENDBRANCH   8   9
ENDBRANCH   1   8
TORSDOF 10
ENDMDL
MODEL 5
REMARK VINA RESULT:    -3.168      2.915      5.140
REMARK INTER + INTRA:          -5.813
REMARK INTER:                  -4.458
REMARK INTRA:                  -1.355
REMARK UNBOUND:                -0.793
REMARK SMILES CCCCCCCCCCCC=O
REMARK SMILES IDX 7 1 6 2 5 3 4 4 3 5 2 6 1 7 8 8 9 9 10 10 11 11 12 12 13 13
REMARK H PARENT
REMARK Flexibility Score: inf
ROOT
ATOM      1  C   UNL     1       5.093  -5.490  -7.319  1.00  0.00     0.000 C 
ENDROOT
BRANCH   1   2
ATOM      2  C   UNL     1       4.652  -5.685  -5.860  1.00  0.00     0.000 C 
BRANCH   2   3
ATOM      3  C   UNL     1       4.027  -7.067  -5.600  1.00  0.00    -0.000 C 
BRANCH   3   4
ATOM      4  C   UNL     1       3.417  -7.749  -6.838  1.00  0.00    -0.000 C 
BRANCH   4   5
ATOM      5  C   UNL     1       1.891  -7.591  -6.918  1.00  0.00    -0.000 C 
BRANCH   5   6
ATOM      6  C   UNL     1       1.402  -7.711  -8.366  1.00  0.00    -0.003 C 
ATOM      7  C   UNL     1       2.447  -7.190  -9.348  1.00  0.00     0.004 C 
ENDBRANCH   5   6
ENDBRANCH   4   5
ENDBRANCH   3   4
ENDBRANCH   2   3
ENDBRANCH   1   2
BRANCH   1   8
ATOM      8  C   UNL     1       4.396  -4.273  -7.945  1.00  0.00     0.000 C 
BRANCH   8   9
ATOM      9  C   UNL     1       3.305  -3.683  -7.037  1.00  0.00     0.000 C 
BRANCH   9  10
ATOM     10  C   UNL     1       1.886  -3.988  -7.540  1.00  0.00     0.008 C 
BRANCH  10  11
ATOM     11  C   UNL     1       1.140  -2.698  -7.894  1.00  0.00     0.072 C 
BRANCH  11  12
ATOM     12  C   UNL     1       1.917  -1.487  -7.472  1.00  0.00     0.224 C 
ATOM     13  O   UNL     1       1.438  -0.706  -6.665  1.00  0.00    -0.303 OA
ENDBRANCH  11  12
ENDBRANCH  10  11
ENDBRANCH   9  10
ENDBRANCH   8   9
ENDBRANCH   1   8
TORSDOF 10
ENDMDL
MODEL 6
REMARK VINA RESULT:    -3.166      2.959      5.642
REMARK INTER + INTRA:          -5.810
REMARK INTER:                  -4.989
REMARK INTRA:                  -0.821
REMARK UNBOUND:                -0.793
REMARK SMILES CCCCCCCCCCCC=O
REMARK SMILES IDX 7 1 6 2 5 3 4 4 3 5 2 6 1 7 8 8 9 9 10 10 11 11 12 12 13 13
REMARK H PARENT
REMARK Flexibility Score: inf
ROOT
ATOM      1  C   UNL     1       3.876  -4.251  -7.280  1.00  0.00     0.000 C 
ENDROOT
BRANCH   1   2
ATOM      2  C   UNL     1       3.634  -5.610  -6.606  1.00  0.00     0.000 C 
BRANCH   2   3
ATOM      3  C   UNL     1       4.674  -5.938  -5.520  1.00  0.00    -0.000 C 
BRANCH   3   4
ATOM      4  C   UNL     1       5.704  -4.826  -5.249  1.00  0.00    -0.000 C 
BRANCH   4   5
ATOM      5  C   UNL     1       6.000  -4.634  -3.755  1.00  0.00    -0.000 C 
BRANCH   5   6
ATOM      6  C   UNL     1       6.307  -3.166  -3.439  1.00  0.00    -0.003 C 
ATOM      7  C   UNL     1       5.549  -2.229  -4.374  1.00  0.00     0.004 C 
ENDBRANCH   5   6
ENDBRANCH   4   5
ENDBRANCH   3   4
ENDBRANCH   2   3
ENDBRANCH   1   2
BRANCH   1   8
ATOM      8  C   UNL     1       2.671  -3.319  -7.083  1.00  0.00     0.000 C 
BRANCH   8   9
ATOM      9  C   UNL     1       3.070  -1.835  -7.051  1.00  0.00     0.000 C 
BRANCH   9  10
ATOM     10  C   UNL     1       1.855  -0.894  -7.053  1.00  0.00     0.008 C 
BRANCH  10  11
ATOM     11  C   UNL     1       1.438  -0.540  -8.485  1.00  0.00     0.072 C 
BRANCH  11  12
ATOM     12  C   UNL     1       0.044  -1.010  -8.777  1.00  0.00     0.224 C 
ATOM     13  O   UNL     1      -0.218  -2.201  -8.734  1.00  0.00    -0.303 OA
ENDBRANCH  11  12
ENDBRANCH  10  11
ENDBRANCH   9  10
ENDBRANCH   8   9
ENDBRANCH   1   8
TORSDOF 10
ENDMDL
MODEL 7
REMARK VINA RESULT:    -3.126      2.721      5.032
REMARK INTER + INTRA:          -5.747
REMARK INTER:                  -4.905
REMARK INTRA:                  -0.842
REMARK UNBOUND:                -0.793
REMARK SMILES CCCCCCCCCCCC=O
REMARK SMILES IDX 7 1 6 2 5 3 4 4 3 5 2 6 1 7 8 8 9 9 10 10 11 11 12 12 13 13
REMARK H PARENT
REMARK Flexibility Score: inf
ROOT
ATOM      1  C   UNL     1       2.315  -6.187  -8.807  1.00  0.00     0.000 C 
ENDROOT
BRANCH   1   2
ATOM      2  C   UNL     1       1.412  -7.192  -8.075  1.00  0.00     0.000 C 
BRANCH   2   3
ATOM      3  C   UNL     1       2.052  -7.754  -6.794  1.00  0.00    -0.000 C 
BRANCH   3   4
ATOM      4  C   UNL     1       3.515  -7.338  -6.560  1.00  0.00    -0.000 C 
BRANCH   4   5
ATOM      5  C   UNL     1       4.076  -7.842  -5.222  1.00  0.00    -0.000 C 
BRANCH   5   6
ATOM      6  C   UNL     1       5.434  -7.198  -4.917  1.00  0.00    -0.003 C 
ATOM      7  C   UNL     1       5.342  -5.676  -4.943  1.00  0.00     0.004 C 
ENDBRANCH   5   6
ENDBRANCH   4   5
ENDBRANCH   3   4
ENDBRANCH   2   3
ENDBRANCH   1   2
BRANCH   1   8
ATOM      8  C   UNL     1       1.729  -4.769  -8.736  1.00  0.00     0.000 C 
BRANCH   8   9
ATOM      9  C   UNL     1       1.945  -4.107  -7.366  1.00  0.00     0.000 C 
BRANCH   9  10
ATOM     10  C   UNL     1       3.358  -3.526  -7.205  1.00  0.00     0.008 C 
BRANCH  10  11
ATOM     11  C   UNL     1       3.302  -2.052  -6.788  1.00  0.00     0.072 C 
BRANCH  11  12
ATOM     12  C   UNL     1       2.127  -1.356  -7.409  1.00  0.00     0.224 C 
ATOM     13  O   UNL     1       1.333  -0.757  -6.703  1.00  0.00    -0.303 OA
ENDBRANCH  11  12
ENDBRANCH  10  11
ENDBRANCH   9  10
ENDBRANCH   8   9
ENDBRANCH   1   8
TORSDOF 10
ENDMDL
MODEL 8
REMARK VINA RESULT:    -3.123     13.511     15.406
REMARK INTER + INTRA:          -5.742
REMARK INTER:                  -4.329
REMARK INTRA:                  -1.412
REMARK UNBOUND:                -0.793
REMARK SMILES CCCCCCCCCCCC=O
REMARK SMILES IDX 7 1 6 2 5 3 4 4 3 5 2 6 1 7 8 8 9 9 10 10 11 11 12 12 13 13
REMARK H PARENT
REMARK Flexibility Score: inf
ROOT
ATOM      1  C   UNL     1       5.762   3.254   7.310  1.00  0.00     0.000 C 
ENDROOT
BRANCH   1   2
ATOM      2  C   UNL     1       5.991   1.738   7.404  1.00  0.00     0.000 C 
BRANCH   2   3
ATOM      3  C   UNL     1       7.254   1.369   8.202  1.00  0.00    -0.000 C 
BRANCH   3   4
ATOM      4  C   UNL     1       8.491   1.040   7.347  1.00  0.00    -0.000 C 
BRANCH   4   5
ATOM      5  C   UNL     1       8.137   0.659   5.902  1.00  0.00    -0.000 C 
BRANCH   5   6
ATOM      6  C   UNL     1       8.736   1.660   4.907  1.00  0.00    -0.003 C 
ATOM      7  C   UNL     1       9.769   2.558   5.581  1.00  0.00     0.004 C 
ENDBRANCH   5   6
ENDBRANCH   4   5
ENDBRANCH   3   4
ENDBRANCH   2   3
ENDBRANCH   1   2
BRANCH   1   8
ATOM      8  C   UNL     1       5.699   3.710   5.845  1.00  0.00     0.000 C 
BRANCH   8   9
ATOM      9  C   UNL     1       6.762   4.768   5.508  1.00  0.00     0.000 C 
BRANCH   9  10
ATOM     10  C   UNL     1       7.275   5.511   6.751  1.00  0.00     0.008 C 
BRANCH  10  11
ATOM     11  C   UNL     1       6.731   6.942   6.798  1.00  0.00     0.072 C 
BRANCH  11  12
ATOM     12  C   UNL     1       5.479   7.022   7.618  1.00  0.00     0.224 C 
ATOM     13  O   UNL     1       4.401   6.753   7.111  1.00  0.00    -0.303 OA
ENDBRANCH  11  12
ENDBRANCH  10  11
ENDBRANCH   9  10
ENDBRANCH   8   9
ENDBRANCH   1   8
TORSDOF 10
ENDMDL
MODEL 9
REMARK VINA RESULT:    -3.027      1.336      2.344
REMARK INTER + INTRA:          -5.590
REMARK INTER:                  -4.825
REMARK INTRA:                  -0.764
REMARK UNBOUND:                -0.793
REMARK SMILES CCCCCCCCCCCC=O
REMARK SMILES IDX 7 1 6 2 5 3 4 4 3 5 2 6 1 7 8 8 9 9 10 10 11 11 12 12 13 13
REMARK H PARENT
REMARK Flexibility Score: inf
ROOT
ATOM      1  C   UNL     1       5.684  -4.450  -5.455  1.00  0.00     0.000 C 
ENDROOT
BRANCH   1   2
ATOM      2  C   UNL     1       4.795  -5.690  -5.628  1.00  0.00     0.000 C 
BRANCH   2   3
ATOM      3  C   UNL     1       3.615  -5.456  -6.589  1.00  0.00    -0.000 C 
BRANCH   3   4
ATOM      4  C   UNL     1       3.737  -4.204  -7.476  1.00  0.00    -0.000 C 
BRANCH   4   5
ATOM      5  C   UNL     1       2.586  -3.209  -7.269  1.00  0.00    -0.000 C 
BRANCH   5   6
ATOM      6  C   UNL     1       3.105  -1.874  -6.721  1.00  0.00    -0.003 C 
ATOM      7  C   UNL     1       2.134  -0.737  -7.024  1.00  0.00     0.004 C 
ENDBRANCH   5   6
ENDBRANCH   4   5
ENDBRANCH   3   4
ENDBRANCH   2   3
ENDBRANCH   1   2
BRANCH   1   8
ATOM      8  C   UNL     1       5.891  -4.126  -3.968  1.00  0.00     0.000 C 
BRANCH   8   9
ATOM      9  C   UNL     1       5.815  -2.620  -3.673  1.00  0.00     0.000 C 
BRANCH   9  10
ATOM     10  C   UNL     1       7.138  -2.053  -3.136  1.00  0.00     0.008 C 
BRANCH  10  11
ATOM     11  C   UNL     1       8.131  -3.178  -2.825  1.00  0.00     0.072 C 
BRANCH  11  12
ATOM     12  C   UNL     1       9.409  -3.002  -3.589  1.00  0.00     0.224 C 
ATOM     13  O   UNL     1       9.524  -3.488  -4.703  1.00  0.00    -0.303 OA
ENDBRANCH  11  12
ENDBRANCH  10  11
ENDBRANCH   9  10
ENDBRANCH   8   9
ENDBRANCH   1   8
TORSDOF 10
ENDMDL
