MODEL 1
REMARK VINA RESULT:    -4.398      0.000      0.000
REMARK INTER + INTRA:          -6.659
REMARK INTER:                  -6.712
REMARK INTRA:                   0.053
REMARK UNBOUND:                 0.053
REMARK SMILES CC1=CCC[C@@H](C)C(=O)C[C@@H](C(C)C)C(=O)C1
REMARK SMILES IDX 8 1 9 2 6 3 7 4 5 5 4 6 3 7 2 8 1 9 10 11 11 12 15 13 16 14
REMARK SMILES IDX 17 15 12 17 13 18 14 19
REMARK H PARENT
REMARK Flexibility Score: 70.00
ROOT
ATOM      1  C   UNL     1      18.401 -11.968  68.175  1.00  0.00     0.136 C 
ATOM      2  O   UNL     1      17.905 -13.068  68.376  1.00  0.00    -0.299 OA
ENDROOT
BRANCH   1   3
ATOM      3  C   UNL     1      19.508 -11.503  69.103  1.00  0.00     0.053 C 
ATOM      4  C   UNL     1      19.512  -9.986  69.366  1.00  0.00     0.016 C 
BRANCH   3   5
ATOM      5  C   UNL     1      20.891 -12.013  68.640  1.00  0.00     0.015 C 
BRANCH   5   6
ATOM      6  C   UNL     1      20.861 -12.874  67.355  1.00  0.00     0.028 C 
BRANCH   6   7
ATOM      7  C   UNL     1      21.803 -12.334  66.304  1.00  0.00    -0.028 C 
ATOM      8  C   UNL     1      21.652 -11.204  65.572  1.00  0.00    -0.070 CG0
ATOM      9  C   UNL     1      22.753 -10.854  64.600  1.00  0.00     0.039 C 
ATOM     10  G   UNL     1      20.446 -10.283  65.641  1.00  0.00     0.000 G0
ENDBRANCH   6   7
ENDBRANCH   5   6
ENDBRANCH   3   5
ENDBRANCH   1   3
BRANCH   1  11
ATOM     11  C   UNL     1      17.850 -11.091  67.066  1.00  0.00     0.087 C 
BRANCH  11  12
ATOM     12  C   UNL     1      18.157 -11.627  65.646  1.00  0.00     0.066 C 
BRANCH  12  13
ATOM     13  C   UNL     1      19.252 -10.845  64.931  1.00  0.00     0.140 C 
ATOM     14  O   UNL     1      19.119 -10.630  63.734  1.00  0.00    -0.299 OA
BRANCH  13  15
ATOM     15  C   UNL     1      20.456 -10.264  65.637  1.00  0.00     0.106 CG0
ATOM     16  G   UNL     1      21.648 -11.202  65.550  1.00  0.00     0.000 G0
ENDBRANCH  13  15
ENDBRANCH  12  13
BRANCH  12  17
ATOM     17  C   UNL     1      16.867 -11.799  64.786  1.00  0.00    -0.006 C 
ATOM     18  C   UNL     1      16.742 -13.171  64.101  1.00  0.00     0.008 C 
ATOM     19  C   UNL     1      15.603 -11.513  65.613  1.00  0.00     0.008 C 
ENDBRANCH  12  17
ENDBRANCH  11  12
ENDBRANCH   1  11
TORSDOF 1
ENDMDL
MODEL 2
REMARK VINA RESULT:    -4.136      2.455      5.192
REMARK INTER + INTRA:          -6.260
REMARK INTER:                  -6.034
REMARK INTRA:                  -0.225
REMARK UNBOUND:                 0.053
REMARK SMILES CC1=CCC[C@@H](C)C(=O)C[C@@H](C(C)C)C(=O)C1
REMARK SMILES IDX 8 1 9 2 6 3 7 4 5 5 4 6 3 7 2 8 1 9 10 11 11 12 15 13 16 14
REMARK SMILES IDX 17 15 12 17 13 18 14 19
REMARK H PARENT
REMARK Flexibility Score: 70.00
ROOT
ATOM      1  C   UNL     1      19.749  -9.818  65.812  1.00  0.00     0.136 C 
ATOM      2  O   UNL     1      20.689  -9.204  66.300  1.00  0.00    -0.299 OA
ENDROOT
BRANCH   1   3
ATOM      3  C   UNL     1      19.778 -10.098  64.321  1.00  0.00     0.053 C 
ATOM      4  C   UNL     1      21.047  -9.594  63.611  1.00  0.00     0.016 C 
BRANCH   3   5
ATOM      5  C   UNL     1      18.490  -9.604  63.624  1.00  0.00     0.015 C 
BRANCH   5   6
ATOM      6  C   UNL     1      17.633 -10.724  62.990  1.00  0.00     0.028 C 
BRANCH   6   7
ATOM      7  C   UNL     1      16.161 -10.517  63.265  1.00  0.00    -0.028 C 
ATOM      8  C   UNL     1      15.398 -11.170  64.175  1.00  0.00    -0.070 CG0
ATOM      9  C   UNL     1      13.949 -10.761  64.288  1.00  0.00     0.039 C 
ATOM     10  G   UNL     1      15.890 -12.297  65.067  1.00  0.00     0.000 G0
ENDBRANCH   6   7
ENDBRANCH   5   6
ENDBRANCH   3   5
ENDBRANCH   1   3
BRANCH   1  11
ATOM     11  C   UNL     1      18.574 -10.207  66.690  1.00  0.00     0.087 C 
BRANCH  11  12
ATOM     12  C   UNL     1      18.081 -11.655  66.454  1.00  0.00     0.066 C 
BRANCH  12  13
ATOM     13  C   UNL     1      16.568 -11.761  66.308  1.00  0.00     0.140 C 
ATOM     14  O   UNL     1      15.870 -11.332  67.217  1.00  0.00    -0.299 OA
BRANCH  13  15
ATOM     15  C   UNL     1      15.887 -12.303  65.072  1.00  0.00     0.106 CG0
ATOM     16  G   UNL     1      15.383 -11.177  64.186  1.00  0.00     0.000 G0
ENDBRANCH  13  15
ENDBRANCH  12  13
BRANCH  12  17
ATOM     17  C   UNL     1      18.667 -12.657  67.496  1.00  0.00    -0.006 C 
ATOM     18  C   UNL     1      19.936 -13.388  67.027  1.00  0.00     0.008 C 
ATOM     19  C   UNL     1      18.932 -11.968  68.844  1.00  0.00     0.008 C 
ENDBRANCH  12  17
ENDBRANCH  11  12
ENDBRANCH   1  11
TORSDOF 1
ENDMDL
MODEL 3
REMARK VINA RESULT:    -4.123      1.721      3.755
REMARK INTER + INTRA:          -6.239
REMARK INTER:                  -5.943
REMARK INTRA:                  -0.296
REMARK UNBOUND:                 0.053
REMARK SMILES CC1=CCC[C@@H](C)C(=O)C[C@@H](C(C)C)C(=O)C1
REMARK SMILES IDX 8 1 9 2 6 3 7 4 5 5 4 6 3 7 2 8 1 9 10 11 11 12 15 13 16 14
REMARK SMILES IDX 17 15 12 17 13 18 14 19
REMARK H PARENT
REMARK Flexibility Score: 70.00
ROOT
ATOM      1  C   UNL     1      17.678 -12.280  64.918  1.00  0.00     0.136 C 
ATOM      2  O   UNL     1      16.826 -12.989  64.401  1.00  0.00    -0.299 OA
ENDROOT
BRANCH   1   3
ATOM      3  C   UNL     1      17.529 -10.775  64.791  1.00  0.00     0.053 C 
ATOM      4  C   UNL     1      16.071 -10.299  64.655  1.00  0.00     0.016 C 
BRANCH   3   5
ATOM      5  C   UNL     1      18.431 -10.207  63.673  1.00  0.00     0.015 C 
BRANCH   5   6
ATOM      6  C   UNL     1      19.579  -9.300  64.173  1.00  0.00     0.028 C 
BRANCH   6   7
ATOM      7  C   UNL     1      20.930  -9.840  63.762  1.00  0.00    -0.028 C 
ATOM      8  C   UNL     1      21.863 -10.409  64.563  1.00  0.00    -0.070 CG0
ATOM      9  C   UNL     1      23.130 -10.905  63.909  1.00  0.00     0.039 C 
ATOM     10  G   UNL     1      21.735 -10.559  66.069  1.00  0.00     0.000 G0
ENDBRANCH   6   7
ENDBRANCH   5   6
ENDBRANCH   3   5
ENDBRANCH   1   3
BRANCH   1  11
ATOM     11  C   UNL     1      18.874 -12.924  65.596  1.00  0.00     0.087 C 
BRANCH  11  12
ATOM     12  C   UNL     1      19.557 -12.008  66.642  1.00  0.00     0.066 C 
BRANCH  12  13
ATOM     13  C   UNL     1      21.061 -11.880  66.442  1.00  0.00     0.140 C 
ATOM     14  O   UNL     1      21.742 -12.895  66.520  1.00  0.00    -0.299 OA
BRANCH  13  15
ATOM     15  C   UNL     1      21.745 -10.580  66.082  1.00  0.00     0.106 CG0
ATOM     16  G   UNL     1      21.870 -10.426  64.576  1.00  0.00     0.000 G0
ENDBRANCH  13  15
ENDBRANCH  12  13
BRANCH  12  17
ATOM     17  C   UNL     1      19.164 -12.385  68.104  1.00  0.00    -0.006 C 
ATOM     18  C   UNL     1      19.821 -11.506  69.183  1.00  0.00     0.008 C 
ATOM     19  C   UNL     1      17.638 -12.382  68.290  1.00  0.00     0.008 C 
ENDBRANCH  12  17
ENDBRANCH  11  12
ENDBRANCH   1  11
TORSDOF 1
ENDMDL
MODEL 4
REMARK VINA RESULT:    -4.096     12.410     14.388
REMARK INTER + INTRA:          -6.199
REMARK INTER:                  -5.938
REMARK INTRA:                  -0.261
REMARK UNBOUND:                 0.053
REMARK SMILES CC1=CCC[C@@H](C)C(=O)C[C@@H](C(C)C)C(=O)C1
REMARK SMILES IDX 8 1 9 2 6 3 7 4 5 5 4 6 3 7 2 8 1 9 10 11 11 12 15 13 16 14
REMARK SMILES IDX 17 15 12 17 13 18 14 19
REMARK H PARENT
REMARK Flexibility Score: 70.00
ROOT
ATOM      1  C   UNL     1       9.963  -6.921  57.674  1.00  0.00     0.136 C 
ATOM      2  O   UNL     1       9.479  -6.655  58.766  1.00  0.00    -0.299 OA
ENDROOT
BRANCH   1   3
ATOM      3  C   UNL     1      11.469  -6.818  57.516  1.00  0.00     0.053 C 
ATOM      4  C   UNL     1      11.920  -6.187  56.187  1.00  0.00     0.016 C 
BRANCH   3   5
ATOM      5  C   UNL     1      12.162  -8.174  57.777  1.00  0.00     0.015 C 
BRANCH   5   6
ATOM      6  C   UNL     1      12.422  -9.018  56.508  1.00  0.00     0.028 C 
BRANCH   6   7
ATOM      7  C   UNL     1      11.791 -10.387  56.614  1.00  0.00    -0.028 C 
ATOM      8  C   UNL     1      10.628 -10.799  56.052  1.00  0.00    -0.070 CG0
ATOM      9  C   UNL     1      10.220 -12.235  56.275  1.00  0.00     0.039 C 
ATOM     10  G   UNL     1       9.698  -9.914  55.240  1.00  0.00     0.000 G0
ENDBRANCH   6   7
ENDBRANCH   5   6
ENDBRANCH   3   5
ENDBRANCH   1   3
BRANCH   1  11
ATOM     11  C   UNL     1       9.047  -7.268  56.515  1.00  0.00     0.087 C 
BRANCH  11  12
ATOM     12  C   UNL     1       8.099  -8.456  56.813  1.00  0.00     0.066 C 
BRANCH  12  13
ATOM     13  C   UNL     1       8.379  -9.681  55.952  1.00  0.00     0.140 C 
ATOM     14  O   UNL     1       7.474 -10.488  55.786  1.00  0.00    -0.299 OA
BRANCH  13  15
ATOM     15  C   UNL     1       9.692  -9.913  55.238  1.00  0.00     0.106 CG0
ATOM     16  G   UNL     1      10.626 -10.771  56.074  1.00  0.00     0.000 G0
ENDBRANCH  13  15
ENDBRANCH  12  13
BRANCH  12  17
ATOM     17  C   UNL     1       6.598  -8.032  56.804  1.00  0.00    -0.006 C 
ATOM     18  C   UNL     1       5.829  -8.398  58.085  1.00  0.00     0.008 C 
ATOM     19  C   UNL     1       6.444  -6.529  56.518  1.00  0.00     0.008 C 
ENDBRANCH  12  17
ENDBRANCH  11  12
ENDBRANCH   1  11
TORSDOF 1
ENDMDL
MODEL 5
REMARK VINA RESULT:    -4.038      2.072      4.972
REMARK INTER + INTRA:          -6.109
REMARK INTER:                  -6.050
REMARK INTRA:                  -0.059
REMARK UNBOUND:                 0.053
REMARK SMILES CC1=CCC[C@@H](C)C(=O)C[C@@H](C(C)C)C(=O)C1
REMARK SMILES IDX 8 1 9 2 6 3 7 4 5 5 4 6 3 7 2 8 1 9 10 11 11 12 15 13 16 14
REMARK SMILES IDX 17 15 12 17 13 18 14 19
REMARK H PARENT
REMARK Flexibility Score: 70.00
ROOT
ATOM      1  C   UNL     1      21.862 -10.844  66.116  1.00  0.00     0.136 C 
ATOM      2  O   UNL     1      23.030 -10.676  66.444  1.00  0.00    -0.299 OA
ENDROOT
BRANCH   1   3
ATOM      3  C   UNL     1      21.490 -10.618  64.662  1.00  0.00     0.053 C 
ATOM      4  C   UNL     1      22.685 -10.277  63.753  1.00  0.00     0.016 C 
BRANCH   3   5
ATOM      5  C   UNL     1      20.344  -9.592  64.520  1.00  0.00     0.015 C 
BRANCH   5   6
ATOM      6  C   UNL     1      19.008 -10.187  64.019  1.00  0.00     0.028 C 
BRANCH   6   7
ATOM      7  C   UNL     1      17.952 -10.166  65.101  1.00  0.00    -0.028 C 
ATOM      8  C   UNL     1      17.593 -11.189  65.914  1.00  0.00    -0.070 CG0
ATOM      9  C   UNL     1      16.527 -10.914  66.948  1.00  0.00     0.039 C 
ATOM     10  G   UNL     1      18.166 -12.594  65.842  1.00  0.00     0.000 G0
ENDBRANCH   6   7
ENDBRANCH   5   6
ENDBRANCH   3   5
ENDBRANCH   1   3
BRANCH   1  11
ATOM     11  C   UNL     1      20.832 -11.195  67.173  1.00  0.00     0.087 C 
BRANCH  11  12
ATOM     12  C   UNL     1      20.464 -12.699  67.200  1.00  0.00     0.066 C 
BRANCH  12  13
ATOM     13  C   UNL     1      18.968 -12.956  67.074  1.00  0.00     0.140 C 
ATOM     14  O   UNL     1      18.380 -13.423  68.040  1.00  0.00    -0.299 OA
BRANCH  13  15
ATOM     15  C   UNL     1      18.162 -12.597  65.846  1.00  0.00     0.106 CG0
ATOM     16  G   UNL     1      17.620 -11.181  65.940  1.00  0.00     0.000 G0
ENDBRANCH  13  15
ENDBRANCH  12  13
BRANCH  12  17
ATOM     17  C   UNL     1      21.114 -13.446  68.405  1.00  0.00    -0.006 C 
ATOM     18  C   UNL     1      22.570 -13.882  68.168  1.00  0.00     0.008 C 
ATOM     19  C   UNL     1      21.025 -12.612  69.693  1.00  0.00     0.008 C 
ENDBRANCH  12  17
ENDBRANCH  11  12
ENDBRANCH   1  11
TORSDOF 1
ENDMDL
MODEL 6
REMARK VINA RESULT:    -3.998      3.412      6.024
REMARK INTER + INTRA:          -6.048
REMARK INTER:                  -5.727
REMARK INTRA:                  -0.322
REMARK UNBOUND:                 0.053
REMARK SMILES CC1=CCC[C@@H](C)C(=O)C[C@@H](C(C)C)C(=O)C1
REMARK SMILES IDX 8 1 9 2 6 3 7 4 5 5 4 6 3 7 2 8 1 9 10 11 11 12 15 13 16 14
REMARK SMILES IDX 17 15 12 17 13 18 14 19
REMARK H PARENT
REMARK Flexibility Score: 70.00
ROOT
ATOM      1  C   UNL     1      15.760 -13.124  63.186  1.00  0.00     0.136 C 
ATOM      2  O   UNL     1      15.639 -13.969  62.309  1.00  0.00    -0.299 OA
ENDROOT
BRANCH   1   3
ATOM      3  C   UNL     1      14.510 -12.667  63.915  1.00  0.00     0.053 C 
ATOM      4  C   UNL     1      13.628 -13.819  64.430  1.00  0.00     0.016 C 
BRANCH   3   5
ATOM      5  C   UNL     1      13.703 -11.650  63.078  1.00  0.00     0.015 C 
BRANCH   5   6
ATOM      6  C   UNL     1      13.834 -10.183  63.549  1.00  0.00     0.028 C 
BRANCH   6   7
ATOM      7  C   UNL     1      14.467  -9.314  62.486  1.00  0.00    -0.028 C 
ATOM      8  C   UNL     1      15.681  -8.713  62.534  1.00  0.00    -0.070 CG0
ATOM      9  C   UNL     1      16.111  -7.917  61.326  1.00  0.00     0.039 C 
ATOM     10  G   UNL     1      16.623  -8.762  63.725  1.00  0.00     0.000 G0
ENDBRANCH   6   7
ENDBRANCH   5   6
ENDBRANCH   3   5
ENDBRANCH   1   3
BRANCH   1  11
ATOM     11  C   UNL     1      17.126 -12.520  63.458  1.00  0.00     0.087 C 
BRANCH  11  12
ATOM     12  C   UNL     1      17.082 -11.298  64.409  1.00  0.00     0.066 C 
BRANCH  12  13
ATOM     13  C   UNL     1      17.480  -9.993  63.732  1.00  0.00     0.140 C 
ATOM     14  O   UNL     1      18.530  -9.965  63.105  1.00  0.00    -0.299 OA
BRANCH  13  15
ATOM     15  C   UNL     1      16.611  -8.755  63.736  1.00  0.00     0.106 CG0
ATOM     16  G   UNL     1      15.702  -8.719  62.520  1.00  0.00     0.000 G0
ENDBRANCH  13  15
ENDBRANCH  12  13
BRANCH  12  17
ATOM     17  C   UNL     1      17.851 -11.557  65.741  1.00  0.00    -0.006 C 
ATOM     18  C   UNL     1      17.386 -10.685  66.920  1.00  0.00     0.008 C 
ATOM     19  C   UNL     1      17.796 -13.040  66.138  1.00  0.00     0.008 C 
ENDBRANCH  12  17
ENDBRANCH  11  12
ENDBRANCH   1  11
TORSDOF 1
ENDMDL
MODEL 7
REMARK VINA RESULT:    -3.997     12.999     14.489
REMARK INTER + INTRA:          -6.047
REMARK INTER:                  -5.602
REMARK INTRA:                  -0.445
REMARK UNBOUND:                 0.053
REMARK SMILES CC1=CCC[C@@H](C)C(=O)C[C@@H](C(C)C)C(=O)C1
REMARK SMILES IDX 8 1 9 2 6 3 7 4 5 5 4 6 3 7 2 8 1 9 10 11 11 12 15 13 16 14
REMARK SMILES IDX 17 15 12 17 13 18 14 19
REMARK H PARENT
REMARK Flexibility Score: 70.00
ROOT
ATOM      1  C   UNL     1       8.235 -10.178  56.197  1.00  0.00     0.136 C 
ATOM      2  O   UNL     1       7.126 -10.438  55.750  1.00  0.00    -0.299 OA
ENDROOT
BRANCH   1   3
ATOM      3  C   UNL     1       9.447 -10.581  55.378  1.00  0.00     0.053 C 
ATOM      4  C   UNL     1      10.475 -11.426  56.152  1.00  0.00     0.016 C 
BRANCH   3   5
ATOM      5  C   UNL     1      10.101  -9.362  54.690  1.00  0.00     0.015 C 
BRANCH   5   6
ATOM      6  C   UNL     1      11.530  -9.036  55.183  1.00  0.00     0.028 C 
BRANCH   6   7
ATOM      7  C   UNL     1      11.681  -7.569  55.514  1.00  0.00    -0.028 C 
ATOM      8  C   UNL     1      11.405  -6.963  56.694  1.00  0.00    -0.070 CG0
ATOM      9  C   UNL     1      11.671  -5.480  56.793  1.00  0.00     0.039 C 
ATOM     10  G   UNL     1      10.825  -7.664  57.912  1.00  0.00     0.000 G0
ENDBRANCH   6   7
ENDBRANCH   5   6
ENDBRANCH   3   5
ENDBRANCH   1   3
BRANCH   1  11
ATOM     11  C   UNL     1       8.357  -9.536  57.567  1.00  0.00     0.087 C 
BRANCH  11  12
ATOM     12  C   UNL     1       8.225  -7.993  57.539  1.00  0.00     0.066 C 
BRANCH  12  13
ATOM     13  C   UNL     1       9.404  -7.276  58.184  1.00  0.00     0.140 C 
ATOM     14  O   UNL     1       9.166  -6.385  58.989  1.00  0.00    -0.299 OA
BRANCH  13  15
ATOM     15  C   UNL     1      10.846  -7.655  57.934  1.00  0.00     0.106 CG0
ATOM     16  G   UNL     1      11.386  -6.967  56.691  1.00  0.00     0.000 G0
ENDBRANCH  13  15
ENDBRANCH  12  13
BRANCH  12  17
ATOM     17  C   UNL     1       6.844  -7.507  58.077  1.00  0.00    -0.006 C 
ATOM     18  C   UNL     1       5.807  -7.210  56.980  1.00  0.00     0.008 C 
ATOM     19  C   UNL     1       6.258  -8.504  59.090  1.00  0.00     0.008 C 
ENDBRANCH  12  17
ENDBRANCH  11  12
ENDBRANCH   1  11
TORSDOF 1
ENDMDL
MODEL 8
REMARK VINA RESULT:    -3.861      1.688      3.613
REMARK INTER + INTRA:          -5.840
REMARK INTER:                  -6.196
REMARK INTRA:                   0.356
REMARK UNBOUND:                 0.053
REMARK SMILES CC1=CCC[C@@H](C)C(=O)C[C@@H](C(C)C)C(=O)C1
REMARK SMILES IDX 8 1 9 2 6 3 7 4 5 5 4 6 3 7 2 8 1 9 10 11 11 12 15 13 16 14
REMARK SMILES IDX 17 15 12 17 13 18 14 19
REMARK H PARENT
REMARK Flexibility Score: 70.00
ROOT
ATOM      1  C   UNL     1      20.485 -10.648  65.046  1.00  0.00     0.136 C 
ATOM      2  O   UNL     1      20.811  -9.638  64.436  1.00  0.00    -0.299 OA
ENDROOT
BRANCH   1   3
ATOM      3  C   UNL     1      21.549 -11.370  65.852  1.00  0.00     0.053 C 
ATOM      4  C   UNL     1      22.953 -11.323  65.223  1.00  0.00     0.016 C 
BRANCH   3   5
ATOM      5  C   UNL     1      21.118 -12.813  66.198  1.00  0.00     0.015 C 
BRANCH   5   6
ATOM      6  C   UNL     1      21.154 -13.149  67.707  1.00  0.00     0.028 C 
BRANCH   6   7
ATOM      7  C   UNL     1      20.809 -11.945  68.552  1.00  0.00    -0.028 C 
ATOM      8  C   UNL     1      19.615 -11.306  68.620  1.00  0.00    -0.070 CG0
ATOM      9  C   UNL     1      19.506 -10.138  69.570  1.00  0.00     0.039 C 
ATOM     10  G   UNL     1      18.393 -11.666  67.793  1.00  0.00     0.000 G0
ENDBRANCH   6   7
ENDBRANCH   5   6
ENDBRANCH   3   5
ENDBRANCH   1   3
BRANCH   1  11
ATOM     11  C   UNL     1      19.066 -11.172  64.919  1.00  0.00     0.087 C 
BRANCH  11  12
ATOM     12  C   UNL     1      18.005 -10.241  65.555  1.00  0.00     0.066 C 
BRANCH  12  13
ATOM     13  C   UNL     1      17.841 -10.450  67.055  1.00  0.00     0.140 C 
ATOM     14  O   UNL     1      17.198  -9.622  67.686  1.00  0.00    -0.299 OA
BRANCH  13  15
ATOM     15  C   UNL     1      18.371 -11.661  67.789  1.00  0.00     0.106 CG0
ATOM     16  G   UNL     1      19.596 -11.308  68.616  1.00  0.00     0.000 G0
ENDBRANCH  13  15
ENDBRANCH  12  13
BRANCH  12  17
ATOM     17  C   UNL     1      16.651 -10.271  64.781  1.00  0.00    -0.006 C 
ATOM     18  C   UNL     1      16.649  -9.456  63.477  1.00  0.00     0.008 C 
ATOM     19  C   UNL     1      16.205 -11.714  64.493  1.00  0.00     0.008 C 
ENDBRANCH  12  17
ENDBRANCH  11  12
ENDBRANCH   1  11
TORSDOF 1
ENDMDL
MODEL 9
REMARK VINA RESULT:    -3.772     16.413     18.346
REMARK INTER + INTRA:          -5.704
REMARK INTER:                  -5.232
REMARK INTRA:                  -0.472
REMARK UNBOUND:                 0.053
REMARK SMILES CC1=CCC[C@@H](C)C(=O)C[C@@H](C(C)C)C(=O)C1
REMARK SMILES IDX 8 1 9 2 6 3 7 4 5 5 4 6 3 7 2 8 1 9 10 11 11 12 15 13 16 14
REMARK SMILES IDX 17 15 12 17 13 18 14 19
REMARK H PARENT
REMARK Flexibility Score: 70.00
ROOT
ATOM      1  C   UNL     1       9.927   1.055  62.439  1.00  0.00     0.136 C 
ATOM      2  O   UNL     1      11.077   1.250  62.809  1.00  0.00    -0.299 OA
ENDROOT
BRANCH   1   3
ATOM      3  C   UNL     1       9.696   0.050  61.325  1.00  0.00     0.053 C 
ATOM      4  C   UNL     1       9.872  -1.417  61.757  1.00  0.00     0.016 C 
BRANCH   3   5
ATOM      5  C   UNL     1      10.531   0.389  60.071  1.00  0.00     0.015 C 
BRANCH   5   6
ATOM      6  C   UNL     1       9.886   1.434  59.132  1.00  0.00     0.028 C 
BRANCH   6   7
ATOM      7  C   UNL     1      10.360   2.833  59.452  1.00  0.00    -0.028 C 
ATOM      8  C   UNL     1       9.606   3.878  59.870  1.00  0.00    -0.070 CG0
ATOM      9  C   UNL     1      10.318   5.178  60.159  1.00  0.00     0.039 C 
ATOM     10  G   UNL     1       8.097   3.842  60.043  1.00  0.00     0.000 G0
ENDBRANCH   6   7
ENDBRANCH   5   6
ENDBRANCH   3   5
ENDBRANCH   1   3
BRANCH   1  11
ATOM     11  C   UNL     1       8.798   1.865  63.049  1.00  0.00     0.087 C 
BRANCH  11  12
ATOM     12  C   UNL     1       7.642   2.156  62.060  1.00  0.00     0.066 C 
BRANCH  12  13
ATOM     13  C   UNL     1       7.691   3.560  61.471  1.00  0.00     0.140 C 
ATOM     14  O   UNL     1       7.450   4.504  62.211  1.00  0.00    -0.299 OA
BRANCH  13  15
ATOM     15  C   UNL     1       8.091   3.849  60.041  1.00  0.00     0.106 CG0
ATOM     16  G   UNL     1       9.602   3.875  59.890  1.00  0.00     0.000 G0
ENDBRANCH  13  15
ENDBRANCH  12  13
BRANCH  12  17
ATOM     17  C   UNL     1       6.248   1.790  62.654  1.00  0.00    -0.006 C 
ATOM     18  C   UNL     1       5.717   0.413  62.221  1.00  0.00     0.008 C 
ATOM     19  C   UNL     1       6.253   1.886  64.188  1.00  0.00     0.008 C 
ENDBRANCH  12  17
ENDBRANCH  11  12
ENDBRANCH   1  11
TORSDOF 1
ENDMDL
