MODEL 1
REMARK VINA RESULT:    -3.886      0.000      0.000
REMARK INTER + INTRA:          -6.664
REMARK INTER:                  -5.476
REMARK INTRA:                  -1.187
REMARK UNBOUND:                -1.187
REMARK SMILES COc1c(O[C@H]2O[C@H](C(=O)[O-])[C@H](O)[C@@H](O)[C@@H]2O)cc(O)c2c(=O)cc(-c3ccccc3)oc12
REMARK SMILES IDX 5 1 6 2 8 3 12 4 7 5 14 6 16 7 9 8 10 9 11 10 13 11 15 13
REMARK SMILES IDX 17 15 4 17 3 18 18 19 33 20 19 21 21 22 32 23 22 24 25 25
REMARK SMILES IDX 24 26 23 27 2 28 1 29 20 30 26 32 27 33 31 34 28 35 30 36
REMARK SMILES IDX 29 37
REMARK H PARENT 13 12 15 14 17 16 20 31
REMARK Flexibility Score: inf
ROOT
ATOM      1  O   UNL     1     -30.216  16.705  57.805  1.00  0.00    -0.458 OA
ENDROOT
BRANCH   1   2
ATOM      2  C   UNL     1     -29.989  18.078  57.472  1.00  0.00     0.339 C 
ATOM      3  C   UNL     1     -28.883  20.003  58.267  1.00  0.00     0.199 C 
ATOM      4  C   UNL     1     -28.237  20.289  56.889  1.00  0.00     0.180 C 
ATOM      5  O   UNL     1     -29.121  18.616  58.458  1.00  0.00    -0.328 OA
ATOM      6  C   UNL     1     -29.040  19.646  55.746  1.00  0.00     0.181 C 
ATOM      7  C   UNL     1     -29.334  18.176  56.076  1.00  0.00     0.214 C 
BRANCH   3   8
ATOM      8  C   UNL     1     -30.107  20.827  58.602  1.00  0.00     0.073 C 
ATOM      9  O   UNL     1     -30.584  20.853  59.767  1.00  0.00    -0.547 OA
ATOM     10  O   UNL     1     -30.700  21.599  57.610  1.00  0.00    -0.547 OA
ENDBRANCH   3   8
BRANCH   4  11
ATOM     11  O   UNL     1     -28.116  21.675  56.690  1.00  0.00    -0.387 OA
ATOM     12  H   UNL     1     -28.623  21.895  55.865  1.00  0.00     0.211 HD
ENDBRANCH   4  11
BRANCH   6  13
ATOM     13  O   UNL     1     -28.296  19.727  54.557  1.00  0.00    -0.387 OA
ATOM     14  H   UNL     1     -28.826  20.274  53.919  1.00  0.00     0.211 HD
ENDBRANCH   6  13
BRANCH   7  15
ATOM     15  O   UNL     1     -30.185  17.646  55.093  1.00  0.00    -0.384 OA
ATOM     16  H   UNL     1     -30.194  16.661  55.215  1.00  0.00     0.211 HD
ENDBRANCH   7  15
ENDBRANCH   1   2
BRANCH   1  17
ATOM     17  C   UNL     1     -31.437  16.110  58.171  1.00  0.00     0.172 A 
ATOM     18  C   UNL     1     -32.157  15.438  57.171  1.00  0.00     0.205 A 
ATOM     19  C   UNL     1     -31.944  16.163  59.481  1.00  0.00     0.097 A 
ATOM     20  C   UNL     1     -33.388  14.811  57.490  1.00  0.00     0.188 A 
ATOM     21  C   UNL     1     -33.159  15.554  59.808  1.00  0.00     0.134 A 
ATOM     22  C   UNL     1     -33.891  14.868  58.815  1.00  0.00     0.111 A 
ATOM     23  O   UNL     1     -34.073  14.158  56.554  1.00  0.00    -0.452 OA
ATOM     24  C   UNL     1     -35.117  14.226  59.085  1.00  0.00     0.197 A 
ATOM     25  C   UNL     1     -35.223  13.529  56.780  1.00  0.00     0.138 A 
ATOM     26  C   UNL     1     -35.784  13.555  58.063  1.00  0.00     0.100 A 
ATOM     27  O   UNL     1     -35.632  14.243  60.236  1.00  0.00    -0.289 OA
BRANCH  18  28
ATOM     28  O   UNL     1     -31.586  15.430  55.884  1.00  0.00    -0.490 OA
ATOM     29  C   UNL     1     -31.387  14.292  55.054  1.00  0.00     0.278 C 
ENDBRANCH  18  28
BRANCH  21  30
ATOM     30  O   UNL     1     -33.629  15.634  61.120  1.00  0.00    -0.507 OA
ATOM     31  H   UNL     1     -34.329  14.995  61.478  1.00  0.00     0.293 HD
ENDBRANCH  21  30
BRANCH  25  32
ATOM     32  C   UNL     1     -35.890  12.823  55.658  1.00  0.00     0.017 A 
ATOM     33  C   UNL     1     -36.416  11.526  55.816  1.00  0.00     0.012 A 
ATOM     34  C   UNL     1     -35.983  13.444  54.400  1.00  0.00     0.012 A 
ATOM     35  C   UNL     1     -37.030  10.875  54.742  1.00  0.00     0.001 A 
ATOM     36  C   UNL     1     -36.599  12.789  53.329  1.00  0.00     0.001 A 
ATOM     37  C   UNL     1     -37.124  11.507  53.500  1.00  0.00     0.000 A 
ENDBRANCH  25  32
ENDBRANCH   1  17
TORSDOF 9
ENDMDL
MODEL 2
REMARK VINA RESULT:    -2.680      0.894      2.109
REMARK INTER + INTRA:          -4.964
REMARK INTER:                  -4.042
REMARK INTRA:                  -0.922
REMARK UNBOUND:                -1.187
REMARK SMILES COc1c(O[C@H]2O[C@H](C(=O)[O-])[C@H](O)[C@@H](O)[C@@H]2O)cc(O)c2c(=O)cc(-c3ccccc3)oc12
REMARK SMILES IDX 5 1 6 2 8 3 12 4 7 5 14 6 16 7 9 8 10 9 11 10 13 11 15 13
REMARK SMILES IDX 17 15 4 17 3 18 18 19 33 20 19 21 21 22 32 23 22 24 25 25
REMARK SMILES IDX 24 26 23 27 2 28 1 29 20 30 26 32 27 33 31 34 28 35 30 36
REMARK SMILES IDX 29 37
REMARK H PARENT 13 12 15 14 17 16 20 31
REMARK Flexibility Score: inf
ROOT
ATOM      1  O   UNL     1     -30.190  16.780  57.762  1.00  0.00    -0.458 OA
ENDROOT
BRANCH   1   2
ATOM      2  C   UNL     1     -29.955  18.163  57.483  1.00  0.00     0.339 C 
ATOM      3  C   UNL     1     -30.997  20.043  56.512  1.00  0.00     0.199 C 
ATOM      4  C   UNL     1     -30.648  20.949  57.719  1.00  0.00     0.180 C 
ATOM      5  O   UNL     1     -31.140  18.684  56.900  1.00  0.00    -0.328 OA
ATOM      6  C   UNL     1     -29.438  20.408  58.499  1.00  0.00     0.181 C 
ATOM      7  C   UNL     1     -29.634  18.914  58.794  1.00  0.00     0.214 C 
BRANCH   3   8
ATOM      8  C   UNL     1     -30.097  20.184  55.304  1.00  0.00     0.073 C 
ATOM      9  O   UNL     1     -30.272  19.489  54.268  1.00  0.00    -0.547 OA
ATOM     10  O   UNL     1     -29.072  21.123  55.324  1.00  0.00    -0.547 OA
ENDBRANCH   3   8
BRANCH   4  11
ATOM     11  O   UNL     1     -30.408  22.264  57.283  1.00  0.00    -0.387 OA
ATOM     12  H   UNL     1     -29.809  22.203  56.493  1.00  0.00     0.211 HD
ENDBRANCH   4  11
BRANCH   6  13
ATOM     13  O   UNL     1     -29.311  21.119  59.704  1.00  0.00    -0.387 OA
ATOM     14  H   UNL     1     -28.350  21.102  59.952  1.00  0.00     0.211 HD
ENDBRANCH   6  13
BRANCH   7  15
ATOM     15  O   UNL     1     -28.463  18.406  59.380  1.00  0.00    -0.384 OA
ATOM     16  H   UNL     1     -28.104  17.717  58.762  1.00  0.00     0.211 HD
ENDBRANCH   7  15
ENDBRANCH   1   2
BRANCH   1  17
ATOM     17  C   UNL     1     -31.403  16.188  58.163  1.00  0.00     0.172 A 
ATOM     18  C   UNL     1     -32.133  15.484  57.193  1.00  0.00     0.205 A 
ATOM     19  C   UNL     1     -31.891  16.275  59.478  1.00  0.00     0.097 A 
ATOM     20  C   UNL     1     -33.355  14.859  57.547  1.00  0.00     0.188 A 
ATOM     21  C   UNL     1     -33.097  15.668  59.839  1.00  0.00     0.134 A 
ATOM     22  C   UNL     1     -33.839  14.950  58.877  1.00  0.00     0.111 A 
ATOM     23  O   UNL     1     -34.049  14.176  56.640  1.00  0.00    -0.452 OA
ATOM     24  C   UNL     1     -35.057  14.308  59.182  1.00  0.00     0.197 A 
ATOM     25  C   UNL     1     -35.192  13.547  56.900  1.00  0.00     0.138 A 
ATOM     26  C   UNL     1     -35.734  13.605  58.190  1.00  0.00     0.100 A 
ATOM     27  O   UNL     1     -35.555  14.355  60.340  1.00  0.00    -0.289 OA
BRANCH  18  28
ATOM     28  O   UNL     1     -31.581  15.443  55.898  1.00  0.00    -0.490 OA
ATOM     29  C   UNL     1     -31.315  14.277  55.127  1.00  0.00     0.278 C 
ENDBRANCH  18  28
BRANCH  21  30
ATOM     30  O   UNL     1     -33.548  15.782  61.156  1.00  0.00    -0.507 OA
ATOM     31  H   UNL     1     -34.181  15.106  61.565  1.00  0.00     0.293 HD
ENDBRANCH  21  30
BRANCH  25  32
ATOM     32  C   UNL     1     -35.871  12.806  55.809  1.00  0.00     0.017 A 
ATOM     33  C   UNL     1     -36.489  11.561  56.040  1.00  0.00     0.012 A 
ATOM     34  C   UNL     1     -35.881  13.337  54.507  1.00  0.00     0.012 A 
ATOM     35  C   UNL     1     -37.113  10.875  54.993  1.00  0.00     0.001 A 
ATOM     36  C   UNL     1     -36.507  12.647  53.464  1.00  0.00     0.001 A 
ATOM     37  C   UNL     1     -37.124  11.418  53.707  1.00  0.00     0.000 A 
ENDBRANCH  25  32
ENDBRANCH   1  17
TORSDOF 9
ENDMDL
MODEL 3
REMARK VINA RESULT:    -1.950      2.249      9.041
REMARK INTER + INTRA:          -3.936
REMARK INTER:                  -4.026
REMARK INTRA:                   0.090
REMARK UNBOUND:                -1.187
REMARK SMILES COc1c(O[C@H]2O[C@H](C(=O)[O-])[C@H](O)[C@@H](O)[C@@H]2O)cc(O)c2c(=O)cc(-c3ccccc3)oc12
REMARK SMILES IDX 5 1 6 2 8 3 12 4 7 5 14 6 16 7 9 8 10 9 11 10 13 11 15 13
REMARK SMILES IDX 17 15 4 17 3 18 18 19 33 20 19 21 21 22 32 23 22 24 25 25
REMARK SMILES IDX 24 26 23 27 2 28 1 29 20 30 26 32 27 33 31 34 28 35 30 36
REMARK SMILES IDX 29 37
REMARK H PARENT 13 12 15 14 17 16 20 31
REMARK Flexibility Score: inf
ROOT
ATOM      1  O   UNL     1     -31.424  15.942  55.476  1.00  0.00    -0.458 OA
ENDROOT
BRANCH   1   2
ATOM      2  C   UNL     1     -32.270  14.807  55.685  1.00  0.00     0.339 C 
ATOM      3  C   UNL     1     -32.662  13.069  57.230  1.00  0.00     0.199 C 
ATOM      4  C   UNL     1     -34.189  13.330  57.245  1.00  0.00     0.180 C 
ATOM      5  O   UNL     1     -31.930  14.253  56.946  1.00  0.00    -0.328 OA
ATOM      6  C   UNL     1     -34.652  14.040  55.962  1.00  0.00     0.181 C 
ATOM      7  C   UNL     1     -33.750  15.250  55.680  1.00  0.00     0.214 C 
BRANCH   3   8
ATOM      8  C   UNL     1     -32.202  11.912  56.368  1.00  0.00     0.073 C 
ATOM      9  O   UNL     1     -32.992  10.994  56.023  1.00  0.00    -0.547 OA
ATOM     10  O   UNL     1     -30.887  11.878  55.921  1.00  0.00    -0.547 OA
ENDBRANCH   3   8
BRANCH   4  11
ATOM     11  O   UNL     1     -34.885  12.120  57.420  1.00  0.00    -0.387 OA
ATOM     12  H   UNL     1     -35.500  12.248  58.188  1.00  0.00     0.211 HD
ENDBRANCH   4  11
BRANCH   6  13
ATOM     13  O   UNL     1     -35.981  14.465  56.124  1.00  0.00    -0.387 OA
ATOM     14  H   UNL     1     -36.046  14.879  57.024  1.00  0.00     0.211 HD
ENDBRANCH   6  13
BRANCH   7  15
ATOM     15  O   UNL     1     -34.097  15.801  54.436  1.00  0.00    -0.384 OA
ATOM     16  H   UNL     1     -35.013  16.172  54.527  1.00  0.00     0.211 HD
ENDBRANCH   7  15
ENDBRANCH   1   2
BRANCH   1  17
ATOM     17  C   UNL     1     -31.044  16.905  56.429  1.00  0.00     0.172 A 
ATOM     18  C   UNL     1     -30.003  17.782  56.086  1.00  0.00     0.205 A 
ATOM     19  C   UNL     1     -31.665  17.016  57.684  1.00  0.00     0.097 A 
ATOM     20  C   UNL     1     -29.589  18.778  57.006  1.00  0.00     0.188 A 
ATOM     21  C   UNL     1     -31.264  17.990  58.603  1.00  0.00     0.134 A 
ATOM     22  C   UNL     1     -30.224  18.884  58.270  1.00  0.00     0.111 A 
ATOM     23  O   UNL     1     -28.614  19.625  56.686  1.00  0.00    -0.452 OA
ATOM     24  C   UNL     1     -29.780  19.893  59.149  1.00  0.00     0.197 A 
ATOM     25  C   UNL     1     -28.184  20.597  57.487  1.00  0.00     0.138 A 
ATOM     26  C   UNL     1     -28.757  20.752  58.755  1.00  0.00     0.100 A 
ATOM     27  O   UNL     1     -30.289  20.041  60.294  1.00  0.00    -0.289 OA
BRANCH  18  28
ATOM     28  O   UNL     1     -29.429  17.607  54.812  1.00  0.00    -0.490 OA
ATOM     29  C   UNL     1     -28.374  18.377  54.246  1.00  0.00     0.278 C 
ENDBRANCH  18  28
BRANCH  21  30
ATOM     30  O   UNL     1     -31.905  18.063  59.841  1.00  0.00    -0.507 OA
ATOM     31  H   UNL     1     -32.416  18.888  60.131  1.00  0.00     0.293 HD
ENDBRANCH  21  30
BRANCH  25  32
ATOM     32  C   UNL     1     -27.095  21.489  57.016  1.00  0.00     0.017 A 
ATOM     33  C   UNL     1     -26.506  21.322  55.748  1.00  0.00     0.012 A 
ATOM     34  C   UNL     1     -26.618  22.509  57.857  1.00  0.00     0.012 A 
ATOM     35  C   UNL     1     -25.474  22.167  55.330  1.00  0.00     0.001 A 
ATOM     36  C   UNL     1     -25.586  23.352  57.434  1.00  0.00     0.001 A 
ATOM     37  C   UNL     1     -25.016  23.183  56.171  1.00  0.00     0.000 A 
ENDBRANCH  25  32
ENDBRANCH   1  17
TORSDOF 9
ENDMDL
MODEL 4
REMARK VINA RESULT:    -1.756      1.528      2.311
REMARK INTER + INTRA:          -3.662
REMARK INTER:                  -3.842
REMARK INTRA:                   0.180
REMARK UNBOUND:                -1.187
REMARK SMILES COc1c(O[C@H]2O[C@H](C(=O)[O-])[C@H](O)[C@@H](O)[C@@H]2O)cc(O)c2c(=O)cc(-c3ccccc3)oc12
REMARK SMILES IDX 5 1 6 2 8 3 12 4 7 5 14 6 16 7 9 8 10 9 11 10 13 11 15 13
REMARK SMILES IDX 17 15 4 17 3 18 18 19 33 20 19 21 21 22 32 23 22 24 25 25
REMARK SMILES IDX 24 26 23 27 2 28 1 29 20 30 26 32 27 33 31 34 28 35 30 36
REMARK SMILES IDX 29 37
REMARK H PARENT 13 12 15 14 17 16 20 31
REMARK Flexibility Score: inf
ROOT
ATOM      1  O   UNL     1     -31.507  18.025  57.875  1.00  0.00    -0.458 OA
ENDROOT
BRANCH   1   2
ATOM      2  C   UNL     1     -30.331  17.973  57.062  1.00  0.00     0.339 C 
ATOM      3  C   UNL     1     -28.593  19.349  56.256  1.00  0.00     0.199 C 
ATOM      4  C   UNL     1     -27.499  18.336  56.677  1.00  0.00     0.180 C 
ATOM      5  O   UNL     1     -29.738  19.262  57.093  1.00  0.00    -0.328 OA
ATOM      6  C   UNL     1     -28.064  16.910  56.791  1.00  0.00     0.181 C 
ATOM      7  C   UNL     1     -29.350  16.924  57.631  1.00  0.00     0.214 C 
BRANCH   3   8
ATOM      8  C   UNL     1     -28.973  19.333  54.791  1.00  0.00     0.073 C 
ATOM      9  O   UNL     1     -29.984  19.955  54.367  1.00  0.00    -0.547 OA
ATOM     10  O   UNL     1     -28.173  18.645  53.888  1.00  0.00    -0.547 OA
ENDBRANCH   3   8
BRANCH   4  11
ATOM     11  O   UNL     1     -26.429  18.373  55.766  1.00  0.00    -0.387 OA
ATOM     12  H   UNL     1     -26.584  19.151  55.168  1.00  0.00     0.211 HD
ENDBRANCH   4  11
BRANCH   6  13
ATOM     13  O   UNL     1     -27.107  16.082  57.399  1.00  0.00    -0.387 OA
ATOM     14  H   UNL     1     -26.328  16.655  57.625  1.00  0.00     0.211 HD
ENDBRANCH   6  13
BRANCH   7  15
ATOM     15  O   UNL     1     -29.926  15.644  57.606  1.00  0.00    -0.384 OA
ATOM     16  H   UNL     1     -29.943  15.313  58.541  1.00  0.00     0.211 HD
ENDBRANCH   7  15
ENDBRANCH   1   2
BRANCH   1  17
ATOM     17  C   UNL     1     -32.340  16.949  58.235  1.00  0.00     0.172 A 
ATOM     18  C   UNL     1     -33.016  16.278  57.205  1.00  0.00     0.205 A 
ATOM     19  C   UNL     1     -32.506  16.533  59.567  1.00  0.00     0.097 A 
ATOM     20  C   UNL     1     -33.857  15.179  57.514  1.00  0.00     0.188 A 
ATOM     21  C   UNL     1     -33.337  15.456  59.887  1.00  0.00     0.134 A 
ATOM     22  C   UNL     1     -34.018  14.765  58.861  1.00  0.00     0.111 A 
ATOM     23  O   UNL     1     -34.492  14.525  56.544  1.00  0.00    -0.452 OA
ATOM     24  C   UNL     1     -34.862  13.665  59.118  1.00  0.00     0.197 A 
ATOM     25  C   UNL     1     -35.282  13.475  56.753  1.00  0.00     0.138 A 
ATOM     26  C   UNL     1     -35.495  13.019  58.059  1.00  0.00     0.100 A 
ATOM     27  O   UNL     1     -35.062  13.247  60.291  1.00  0.00    -0.289 OA
BRANCH  18  28
ATOM     28  O   UNL     1     -32.800  16.753  55.897  1.00  0.00    -0.490 OA
ATOM     29  C   UNL     1     -33.774  16.865  54.866  1.00  0.00     0.278 C 
ENDBRANCH  18  28
BRANCH  21  30
ATOM     30  O   UNL     1     -33.478  15.078  61.223  1.00  0.00    -0.507 OA
ATOM     31  H   UNL     1     -33.093  15.631  61.979  1.00  0.00     0.293 HD
ENDBRANCH  21  30
BRANCH  25  32
ATOM     32  C   UNL     1     -35.928  12.818  55.590  1.00  0.00     0.017 A 
ATOM     33  C   UNL     1     -36.373  11.482  55.654  1.00  0.00     0.012 A 
ATOM     34  C   UNL     1     -36.080  13.526  54.384  1.00  0.00     0.012 A 
ATOM     35  C   UNL     1     -36.968  10.880  54.542  1.00  0.00     0.001 A 
ATOM     36  C   UNL     1     -36.677  12.919  53.275  1.00  0.00     0.001 A 
ATOM     37  C   UNL     1     -37.123  11.598  53.354  1.00  0.00     0.000 A 
ENDBRANCH  25  32
ENDBRANCH   1  17
TORSDOF 9
ENDMDL
MODEL 5
REMARK VINA RESULT:    -1.691      2.099      8.400
REMARK INTER + INTRA:          -3.570
REMARK INTER:                  -4.243
REMARK INTRA:                   0.673
REMARK UNBOUND:                -1.187
REMARK SMILES COc1c(O[C@H]2O[C@H](C(=O)[O-])[C@H](O)[C@@H](O)[C@@H]2O)cc(O)c2c(=O)cc(-c3ccccc3)oc12
REMARK SMILES IDX 5 1 6 2 8 3 12 4 7 5 14 6 16 7 9 8 10 9 11 10 13 11 15 13
REMARK SMILES IDX 17 15 4 17 3 18 18 19 33 20 19 21 21 22 32 23 22 24 25 25
REMARK SMILES IDX 24 26 23 27 2 28 1 29 20 30 26 32 27 33 31 34 28 35 30 36
REMARK SMILES IDX 29 37
REMARK H PARENT 13 12 15 14 17 16 20 31
REMARK Flexibility Score: inf
ROOT
ATOM      1  O   UNL     1     -32.730  13.559  57.585  1.00  0.00    -0.458 OA
ENDROOT
BRANCH   1   2
ATOM      2  C   UNL     1     -34.013  13.178  57.077  1.00  0.00     0.339 C 
ATOM      3  C   UNL     1     -35.009  12.077  55.245  1.00  0.00     0.199 C 
ATOM      4  C   UNL     1     -35.887  11.191  56.162  1.00  0.00     0.180 C 
ATOM      5  O   UNL     1     -33.794  12.447  55.880  1.00  0.00    -0.328 OA
ATOM      6  C   UNL     1     -36.094  11.839  57.542  1.00  0.00     0.181 C 
ATOM      7  C   UNL     1     -34.743  12.294  58.113  1.00  0.00     0.214 C 
BRANCH   3   8
ATOM      8  C   UNL     1     -35.701  13.274  54.630  1.00  0.00     0.073 C 
ATOM      9  O   UNL     1     -36.826  13.170  54.074  1.00  0.00    -0.547 OA
ATOM     10  O   UNL     1     -35.097  14.523  54.707  1.00  0.00    -0.547 OA
ENDBRANCH   3   8
BRANCH   4  11
ATOM     11  O   UNL     1     -37.125  10.934  55.546  1.00  0.00    -0.387 OA
ATOM     12  H   UNL     1     -37.824  11.349  56.116  1.00  0.00     0.211 HD
ENDBRANCH   4  11
BRANCH   6  13
ATOM     13  O   UNL     1     -36.686  10.904  58.407  1.00  0.00    -0.387 OA
ATOM     14  H   UNL     1     -36.124  10.869  59.225  1.00  0.00     0.211 HD
ENDBRANCH   6  13
BRANCH   7  15
ATOM     15  O   UNL     1     -34.964  13.007  59.302  1.00  0.00    -0.384 OA
ATOM     16  H   UNL     1     -35.768  12.615  59.731  1.00  0.00     0.211 HD
ENDBRANCH   7  15
ENDBRANCH   1   2
BRANCH   1  17
ATOM     17  C   UNL     1     -32.230  14.866  57.736  1.00  0.00     0.172 A 
ATOM     18  C   UNL     1     -31.483  15.402  56.676  1.00  0.00     0.205 A 
ATOM     19  C   UNL     1     -32.457  15.635  58.890  1.00  0.00     0.097 A 
ATOM     20  C   UNL     1     -30.967  16.719  56.773  1.00  0.00     0.188 A 
ATOM     21  C   UNL     1     -31.949  16.932  59.002  1.00  0.00     0.134 A 
ATOM     22  C   UNL     1     -31.202  17.488  57.941  1.00  0.00     0.111 A 
ATOM     23  O   UNL     1     -30.269  17.244  55.769  1.00  0.00    -0.452 OA
ATOM     24  C   UNL     1     -30.672  18.794  57.990  1.00  0.00     0.197 A 
ATOM     25  C   UNL     1     -29.770  18.477  55.778  1.00  0.00     0.138 A 
ATOM     26  C   UNL     1     -29.954  19.288  56.903  1.00  0.00     0.100 A 
ATOM     27  O   UNL     1     -30.830  19.533  58.999  1.00  0.00    -0.289 OA
BRANCH  18  28
ATOM     28  O   UNL     1     -31.297  14.570  55.555  1.00  0.00    -0.490 OA
ATOM     29  C   UNL     1     -31.118  13.159  55.567  1.00  0.00     0.278 C 
ENDBRANCH  18  28
BRANCH  21  30
ATOM     30  O   UNL     1     -32.193  17.661  60.167  1.00  0.00    -0.507 OA
ATOM     31  H   UNL     1     -31.884  18.620  60.274  1.00  0.00     0.293 HD
ENDBRANCH  21  30
BRANCH  25  32
ATOM     32  C   UNL     1     -29.018  18.958  54.592  1.00  0.00     0.017 A 
ATOM     33  C   UNL     1     -29.639  19.736  53.595  1.00  0.00     0.012 A 
ATOM     34  C   UNL     1     -27.663  18.613  54.438  1.00  0.00     0.012 A 
ATOM     35  C   UNL     1     -28.914  20.168  52.481  1.00  0.00     0.001 A 
ATOM     36  C   UNL     1     -26.943  19.049  53.323  1.00  0.00     0.001 A 
ATOM     37  C   UNL     1     -27.566  19.828  52.345  1.00  0.00     0.000 A 
ENDBRANCH  25  32
ENDBRANCH   1  17
TORSDOF 9
ENDMDL
MODEL 6
REMARK VINA RESULT:    -1.460      1.646      1.969
REMARK INTER + INTRA:          -3.244
REMARK INTER:                  -2.773
REMARK INTRA:                  -0.471
REMARK UNBOUND:                -1.187
REMARK SMILES COc1c(O[C@H]2O[C@H](C(=O)[O-])[C@H](O)[C@@H](O)[C@@H]2O)cc(O)c2c(=O)cc(-c3ccccc3)oc12
REMARK SMILES IDX 5 1 6 2 8 3 12 4 7 5 14 6 16 7 9 8 10 9 11 10 13 11 15 13
REMARK SMILES IDX 17 15 4 17 3 18 18 19 33 20 19 21 21 22 32 23 22 24 25 25
REMARK SMILES IDX 24 26 23 27 2 28 1 29 20 30 26 32 27 33 31 34 28 35 30 36
REMARK SMILES IDX 29 37
REMARK H PARENT 13 12 15 14 17 16 20 31
REMARK Flexibility Score: inf
ROOT
ATOM      1  O   UNL     1     -31.566  18.207  57.341  1.00  0.00    -0.458 OA
ENDROOT
BRANCH   1   2
ATOM      2  C   UNL     1     -30.160  18.336  57.107  1.00  0.00     0.339 C 
ATOM      3  C   UNL     1     -28.099  17.369  57.724  1.00  0.00     0.199 C 
ATOM      4  C   UNL     1     -27.625  17.269  56.253  1.00  0.00     0.180 C 
ATOM      5  O   UNL     1     -29.514  17.296  57.825  1.00  0.00    -0.328 OA
ATOM      6  C   UNL     1     -28.353  18.283  55.355  1.00  0.00     0.181 C 
ATOM      7  C   UNL     1     -29.867  18.201  55.596  1.00  0.00     0.214 C 
BRANCH   3   8
ATOM      8  C   UNL     1     -27.547  18.536  58.514  1.00  0.00     0.073 C 
ATOM      9  O   UNL     1     -27.373  18.463  59.759  1.00  0.00    -0.547 OA
ATOM     10  O   UNL     1     -27.192  19.702  57.847  1.00  0.00    -0.547 OA
ENDBRANCH   3   8
BRANCH   4  11
ATOM     11  O   UNL     1     -26.233  17.454  56.180  1.00  0.00    -0.387 OA
ATOM     12  H   UNL     1     -25.844  16.603  55.849  1.00  0.00     0.211 HD
ENDBRANCH   4  11
BRANCH   6  13
ATOM     13  O   UNL     1     -28.069  17.996  54.010  1.00  0.00    -0.387 OA
ATOM     14  H   UNL     1     -27.083  18.046  53.903  1.00  0.00     0.211 HD
ENDBRANCH   6  13
BRANCH   7  15
ATOM     15  O   UNL     1     -30.502  19.226  54.877  1.00  0.00    -0.384 OA
ATOM     16  H   UNL     1     -29.818  19.921  54.693  1.00  0.00     0.211 HD
ENDBRANCH   7  15
ENDBRANCH   1   2
BRANCH   1  17
ATOM     17  C   UNL     1     -32.257  17.050  57.748  1.00  0.00     0.172 A 
ATOM     18  C   UNL     1     -32.994  16.359  56.774  1.00  0.00     0.205 A 
ATOM     19  C   UNL     1     -32.227  16.575  59.070  1.00  0.00     0.097 A 
ATOM     20  C   UNL     1     -33.699  15.181  57.129  1.00  0.00     0.188 A 
ATOM     21  C   UNL     1     -32.921  15.418  59.435  1.00  0.00     0.134 A 
ATOM     22  C   UNL     1     -33.661  14.707  58.466  1.00  0.00     0.111 A 
ATOM     23  O   UNL     1     -34.390  14.508  56.212  1.00  0.00    -0.452 OA
ATOM     24  C   UNL     1     -34.375  13.529  58.770  1.00  0.00     0.197 A 
ATOM     25  C   UNL     1     -35.060  13.386  56.464  1.00  0.00     0.138 A 
ATOM     26  C   UNL     1     -35.075  12.868  57.765  1.00  0.00     0.100 A 
ATOM     27  O   UNL     1     -34.397  13.055  59.938  1.00  0.00    -0.289 OA
BRANCH  18  28
ATOM     28  O   UNL     1     -32.978  16.897  55.473  1.00  0.00    -0.490 OA
ATOM     29  C   UNL     1     -33.940  16.668  54.450  1.00  0.00     0.278 C 
ENDBRANCH  18  28
BRANCH  21  30
ATOM     30  O   UNL     1     -32.868  14.983  60.760  1.00  0.00    -0.507 OA
ATOM     31  H   UNL     1     -32.338  15.480  61.466  1.00  0.00     0.293 HD
ENDBRANCH  21  30
BRANCH  25  32
ATOM     32  C   UNL     1     -35.785  12.717  55.356  1.00  0.00     0.017 A 
ATOM     33  C   UNL     1     -36.458  11.494  55.552  1.00  0.00     0.012 A 
ATOM     34  C   UNL     1     -35.784  13.293  54.073  1.00  0.00     0.012 A 
ATOM     35  C   UNL     1     -37.125  10.876  54.490  1.00  0.00     0.001 A 
ATOM     36  C   UNL     1     -36.453  12.670  53.015  1.00  0.00     0.001 A 
ATOM     37  C   UNL     1     -37.125  11.464  53.224  1.00  0.00     0.000 A 
ENDBRANCH  25  32
ENDBRANCH   1  17
TORSDOF 9
ENDMDL
MODEL 7
REMARK VINA RESULT:    -1.415      1.977      8.308
REMARK INTER + INTRA:          -3.182
REMARK INTER:                  -3.237
REMARK INTRA:                   0.055
REMARK UNBOUND:                -1.187
REMARK SMILES COc1c(O[C@H]2O[C@H](C(=O)[O-])[C@H](O)[C@@H](O)[C@@H]2O)cc(O)c2c(=O)cc(-c3ccccc3)oc12
REMARK SMILES IDX 5 1 6 2 8 3 12 4 7 5 14 6 16 7 9 8 10 9 11 10 13 11 15 13
REMARK SMILES IDX 17 15 4 17 3 18 18 19 33 20 19 21 21 22 32 23 22 24 25 25
REMARK SMILES IDX 24 26 23 27 2 28 1 29 20 30 26 32 27 33 31 34 28 35 30 36
REMARK SMILES IDX 29 37
REMARK H PARENT 13 12 15 14 17 16 20 31
REMARK Flexibility Score: inf
ROOT
ATOM      1  O   UNL     1     -32.144  15.015  58.184  1.00  0.00    -0.458 OA
ENDROOT
BRANCH   1   2
ATOM      2  C   UNL     1     -33.524  14.662  58.048  1.00  0.00     0.339 C 
ATOM      3  C   UNL     1     -34.944  13.243  56.811  1.00  0.00     0.199 C 
ATOM      4  C   UNL     1     -35.661  12.731  58.084  1.00  0.00     0.180 C 
ATOM      5  O   UNL     1     -33.603  13.626  57.082  1.00  0.00    -0.328 OA
ATOM      6  C   UNL     1     -35.537  13.734  59.243  1.00  0.00     0.181 C 
ATOM      7  C   UNL     1     -34.072  14.166  59.405  1.00  0.00     0.214 C 
BRANCH   3   8
ATOM      8  C   UNL     1     -35.678  14.310  56.027  1.00  0.00     0.073 C 
ATOM      9  O   UNL     1     -35.277  15.503  56.005  1.00  0.00    -0.547 OA
ATOM     10  O   UNL     1     -36.802  13.959  55.290  1.00  0.00    -0.547 OA
ENDBRANCH   3   8
BRANCH   4  11
ATOM     11  O   UNL     1     -37.013  12.464  57.804  1.00  0.00    -0.387 OA
ATOM     12  H   UNL     1     -37.032  11.696  57.174  1.00  0.00     0.211 HD
ENDBRANCH   4  11
BRANCH   6  13
ATOM     13  O   UNL     1     -35.988  13.129  60.428  1.00  0.00    -0.387 OA
ATOM     14  H   UNL     1     -36.622  12.411  60.164  1.00  0.00     0.211 HD
ENDBRANCH   6  13
BRANCH   7  15
ATOM     15  O   UNL     1     -33.998  15.184  60.370  1.00  0.00    -0.384 OA
ATOM     16  H   UNL     1     -33.367  14.876  61.070  1.00  0.00     0.211 HD
ENDBRANCH   7  15
ENDBRANCH   1   2
BRANCH   1  17
ATOM     17  C   UNL     1     -31.579  16.299  58.061  1.00  0.00     0.172 A 
ATOM     18  C   UNL     1     -30.949  16.617  56.848  1.00  0.00     0.205 A 
ATOM     19  C   UNL     1     -31.630  17.251  59.093  1.00  0.00     0.097 A 
ATOM     20  C   UNL     1     -30.374  17.900  56.669  1.00  0.00     0.188 A 
ATOM     21  C   UNL     1     -31.063  18.518  58.932  1.00  0.00     0.134 A 
ATOM     22  C   UNL     1     -30.432  18.856  57.715  1.00  0.00     0.111 A 
ATOM     23  O   UNL     1     -29.787  18.220  55.518  1.00  0.00    -0.452 OA
ATOM     24  C   UNL     1     -29.850  20.121  57.488  1.00  0.00     0.197 A 
ATOM     25  C   UNL     1     -29.243  19.407  55.268  1.00  0.00     0.138 A 
ATOM     26  C   UNL     1     -29.254  20.395  56.260  1.00  0.00     0.100 A 
ATOM     27  O   UNL     1     -29.853  21.017  58.375  1.00  0.00    -0.289 OA
BRANCH  18  28
ATOM     28  O   UNL     1     -30.936  15.610  55.863  1.00  0.00    -0.490 OA
ATOM     29  C   UNL     1     -32.058  15.119  55.140  1.00  0.00     0.278 C 
ENDBRANCH  18  28
BRANCH  21  30
ATOM     30  O   UNL     1     -31.132  19.434  59.983  1.00  0.00    -0.507 OA
ATOM     31  H   UNL     1     -31.124  20.434  59.824  1.00  0.00     0.293 HD
ENDBRANCH  21  30
BRANCH  25  32
ATOM     32  C   UNL     1     -28.626  19.652  53.940  1.00  0.00     0.017 A 
ATOM     33  C   UNL     1     -27.235  19.543  53.746  1.00  0.00     0.012 A 
ATOM     34  C   UNL     1     -29.436  20.025  52.853  1.00  0.00     0.012 A 
ATOM     35  C   UNL     1     -26.675  19.788  52.488  1.00  0.00     0.001 A 
ATOM     36  C   UNL     1     -28.870  20.269  51.598  1.00  0.00     0.001 A 
ATOM     37  C   UNL     1     -27.491  20.149  51.415  1.00  0.00     0.000 A 
ENDBRANCH  25  32
ENDBRANCH   1  17
TORSDOF 9
ENDMDL
MODEL 8
REMARK VINA RESULT:    -1.200      2.338      9.202
REMARK INTER + INTRA:          -2.878
REMARK INTER:                  -2.900
REMARK INTRA:                   0.022
REMARK UNBOUND:                -1.187
REMARK SMILES COc1c(O[C@H]2O[C@H](C(=O)[O-])[C@H](O)[C@@H](O)[C@@H]2O)cc(O)c2c(=O)cc(-c3ccccc3)oc12
REMARK SMILES IDX 5 1 6 2 8 3 12 4 7 5 14 6 16 7 9 8 10 9 11 10 13 11 15 13
REMARK SMILES IDX 17 15 4 17 3 18 18 19 33 20 19 21 21 22 32 23 22 24 25 25
REMARK SMILES IDX 24 26 23 27 2 28 1 29 20 30 26 32 27 33 31 34 28 35 30 36
REMARK SMILES IDX 29 37
REMARK H PARENT 13 12 15 14 17 16 20 31
REMARK Flexibility Score: inf
ROOT
ATOM      1  O   UNL     1     -30.880  15.545  57.977  1.00  0.00    -0.458 OA
ENDROOT
BRANCH   1   2
ATOM      2  C   UNL     1     -32.053  14.727  58.001  1.00  0.00     0.339 C 
ATOM      3  C   UNL     1     -34.406  14.891  58.021  1.00  0.00     0.199 C 
ATOM      4  C   UNL     1     -34.559  13.858  56.878  1.00  0.00     0.180 C 
ATOM      5  O   UNL     1     -33.175  15.594  57.931  1.00  0.00    -0.328 OA
ATOM      6  C   UNL     1     -33.335  12.932  56.787  1.00  0.00     0.181 C 
ATOM      7  C   UNL     1     -32.047  13.768  56.790  1.00  0.00     0.214 C 
BRANCH   3   8
ATOM      8  C   UNL     1     -34.643  14.364  59.420  1.00  0.00     0.073 C 
ATOM      9  O   UNL     1     -35.247  13.277  59.619  1.00  0.00    -0.547 OA
ATOM     10  O   UNL     1     -34.156  15.078  60.508  1.00  0.00    -0.547 OA
ENDBRANCH   3   8
BRANCH   4  11
ATOM     11  O   UNL     1     -35.734  13.107  57.059  1.00  0.00    -0.387 OA
ATOM     12  H   UNL     1     -36.065  13.302  57.975  1.00  0.00     0.211 HD
ENDBRANCH   4  11
BRANCH   6  13
ATOM     13  O   UNL     1     -33.411  12.181  55.603  1.00  0.00    -0.387 OA
ATOM     14  H   UNL     1     -32.855  11.369  55.737  1.00  0.00     0.211 HD
ENDBRANCH   6  13
BRANCH   7  15
ATOM     15  O   UNL     1     -30.940  12.906  56.850  1.00  0.00    -0.384 OA
ATOM     16  H   UNL     1     -30.844  12.620  57.795  1.00  0.00     0.211 HD
ENDBRANCH   7  15
ENDBRANCH   1   2
BRANCH   1  17
ATOM     17  C   UNL     1     -30.645  16.672  57.167  1.00  0.00     0.172 A 
ATOM     18  C   UNL     1     -29.544  17.481  57.483  1.00  0.00     0.205 A 
ATOM     19  C   UNL     1     -31.462  17.000  56.071  1.00  0.00     0.097 A 
ATOM     20  C   UNL     1     -29.257  18.621  56.691  1.00  0.00     0.188 A 
ATOM     21  C   UNL     1     -31.194  18.124  55.284  1.00  0.00     0.134 A 
ATOM     22  C   UNL     1     -30.085  18.943  55.585  1.00  0.00     0.111 A 
ATOM     23  O   UNL     1     -28.206  19.389  56.971  1.00  0.00    -0.452 OA
ATOM     24  C   UNL     1     -29.757  20.085  54.824  1.00  0.00     0.197 A 
ATOM     25  C   UNL     1     -27.862  20.462  56.265  1.00  0.00     0.138 A 
ATOM     26  C   UNL     1     -28.641  20.845  55.167  1.00  0.00     0.100 A 
ATOM     27  O   UNL     1     -30.453  20.440  53.834  1.00  0.00    -0.289 OA
BRANCH  18  28
ATOM     28  O   UNL     1     -28.775  17.090  58.596  1.00  0.00    -0.490 OA
ATOM     29  C   UNL     1     -27.480  17.568  58.941  1.00  0.00     0.278 C 
ENDBRANCH  18  28
BRANCH  21  30
ATOM     30  O   UNL     1     -32.032  18.416  54.207  1.00  0.00    -0.507 OA
ATOM     31  H   UNL     1     -32.373  19.354  54.034  1.00  0.00     0.293 HD
ENDBRANCH  21  30
BRANCH  25  32
ATOM     32  C   UNL     1     -26.660  21.234  56.667  1.00  0.00     0.017 A 
ATOM     33  C   UNL     1     -25.930  20.904  57.826  1.00  0.00     0.012 A 
ATOM     34  C   UNL     1     -26.248  22.335  55.895  1.00  0.00     0.012 A 
ATOM     35  C   UNL     1     -24.807  21.653  58.191  1.00  0.00     0.001 A 
ATOM     36  C   UNL     1     -25.124  23.080  56.265  1.00  0.00     0.001 A 
ATOM     37  C   UNL     1     -24.403  22.738  57.411  1.00  0.00     0.000 A 
ENDBRANCH  25  32
ENDBRANCH   1  17
TORSDOF 9
ENDMDL
MODEL 9
REMARK VINA RESULT:    -1.115      2.142      8.954
REMARK INTER + INTRA:          -2.758
REMARK INTER:                  -2.538
REMARK INTRA:                  -0.220
REMARK UNBOUND:                -1.187
REMARK SMILES COc1c(O[C@H]2O[C@H](C(=O)[O-])[C@H](O)[C@@H](O)[C@@H]2O)cc(O)c2c(=O)cc(-c3ccccc3)oc12
REMARK SMILES IDX 5 1 6 2 8 3 12 4 7 5 14 6 16 7 9 8 10 9 11 10 13 11 15 13
REMARK SMILES IDX 17 15 4 17 3 18 18 19 33 20 19 21 21 22 32 23 22 24 25 25
REMARK SMILES IDX 24 26 23 27 2 28 1 29 20 30 26 32 27 33 31 34 28 35 30 36
REMARK SMILES IDX 29 37
REMARK H PARENT 13 12 15 14 17 16 20 31
REMARK Flexibility Score: inf
ROOT
ATOM      1  O   UNL     1     -31.494  15.631  55.826  1.00  0.00    -0.458 OA
ENDROOT
BRANCH   1   2
ATOM      2  C   UNL     1     -32.479  14.618  56.051  1.00  0.00     0.339 C 
ATOM      3  C   UNL     1     -34.585  13.898  55.272  1.00  0.00     0.199 C 
ATOM      4  C   UNL     1     -34.115  12.428  55.144  1.00  0.00     0.180 C 
ATOM      5  O   UNL     1     -33.510  14.810  55.095  1.00  0.00    -0.328 OA
ATOM      6  C   UNL     1     -32.914  12.138  56.059  1.00  0.00     0.181 C 
ATOM      7  C   UNL     1     -31.842  13.222  55.873  1.00  0.00     0.214 C 
BRANCH   3   8
ATOM      8  C   UNL     1     -35.392  14.224  56.511  1.00  0.00     0.073 C 
ATOM      9  O   UNL     1     -34.874  14.811  57.497  1.00  0.00    -0.547 OA
ATOM     10  O   UNL     1     -36.742  13.897  56.548  1.00  0.00    -0.547 OA
ENDBRANCH   3   8
BRANCH   4  11
ATOM     11  O   UNL     1     -35.178  11.553  55.431  1.00  0.00    -0.387 OA
ATOM     12  H   UNL     1     -35.104  11.313  56.391  1.00  0.00     0.211 HD
ENDBRANCH   4  11
BRANCH   6  13
ATOM     13  O   UNL     1     -32.380  10.880  55.735  1.00  0.00    -0.387 OA
ATOM     14  H   UNL     1     -32.537  10.739  54.765  1.00  0.00     0.211 HD
ENDBRANCH   6  13
BRANCH   7  15
ATOM     15  O   UNL     1     -30.819  13.022  56.814  1.00  0.00    -0.384 OA
ATOM     16  H   UNL     1     -30.445  12.118  56.650  1.00  0.00     0.211 HD
ENDBRANCH   7  15
ENDBRANCH   1   2
BRANCH   1  17
ATOM     17  C   UNL     1     -31.128  16.671  56.701  1.00  0.00     0.172 A 
ATOM     18  C   UNL     1     -30.082  17.517  56.304  1.00  0.00     0.205 A 
ATOM     19  C   UNL     1     -31.769  16.884  57.934  1.00  0.00     0.097 A 
ATOM     20  C   UNL     1     -29.682  18.586  57.144  1.00  0.00     0.188 A 
ATOM     21  C   UNL     1     -31.382  17.931  58.775  1.00  0.00     0.134 A 
ATOM     22  C   UNL     1     -30.336  18.795  58.385  1.00  0.00     0.111 A 
ATOM     23  O   UNL     1     -28.701  19.405  56.771  1.00  0.00    -0.452 OA
ATOM     24  C   UNL     1     -29.906  19.874  59.185  1.00  0.00     0.197 A 
ATOM     25  C   UNL     1     -28.284  20.440  57.495  1.00  0.00     0.138 A 
ATOM     26  C   UNL     1     -28.877  20.698  58.737  1.00  0.00     0.100 A 
ATOM     27  O   UNL     1     -30.432  20.115  60.306  1.00  0.00    -0.289 OA
BRANCH  18  28
ATOM     28  O   UNL     1     -29.488  17.238  55.057  1.00  0.00    -0.490 OA
ATOM     29  C   UNL     1     -28.501  18.022  54.396  1.00  0.00     0.278 C 
ENDBRANCH  18  28
BRANCH  21  30
ATOM     30  O   UNL     1     -32.042  18.105  59.993  1.00  0.00    -0.507 OA
ATOM     31  H   UNL     1     -31.649  18.667  60.739  1.00  0.00     0.293 HD
ENDBRANCH  21  30
BRANCH  25  32
ATOM     32  C   UNL     1     -27.188  21.291  56.970  1.00  0.00     0.017 A 
ATOM     33  C   UNL     1     -26.855  21.296  55.601  1.00  0.00     0.012 A 
ATOM     34  C   UNL     1     -26.443  22.093  57.852  1.00  0.00     0.012 A 
ATOM     35  C   UNL     1     -25.811  22.098  55.130  1.00  0.00     0.001 A 
ATOM     36  C   UNL     1     -25.401  22.893  57.376  1.00  0.00     0.001 A 
ATOM     37  C   UNL     1     -25.086  22.898  56.015  1.00  0.00     0.000 A 
ENDBRANCH  25  32
ENDBRANCH   1  17
TORSDOF 9
ENDMDL
