MODEL 1
REMARK VINA RESULT:    -3.627      0.000      0.000
REMARK INTER + INTRA:          -4.914
REMARK INTER:                  -4.688
REMARK INTRA:                  -0.226
REMARK UNBOUND:                -0.226
REMARK SMILES CCCCCCC(=O)[O-]
REMARK SMILES IDX 5 1 6 2 7 3 8 4 9 5 4 6 3 7 2 8 1 9
REMARK H PARENT
REMARK Flexibility Score: inf
ROOT
ATOM      1  C   UNL     1      26.225  -7.395   0.211  1.00  0.00     0.006 C 
ENDROOT
BRANCH   1   2
ATOM      2  C   UNL     1      26.396  -8.393   1.365  1.00  0.00     0.053 C 
BRANCH   2   3
ATOM      3  C   UNL     1      25.107  -8.630   2.091  1.00  0.00     0.041 C 
ATOM      4  O   UNL     1      25.096  -8.733   3.346  1.00  0.00    -0.550 OA
ATOM      5  O   UNL     1      23.913  -8.702   1.384  1.00  0.00    -0.550 OA
ENDBRANCH   2   3
ENDBRANCH   1   2
BRANCH   1   6
ATOM      6  C   UNL     1      26.225  -8.086  -1.161  1.00  0.00     0.000 C 
BRANCH   6   7
ATOM      7  C   UNL     1      27.451  -8.997  -1.316  1.00  0.00    -0.000 C 
BRANCH   7   8
ATOM      8  C   UNL     1      28.509  -8.408  -2.261  1.00  0.00    -0.003 C 
ATOM      9  C   UNL     1      27.958  -7.287  -3.142  1.00  0.00     0.004 C 
ENDBRANCH   7   8
ENDBRANCH   6   7
ENDBRANCH   1   6
TORSDOF 5
ENDMDL
MODEL 2
REMARK VINA RESULT:    -3.572      1.661      2.076
REMARK INTER + INTRA:          -4.842
REMARK INTER:                  -4.565
REMARK INTRA:                  -0.276
REMARK UNBOUND:                -0.226
REMARK SMILES CCCCCCC(=O)[O-]
REMARK SMILES IDX 5 1 6 2 7 3 8 4 9 5 4 6 3 7 2 8 1 9
REMARK H PARENT
REMARK Flexibility Score: inf
ROOT
ATOM      1  C   UNL     1      25.602  -7.614   0.015  1.00  0.00     0.006 C 
ENDROOT
BRANCH   1   2
ATOM      2  C   UNL     1      26.284  -6.363   0.586  1.00  0.00     0.053 C 
BRANCH   2   3
ATOM      3  C   UNL     1      26.649  -6.538   2.029  1.00  0.00     0.041 C 
ATOM      4  O   UNL     1      26.527  -7.662   2.581  1.00  0.00    -0.550 OA
ATOM      5  O   UNL     1      27.156  -5.466   2.753  1.00  0.00    -0.550 OA
ENDBRANCH   2   3
ENDBRANCH   1   2
BRANCH   1   6
ATOM      6  C   UNL     1      26.212  -8.049  -1.325  1.00  0.00     0.000 C 
BRANCH   6   7
ATOM      7  C   UNL     1      27.533  -8.800  -1.110  1.00  0.00    -0.000 C 
BRANCH   7   8
ATOM      8  C   UNL     1      28.591  -8.450  -2.168  1.00  0.00    -0.003 C 
ATOM      9  C   UNL     1      28.118  -7.373  -3.143  1.00  0.00     0.004 C 
ENDBRANCH   7   8
ENDBRANCH   6   7
ENDBRANCH   1   6
TORSDOF 5
ENDMDL
MODEL 3
REMARK VINA RESULT:    -3.561     18.626     19.629
REMARK INTER + INTRA:          -4.828
REMARK INTER:                  -4.441
REMARK INTRA:                  -0.387
REMARK UNBOUND:                -0.226
REMARK SMILES CCCCCCC(=O)[O-]
REMARK SMILES IDX 5 1 6 2 7 3 8 4 9 5 4 6 3 7 2 8 1 9
REMARK H PARENT
REMARK Flexibility Score: inf
ROOT
ATOM      1  C   UNL     1      16.109   7.245   5.689  1.00  0.00     0.006 C 
ENDROOT
BRANCH   1   2
ATOM      2  C   UNL     1      17.374   6.416   5.944  1.00  0.00     0.053 C 
BRANCH   2   3
ATOM      3  C   UNL     1      17.881   6.590   7.343  1.00  0.00     0.041 C 
ATOM      4  O   UNL     1      19.091   6.367   7.611  1.00  0.00    -0.550 OA
ATOM      5  O   UNL     1      17.024   7.033   8.343  1.00  0.00    -0.550 OA
ENDBRANCH   2   3
ENDBRANCH   1   2
BRANCH   1   6
ATOM      6  C   UNL     1      16.347   8.374   4.675  1.00  0.00     0.000 C 
BRANCH   6   7
ATOM      7  C   UNL     1      16.849   9.644   5.375  1.00  0.00    -0.000 C 
BRANCH   7   8
ATOM      8  C   UNL     1      18.310   9.972   5.030  1.00  0.00    -0.003 C 
ATOM      9  C   UNL     1      19.234   9.905   6.246  1.00  0.00     0.004 C 
ENDBRANCH   7   8
ENDBRANCH   6   7
ENDBRANCH   1   6
TORSDOF 5
ENDMDL
MODEL 4
REMARK VINA RESULT:    -3.530     19.044     20.031
REMARK INTER + INTRA:          -4.788
REMARK INTER:                  -4.447
REMARK INTRA:                  -0.341
REMARK UNBOUND:                -0.226
REMARK SMILES CCCCCCC(=O)[O-]
REMARK SMILES IDX 5 1 6 2 7 3 8 4 9 5 4 6 3 7 2 8 1 9
REMARK H PARENT
REMARK Flexibility Score: inf
ROOT
ATOM      1  C   UNL     1      16.662   9.019   5.473  1.00  0.00     0.006 C 
ENDROOT
BRANCH   1   2
ATOM      2  C   UNL     1      16.187   7.617   5.881  1.00  0.00     0.053 C 
BRANCH   2   3
ATOM      3  C   UNL     1      17.092   7.000   6.904  1.00  0.00     0.041 C 
ATOM      4  O   UNL     1      17.744   5.959   6.627  1.00  0.00    -0.550 OA
ATOM      5  O   UNL     1      17.240   7.594   8.151  1.00  0.00    -0.550 OA
ENDBRANCH   2   3
ENDBRANCH   1   2
BRANCH   1   6
ATOM      6  C   UNL     1      18.112   9.019   4.970  1.00  0.00     0.000 C 
BRANCH   6   7
ATOM      7  C   UNL     1      18.735  10.417   5.088  1.00  0.00    -0.000 C 
BRANCH   7   8
ATOM      8  C   UNL     1      19.216  10.731   6.513  1.00  0.00    -0.003 C 
ATOM      9  C   UNL     1      19.970   9.566   7.153  1.00  0.00     0.004 C 
ENDBRANCH   7   8
ENDBRANCH   6   7
ENDBRANCH   1   6
TORSDOF 5
ENDMDL
MODEL 5
REMARK VINA RESULT:    -3.525      0.896      1.113
REMARK INTER + INTRA:          -4.781
REMARK INTER:                  -4.591
REMARK INTRA:                  -0.190
REMARK UNBOUND:                -0.226
REMARK SMILES CCCCCCC(=O)[O-]
REMARK SMILES IDX 5 1 6 2 7 3 8 4 9 5 4 6 3 7 2 8 1 9
REMARK H PARENT
REMARK Flexibility Score: inf
ROOT
ATOM      1  C   UNL     1      26.646  -6.947   0.113  1.00  0.00     0.006 C 
ENDROOT
BRANCH   1   2
ATOM      2  C   UNL     1      26.199  -7.543   1.455  1.00  0.00     0.053 C 
BRANCH   2   3
ATOM      3  C   UNL     1      24.711  -7.707   1.523  1.00  0.00     0.041 C 
ATOM      4  O   UNL     1      24.201  -8.858   1.545  1.00  0.00    -0.550 OA
ATOM      5  O   UNL     1      23.891  -6.588   1.595  1.00  0.00    -0.550 OA
ENDBRANCH   2   3
ENDBRANCH   1   2
BRANCH   1   6
ATOM      6  C   UNL     1      26.334  -7.875  -1.069  1.00  0.00     0.000 C 
BRANCH   6   7
ATOM      7  C   UNL     1      27.449  -8.913  -1.263  1.00  0.00    -0.000 C 
BRANCH   7   8
ATOM      8  C   UNL     1      28.458  -8.501  -2.347  1.00  0.00    -0.003 C 
ATOM      9  C   UNL     1      27.972  -7.321  -3.189  1.00  0.00     0.004 C 
ENDBRANCH   7   8
ENDBRANCH   6   7
ENDBRANCH   1   6
TORSDOF 5
ENDMDL
MODEL 6
REMARK VINA RESULT:    -3.504     18.624     19.650
REMARK INTER + INTRA:          -4.755
REMARK INTER:                  -4.395
REMARK INTRA:                  -0.359
REMARK UNBOUND:                -0.226
REMARK SMILES CCCCCCC(=O)[O-]
REMARK SMILES IDX 5 1 6 2 7 3 8 4 9 5 4 6 3 7 2 8 1 9
REMARK H PARENT
REMARK Flexibility Score: inf
ROOT
ATOM      1  C   UNL     1      18.831   6.787   7.294  1.00  0.00     0.006 C 
ENDROOT
BRANCH   1   2
ATOM      2  C   UNL     1      17.330   7.080   7.423  1.00  0.00     0.053 C 
BRANCH   2   3
ATOM      3  C   UNL     1      16.692   7.314   6.087  1.00  0.00     0.041 C 
ATOM      4  O   UNL     1      16.130   8.413   5.838  1.00  0.00    -0.550 OA
ATOM      5  O   UNL     1      16.748   6.331   5.108  1.00  0.00    -0.550 OA
ENDBRANCH   2   3
ENDBRANCH   1   2
BRANCH   1   6
ATOM      6  C   UNL     1      19.573   7.881   6.513  1.00  0.00     0.000 C 
BRANCH   6   7
ATOM      7  C   UNL     1      20.341   8.810   7.464  1.00  0.00    -0.000 C 
BRANCH   7   8
ATOM      8  C   UNL     1      19.947  10.286   7.295  1.00  0.00    -0.003 C 
ATOM      9  C   UNL     1      19.062  10.525   6.072  1.00  0.00     0.004 C 
ENDBRANCH   7   8
ENDBRANCH   6   7
ENDBRANCH   1   6
TORSDOF 5
ENDMDL
MODEL 7
REMARK VINA RESULT:    -3.340     18.982     20.014
REMARK INTER + INTRA:          -4.542
REMARK INTER:                  -4.364
REMARK INTRA:                  -0.178
REMARK UNBOUND:                -0.226
REMARK SMILES CCCCCCC(=O)[O-]
REMARK SMILES IDX 5 1 6 2 7 3 8 4 9 5 4 6 3 7 2 8 1 9
REMARK H PARENT
REMARK Flexibility Score: inf
ROOT
ATOM      1  C   UNL     1      16.641   9.168   5.191  1.00  0.00     0.006 C 
ENDROOT
BRANCH   1   2
ATOM      2  C   UNL     1      16.249   7.833   5.839  1.00  0.00     0.053 C 
BRANCH   2   3
ATOM      3  C   UNL     1      16.669   6.663   5.001  1.00  0.00     0.041 C 
ATOM      4  O   UNL     1      17.725   6.035   5.275  1.00  0.00    -0.550 OA
ATOM      5  O   UNL     1      15.875   6.247   3.940  1.00  0.00    -0.550 OA
ENDBRANCH   2   3
ENDBRANCH   1   2
BRANCH   1   6
ATOM      6  C   UNL     1      18.157   9.408   5.223  1.00  0.00     0.000 C 
BRANCH   6   7
ATOM      7  C   UNL     1      18.474  10.892   5.452  1.00  0.00    -0.000 C 
BRANCH   7   8
ATOM      8  C   UNL     1      19.367  11.124   6.681  1.00  0.00    -0.003 C 
ATOM      9  C   UNL     1      19.955   9.828   7.237  1.00  0.00     0.004 C 
ENDBRANCH   7   8
ENDBRANCH   6   7
ENDBRANCH   1   6
TORSDOF 5
ENDMDL
MODEL 8
REMARK VINA RESULT:    -3.305     18.382     19.395
REMARK INTER + INTRA:          -4.497
REMARK INTER:                  -4.087
REMARK INTRA:                  -0.410
REMARK UNBOUND:                -0.226
REMARK SMILES CCCCCCC(=O)[O-]
REMARK SMILES IDX 5 1 6 2 7 3 8 4 9 5 4 6 3 7 2 8 1 9
REMARK H PARENT
REMARK Flexibility Score: inf
ROOT
ATOM      1  C   UNL     1      19.952   7.607   6.616  1.00  0.00     0.006 C 
ENDROOT
BRANCH   1   2
ATOM      2  C   UNL     1      19.062   6.706   7.483  1.00  0.00     0.053 C 
BRANCH   2   3
ATOM      3  C   UNL     1      17.720   6.480   6.855  1.00  0.00     0.041 C 
ATOM      4  O   UNL     1      16.669   6.678   7.518  1.00  0.00    -0.550 OA
ATOM      5  O   UNL     1      17.632   6.082   5.527  1.00  0.00    -0.550 OA
ENDBRANCH   2   3
ENDBRANCH   1   2
BRANCH   1   6
ATOM      6  C   UNL     1      20.235   8.960   7.284  1.00  0.00     0.000 C 
BRANCH   6   7
ATOM      7  C   UNL     1      19.245  10.029   6.799  1.00  0.00    -0.000 C 
BRANCH   7   8
ATOM      8  C   UNL     1      18.772   9.788   5.358  1.00  0.00    -0.003 C 
ATOM      9  C   UNL     1      17.250   9.817   5.222  1.00  0.00     0.004 C 
ENDBRANCH   7   8
ENDBRANCH   6   7
ENDBRANCH   1   6
TORSDOF 5
ENDMDL
MODEL 9
REMARK VINA RESULT:    -3.259     18.367     19.570
REMARK INTER + INTRA:          -4.438
REMARK INTER:                  -4.088
REMARK INTRA:                  -0.349
REMARK UNBOUND:                -0.226
REMARK SMILES CCCCCCC(=O)[O-]
REMARK SMILES IDX 5 1 6 2 7 3 8 4 9 5 4 6 3 7 2 8 1 9
REMARK H PARENT
REMARK Flexibility Score: inf
ROOT
ATOM      1  C   UNL     1      16.658   9.204   4.464  1.00  0.00     0.006 C 
ENDROOT
BRANCH   1   2
ATOM      2  C   UNL     1      18.175   9.192   4.230  1.00  0.00     0.053 C 
BRANCH   2   3
ATOM      3  C   UNL     1      18.559   8.261   3.120  1.00  0.00     0.041 C 
ATOM      4  O   UNL     1      18.568   8.667   1.928  1.00  0.00    -0.550 OA
ATOM      5  O   UNL     1      18.940   6.956   3.406  1.00  0.00    -0.550 OA
ENDBRANCH   2   3
ENDBRANCH   1   2
BRANCH   1   6
ATOM      6  C   UNL     1      16.273   8.603   5.824  1.00  0.00     0.000 C 
BRANCH   6   7
ATOM      7  C   UNL     1      16.319   7.069   5.778  1.00  0.00    -0.000 C 
BRANCH   7   8
ATOM      8  C   UNL     1      17.388   6.482   6.712  1.00  0.00    -0.003 C 
ATOM      9  C   UNL     1      17.753   7.423   7.860  1.00  0.00     0.004 C 
ENDBRANCH   7   8
ENDBRANCH   6   7
ENDBRANCH   1   6
TORSDOF 5
ENDMDL
