MODEL 1
REMARK VINA RESULT:    -6.363      0.000      0.000
REMARK INTER + INTRA:          -7.923
REMARK INTER:                  -7.665
REMARK INTRA:                  -0.257
REMARK UNBOUND:                -0.257
REMARK SMILES O=c1c(O)c(-c2ccc(O)c(O)c2)oc2cc(O)cc(O)c12
REMARK SMILES IDX 5 1 3 2 2 3 1 4 22 5 20 6 19 7 17 8 16 9 15 10 14 11 6 12
REMARK SMILES IDX 7 13 8 14 9 15 13 16 11 17 10 18 12 20 4 22 21 24 18 26
REMARK H PARENT 10 19 12 21 4 23 21 25 18 27
REMARK Flexibility Score: inf
ROOT
ATOM      1  C   UNL     1      18.518  -1.575 -17.126  1.00  0.00     0.180 A 
ATOM      2  C   UNL     1      17.819  -0.886 -16.121  1.00  0.00     0.208 A 
ATOM      3  C   UNL     1      17.177  -1.622 -15.112  1.00  0.00     0.238 A 
ATOM      4  O   UNL     1      16.506  -1.002 -14.245  1.00  0.00    -0.285 OA
ATOM      5  C   UNL     1      17.256  -3.035 -15.112  1.00  0.00     0.111 A 
ATOM      6  C   UNL     1      16.677  -3.879 -14.116  1.00  0.00     0.134 A 
ATOM      7  C   UNL     1      16.707  -5.269 -14.286  1.00  0.00     0.093 A 
ATOM      8  C   UNL     1      17.348  -5.847 -15.381  1.00  0.00     0.123 A 
ATOM      9  C   UNL     1      17.969  -5.033 -16.330  1.00  0.00     0.094 A 
ATOM     10  C   UNL     1      17.925  -3.641 -16.206  1.00  0.00     0.146 A 
ATOM     11  O   UNL     1      18.519  -2.903 -17.135  1.00  0.00    -0.452 OA
ENDROOT
BRANCH   1  12
ATOM     12  C   UNL     1      19.241  -0.869 -18.209  1.00  0.00     0.025 A 
ATOM     13  C   UNL     1      18.715  -0.791 -19.510  1.00  0.00     0.016 A 
ATOM     14  C   UNL     1      19.403  -0.098 -20.510  1.00  0.00     0.051 A 
ATOM     15  C   UNL     1      20.616   0.536 -20.225  1.00  0.00     0.157 A 
ATOM     16  C   UNL     1      20.449  -0.213 -17.921  1.00  0.00     0.062 A 
ATOM     17  C   UNL     1      21.142   0.482 -18.923  1.00  0.00     0.158 A 
BRANCH  15  18
ATOM     18  O   UNL     1      21.280   1.219 -21.243  1.00  0.00    -0.504 OA
ATOM     19  H   UNL     1      21.300   2.230 -21.289  1.00  0.00     0.293 HD
ENDBRANCH  15  18
BRANCH  17  20
ATOM     20  O   UNL     1      22.347   1.118 -18.630  1.00  0.00    -0.504 OA
ATOM     21  H   UNL     1      23.149   1.047 -19.244  1.00  0.00     0.293 HD
ENDBRANCH  17  20
ENDBRANCH   1  12
BRANCH   2  22
ATOM     22  O   UNL     1      17.735   0.509 -16.152  1.00  0.00    -0.502 OA
ATOM     23  H   UNL     1      18.231   1.069 -16.835  1.00  0.00     0.293 HD
ENDBRANCH   2  22
BRANCH   6  24
ATOM     24  O   UNL     1      16.092  -3.408 -12.938  1.00  0.00    -0.507 OA
ATOM     25  H   UNL     1      16.474  -3.539 -12.014  1.00  0.00     0.293 HD
ENDBRANCH   6  24
BRANCH   8  26
ATOM     26  O   UNL     1      17.372  -7.234 -15.511  1.00  0.00    -0.508 OA
ATOM     27  H   UNL     1      16.556  -7.799 -15.311  1.00  0.00     0.293 HD
ENDBRANCH   8  26
TORSDOF 6
ENDMDL
MODEL 2
REMARK VINA RESULT:    -6.218      8.171     11.792
REMARK INTER + INTRA:          -7.748
REMARK INTER:                  -7.474
REMARK INTRA:                  -0.274
REMARK UNBOUND:                -0.257
REMARK SMILES O=c1c(O)c(-c2ccc(O)c(O)c2)oc2cc(O)cc(O)c12
REMARK SMILES IDX 5 1 3 2 2 3 1 4 22 5 20 6 19 7 17 8 16 9 15 10 14 11 6 12
REMARK SMILES IDX 7 13 8 14 9 15 13 16 11 17 10 18 12 20 4 22 21 24 18 26
REMARK H PARENT 10 19 12 21 4 23 21 25 18 27
REMARK Flexibility Score: inf
ROOT
ATOM      1  C   UNL     1      11.548  -6.333  -9.600  1.00  0.00     0.180 A 
ATOM      2  C   UNL     1      11.437  -7.722  -9.789  1.00  0.00     0.208 A 
ATOM      3  C   UNL     1      10.517  -8.443  -9.011  1.00  0.00     0.238 A 
ATOM      4  O   UNL     1      10.461  -9.693  -9.145  1.00  0.00    -0.285 OA
ATOM      5  C   UNL     1       9.710  -7.765  -8.065  1.00  0.00     0.111 A 
ATOM      6  C   UNL     1       8.718  -8.390  -7.251  1.00  0.00     0.134 A 
ATOM      7  C   UNL     1       8.069  -7.644  -6.258  1.00  0.00     0.093 A 
ATOM      8  C   UNL     1       8.331  -6.285  -6.092  1.00  0.00     0.123 A 
ATOM      9  C   UNL     1       9.256  -5.651  -6.923  1.00  0.00     0.094 A 
ATOM     10  C   UNL     1       9.945  -6.376  -7.899  1.00  0.00     0.146 A 
ATOM     11  O   UNL     1      10.825  -5.737  -8.660  1.00  0.00    -0.452 OA
ENDROOT
BRANCH   1  12
ATOM     12  C   UNL     1      12.476  -5.502 -10.400  1.00  0.00     0.025 A 
ATOM     13  C   UNL     1      12.011  -4.678 -11.439  1.00  0.00     0.016 A 
ATOM     14  C   UNL     1      12.902  -3.883 -12.164  1.00  0.00     0.051 A 
ATOM     15  C   UNL     1      14.266  -3.889 -11.857  1.00  0.00     0.157 A 
ATOM     16  C   UNL     1      13.844  -5.488 -10.080  1.00  0.00     0.062 A 
ATOM     17  C   UNL     1      14.741  -4.693 -10.808  1.00  0.00     0.158 A 
BRANCH  15  18
ATOM     18  O   UNL     1      15.132  -3.086 -12.600  1.00  0.00    -0.504 OA
ATOM     19  H   UNL     1      15.546  -2.245 -12.217  1.00  0.00     0.293 HD
ENDBRANCH  15  18
BRANCH  17  20
ATOM     20  O   UNL     1      16.098  -4.698 -10.491  1.00  0.00    -0.504 OA
ATOM     21  H   UNL     1      16.466  -4.154  -9.719  1.00  0.00     0.293 HD
ENDBRANCH  17  20
ENDBRANCH   1  12
BRANCH   2  22
ATOM     22  O   UNL     1      12.259  -8.375 -10.712  1.00  0.00    -0.502 OA
ATOM     23  H   UNL     1      12.281  -8.125 -11.693  1.00  0.00     0.293 HD
ENDBRANCH   2  22
BRANCH   6  24
ATOM     24  O   UNL     1       8.314  -9.720  -7.395  1.00  0.00    -0.507 OA
ATOM     25  H   UNL     1       7.473 -10.018  -7.865  1.00  0.00     0.293 HD
ENDBRANCH   6  24
BRANCH   8  26
ATOM     26  O   UNL     1       7.656  -5.570  -5.105  1.00  0.00    -0.508 OA
ATOM     27  H   UNL     1       7.879  -5.683  -4.123  1.00  0.00     0.293 HD
ENDBRANCH   8  26
TORSDOF 6
ENDMDL
MODEL 3
REMARK VINA RESULT:    -6.215      1.731      6.867
REMARK INTER + INTRA:          -7.744
REMARK INTER:                  -7.460
REMARK INTRA:                  -0.284
REMARK UNBOUND:                -0.257
REMARK SMILES O=c1c(O)c(-c2ccc(O)c(O)c2)oc2cc(O)cc(O)c12
REMARK SMILES IDX 5 1 3 2 2 3 1 4 22 5 20 6 19 7 17 8 16 9 15 10 14 11 6 12
REMARK SMILES IDX 7 13 8 14 9 15 13 16 11 17 10 18 12 20 4 22 21 24 18 26
REMARK H PARENT 10 19 12 21 4 23 21 25 18 27
REMARK Flexibility Score: inf
ROOT
ATOM      1  C   UNL     1      17.886  -3.955 -16.780  1.00  0.00     0.180 A 
ATOM      2  C   UNL     1      17.744  -3.015 -15.744  1.00  0.00     0.208 A 
ATOM      3  C   UNL     1      18.203  -1.703 -15.949  1.00  0.00     0.238 A 
ATOM      4  O   UNL     1      18.123  -0.880 -14.999  1.00  0.00    -0.285 OA
ATOM      5  C   UNL     1      18.783  -1.345 -17.189  1.00  0.00     0.111 A 
ATOM      6  C   UNL     1      19.247  -0.035 -17.519  1.00  0.00     0.134 A 
ATOM      7  C   UNL     1      19.922   0.174 -18.728  1.00  0.00     0.093 A 
ATOM      8  C   UNL     1      20.095  -0.861 -19.645  1.00  0.00     0.123 A 
ATOM      9  C   UNL     1      19.593  -2.132 -19.359  1.00  0.00     0.094 A 
ATOM     10  C   UNL     1      18.947  -2.381 -18.145  1.00  0.00     0.146 A 
ATOM     11  O   UNL     1      18.494  -3.605 -17.907  1.00  0.00    -0.452 OA
ENDROOT
BRANCH   1  12
ATOM     12  C   UNL     1      17.404  -5.349 -16.649  1.00  0.00     0.025 A 
ATOM     13  C   UNL     1      18.284  -6.401 -16.343  1.00  0.00     0.016 A 
ATOM     14  C   UNL     1      17.803  -7.706 -16.200  1.00  0.00     0.051 A 
ATOM     15  C   UNL     1      16.439  -7.977 -16.348  1.00  0.00     0.157 A 
ATOM     16  C   UNL     1      16.032  -5.622 -16.775  1.00  0.00     0.062 A 
ATOM     17  C   UNL     1      15.547  -6.930 -16.633  1.00  0.00     0.158 A 
BRANCH  15  18
ATOM     18  O   UNL     1      15.989  -9.288 -16.201  1.00  0.00    -0.504 OA
ATOM     19  H   UNL     1      15.311  -9.548 -15.495  1.00  0.00     0.293 HD
ENDBRANCH  15  18
BRANCH  17  20
ATOM     20  O   UNL     1      14.185  -7.191 -16.775  1.00  0.00    -0.504 OA
ATOM     21  H   UNL     1      13.847  -8.090 -17.097  1.00  0.00     0.293 HD
ENDBRANCH  17  20
ENDBRANCH   1  12
BRANCH   2  22
ATOM     22  O   UNL     1      17.188  -3.395 -14.520  1.00  0.00    -0.502 OA
ATOM     23  H   UNL     1      16.490  -4.125 -14.442  1.00  0.00     0.293 HD
ENDBRANCH   2  22
BRANCH   6  24
ATOM     24  O   UNL     1      19.044   1.090 -16.714  1.00  0.00    -0.507 OA
ATOM     25  H   UNL     1      19.404   2.010 -16.913  1.00  0.00     0.293 HD
ENDBRANCH   6  24
BRANCH   8  26
ATOM     26  O   UNL     1      20.757  -0.614 -20.845  1.00  0.00    -0.508 OA
ATOM     27  H   UNL     1      20.501  -1.092 -21.701  1.00  0.00     0.293 HD
ENDBRANCH   8  26
TORSDOF 6
ENDMDL
MODEL 4
REMARK VINA RESULT:    -6.180      1.241      2.830
REMARK INTER + INTRA:          -7.702
REMARK INTER:                  -7.466
REMARK INTRA:                  -0.236
REMARK UNBOUND:                -0.257
REMARK SMILES O=c1c(O)c(-c2ccc(O)c(O)c2)oc2cc(O)cc(O)c12
REMARK SMILES IDX 5 1 3 2 2 3 1 4 22 5 20 6 19 7 17 8 16 9 15 10 14 11 6 12
REMARK SMILES IDX 7 13 8 14 9 15 13 16 11 17 10 18 12 20 4 22 21 24 18 26
REMARK H PARENT 10 19 12 21 4 23 21 25 18 27
REMARK Flexibility Score: inf
ROOT
ATOM      1  C   UNL     1      18.519  -2.179 -17.265  1.00  0.00     0.180 A 
ATOM      2  C   UNL     1      18.376  -3.554 -17.521  1.00  0.00     0.208 A 
ATOM      3  C   UNL     1      17.719  -4.357 -16.575  1.00  0.00     0.238 A 
ATOM      4  O   UNL     1      17.642  -5.597 -16.784  1.00  0.00    -0.285 OA
ATOM      5  C   UNL     1      17.200  -3.775 -15.394  1.00  0.00     0.111 A 
ATOM      6  C   UNL     1      16.482  -4.487 -14.386  1.00  0.00     0.134 A 
ATOM      7  C   UNL     1      16.128  -3.835 -13.199  1.00  0.00     0.093 A 
ATOM      8  C   UNL     1      16.409  -2.483 -13.009  1.00  0.00     0.123 A 
ATOM      9  C   UNL     1      17.058  -1.762 -14.012  1.00  0.00     0.094 A 
ATOM     10  C   UNL     1      17.456  -2.393 -15.193  1.00  0.00     0.146 A 
ATOM     11  O   UNL     1      18.080  -1.674 -16.118  1.00  0.00    -0.452 OA
ENDROOT
BRANCH   1  12
ATOM     12  C   UNL     1      19.177  -1.263 -18.225  1.00  0.00     0.025 A 
ATOM     13  C   UNL     1      18.580  -0.941 -19.455  1.00  0.00     0.016 A 
ATOM     14  C   UNL     1      19.207  -0.055 -20.336  1.00  0.00     0.051 A 
ATOM     15  C   UNL     1      20.431   0.531 -19.996  1.00  0.00     0.157 A 
ATOM     16  C   UNL     1      20.395  -0.656 -17.878  1.00  0.00     0.062 A 
ATOM     17  C   UNL     1      21.028   0.233 -18.760  1.00  0.00     0.158 A 
BRANCH  15  18
ATOM     18  O   UNL     1      21.034   1.410 -20.895  1.00  0.00    -0.504 OA
ATOM     19  H   UNL     1      20.968   1.283 -21.898  1.00  0.00     0.293 HD
ENDBRANCH  15  18
BRANCH  17  20
ATOM     20  O   UNL     1      22.243   0.819 -18.412  1.00  0.00    -0.504 OA
ATOM     21  H   UNL     1      22.959   0.302 -17.914  1.00  0.00     0.293 HD
ENDBRANCH  17  20
ENDBRANCH   1  12
BRANCH   2  22
ATOM     22  O   UNL     1      18.915  -4.112 -18.683  1.00  0.00    -0.502 OA
ATOM     23  H   UNL     1      18.338  -4.509 -19.415  1.00  0.00     0.293 HD
ENDBRANCH   2  22
BRANCH   6  24
ATOM     24  O   UNL     1      16.071  -5.817 -14.515  1.00  0.00    -0.507 OA
ATOM     25  H   UNL     1      15.258  -6.213 -14.067  1.00  0.00     0.293 HD
ENDBRANCH   6  24
BRANCH   8  26
ATOM     26  O   UNL     1      16.029  -1.862 -11.821  1.00  0.00    -0.508 OA
ATOM     27  H   UNL     1      15.411  -1.059 -11.817  1.00  0.00     0.293 HD
ENDBRANCH   8  26
TORSDOF 6
ENDMDL
MODEL 5
REMARK VINA RESULT:    -6.081     11.282     13.036
REMARK INTER + INTRA:          -7.582
REMARK INTER:                  -7.260
REMARK INTRA:                  -0.323
REMARK UNBOUND:                -0.257
REMARK SMILES O=c1c(O)c(-c2ccc(O)c(O)c2)oc2cc(O)cc(O)c12
REMARK SMILES IDX 5 1 3 2 2 3 1 4 22 5 20 6 19 7 17 8 16 9 15 10 14 11 6 12
REMARK SMILES IDX 7 13 8 14 9 15 13 16 11 17 10 18 12 20 4 22 21 24 18 26
REMARK H PARENT 10 19 12 21 4 23 21 25 18 27
REMARK Flexibility Score: inf
ROOT
ATOM      1  C   UNL     1       7.750  -4.581 -11.704  1.00  0.00     0.180 A 
ATOM      2  C   UNL     1       7.853  -5.857 -12.283  1.00  0.00     0.208 A 
ATOM      3  C   UNL     1       8.009  -6.974 -11.446  1.00  0.00     0.238 A 
ATOM      4  O   UNL     1       8.156  -8.108 -11.972  1.00  0.00    -0.285 OA
ATOM      5  C   UNL     1       8.044  -6.801 -10.041  1.00  0.00     0.111 A 
ATOM      6  C   UNL     1       8.158  -7.866  -9.096  1.00  0.00     0.134 A 
ATOM      7  C   UNL     1       8.313  -7.569  -7.736  1.00  0.00     0.093 A 
ATOM      8  C   UNL     1       8.294  -6.252  -7.280  1.00  0.00     0.123 A 
ATOM      9  C   UNL     1       8.123  -5.206  -8.189  1.00  0.00     0.094 A 
ATOM     10  C   UNL     1       8.002  -5.469  -9.556  1.00  0.00     0.146 A 
ATOM     11  O   UNL     1       7.852  -4.445 -10.387  1.00  0.00    -0.452 OA
ENDROOT
BRANCH   1  12
ATOM     12  C   UNL     1       7.559  -3.359 -12.519  1.00  0.00     0.025 A 
ATOM     13  C   UNL     1       8.654  -2.613 -12.987  1.00  0.00     0.016 A 
ATOM     14  C   UNL     1       8.451  -1.477 -13.776  1.00  0.00     0.051 A 
ATOM     15  C   UNL     1       7.155  -1.077 -14.119  1.00  0.00     0.157 A 
ATOM     16  C   UNL     1       6.261  -2.966 -12.884  1.00  0.00     0.062 A 
ATOM     17  C   UNL     1       6.054  -1.826 -13.674  1.00  0.00     0.158 A 
BRANCH  15  18
ATOM     18  O   UNL     1       6.984   0.061 -14.906  1.00  0.00    -0.504 OA
ATOM     19  H   UNL     1       6.488   0.877 -14.569  1.00  0.00     0.293 HD
ENDBRANCH  15  18
BRANCH  17  20
ATOM     20  O   UNL     1       4.760  -1.438 -14.018  1.00  0.00    -0.504 OA
ATOM     21  H   UNL     1       4.093  -2.095 -14.405  1.00  0.00     0.293 HD
ENDBRANCH  17  20
ENDBRANCH   1  12
BRANCH   2  22
ATOM     22  O   UNL     1       7.839  -6.003 -13.673  1.00  0.00    -0.502 OA
ATOM     23  H   UNL     1       8.324  -5.365 -14.292  1.00  0.00     0.293 HD
ENDBRANCH   2  22
BRANCH   6  24
ATOM     24  O   UNL     1       8.096  -9.220  -9.436  1.00  0.00    -0.507 OA
ATOM     25  H   UNL     1       7.323  -9.658  -9.913  1.00  0.00     0.293 HD
ENDBRANCH   6  24
BRANCH   8  26
ATOM     26  O   UNL     1       8.436  -5.993  -5.919  1.00  0.00    -0.508 OA
ATOM     27  H   UNL     1       9.329  -6.089  -5.450  1.00  0.00     0.293 HD
ENDBRANCH   8  26
TORSDOF 6
ENDMDL
MODEL 6
REMARK VINA RESULT:    -6.057      7.652     11.051
REMARK INTER + INTRA:          -7.554
REMARK INTER:                  -7.223
REMARK INTRA:                  -0.331
REMARK UNBOUND:                -0.257
REMARK SMILES O=c1c(O)c(-c2ccc(O)c(O)c2)oc2cc(O)cc(O)c12
REMARK SMILES IDX 5 1 3 2 2 3 1 4 22 5 20 6 19 7 17 8 16 9 15 10 14 11 6 12
REMARK SMILES IDX 7 13 8 14 9 15 13 16 11 17 10 18 12 20 4 22 21 24 18 26
REMARK H PARENT 10 19 12 21 4 23 21 25 18 27
REMARK Flexibility Score: inf
ROOT
ATOM      1  C   UNL     1      11.204  -6.409 -10.867  1.00  0.00     0.180 A 
ATOM      2  C   UNL     1      10.897  -6.555  -9.503  1.00  0.00     0.208 A 
ATOM      3  C   UNL     1       9.729  -7.244  -9.139  1.00  0.00     0.238 A 
ATOM      4  O   UNL     1       9.430  -7.324  -7.918  1.00  0.00    -0.285 OA
ATOM      5  C   UNL     1       8.892  -7.791 -10.141  1.00  0.00     0.111 A 
ATOM      6  C   UNL     1       7.705  -8.542  -9.885  1.00  0.00     0.134 A 
ATOM      7  C   UNL     1       6.885  -8.924 -10.954  1.00  0.00     0.093 A 
ATOM      8  C   UNL     1       7.240  -8.638 -12.271  1.00  0.00     0.123 A 
ATOM      9  C   UNL     1       8.429  -7.957 -12.537  1.00  0.00     0.094 A 
ATOM     10  C   UNL     1       9.250  -7.531 -11.489  1.00  0.00     0.146 A 
ATOM     11  O   UNL     1      10.366  -6.876 -11.784  1.00  0.00    -0.452 OA
ENDROOT
BRANCH   1  12
ATOM     12  C   UNL     1      12.430  -5.718 -11.328  1.00  0.00     0.025 A 
ATOM     13  C   UNL     1      13.628  -6.420 -11.547  1.00  0.00     0.016 A 
ATOM     14  C   UNL     1      14.766  -5.751 -12.006  1.00  0.00     0.051 A 
ATOM     15  C   UNL     1      14.723  -4.378 -12.265  1.00  0.00     0.157 A 
ATOM     16  C   UNL     1      12.385  -4.343 -11.610  1.00  0.00     0.062 A 
ATOM     17  C   UNL     1      13.526  -3.669 -12.070  1.00  0.00     0.158 A 
BRANCH  15  18
ATOM     18  O   UNL     1      15.874  -3.738 -12.721  1.00  0.00    -0.504 OA
ATOM     19  H   UNL     1      16.801  -4.105 -12.542  1.00  0.00     0.293 HD
ENDBRANCH  15  18
BRANCH  17  20
ATOM     20  O   UNL     1      13.473  -2.301 -12.333  1.00  0.00    -0.504 OA
ATOM     21  H   UNL     1      13.243  -1.946 -13.254  1.00  0.00     0.293 HD
ENDBRANCH  17  20
ENDBRANCH   1  12
BRANCH   2  22
ATOM     22  O   UNL     1      11.725  -5.988  -8.531  1.00  0.00    -0.502 OA
ATOM     23  H   UNL     1      12.714  -6.200  -8.467  1.00  0.00     0.293 HD
ENDBRANCH   2  22
BRANCH   6  24
ATOM     24  O   UNL     1       7.306  -8.960  -8.612  1.00  0.00    -0.507 OA
ATOM     25  H   UNL     1       6.370  -9.246  -8.368  1.00  0.00     0.293 HD
ENDBRANCH   6  24
BRANCH   8  26
ATOM     26  O   UNL     1       6.409  -9.047 -13.312  1.00  0.00    -0.508 OA
ATOM     27  H   UNL     1       6.030  -9.986 -13.351  1.00  0.00     0.293 HD
ENDBRANCH   8  26
TORSDOF 6
ENDMDL
MODEL 7
REMARK VINA RESULT:    -5.976      0.988      1.646
REMARK INTER + INTRA:          -7.456
REMARK INTER:                  -7.124
REMARK INTRA:                  -0.332
REMARK UNBOUND:                -0.257
REMARK SMILES O=c1c(O)c(-c2ccc(O)c(O)c2)oc2cc(O)cc(O)c12
REMARK SMILES IDX 5 1 3 2 2 3 1 4 22 5 20 6 19 7 17 8 16 9 15 10 14 11 6 12
REMARK SMILES IDX 7 13 8 14 9 15 13 16 11 17 10 18 12 20 4 22 21 24 18 26
REMARK H PARENT 10 19 12 21 4 23 21 25 18 27
REMARK Flexibility Score: inf
ROOT
ATOM      1  C   UNL     1      18.183  -1.403 -16.521  1.00  0.00     0.180 A 
ATOM      2  C   UNL     1      17.387  -0.618 -15.669  1.00  0.00     0.208 A 
ATOM      3  C   UNL     1      16.646  -1.251 -14.657  1.00  0.00     0.238 A 
ATOM      4  O   UNL     1      15.893  -0.550 -13.932  1.00  0.00    -0.285 OA
ATOM      5  C   UNL     1      16.723  -2.655 -14.501  1.00  0.00     0.111 A 
ATOM      6  C   UNL     1      16.046  -3.396 -13.485  1.00  0.00     0.134 A 
ATOM      7  C   UNL     1      16.091  -4.796 -13.505  1.00  0.00     0.093 A 
ATOM      8  C   UNL     1      16.838  -5.478 -14.463  1.00  0.00     0.123 A 
ATOM      9  C   UNL     1      17.553  -4.762 -15.425  1.00  0.00     0.094 A 
ATOM     10  C   UNL     1      17.498  -3.366 -15.453  1.00  0.00     0.146 A 
ATOM     11  O   UNL     1      18.183  -2.724 -16.391  1.00  0.00    -0.452 OA
ENDROOT
BRANCH   1  12
ATOM     12  C   UNL     1      19.012  -0.806 -17.594  1.00  0.00     0.025 A 
ATOM     13  C   UNL     1      20.315  -0.346 -17.342  1.00  0.00     0.016 A 
ATOM     14  C   UNL     1      21.088   0.191 -18.376  1.00  0.00     0.051 A 
ATOM     15  C   UNL     1      20.578   0.265 -19.675  1.00  0.00     0.157 A 
ATOM     16  C   UNL     1      18.511  -0.750 -18.906  1.00  0.00     0.062 A 
ATOM     17  C   UNL     1      19.284  -0.211 -19.944  1.00  0.00     0.158 A 
BRANCH  15  18
ATOM     18  O   UNL     1      21.371   0.806 -20.685  1.00  0.00    -0.504 OA
ATOM     19  H   UNL     1      21.738   1.749 -20.634  1.00  0.00     0.293 HD
ENDBRANCH  15  18
BRANCH  17  20
ATOM     20  O   UNL     1      18.771  -0.148 -21.239  1.00  0.00    -0.504 OA
ATOM     21  H   UNL     1      19.372  -0.213 -22.052  1.00  0.00     0.293 HD
ENDBRANCH  17  20
ENDBRANCH   1  12
BRANCH   2  22
ATOM     22  O   UNL     1      17.308   0.765 -15.854  1.00  0.00    -0.502 OA
ATOM     23  H   UNL     1      18.124   1.364 -15.831  1.00  0.00     0.293 HD
ENDBRANCH   2  22
BRANCH   6  24
ATOM     24  O   UNL     1      15.347  -2.809 -12.427  1.00  0.00    -0.507 OA
ATOM     25  H   UNL     1      14.890  -1.911 -12.468  1.00  0.00     0.293 HD
ENDBRANCH   6  24
BRANCH   8  26
ATOM     26  O   UNL     1      16.874  -6.871 -14.444  1.00  0.00    -0.508 OA
ATOM     27  H   UNL     1      17.722  -7.377 -14.219  1.00  0.00     0.293 HD
ENDBRANCH   8  26
TORSDOF 6
ENDMDL
MODEL 8
REMARK VINA RESULT:    -5.793      7.386     12.493
REMARK INTER + INTRA:          -7.236
REMARK INTER:                  -6.973
REMARK INTRA:                  -0.262
REMARK UNBOUND:                -0.257
REMARK SMILES O=c1c(O)c(-c2ccc(O)c(O)c2)oc2cc(O)cc(O)c12
REMARK SMILES IDX 5 1 3 2 2 3 1 4 22 5 20 6 19 7 17 8 16 9 15 10 14 11 6 12
REMARK SMILES IDX 7 13 8 14 9 15 13 16 11 17 10 18 12 20 4 22 21 24 18 26
REMARK H PARENT 10 19 12 21 4 23 21 25 18 27
REMARK Flexibility Score: inf
ROOT
ATOM      1  C   UNL     1      11.228  -6.363  -9.870  1.00  0.00     0.180 A 
ATOM      2  C   UNL     1      11.074  -7.329 -10.880  1.00  0.00     0.208 A 
ATOM      3  C   UNL     1      12.106  -7.504 -11.815  1.00  0.00     0.238 A 
ATOM      4  O   UNL     1      11.941  -8.332 -12.750  1.00  0.00    -0.285 OA
ATOM      5  C   UNL     1      13.284  -6.724 -11.721  1.00  0.00     0.111 A 
ATOM      6  C   UNL     1      14.409  -6.845 -12.591  1.00  0.00     0.134 A 
ATOM      7  C   UNL     1      15.466  -5.933 -12.485  1.00  0.00     0.093 A 
ATOM      8  C   UNL     1      15.469  -4.945 -11.502  1.00  0.00     0.123 A 
ATOM      9  C   UNL     1      14.401  -4.855 -10.607  1.00  0.00     0.094 A 
ATOM     10  C   UNL     1      13.315  -5.728 -10.710  1.00  0.00     0.146 A 
ATOM     11  O   UNL     1      12.315  -5.602  -9.847  1.00  0.00    -0.452 OA
ENDROOT
BRANCH   1  12
ATOM     12  C   UNL     1      10.195  -6.137  -8.833  1.00  0.00     0.025 A 
ATOM     13  C   UNL     1      10.376  -6.581  -7.512  1.00  0.00     0.016 A 
ATOM     14  C   UNL     1       9.398  -6.335  -6.543  1.00  0.00     0.051 A 
ATOM     15  C   UNL     1       8.234  -5.634  -6.875  1.00  0.00     0.157 A 
ATOM     16  C   UNL     1       9.035  -5.415  -9.157  1.00  0.00     0.062 A 
ATOM     17  C   UNL     1       8.052  -5.168  -8.188  1.00  0.00     0.158 A 
BRANCH  15  18
ATOM     18  O   UNL     1       7.276  -5.406  -5.888  1.00  0.00    -0.504 OA
ATOM     19  H   UNL     1       6.668  -4.596  -5.907  1.00  0.00     0.293 HD
ENDBRANCH  15  18
BRANCH  17  20
ATOM     20  O   UNL     1       6.898  -4.462  -8.524  1.00  0.00    -0.504 OA
ATOM     21  H   UNL     1       6.152  -4.314  -7.855  1.00  0.00     0.293 HD
ENDBRANCH  17  20
ENDBRANCH   1  12
BRANCH   2  22
ATOM     22  O   UNL     1       9.895  -8.073 -10.968  1.00  0.00    -0.502 OA
ATOM     23  H   UNL     1       9.167  -7.862 -11.640  1.00  0.00     0.293 HD
ENDBRANCH   2  22
BRANCH   6  24
ATOM     24  O   UNL     1      14.549  -7.854 -13.549  1.00  0.00    -0.507 OA
ATOM     25  H   UNL     1      14.417  -7.728 -14.540  1.00  0.00     0.293 HD
ENDBRANCH   6  24
BRANCH   8  26
ATOM     26  O   UNL     1      16.544  -4.064 -11.414  1.00  0.00    -0.508 OA
ATOM     27  H   UNL     1      17.495  -4.368 -11.590  1.00  0.00     0.293 HD
ENDBRANCH   8  26
TORSDOF 6
ENDMDL
MODEL 9
REMARK VINA RESULT:    -5.730      5.317      7.627
REMARK INTER + INTRA:          -7.160
REMARK INTER:                  -6.840
REMARK INTRA:                  -0.319
REMARK UNBOUND:                -0.257
REMARK SMILES O=c1c(O)c(-c2ccc(O)c(O)c2)oc2cc(O)cc(O)c12
REMARK SMILES IDX 5 1 3 2 2 3 1 4 22 5 20 6 19 7 17 8 16 9 15 10 14 11 6 12
REMARK SMILES IDX 7 13 8 14 9 15 13 16 11 17 10 18 12 20 4 22 21 24 18 26
REMARK H PARENT 10 19 12 21 4 23 21 25 18 27
REMARK Flexibility Score: inf
ROOT
ATOM      1  C   UNL     1      15.641  -1.302 -11.535  1.00  0.00     0.180 A 
ATOM      2  C   UNL     1      15.670  -2.695 -11.348  1.00  0.00     0.208 A 
ATOM      3  C   UNL     1      16.378  -3.220 -10.255  1.00  0.00     0.238 A 
ATOM      4  O   UNL     1      16.446  -4.470 -10.123  1.00  0.00    -0.285 OA
ATOM      5  C   UNL     1      17.034  -2.346  -9.355  1.00  0.00     0.111 A 
ATOM      6  C   UNL     1      17.748  -2.766  -8.192  1.00  0.00     0.134 A 
ATOM      7  C   UNL     1      18.468  -1.825  -7.446  1.00  0.00     0.093 A 
ATOM      8  C   UNL     1      18.449  -0.473  -7.782  1.00  0.00     0.123 A 
ATOM      9  C   UNL     1      17.706  -0.042  -8.882  1.00  0.00     0.094 A 
ATOM     10  C   UNL     1      17.006  -0.962  -9.667  1.00  0.00     0.146 A 
ATOM     11  O   UNL     1      16.321  -0.513 -10.711  1.00  0.00    -0.452 OA
ENDROOT
BRANCH   1  12
ATOM     12  C   UNL     1      14.895  -0.672 -12.648  1.00  0.00     0.025 A 
ATOM     13  C   UNL     1      13.511  -0.442 -12.564  1.00  0.00     0.016 A 
ATOM     14  C   UNL     1      12.832   0.176 -13.618  1.00  0.00     0.051 A 
ATOM     15  C   UNL     1      13.524   0.583 -14.763  1.00  0.00     0.157 A 
ATOM     16  C   UNL     1      15.590  -0.242 -13.791  1.00  0.00     0.062 A 
ATOM     17  C   UNL     1      14.910   0.377 -14.850  1.00  0.00     0.158 A 
BRANCH  15  18
ATOM     18  O   UNL     1      12.819   1.196 -15.799  1.00  0.00    -0.504 OA
ATOM     19  H   UNL     1      13.156   1.193 -16.754  1.00  0.00     0.293 HD
ENDBRANCH  15  18
BRANCH  17  20
ATOM     20  O   UNL     1      15.608   0.787 -15.985  1.00  0.00    -0.504 OA
ATOM     21  H   UNL     1      15.317   1.594 -16.525  1.00  0.00     0.293 HD
ENDBRANCH  17  20
ENDBRANCH   1  12
BRANCH   2  22
ATOM     22  O   UNL     1      15.033  -3.541 -12.260  1.00  0.00    -0.502 OA
ATOM     23  H   UNL     1      14.538  -3.192 -13.071  1.00  0.00     0.293 HD
ENDBRANCH   2  22
BRANCH   6  24
ATOM     24  O   UNL     1      17.758  -4.080  -7.715  1.00  0.00    -0.507 OA
ATOM     25  H   UNL     1      18.188  -4.860  -8.188  1.00  0.00     0.293 HD
ENDBRANCH   6  24
BRANCH   8  26
ATOM     26  O   UNL     1      19.164   0.439  -7.008  1.00  0.00    -0.508 OA
ATOM     27  H   UNL     1      20.033   0.846  -7.335  1.00  0.00     0.293 HD
ENDBRANCH   8  26
TORSDOF 6
ENDMDL
