MODEL 1
REMARK VINA RESULT:    -6.110      0.000      0.000
REMARK INTER + INTRA:          -6.860
REMARK INTER:                  -6.824
REMARK INTRA:                  -0.036
REMARK UNBOUND:                -0.036
REMARK SMILES O=C([O-])c1ccc(O)c(O)c1
REMARK SMILES IDX 4 1 11 2 5 3 9 4 6 5 7 6 2 7 1 8 3 9 10 10 8 12
REMARK H PARENT 10 11 8 13
REMARK Flexibility Score: inf
ROOT
ATOM      1  C   UNL     1      -2.059   5.319 -10.440  1.00  0.00     0.001 A 
ATOM      2  C   UNL     1      -1.107   6.354 -10.426  1.00  0.00     0.060 A 
ATOM      3  C   UNL     1      -2.406   4.697  -9.228  1.00  0.00     0.014 A 
ATOM      4  C   UNL     1      -0.512   6.762  -9.223  1.00  0.00     0.158 A 
ATOM      5  C   UNL     1      -1.814   5.102  -8.030  1.00  0.00     0.051 A 
ATOM      6  C   UNL     1      -0.868   6.132  -8.019  1.00  0.00     0.157 A 
ENDROOT
BRANCH   1   7
ATOM      7  C   UNL     1      -2.688   4.888 -11.707  1.00  0.00     0.072 C 
ATOM      8  O   UNL     1      -2.162   3.983 -12.409  1.00  0.00    -0.545 OA
ATOM      9  O   UNL     1      -3.870   5.475 -12.143  1.00  0.00    -0.545 OA
ENDBRANCH   1   7
BRANCH   4  10
ATOM     10  O   UNL     1       0.431   7.789  -9.220  1.00  0.00    -0.504 OA
ATOM     11  H   UNL     1       1.357   7.662  -9.612  1.00  0.00     0.293 HD
ENDBRANCH   4  10
BRANCH   6  12
ATOM     12  O   UNL     1      -0.295   6.514  -6.807  1.00  0.00    -0.504 OA
ATOM     13  H   UNL     1       0.020   7.461  -6.635  1.00  0.00     0.293 HD
ENDBRANCH   6  12
TORSDOF 3
ENDMDL
MODEL 2
REMARK VINA RESULT:    -5.903     17.953     18.484
REMARK INTER + INTRA:          -6.629
REMARK INTER:                  -6.587
REMARK INTRA:                  -0.042
REMARK UNBOUND:                -0.036
REMARK SMILES O=C([O-])c1ccc(O)c(O)c1
REMARK SMILES IDX 4 1 11 2 5 3 9 4 6 5 7 6 2 7 1 8 3 9 10 10 8 12
REMARK H PARENT 10 11 8 13
REMARK Flexibility Score: inf
ROOT
ATOM      1  C   UNL     1      13.623  -4.663 -13.553  1.00  0.00     0.001 A 
ATOM      2  C   UNL     1      12.718  -5.727 -13.385  1.00  0.00     0.060 A 
ATOM      3  C   UNL     1      13.426  -3.480 -12.821  1.00  0.00     0.014 A 
ATOM      4  C   UNL     1      11.636  -5.612 -12.500  1.00  0.00     0.158 A 
ATOM      5  C   UNL     1      12.349  -3.364 -11.940  1.00  0.00     0.051 A 
ATOM      6  C   UNL     1      11.452  -4.423 -11.774  1.00  0.00     0.157 A 
ENDROOT
BRANCH   1   7
ATOM      7  C   UNL     1      14.765  -4.784 -14.485  1.00  0.00     0.072 C 
ATOM      8  O   UNL     1      15.824  -4.132 -14.289  1.00  0.00    -0.545 OA
ATOM      9  O   UNL     1      14.685  -5.620 -15.593  1.00  0.00    -0.545 OA
ENDBRANCH   1   7
BRANCH   4  10
ATOM     10  O   UNL     1      10.745  -6.672 -12.340  1.00  0.00    -0.504 OA
ATOM     11  H   UNL     1      10.186  -6.774 -11.501  1.00  0.00     0.293 HD
ENDBRANCH   4  10
BRANCH   6  12
ATOM     12  O   UNL     1      10.386  -4.277 -10.887  1.00  0.00    -0.504 OA
ATOM     13  H   UNL     1       9.961  -5.069 -10.421  1.00  0.00     0.293 HD
ENDBRANCH   6  12
TORSDOF 3
ENDMDL
MODEL 3
REMARK VINA RESULT:    -5.770      2.347      3.218
REMARK INTER + INTRA:          -6.481
REMARK INTER:                  -6.443
REMARK INTRA:                  -0.037
REMARK UNBOUND:                -0.036
REMARK SMILES O=C([O-])c1ccc(O)c(O)c1
REMARK SMILES IDX 4 1 11 2 5 3 9 4 6 5 7 6 2 7 1 8 3 9 10 10 8 12
REMARK H PARENT 10 11 8 13
REMARK Flexibility Score: inf
ROOT
ATOM      1  C   UNL     1      -2.519   5.815  -8.758  1.00  0.00     0.001 A 
ATOM      2  C   UNL     1      -3.125   6.930  -9.365  1.00  0.00     0.060 A 
ATOM      3  C   UNL     1      -1.126   5.812  -8.577  1.00  0.00     0.014 A 
ATOM      4  C   UNL     1      -2.352   8.024  -9.782  1.00  0.00     0.158 A 
ATOM      5  C   UNL     1      -0.355   6.900  -8.992  1.00  0.00     0.051 A 
ATOM      6  C   UNL     1      -0.960   8.008  -9.594  1.00  0.00     0.157 A 
ENDROOT
BRANCH   1   7
ATOM      7  C   UNL     1      -3.333   4.661  -8.317  1.00  0.00     0.072 C 
ATOM      8  O   UNL     1      -3.396   4.350  -7.098  1.00  0.00    -0.545 OA
ATOM      9  O   UNL     1      -4.041   3.903  -9.243  1.00  0.00    -0.545 OA
ENDBRANCH   1   7
BRANCH   4  10
ATOM     10  O   UNL     1      -2.962   9.125 -10.383  1.00  0.00    -0.504 OA
ATOM     11  H   UNL     1      -3.016  10.023  -9.915  1.00  0.00     0.293 HD
ENDBRANCH   4  10
BRANCH   6  12
ATOM     12  O   UNL     1      -0.164   9.079  -9.999  1.00  0.00    -0.504 OA
ATOM     13  H   UNL     1       0.028   9.268 -10.976  1.00  0.00     0.293 HD
ENDBRANCH   6  12
TORSDOF 3
ENDMDL
MODEL 4
REMARK VINA RESULT:    -5.763     17.953     18.555
REMARK INTER + INTRA:          -6.472
REMARK INTER:                  -6.435
REMARK INTRA:                  -0.037
REMARK UNBOUND:                -0.036
REMARK SMILES O=C([O-])c1ccc(O)c(O)c1
REMARK SMILES IDX 4 1 11 2 5 3 9 4 6 5 7 6 2 7 1 8 3 9 10 10 8 12
REMARK H PARENT 10 11 8 13
REMARK Flexibility Score: inf
ROOT
ATOM      1  C   UNL     1      12.130  -4.744 -12.542  1.00  0.00     0.001 A 
ATOM      2  C   UNL     1      12.338  -5.799 -13.448  1.00  0.00     0.060 A 
ATOM      3  C   UNL     1      13.022  -3.658 -12.543  1.00  0.00     0.014 A 
ATOM      4  C   UNL     1      13.420  -5.770 -14.341  1.00  0.00     0.158 A 
ATOM      5  C   UNL     1      14.099  -3.628 -13.432  1.00  0.00     0.051 A 
ATOM      6  C   UNL     1      14.304  -4.679 -14.332  1.00  0.00     0.157 A 
ENDROOT
BRANCH   1   7
ATOM      7  C   UNL     1      10.989  -4.772 -11.599  1.00  0.00     0.072 C 
ATOM      8  O   UNL     1       9.805  -4.784 -12.027  1.00  0.00    -0.545 OA
ATOM      9  O   UNL     1      11.210  -4.787 -10.227  1.00  0.00    -0.545 OA
ENDBRANCH   1   7
BRANCH   4  10
ATOM     10  O   UNL     1      13.618  -6.821 -15.236  1.00  0.00    -0.504 OA
ATOM     11  H   UNL     1      13.134  -7.705 -15.132  1.00  0.00     0.293 HD
ENDBRANCH   4  10
BRANCH   6  12
ATOM     12  O   UNL     1      15.389  -4.620 -15.206  1.00  0.00    -0.504 OA
ATOM     13  H   UNL     1      15.274  -4.416 -16.192  1.00  0.00     0.293 HD
ENDBRANCH   6  12
TORSDOF 3
ENDMDL
MODEL 5
REMARK VINA RESULT:    -5.697     17.791     18.226
REMARK INTER + INTRA:          -6.399
REMARK INTER:                  -6.355
REMARK INTRA:                  -0.044
REMARK UNBOUND:                -0.036
REMARK SMILES O=C([O-])c1ccc(O)c(O)c1
REMARK SMILES IDX 4 1 11 2 5 3 9 4 6 5 7 6 2 7 1 8 3 9 10 10 8 12
REMARK H PARENT 10 11 8 13
REMARK Flexibility Score: inf
ROOT
ATOM      1  C   UNL     1      13.392  -4.682 -13.411  1.00  0.00     0.001 A 
ATOM      2  C   UNL     1      12.908  -3.910 -12.340  1.00  0.00     0.060 A 
ATOM      3  C   UNL     1      12.672  -5.822 -13.810  1.00  0.00     0.014 A 
ATOM      4  C   UNL     1      11.725  -4.269 -11.678  1.00  0.00     0.158 A 
ATOM      5  C   UNL     1      11.494  -6.180 -13.152  1.00  0.00     0.051 A 
ATOM      6  C   UNL     1      11.015  -5.410 -12.087  1.00  0.00     0.157 A 
ENDROOT
BRANCH   1   7
ATOM      7  C   UNL     1      14.640  -4.305 -14.111  1.00  0.00     0.072 C 
ATOM      8  O   UNL     1      15.211  -5.117 -14.887  1.00  0.00    -0.545 OA
ATOM      9  O   UNL     1      15.201  -3.047 -13.921  1.00  0.00    -0.545 OA
ENDBRANCH   1   7
BRANCH   4  10
ATOM     10  O   UNL     1      11.253  -3.497 -10.618  1.00  0.00    -0.504 OA
ATOM     11  H   UNL     1      10.742  -2.636 -10.774  1.00  0.00     0.293 HD
ENDBRANCH   4  10
BRANCH   6  12
ATOM     12  O   UNL     1       9.835  -5.794 -11.450  1.00  0.00    -0.504 OA
ATOM     13  H   UNL     1       9.834  -6.411 -10.647  1.00  0.00     0.293 HD
ENDBRANCH   6  12
TORSDOF 3
ENDMDL
MODEL 6
REMARK VINA RESULT:    -5.694      1.000      2.048
REMARK INTER + INTRA:          -6.396
REMARK INTER:                  -6.358
REMARK INTRA:                  -0.038
REMARK UNBOUND:                -0.036
REMARK SMILES O=C([O-])c1ccc(O)c(O)c1
REMARK SMILES IDX 4 1 11 2 5 3 9 4 6 5 7 6 2 7 1 8 3 9 10 10 8 12
REMARK H PARENT 10 11 8 13
REMARK Flexibility Score: inf
ROOT
ATOM      1  C   UNL     1      -2.167   5.095 -10.580  1.00  0.00     0.001 A 
ATOM      2  C   UNL     1      -2.850   4.952  -9.358  1.00  0.00     0.060 A 
ATOM      3  C   UNL     1      -0.867   5.628 -10.574  1.00  0.00     0.014 A 
ATOM      4  C   UNL     1      -2.244   5.333  -8.152  1.00  0.00     0.158 A 
ATOM      5  C   UNL     1      -0.262   6.008  -9.374  1.00  0.00     0.051 A 
ATOM      6  C   UNL     1      -0.943   5.864  -8.161  1.00  0.00     0.157 A 
ENDROOT
BRANCH   1   7
ATOM      7  C   UNL     1      -2.805   4.693 -11.853  1.00  0.00     0.072 C 
ATOM      8  O   UNL     1      -2.280   3.811 -12.582  1.00  0.00    -0.545 OA
ATOM      9  O   UNL     1      -3.995   5.284 -12.262  1.00  0.00    -0.545 OA
ENDBRANCH   1   7
BRANCH   4  10
ATOM     10  O   UNL     1      -2.929   5.187  -6.946  1.00  0.00    -0.504 OA
ATOM     11  H   UNL     1      -3.573   5.894  -6.612  1.00  0.00     0.293 HD
ENDBRANCH   4  10
BRANCH   6  12
ATOM     12  O   UNL     1      -0.313   6.253  -6.980  1.00  0.00    -0.504 OA
ATOM     13  H   UNL     1      -0.030   5.582  -6.275  1.00  0.00     0.293 HD
ENDBRANCH   6  12
TORSDOF 3
ENDMDL
MODEL 7
REMARK VINA RESULT:    -5.692     14.047     14.888
REMARK INTER + INTRA:          -6.394
REMARK INTER:                  -6.357
REMARK INTRA:                  -0.037
REMARK UNBOUND:                -0.036
REMARK SMILES O=C([O-])c1ccc(O)c(O)c1
REMARK SMILES IDX 4 1 11 2 5 3 9 4 6 5 7 6 2 7 1 8 3 9 10 10 8 12
REMARK H PARENT 10 11 8 13
REMARK Flexibility Score: inf
ROOT
ATOM      1  C   UNL     1       6.426  -7.005  -9.603  1.00  0.00     0.001 A 
ATOM      2  C   UNL     1       5.273  -7.134 -10.397  1.00  0.00     0.060 A 
ATOM      3  C   UNL     1       6.289  -6.611  -8.261  1.00  0.00     0.014 A 
ATOM      4  C   UNL     1       4.003  -6.875  -9.859  1.00  0.00     0.158 A 
ATOM      5  C   UNL     1       5.025  -6.353  -7.725  1.00  0.00     0.051 A 
ATOM      6  C   UNL     1       3.880  -6.483  -8.516  1.00  0.00     0.157 A 
ENDROOT
BRANCH   1   7
ATOM      7  C   UNL     1       7.766  -7.278 -10.167  1.00  0.00     0.072 C 
ATOM      8  O   UNL     1       8.121  -8.457 -10.435  1.00  0.00    -0.545 OA
ATOM      9  O   UNL     1       8.654  -6.236 -10.412  1.00  0.00    -0.545 OA
ENDBRANCH   1   7
BRANCH   4  10
ATOM     10  O   UNL     1       2.865  -7.006 -10.655  1.00  0.00    -0.504 OA
ATOM     11  H   UNL     1       2.178  -7.730 -10.483  1.00  0.00     0.293 HD
ENDBRANCH   4  10
BRANCH   6  12
ATOM     12  O   UNL     1       2.633  -6.217  -7.952  1.00  0.00    -0.504 OA
ATOM     13  H   UNL     1       2.481  -6.233  -6.951  1.00  0.00     0.293 HD
ENDBRANCH   6  12
TORSDOF 3
ENDMDL
MODEL 8
REMARK VINA RESULT:    -5.679     12.937     13.716
REMARK INTER + INTRA:          -6.379
REMARK INTER:                  -6.343
REMARK INTRA:                  -0.036
REMARK UNBOUND:                -0.036
REMARK SMILES O=C([O-])c1ccc(O)c(O)c1
REMARK SMILES IDX 4 1 11 2 5 3 9 4 6 5 7 6 2 7 1 8 3 9 10 10 8 12
REMARK H PARENT 10 11 8 13
REMARK Flexibility Score: inf
ROOT
ATOM      1  C   UNL     1       2.886  -6.259  -8.878  1.00  0.00     0.001 A 
ATOM      2  C   UNL     1       4.021  -6.183  -8.052  1.00  0.00     0.060 A 
ATOM      3  C   UNL     1       3.013  -6.823 -10.159  1.00  0.00     0.014 A 
ATOM      4  C   UNL     1       5.262  -6.661  -8.497  1.00  0.00     0.158 A 
ATOM      5  C   UNL     1       4.248  -7.300 -10.604  1.00  0.00     0.051 A 
ATOM      6  C   UNL     1       5.375  -7.223  -9.780  1.00  0.00     0.157 A 
ENDROOT
BRANCH   1   7
ATOM      7  C   UNL     1       1.576  -5.755  -8.410  1.00  0.00     0.072 C 
ATOM      8  O   UNL     1       0.696  -6.552  -7.989  1.00  0.00    -0.545 OA
ATOM      9  O   UNL     1       1.298  -4.393  -8.427  1.00  0.00    -0.545 OA
ENDBRANCH   1   7
BRANCH   4  10
ATOM     10  O   UNL     1       6.382  -6.581  -7.671  1.00  0.00    -0.504 OA
ATOM     11  H   UNL     1       6.395  -5.988  -6.849  1.00  0.00     0.293 HD
ENDBRANCH   4  10
BRANCH   6  12
ATOM     12  O   UNL     1       6.594  -7.707 -10.253  1.00  0.00    -0.504 OA
ATOM     13  H   UNL     1       6.660  -8.271 -11.091  1.00  0.00     0.293 HD
ENDBRANCH   6  12
TORSDOF 3
ENDMDL
MODEL 9
REMARK VINA RESULT:    -5.527     13.848     14.633
REMARK INTER + INTRA:          -6.209
REMARK INTER:                  -6.172
REMARK INTRA:                  -0.037
REMARK UNBOUND:                -0.036
REMARK SMILES O=C([O-])c1ccc(O)c(O)c1
REMARK SMILES IDX 4 1 11 2 5 3 9 4 6 5 7 6 2 7 1 8 3 9 10 10 8 12
REMARK H PARENT 10 11 8 13
REMARK Flexibility Score: inf
ROOT
ATOM      1  C   UNL     1       6.041  -6.992  -9.780  1.00  0.00     0.001 A 
ATOM      2  C   UNL     1       5.684  -6.440  -8.537  1.00  0.00     0.060 A 
ATOM      3  C   UNL     1       5.032  -7.265 -10.719  1.00  0.00     0.014 A 
ATOM      4  C   UNL     1       4.342  -6.165  -8.236  1.00  0.00     0.158 A 
ATOM      5  C   UNL     1       3.695  -6.991 -10.421  1.00  0.00     0.051 A 
ATOM      6  C   UNL     1       3.343  -6.442  -9.184  1.00  0.00     0.157 A 
ENDROOT
BRANCH   1   7
ATOM      7  C   UNL     1       7.457  -7.282 -10.099  1.00  0.00     0.072 C 
ATOM      8  O   UNL     1       7.848  -8.468 -10.256  1.00  0.00    -0.545 OA
ATOM      9  O   UNL     1       8.376  -6.247 -10.229  1.00  0.00    -0.545 OA
ENDBRANCH   1   7
BRANCH   4  10
ATOM     10  O   UNL     1       3.998  -5.618  -7.001  1.00  0.00    -0.504 OA
ATOM     11  H   UNL     1       4.680  -5.144  -6.421  1.00  0.00     0.293 HD
ENDBRANCH   4  10
BRANCH   6  12
ATOM     12  O   UNL     1       2.000  -6.181  -8.917  1.00  0.00    -0.504 OA
ATOM     13  H   UNL     1       1.310  -6.104  -9.654  1.00  0.00     0.293 HD
ENDBRANCH   6  12
TORSDOF 3
ENDMDL
