MODEL 1
REMARK VINA RESULT:    -4.047      0.000      0.000
REMARK INTER + INTRA:          -4.284
REMARK INTER:                  -4.284
REMARK INTRA:                   0.000
REMARK UNBOUND:                 0.000
REMARK SMILES O=c1ccc2cc(O)c(O)cc2o1
REMARK SMILES IDX 4 1 3 2 2 3 1 4 13 5 12 6 11 7 9 8 7 9 6 10 5 11 8 12 10 14
REMARK H PARENT 8 13 10 15
REMARK Flexibility Score: inf
ROOT
ATOM      1  C   UNL     1      11.650 -17.262  18.243  1.00  0.00     0.019 A 
ATOM      2  C   UNL     1      10.569 -17.841  18.908  1.00  0.00     0.094 A 
ATOM      3  C   UNL     1      10.774 -18.405  20.172  1.00  0.00     0.336 A 
ATOM      4  O   UNL     1       9.812 -18.934  20.788  1.00  0.00    -0.246 OA
ATOM      5  O   UNL     1      11.982 -18.389  20.729  1.00  0.00    -0.423 OA
ATOM      6  C   UNL     1      13.040 -17.847  20.129  1.00  0.00     0.142 A 
ATOM      7  C   UNL     1      14.286 -17.859  20.763  1.00  0.00     0.098 A 
ATOM      8  C   UNL     1      15.403 -17.289  20.136  1.00  0.00     0.161 A 
ATOM      9  C   UNL     1      15.273 -16.704  18.867  1.00  0.00     0.158 A 
ATOM     10  C   UNL     1      14.025 -16.690  18.226  1.00  0.00     0.062 A 
ATOM     11  C   UNL     1      12.909 -17.259  18.852  1.00  0.00     0.022 A 
ENDROOT
BRANCH   9  12
ATOM     12  O   UNL     1      16.388 -16.140  18.250  1.00  0.00    -0.504 OA
ATOM     13  H   UNL     1      16.320 -15.285  17.712  1.00  0.00     0.293 HD
ENDBRANCH   9  12
BRANCH   8  14
ATOM     14  O   UNL     1      16.647 -17.299  20.766  1.00  0.00    -0.504 OA
ATOM     15  H   UNL     1      16.737 -17.497  21.755  1.00  0.00     0.293 HD
ENDBRANCH   8  14
TORSDOF 2
ENDMDL
MODEL 2
REMARK VINA RESULT:    -4.044      1.763      4.453
REMARK INTER + INTRA:          -4.281
REMARK INTER:                  -4.281
REMARK INTRA:                   0.000
REMARK UNBOUND:                 0.000
REMARK SMILES O=c1ccc2cc(O)c(O)cc2o1
REMARK SMILES IDX 4 1 3 2 2 3 1 4 13 5 12 6 11 7 9 8 7 9 6 10 5 11 8 12 10 14
REMARK H PARENT 8 13 10 15
REMARK Flexibility Score: inf
ROOT
ATOM      1  C   UNL     1      15.362 -17.936  19.277  1.00  0.00     0.019 A 
ATOM      2  C   UNL     1      16.253 -17.998  20.349  1.00  0.00     0.094 A 
ATOM      3  C   UNL     1      15.743 -18.108  21.647  1.00  0.00     0.336 A 
ATOM      4  O   UNL     1      16.530 -18.164  22.629  1.00  0.00    -0.246 OA
ATOM      5  O   UNL     1      14.430 -18.152  21.855  1.00  0.00    -0.423 OA
ATOM      6  C   UNL     1      13.546 -18.096  20.861  1.00  0.00     0.142 A 
ATOM      7  C   UNL     1      12.176 -18.147  21.139  1.00  0.00     0.098 A 
ATOM      8  C   UNL     1      11.242 -18.088  20.095  1.00  0.00     0.161 A 
ATOM      9  C   UNL     1      11.679 -17.978  18.767  1.00  0.00     0.158 A 
ATOM     10  C   UNL     1      13.051 -17.926  18.482  1.00  0.00     0.062 A 
ATOM     11  C   UNL     1      13.986 -17.984  19.524  1.00  0.00     0.022 A 
ENDROOT
BRANCH   9  12
ATOM     12  O   UNL     1      10.743 -17.920  17.735  1.00  0.00    -0.504 OA
ATOM     13  H   UNL     1      10.297 -17.050  17.472  1.00  0.00     0.293 HD
ENDBRANCH   9  12
BRANCH   8  14
ATOM     14  O   UNL     1       9.876 -18.139  20.370  1.00  0.00    -0.504 OA
ATOM     15  H   UNL     1       9.255 -17.382  20.109  1.00  0.00     0.293 HD
ENDBRANCH   8  14
TORSDOF 2
ENDMDL
MODEL 3
REMARK VINA RESULT:    -3.958      2.223      2.579
REMARK INTER + INTRA:          -4.189
REMARK INTER:                  -4.189
REMARK INTRA:                   0.000
REMARK UNBOUND:                 0.000
REMARK SMILES O=c1ccc2cc(O)c(O)cc2o1
REMARK SMILES IDX 4 1 3 2 2 3 1 4 13 5 12 6 11 7 9 8 7 9 6 10 5 11 8 12 10 14
REMARK H PARENT 8 13 10 15
REMARK Flexibility Score: inf
ROOT
ATOM      1  C   UNL     1      11.819 -17.888  20.780  1.00  0.00     0.019 A 
ATOM      2  C   UNL     1      10.986 -17.484  21.824  1.00  0.00     0.094 A 
ATOM      3  C   UNL     1      11.559 -17.119  23.046  1.00  0.00     0.336 A 
ATOM      4  O   UNL     1      10.825 -16.752  24.001  1.00  0.00    -0.246 OA
ATOM      5  O   UNL     1      12.879 -17.157  23.210  1.00  0.00    -0.423 OA
ATOM      6  C   UNL     1      13.710 -17.535  22.240  1.00  0.00     0.142 A 
ATOM      7  C   UNL     1      15.089 -17.555  22.470  1.00  0.00     0.098 A 
ATOM      8  C   UNL     1      15.968 -17.954  21.452  1.00  0.00     0.161 A 
ATOM      9  C   UNL     1      15.465 -18.334  20.199  1.00  0.00     0.158 A 
ATOM     10  C   UNL     1      14.082 -18.316  19.964  1.00  0.00     0.062 A 
ATOM     11  C   UNL     1      13.203 -17.919  20.979  1.00  0.00     0.022 A 
ENDROOT
BRANCH   9  12
ATOM     12  O   UNL     1      16.345 -18.728  19.193  1.00  0.00    -0.504 OA
ATOM     13  H   UNL     1      17.305 -18.406  19.171  1.00  0.00     0.293 HD
ENDBRANCH   9  12
BRANCH   8  14
ATOM     14  O   UNL     1      17.343 -17.974  21.678  1.00  0.00    -0.504 OA
ATOM     15  H   UNL     1      17.802 -17.253  22.222  1.00  0.00     0.293 HD
ENDBRANCH   8  14
TORSDOF 2
ENDMDL
MODEL 4
REMARK VINA RESULT:    -3.944     12.495     14.184
REMARK INTER + INTRA:          -4.175
REMARK INTER:                  -4.175
REMARK INTRA:                   0.000
REMARK UNBOUND:                 0.000
REMARK SMILES O=c1ccc2cc(O)c(O)cc2o1
REMARK SMILES IDX 4 1 3 2 2 3 1 4 13 5 12 6 11 7 9 8 7 9 6 10 5 11 8 12 10 14
REMARK H PARENT 8 13 10 15
REMARK Flexibility Score: inf
ROOT
ATOM      1  C   UNL     1      16.596  -3.163  14.404  1.00  0.00     0.019 A 
ATOM      2  C   UNL     1      16.184  -2.316  15.433  1.00  0.00     0.094 A 
ATOM      3  C   UNL     1      15.186  -2.752  16.312  1.00  0.00     0.336 A 
ATOM      4  O   UNL     1      14.800  -2.002  17.246  1.00  0.00    -0.246 OA
ATOM      5  O   UNL     1      14.639  -3.956  16.166  1.00  0.00    -0.423 OA
ATOM      6  C   UNL     1      15.002  -4.795  15.198  1.00  0.00     0.142 A 
ATOM      7  C   UNL     1      14.392  -6.049  15.094  1.00  0.00     0.098 A 
ATOM      8  C   UNL     1      14.771  -6.936  14.077  1.00  0.00     0.161 A 
ATOM      9  C   UNL     1      15.767  -6.568  13.159  1.00  0.00     0.158 A 
ATOM     10  C   UNL     1      16.382  -5.311  13.259  1.00  0.00     0.062 A 
ATOM     11  C   UNL     1      16.004  -4.424  14.275  1.00  0.00     0.022 A 
ENDROOT
BRANCH   9  12
ATOM     12  O   UNL     1      16.138  -7.456  12.151  1.00  0.00    -0.504 OA
ATOM     13  H   UNL     1      16.948  -7.287  11.568  1.00  0.00     0.293 HD
ENDBRANCH   9  12
BRANCH   8  14
ATOM     14  O   UNL     1      14.165  -8.187  13.971  1.00  0.00    -0.504 OA
ATOM     15  H   UNL     1      13.265  -8.302  13.521  1.00  0.00     0.293 HD
ENDBRANCH   8  14
TORSDOF 2
ENDMDL
MODEL 5
REMARK VINA RESULT:    -3.943     16.094     17.819
REMARK INTER + INTRA:          -4.174
REMARK INTER:                  -4.174
REMARK INTRA:                   0.000
REMARK UNBOUND:                 0.000
REMARK SMILES O=c1ccc2cc(O)c(O)cc2o1
REMARK SMILES IDX 4 1 3 2 2 3 1 4 13 5 12 6 11 7 9 8 7 9 6 10 5 11 8 12 10 14
REMARK H PARENT 8 13 10 15
REMARK Flexibility Score: inf
ROOT
ATOM      1  C   UNL     1      14.502  -5.339   6.601  1.00  0.00     0.019 A 
ATOM      2  C   UNL     1      13.950  -6.336   7.405  1.00  0.00     0.094 A 
ATOM      3  C   UNL     1      14.806  -7.174   8.128  1.00  0.00     0.336 A 
ATOM      4  O   UNL     1      14.328  -8.081   8.860  1.00  0.00    -0.246 OA
ATOM      5  O   UNL     1      16.125  -7.022   8.049  1.00  0.00    -0.423 OA
ATOM      6  C   UNL     1      16.693  -6.083   7.293  1.00  0.00     0.142 A 
ATOM      7  C   UNL     1      18.085  -5.969   7.248  1.00  0.00     0.098 A 
ATOM      8  C   UNL     1      18.688  -4.983   6.454  1.00  0.00     0.161 A 
ATOM      9  C   UNL     1      17.893  -4.106   5.702  1.00  0.00     0.158 A 
ATOM     10  C   UNL     1      16.495  -4.216   5.743  1.00  0.00     0.062 A 
ATOM     11  C   UNL     1      15.892  -5.201   6.535  1.00  0.00     0.022 A 
ENDROOT
BRANCH   9  12
ATOM     12  O   UNL     1      18.499  -3.127   4.915  1.00  0.00    -0.504 OA
ATOM     13  H   UNL     1      18.131  -2.874   4.007  1.00  0.00     0.293 HD
ENDBRANCH   9  12
BRANCH   8  14
ATOM     14  O   UNL     1      20.076  -4.867   6.408  1.00  0.00    -0.504 OA
ATOM     15  H   UNL     1      20.674  -5.682   6.340  1.00  0.00     0.293 HD
ENDBRANCH   8  14
TORSDOF 2
ENDMDL
MODEL 6
REMARK VINA RESULT:    -3.932      1.064      2.202
REMARK INTER + INTRA:          -4.161
REMARK INTER:                  -4.161
REMARK INTRA:                   0.000
REMARK UNBOUND:                 0.000
REMARK SMILES O=c1ccc2cc(O)c(O)cc2o1
REMARK SMILES IDX 4 1 3 2 2 3 1 4 13 5 12 6 11 7 9 8 7 9 6 10 5 11 8 12 10 14
REMARK H PARENT 8 13 10 15
REMARK Flexibility Score: inf
ROOT
ATOM      1  C   UNL     1      12.220 -18.047  21.332  1.00  0.00     0.019 A 
ATOM      2  C   UNL     1      11.003 -18.358  20.723  1.00  0.00     0.094 A 
ATOM      3  C   UNL     1      10.883 -18.213  19.337  1.00  0.00     0.336 A 
ATOM      4  O   UNL     1       9.794 -18.487  18.768  1.00  0.00    -0.246 OA
ATOM      5  O   UNL     1      11.914 -17.785  18.612  1.00  0.00    -0.423 OA
ATOM      6  C   UNL     1      13.091 -17.479  19.153  1.00  0.00     0.142 A 
ATOM      7  C   UNL     1      14.139 -17.034  18.341  1.00  0.00     0.098 A 
ATOM      8  C   UNL     1      15.381 -16.710  18.906  1.00  0.00     0.161 A 
ATOM      9  C   UNL     1      15.576 -16.831  20.290  1.00  0.00     0.158 A 
ATOM     10  C   UNL     1      14.527 -17.276  21.109  1.00  0.00     0.062 A 
ATOM     11  C   UNL     1      13.286 -17.600  20.546  1.00  0.00     0.022 A 
ENDROOT
BRANCH   9  12
ATOM     12  O   UNL     1      16.813 -16.507  20.844  1.00  0.00    -0.504 OA
ATOM     13  H   UNL     1      17.528 -16.034  20.305  1.00  0.00     0.293 HD
ENDBRANCH   9  12
BRANCH   8  14
ATOM     14  O   UNL     1      16.428 -16.267  18.099  1.00  0.00    -0.504 OA
ATOM     15  H   UNL     1      16.747 -16.806  17.302  1.00  0.00     0.293 HD
ENDBRANCH   8  14
TORSDOF 2
ENDMDL
MODEL 7
REMARK VINA RESULT:    -3.919     10.288     13.329
REMARK INTER + INTRA:          -4.148
REMARK INTER:                  -4.148
REMARK INTRA:                   0.000
REMARK UNBOUND:                 0.000
REMARK SMILES O=c1ccc2cc(O)c(O)cc2o1
REMARK SMILES IDX 4 1 3 2 2 3 1 4 13 5 12 6 11 7 9 8 7 9 6 10 5 11 8 12 10 14
REMARK H PARENT 8 13 10 15
REMARK Flexibility Score: inf
ROOT
ATOM      1  C   UNL     1      27.280 -16.521  17.228  1.00  0.00     0.019 A 
ATOM      2  C   UNL     1      28.042 -15.467  16.724  1.00  0.00     0.094 A 
ATOM      3  C   UNL     1      27.491 -14.181  16.705  1.00  0.00     0.336 A 
ATOM      4  O   UNL     1      28.162 -13.216  16.254  1.00  0.00    -0.246 OA
ATOM      5  O   UNL     1      26.260 -13.968  17.161  1.00  0.00    -0.423 OA
ATOM      6  C   UNL     1      25.499 -14.946  17.650  1.00  0.00     0.142 A 
ATOM      7  C   UNL     1      24.211 -14.663  18.115  1.00  0.00     0.098 A 
ATOM      8  C   UNL     1      23.406 -15.689  18.631  1.00  0.00     0.161 A 
ATOM      9  C   UNL     1      23.892 -17.004  18.682  1.00  0.00     0.158 A 
ATOM     10  C   UNL     1      25.183 -17.294  18.216  1.00  0.00     0.062 A 
ATOM     11  C   UNL     1      25.988 -16.270  17.700  1.00  0.00     0.022 A 
ENDROOT
BRANCH   9  12
ATOM     12  O   UNL     1      23.085 -18.018  19.197  1.00  0.00    -0.504 OA
ATOM     13  H   UNL     1      22.497 -17.868  20.007  1.00  0.00     0.293 HD
ENDBRANCH   9  12
BRANCH   8  14
ATOM     14  O   UNL     1      22.122 -15.410  19.096  1.00  0.00    -0.504 OA
ATOM     15  H   UNL     1      21.966 -14.800  19.889  1.00  0.00     0.293 HD
ENDBRANCH   8  14
TORSDOF 2
ENDMDL
MODEL 8
REMARK VINA RESULT:    -3.904      1.487      5.174
REMARK INTER + INTRA:          -4.132
REMARK INTER:                  -4.132
REMARK INTRA:                   0.000
REMARK UNBOUND:                 0.000
REMARK SMILES O=c1ccc2cc(O)c(O)cc2o1
REMARK SMILES IDX 4 1 3 2 2 3 1 4 13 5 12 6 11 7 9 8 7 9 6 10 5 11 8 12 10 14
REMARK H PARENT 8 13 10 15
REMARK Flexibility Score: inf
ROOT
ATOM      1  C   UNL     1      13.339 -17.347  20.895  1.00  0.00     0.019 A 
ATOM      2  C   UNL     1      14.431 -16.790  20.230  1.00  0.00     0.094 A 
ATOM      3  C   UNL     1      14.408 -16.716  18.833  1.00  0.00     0.336 A 
ATOM      4  O   UNL     1      15.385 -16.217  18.214  1.00  0.00    -0.246 OA
ATOM      5  O   UNL     1      13.361 -17.171  18.151  1.00  0.00    -0.423 OA
ATOM      6  C   UNL     1      12.298 -17.710  18.746  1.00  0.00     0.142 A 
ATOM      7  C   UNL     1      11.226 -18.172  17.977  1.00  0.00     0.098 A 
ATOM      8  C   UNL     1      10.105 -18.740  18.599  1.00  0.00     0.161 A 
ATOM      9  C   UNL     1      10.056 -18.847  19.997  1.00  0.00     0.158 A 
ATOM     10  C   UNL     1      11.130 -18.386  20.773  1.00  0.00     0.062 A 
ATOM     11  C   UNL     1      12.251 -17.818  20.153  1.00  0.00     0.022 A 
ENDROOT
BRANCH   9  12
ATOM     12  O   UNL     1       8.938 -19.413  20.608  1.00  0.00    -0.504 OA
ATOM     13  H   UNL     1       8.497 -20.245  20.238  1.00  0.00     0.293 HD
ENDBRANCH   9  12
BRANCH   8  14
ATOM     14  O   UNL     1       9.034 -19.201  17.835  1.00  0.00    -0.504 OA
ATOM     15  H   UNL     1       9.115 -20.026  17.253  1.00  0.00     0.293 HD
ENDBRANCH   8  14
TORSDOF 2
ENDMDL
MODEL 9
REMARK VINA RESULT:    -3.813      2.133      4.981
REMARK INTER + INTRA:          -4.036
REMARK INTER:                  -4.036
REMARK INTRA:                   0.000
REMARK UNBOUND:                 0.000
REMARK SMILES O=c1ccc2cc(O)c(O)cc2o1
REMARK SMILES IDX 4 1 3 2 2 3 1 4 13 5 12 6 11 7 9 8 7 9 6 10 5 11 8 12 10 14
REMARK H PARENT 8 13 10 15
REMARK Flexibility Score: inf
ROOT
ATOM      1  C   UNL     1      14.793 -18.352  19.891  1.00  0.00     0.019 A 
ATOM      2  C   UNL     1      16.151 -18.325  20.211  1.00  0.00     0.094 A 
ATOM      3  C   UNL     1      16.536 -17.928  21.496  1.00  0.00     0.336 A 
ATOM      4  O   UNL     1      17.757 -17.896  21.805  1.00  0.00    -0.246 OA
ATOM      5  O   UNL     1      15.621 -17.582  22.398  1.00  0.00    -0.423 OA
ATOM      6  C   UNL     1      14.316 -17.594  22.134  1.00  0.00     0.142 A 
ATOM      7  C   UNL     1      13.400 -17.220  23.122  1.00  0.00     0.098 A 
ATOM      8  C   UNL     1      12.024 -17.231  22.849  1.00  0.00     0.161 A 
ATOM      9  C   UNL     1      11.563 -17.618  21.582  1.00  0.00     0.158 A 
ATOM     10  C   UNL     1      12.479 -17.993  20.587  1.00  0.00     0.062 A 
ATOM     11  C   UNL     1      13.853 -17.983  20.858  1.00  0.00     0.022 A 
ENDROOT
BRANCH   9  12
ATOM     12  O   UNL     1      10.195 -17.626  21.318  1.00  0.00    -0.504 OA
ATOM     13  H   UNL     1       9.806 -17.146  20.516  1.00  0.00     0.293 HD
ENDBRANCH   9  12
BRANCH   8  14
ATOM     14  O   UNL     1      11.108 -16.859  23.832  1.00  0.00    -0.504 OA
ATOM     15  H   UNL     1      10.343 -17.466  24.099  1.00  0.00     0.293 HD
ENDBRANCH   8  14
TORSDOF 2
ENDMDL
