MODEL 1
REMARK VINA RESULT:    -3.578      0.000      0.000
REMARK INTER + INTRA:          -4.529
REMARK INTER:                  -4.310
REMARK INTRA:                  -0.219
REMARK UNBOUND:                -0.219
REMARK SMILES OCC(O)CO
REMARK SMILES IDX 3 1 5 2 6 3 2 5 1 6 4 8
REMARK H PARENT 6 4 1 7 4 9
REMARK Flexibility Score: inf
ROOT
ATOM      1  C   UNL     1      -8.381   4.163  -9.525  1.00  0.00     0.165 C 
ENDROOT
BRANCH   1   2
ATOM      2  C   UNL     1      -9.773   3.932 -10.141  1.00  0.00     0.190 C 
BRANCH   2   3
ATOM      3  O   UNL     1      -9.895   2.629 -10.646  1.00  0.00    -0.394 OA
ATOM      4  H   UNL     1      -9.195   2.083 -10.203  1.00  0.00     0.210 HD
ENDBRANCH   2   3
ENDBRANCH   1   2
BRANCH   1   5
ATOM      5  C   UNL     1      -7.444   2.969  -9.765  1.00  0.00     0.190 C 
BRANCH   5   6
ATOM      6  O   UNL     1      -7.752   1.906  -8.904  1.00  0.00    -0.394 OA
ATOM      7  H   UNL     1      -7.604   1.071  -9.419  1.00  0.00     0.210 HD
ENDBRANCH   5   6
ENDBRANCH   1   5
BRANCH   1   8
ATOM      8  O   UNL     1      -7.797   5.318 -10.068  1.00  0.00    -0.388 OA
ATOM      9  H   UNL     1      -7.167   5.016 -10.775  1.00  0.00     0.211 HD
ENDBRANCH   1   8
TORSDOF 5
ENDMDL
MODEL 2
REMARK VINA RESULT:    -3.548      0.570      2.257
REMARK INTER + INTRA:          -4.492
REMARK INTER:                  -4.285
REMARK INTRA:                  -0.207
REMARK UNBOUND:                -0.219
REMARK SMILES OCC(O)CO
REMARK SMILES IDX 3 1 5 2 6 3 2 5 1 6 4 8
REMARK H PARENT 6 4 1 7 4 9
REMARK Flexibility Score: inf
ROOT
ATOM      1  C   UNL     1      -7.773   4.002  -9.993  1.00  0.00     0.165 C 
ENDROOT
BRANCH   1   2
ATOM      2  C   UNL     1      -6.988   3.058  -9.065  1.00  0.00     0.190 C 
BRANCH   2   3
ATOM      3  O   UNL     1      -7.677   1.852  -8.867  1.00  0.00    -0.394 OA
ATOM      4  H   UNL     1      -8.051   1.587  -9.747  1.00  0.00     0.210 HD
ENDBRANCH   2   3
ENDBRANCH   1   2
BRANCH   1   5
ATOM      5  C   UNL     1      -9.290   3.781  -9.886  1.00  0.00     0.190 C 
BRANCH   5   6
ATOM      6  O   UNL     1      -9.687   2.655 -10.620  1.00  0.00    -0.394 OA
ATOM      7  H   UNL     1     -10.564   2.370 -10.252  1.00  0.00     0.210 HD
ENDBRANCH   5   6
ENDBRANCH   1   5
BRANCH   1   8
ATOM      8  O   UNL     1      -7.483   5.339  -9.679  1.00  0.00    -0.388 OA
ATOM      9  H   UNL     1      -6.574   5.350  -9.279  1.00  0.00     0.211 HD
ENDBRANCH   1   8
TORSDOF 5
ENDMDL
MODEL 3
REMARK VINA RESULT:    -3.512      1.198      2.437
REMARK INTER + INTRA:          -4.449
REMARK INTER:                  -4.256
REMARK INTRA:                  -0.193
REMARK UNBOUND:                -0.219
REMARK SMILES OCC(O)CO
REMARK SMILES IDX 3 1 5 2 6 3 2 5 1 6 4 8
REMARK H PARENT 6 4 1 7 4 9
REMARK Flexibility Score: inf
ROOT
ATOM      1  C   UNL     1      -7.919   3.032  -9.830  1.00  0.00     0.165 C 
ENDROOT
BRANCH   1   2
ATOM      2  C   UNL     1      -9.399   3.442  -9.938  1.00  0.00     0.190 C 
BRANCH   2   3
ATOM      3  O   UNL     1      -9.771   4.286  -8.881  1.00  0.00    -0.394 OA
ATOM      4  H   UNL     1      -9.107   4.147  -8.156  1.00  0.00     0.210 HD
ENDBRANCH   2   3
ENDBRANCH   1   2
BRANCH   1   5
ATOM      5  C   UNL     1      -7.053   4.162  -9.252  1.00  0.00     0.190 C 
BRANCH   5   6
ATOM      6  O   UNL     1      -7.437   5.407  -9.771  1.00  0.00    -0.394 OA
ATOM      7  H   UNL     1      -8.266   5.670  -9.293  1.00  0.00     0.210 HD
ENDBRANCH   5   6
ENDBRANCH   1   5
BRANCH   1   8
ATOM      8  O   UNL     1      -7.791   1.897  -9.015  1.00  0.00    -0.388 OA
ATOM      9  H   UNL     1      -7.429   2.207  -8.144  1.00  0.00     0.211 HD
ENDBRANCH   1   8
TORSDOF 5
ENDMDL
MODEL 4
REMARK VINA RESULT:    -3.414      1.373      2.959
REMARK INTER + INTRA:          -4.332
REMARK INTER:                  -4.111
REMARK INTRA:                  -0.220
REMARK UNBOUND:                -0.219
REMARK SMILES OCC(O)CO
REMARK SMILES IDX 3 1 5 2 6 3 2 5 1 6 4 8
REMARK H PARENT 6 4 1 7 4 9
REMARK Flexibility Score: inf
ROOT
ATOM      1  C   UNL     1      -8.100   3.202  -8.751  1.00  0.00     0.165 C 
ENDROOT
BRANCH   1   2
ATOM      2  C   UNL     1      -7.034   4.217  -9.203  1.00  0.00     0.190 C 
BRANCH   2   3
ATOM      3  O   UNL     1      -7.614   5.290  -9.895  1.00  0.00    -0.394 OA
ATOM      4  H   UNL     1      -7.038   6.082  -9.730  1.00  0.00     0.210 HD
ENDBRANCH   2   3
ENDBRANCH   1   2
BRANCH   1   5
ATOM      5  C   UNL     1      -9.454   3.455  -9.432  1.00  0.00     0.190 C 
BRANCH   5   6
ATOM      6  O   UNL     1     -10.148   4.498  -8.803  1.00  0.00    -0.394 OA
ATOM      7  H   UNL     1     -10.531   5.061  -9.525  1.00  0.00     0.210 HD
ENDBRANCH   5   6
ENDBRANCH   1   5
BRANCH   1   8
ATOM      8  O   UNL     1      -7.679   1.896  -9.043  1.00  0.00    -0.388 OA
ATOM      9  H   UNL     1      -6.823   1.755  -8.559  1.00  0.00     0.211 HD
ENDBRANCH   1   8
TORSDOF 5
ENDMDL
MODEL 5
REMARK VINA RESULT:    -3.304      1.253      2.982
REMARK INTER + INTRA:          -4.198
REMARK INTER:                  -3.996
REMARK INTRA:                  -0.203
REMARK UNBOUND:                -0.219
REMARK SMILES OCC(O)CO
REMARK SMILES IDX 3 1 5 2 6 3 2 5 1 6 4 8
REMARK H PARENT 6 4 1 7 4 9
REMARK Flexibility Score: inf
ROOT
ATOM      1  C   UNL     1      -8.542   3.315  -9.369  1.00  0.00     0.165 C 
ENDROOT
BRANCH   1   2
ATOM      2  C   UNL     1      -7.281   3.068  -8.520  1.00  0.00     0.190 C 
BRANCH   2   3
ATOM      3  O   UNL     1      -6.137   2.973  -9.326  1.00  0.00    -0.394 OA
ATOM      4  H   UNL     1      -6.220   3.673 -10.025  1.00  0.00     0.210 HD
ENDBRANCH   2   3
ENDBRANCH   1   2
BRANCH   1   5
ATOM      5  C   UNL     1      -8.525   4.703 -10.028  1.00  0.00     0.190 C 
BRANCH   5   6
ATOM      6  O   UNL     1      -7.385   5.427  -9.649  1.00  0.00    -0.394 OA
ATOM      7  H   UNL     1      -7.394   6.267 -10.176  1.00  0.00     0.210 HD
ENDBRANCH   5   6
ENDBRANCH   1   5
BRANCH   1   8
ATOM      8  O   UNL     1      -8.651   2.336 -10.369  1.00  0.00    -0.388 OA
ATOM      9  H   UNL     1      -7.726   2.064 -10.606  1.00  0.00     0.211 HD
ENDBRANCH   1   8
TORSDOF 5
ENDMDL
MODEL 6
REMARK VINA RESULT:    -3.284      1.211      2.401
REMARK INTER + INTRA:          -4.175
REMARK INTER:                  -3.959
REMARK INTRA:                  -0.215
REMARK UNBOUND:                -0.219
REMARK SMILES OCC(O)CO
REMARK SMILES IDX 3 1 5 2 6 3 2 5 1 6 4 8
REMARK H PARENT 6 4 1 7 4 9
REMARK Flexibility Score: inf
ROOT
ATOM      1  C   UNL     1      -8.596   3.132  -9.928  1.00  0.00     0.165 C 
ENDROOT
BRANCH   1   2
ATOM      2  C   UNL     1      -8.787   4.650 -10.097  1.00  0.00     0.190 C 
BRANCH   2   3
ATOM      3  O   UNL     1      -7.575   5.337  -9.927  1.00  0.00    -0.394 OA
ATOM      4  H   UNL     1      -6.851   4.706 -10.178  1.00  0.00     0.210 HD
ENDBRANCH   2   3
ENDBRANCH   1   2
BRANCH   1   5
ATOM      5  C   UNL     1      -8.485   2.731  -8.449  1.00  0.00     0.190 C 
BRANCH   5   6
ATOM      6  O   UNL     1      -7.491   3.475  -7.799  1.00  0.00    -0.394 OA
ATOM      7  H   UNL     1      -7.108   4.091  -8.476  1.00  0.00     0.210 HD
ENDBRANCH   5   6
ENDBRANCH   1   5
BRANCH   1   8
ATOM      8  O   UNL     1      -9.672   2.443 -10.509  1.00  0.00    -0.388 OA
ATOM      9  H   UNL     1      -9.390   1.494 -10.599  1.00  0.00     0.211 HD
ENDBRANCH   1   8
TORSDOF 5
ENDMDL
MODEL 7
REMARK VINA RESULT:    -3.119      1.172      2.329
REMARK INTER + INTRA:          -3.976
REMARK INTER:                  -3.973
REMARK INTRA:                  -0.003
REMARK UNBOUND:                -0.219
REMARK SMILES OCC(O)CO
REMARK SMILES IDX 3 1 5 2 6 3 2 5 1 6 4 8
REMARK H PARENT 6 4 1 7 4 9
REMARK Flexibility Score: inf
ROOT
ATOM      1  C   UNL     1      -9.303   3.543 -10.003  1.00  0.00     0.165 C 
ENDROOT
BRANCH   1   2
ATOM      2  C   UNL     1     -10.501   3.259  -9.079  1.00  0.00     0.190 C 
BRANCH   2   3
ATOM      3  O   UNL     1     -11.163   2.079  -9.452  1.00  0.00    -0.394 OA
ATOM      4  H   UNL     1     -11.057   1.990 -10.435  1.00  0.00     0.210 HD
ENDBRANCH   2   3
ENDBRANCH   1   2
BRANCH   1   5
ATOM      5  C   UNL     1      -8.175   4.282  -9.267  1.00  0.00     0.190 C 
BRANCH   5   6
ATOM      6  O   UNL     1      -7.670   5.333 -10.046  1.00  0.00    -0.394 OA
ATOM      7  H   UNL     1      -7.623   6.128  -9.454  1.00  0.00     0.210 HD
ENDBRANCH   5   6
ENDBRANCH   1   5
BRANCH   1   8
ATOM      8  O   UNL     1      -8.798   2.340 -10.521  1.00  0.00    -0.388 OA
ATOM      9  H   UNL     1      -7.813   2.361 -10.388  1.00  0.00     0.211 HD
ENDBRANCH   1   8
TORSDOF 5
ENDMDL
MODEL 8
REMARK VINA RESULT:    -3.094      1.830      3.352
REMARK INTER + INTRA:          -3.945
REMARK INTER:                  -3.723
REMARK INTRA:                  -0.222
REMARK UNBOUND:                -0.219
REMARK SMILES OCC(O)CO
REMARK SMILES IDX 3 1 5 2 6 3 2 5 1 6 4 8
REMARK H PARENT 6 4 1 7 4 9
REMARK Flexibility Score: inf
ROOT
ATOM      1  C   UNL     1     -10.252   3.191  -9.643  1.00  0.00     0.165 C 
ENDROOT
BRANCH   1   2
ATOM      2  C   UNL     1      -8.934   3.963  -9.833  1.00  0.00     0.190 C 
BRANCH   2   3
ATOM      3  O   UNL     1      -9.149   5.181 -10.496  1.00  0.00    -0.394 OA
ATOM      4  H   UNL     1      -8.458   5.812 -10.166  1.00  0.00     0.210 HD
ENDBRANCH   2   3
ENDBRANCH   1   2
BRANCH   1   5
ATOM      5  C   UNL     1     -11.429   4.133  -9.346  1.00  0.00     0.190 C 
BRANCH   5   6
ATOM      6  O   UNL     1     -11.132   4.987  -8.274  1.00  0.00    -0.394 OA
ATOM      7  H   UNL     1     -11.871   5.648  -8.224  1.00  0.00     0.210 HD
ENDBRANCH   5   6
ENDBRANCH   1   5
BRANCH   1   8
ATOM      8  O   UNL     1     -10.544   2.444 -10.794  1.00  0.00    -0.388 OA
ATOM      9  H   UNL     1     -11.145   3.002 -11.355  1.00  0.00     0.211 HD
ENDBRANCH   1   8
TORSDOF 5
ENDMDL
MODEL 9
REMARK VINA RESULT:    -3.084      1.621      2.695
REMARK INTER + INTRA:          -3.933
REMARK INTER:                  -3.931
REMARK INTRA:                  -0.003
REMARK UNBOUND:                -0.219
REMARK SMILES OCC(O)CO
REMARK SMILES IDX 3 1 5 2 6 3 2 5 1 6 4 8
REMARK H PARENT 6 4 1 7 4 9
REMARK Flexibility Score: inf
ROOT
ATOM      1  C   UNL     1      -9.227   3.841 -10.057  1.00  0.00     0.165 C 
ENDROOT
BRANCH   1   2
ATOM      2  C   UNL     1      -7.857   4.110  -9.408  1.00  0.00     0.190 C 
BRANCH   2   3
ATOM      3  O   UNL     1      -7.404   5.406  -9.698  1.00  0.00    -0.394 OA
ATOM      4  H   UNL     1      -6.445   5.326  -9.942  1.00  0.00     0.210 HD
ENDBRANCH   2   3
ENDBRANCH   1   2
BRANCH   1   5
ATOM      5  C   UNL     1     -10.183   3.118  -9.095  1.00  0.00     0.190 C 
BRANCH   5   6
ATOM      6  O   UNL     1     -10.964   2.174  -9.778  1.00  0.00    -0.394 OA
ATOM      7  H   UNL     1     -11.650   1.855  -9.135  1.00  0.00     0.210 HD
ENDBRANCH   5   6
ENDBRANCH   1   5
BRANCH   1   8
ATOM      8  O   UNL     1      -9.815   5.049 -10.463  1.00  0.00    -0.388 OA
ATOM      9  H   UNL     1     -10.422   4.833 -11.220  1.00  0.00     0.211 HD
ENDBRANCH   1   8
TORSDOF 5
ENDMDL
