MODEL 1
REMARK VINA RESULT:    -6.732      0.000      0.000
REMARK INTER + INTRA:         -11.838
REMARK INTER:                 -10.077
REMARK INTRA:                  -1.761
REMARK UNBOUND:                -1.761
REMARK SMILES COC(=O)C1=CO[C@@H](O[C@@H]2O[C@@H](CO)[C@H](O)[C@H](O)[C@H]2O)[C@H]2C(CO)=CC[C@@H]12
REMARK SMILES IDX 9 1 8 2 5 3 6 4 27 5 7 6 21 7 26 8 22 9 25 10 3 11 4 12 2 13
REMARK SMILES IDX 1 14 23 15 24 16 10 18 19 19 11 20 17 21 12 22 15 23 20 24
REMARK SMILES IDX 18 26 13 28 14 29 16 31
REMARK H PARENT 24 17 20 25 18 27 14 30 16 32
REMARK Flexibility Score: inf
ROOT
ATOM      1  O   UNL     1      -4.264  -4.559  -6.064  1.00  0.00    -0.310 OA
ENDROOT
BRANCH   1   2
ATOM      2  C   UNL     1      -5.329  -5.170  -6.781  1.00  0.00     0.316 C 
ATOM      3  C   UNL     1      -6.513  -2.674  -7.541  1.00  0.00     0.076 C 
ATOM      4  C   UNL     1      -5.743  -3.362  -8.398  1.00  0.00     0.202 C 
ATOM      5  C   UNL     1      -7.068  -3.349  -6.295  1.00  0.00     0.047 C 
ATOM      6  O   UNL     1      -5.337  -4.669  -8.114  1.00  0.00    -0.471 OA
ATOM      7  C   UNL     1      -6.682  -4.835  -6.118  1.00  0.00     0.094 C 
ATOM      8  C   UNL     1      -6.636  -2.675  -4.984  1.00  0.00     0.037 C 
ATOM      9  C   UNL     1      -6.614  -4.985  -4.630  1.00  0.00    -0.039 C 
ATOM     10  C   UNL     1      -6.572  -3.807  -4.017  1.00  0.00    -0.024 C 
BRANCH   3  11
ATOM     11  C   UNL     1      -6.915  -1.284  -7.858  1.00  0.00     0.337 C 
ATOM     12  O   UNL     1      -6.075  -0.486  -8.359  1.00  0.00    -0.246 OA
BRANCH  11  13
ATOM     13  O   UNL     1      -8.223  -0.854  -7.607  1.00  0.00    -0.466 OA
ATOM     14  C   UNL     1      -9.326  -1.229  -8.424  1.00  0.00     0.282 C 
ENDBRANCH  11  13
ENDBRANCH   3  11
BRANCH   9  15
ATOM     15  C   UNL     1      -6.545  -6.304  -3.913  1.00  0.00     0.187 C 
BRANCH  15  16
ATOM     16  O   UNL     1      -5.225  -6.778  -3.900  1.00  0.00    -0.392 OA
ATOM     17  H   UNL     1      -5.192  -7.550  -4.523  1.00  0.00     0.211 HD
ENDBRANCH  15  16
ENDBRANCH   9  15
ENDBRANCH   1   2
BRANCH   1  18
ATOM     18  C   UNL     1      -3.060  -5.313  -6.098  1.00  0.00     0.286 C 
ATOM     19  C   UNL     1      -1.938  -4.488  -6.762  1.00  0.00     0.202 C 
ATOM     20  O   UNL     1      -2.697  -5.783  -4.803  1.00  0.00    -0.341 OA
ATOM     21  C   UNL     1      -0.646  -5.321  -6.823  1.00  0.00     0.179 C 
ATOM     22  C   UNL     1      -1.535  -6.603  -4.814  1.00  0.00     0.178 C 
ATOM     23  C   UNL     1      -0.314  -5.880  -5.429  1.00  0.00     0.177 C 
BRANCH  19  24
ATOM     24  O   UNL     1      -2.339  -4.135  -8.061  1.00  0.00    -0.385 OA
ATOM     25  H   UNL     1      -3.324  -4.011  -8.036  1.00  0.00     0.211 HD
ENDBRANCH  19  24
BRANCH  21  26
ATOM     26  O   UNL     1       0.423  -4.530  -7.277  1.00  0.00    -0.387 OA
ATOM     27  H   UNL     1       0.692  -3.943  -6.522  1.00  0.00     0.211 HD
ENDBRANCH  21  26
BRANCH  22  28
ATOM     28  C   UNL     1      -1.809  -7.997  -5.417  1.00  0.00     0.191 C 
BRANCH  28  29
ATOM     29  O   UNL     1      -3.009  -8.508  -4.907  1.00  0.00    -0.394 OA
ATOM     30  H   UNL     1      -2.895  -8.550  -3.921  1.00  0.00     0.210 HD
ENDBRANCH  28  29
ENDBRANCH  22  28
BRANCH  23  31
ATOM     31  O   UNL     1       0.068  -4.835  -4.569  1.00  0.00    -0.387 OA
ATOM     32  H   UNL     1       0.428  -5.253  -3.742  1.00  0.00     0.211 HD
ENDBRANCH  23  31
ENDBRANCH   1  18
TORSDOF 11
ENDMDL
MODEL 2
REMARK VINA RESULT:    -6.531      2.141      6.690
REMARK INTER + INTRA:         -11.537
REMARK INTER:                 -10.047
REMARK INTRA:                  -1.490
REMARK UNBOUND:                -1.761
REMARK SMILES COC(=O)C1=CO[C@@H](O[C@@H]2O[C@@H](CO)[C@H](O)[C@H](O)[C@H]2O)[C@H]2C(CO)=CC[C@@H]12
REMARK SMILES IDX 9 1 8 2 5 3 6 4 27 5 7 6 21 7 26 8 22 9 25 10 3 11 4 12 2 13
REMARK SMILES IDX 1 14 23 15 24 16 10 18 19 19 11 20 17 21 12 22 15 23 20 24
REMARK SMILES IDX 18 26 13 28 14 29 16 31
REMARK H PARENT 24 17 20 25 18 27 14 30 16 32
REMARK Flexibility Score: inf
ROOT
ATOM      1  O   UNL     1      -3.367  -4.896  -5.173  1.00  0.00    -0.310 OA
ENDROOT
BRANCH   1   2
ATOM      2  C   UNL     1      -2.985  -6.171  -5.674  1.00  0.00     0.316 C 
ATOM      3  C   UNL     1      -0.183  -5.576  -5.612  1.00  0.00     0.076 C 
ATOM      4  C   UNL     1      -0.757  -6.300  -4.638  1.00  0.00     0.202 C 
ATOM      5  C   UNL     1      -0.905  -5.359  -6.934  1.00  0.00     0.047 C 
ATOM      6  O   UNL     1      -2.067  -6.769  -4.764  1.00  0.00    -0.471 OA
ATOM      7  C   UNL     1      -2.297  -6.022  -7.047  1.00  0.00     0.094 C 
ATOM      8  C   UNL     1      -1.149  -3.879  -7.268  1.00  0.00     0.037 C 
ATOM      9  C   UNL     1      -3.043  -5.075  -7.934  1.00  0.00    -0.039 C 
ATOM     10  C   UNL     1      -2.424  -3.904  -8.038  1.00  0.00    -0.024 C 
BRANCH   3  11
ATOM     11  C   UNL     1       1.201  -5.076  -5.445  1.00  0.00     0.337 C 
ATOM     12  O   UNL     1       1.527  -4.471  -4.386  1.00  0.00    -0.246 OA
BRANCH  11  13
ATOM     13  O   UNL     1       2.148  -5.272  -6.457  1.00  0.00    -0.466 OA
ATOM     14  C   UNL     1       3.491  -5.656  -6.187  1.00  0.00     0.282 C 
ENDBRANCH  11  13
ENDBRANCH   3  11
BRANCH   9  15
ATOM     15  C   UNL     1      -4.362  -5.385  -8.585  1.00  0.00     0.187 C 
BRANCH  15  16
ATOM     16  O   UNL     1      -5.333  -4.462  -8.172  1.00  0.00    -0.392 OA
ATOM     17  H   UNL     1      -5.302  -4.439  -7.180  1.00  0.00     0.211 HD
ENDBRANCH  15  16
ENDBRANCH   9  15
ENDBRANCH   1   2
BRANCH   1  18
ATOM     18  C   UNL     1      -4.731  -4.835  -4.776  1.00  0.00     0.286 C 
ATOM     19  C   UNL     1      -5.295  -3.423  -5.040  1.00  0.00     0.202 C 
ATOM     20  O   UNL     1      -5.505  -5.857  -5.398  1.00  0.00    -0.341 OA
ATOM     21  C   UNL     1      -6.762  -3.356  -4.580  1.00  0.00     0.179 C 
ATOM     22  C   UNL     1      -6.859  -5.869  -4.966  1.00  0.00     0.178 C 
ATOM     23  C   UNL     1      -7.562  -4.512  -5.204  1.00  0.00     0.177 C 
BRANCH  19  24
ATOM     24  O   UNL     1      -4.529  -2.486  -4.328  1.00  0.00    -0.385 OA
ATOM     25  H   UNL     1      -5.057  -1.646  -4.295  1.00  0.00     0.211 HD
ENDBRANCH  19  24
BRANCH  21  26
ATOM     26  O   UNL     1      -7.335  -2.131  -4.960  1.00  0.00    -0.387 OA
ATOM     27  H   UNL     1      -6.621  -1.444  -4.899  1.00  0.00     0.211 HD
ENDBRANCH  21  26
BRANCH  22  28
ATOM     28  C   UNL     1      -7.010  -6.409  -3.528  1.00  0.00     0.191 C 
BRANCH  28  29
ATOM     29  O   UNL     1      -7.483  -7.728  -3.563  1.00  0.00    -0.394 OA
ATOM     30  H   UNL     1      -8.472  -7.668  -3.509  1.00  0.00     0.210 HD
ENDBRANCH  28  29
ENDBRANCH  22  28
BRANCH  23  31
ATOM     31  O   UNL     1      -7.695  -4.313  -6.591  1.00  0.00    -0.387 OA
ATOM     32  H   UNL     1      -7.927  -5.192  -6.991  1.00  0.00     0.211 HD
ENDBRANCH  23  31
ENDBRANCH   1  18
TORSDOF 11
ENDMDL
MODEL 3
REMARK VINA RESULT:    -6.401     10.790     13.626
REMARK INTER + INTRA:         -11.342
REMARK INTER:                 -10.390
REMARK INTRA:                  -0.953
REMARK UNBOUND:                -1.761
REMARK SMILES COC(=O)C1=CO[C@@H](O[C@@H]2O[C@@H](CO)[C@H](O)[C@H](O)[C@H]2O)[C@H]2C(CO)=CC[C@@H]12
REMARK SMILES IDX 9 1 8 2 5 3 6 4 27 5 7 6 21 7 26 8 22 9 25 10 3 11 4 12 2 13
REMARK SMILES IDX 1 14 23 15 24 16 10 18 19 19 11 20 17 21 12 22 15 23 20 24
REMARK SMILES IDX 18 26 13 28 14 29 16 31
REMARK H PARENT 24 17 20 25 18 27 14 30 16 32
REMARK Flexibility Score: inf
ROOT
ATOM      1  O   UNL     1      -5.806  -5.356   5.274  1.00  0.00    -0.310 OA
ENDROOT
BRANCH   1   2
ATOM      2  C   UNL     1      -5.440  -6.004   6.485  1.00  0.00     0.316 C 
ATOM      3  C   UNL     1      -3.730  -7.901   5.185  1.00  0.00     0.076 C 
ATOM      4  C   UNL     1      -3.223  -6.815   5.790  1.00  0.00     0.202 C 
ATOM      5  C   UNL     1      -5.159  -8.343   5.471  1.00  0.00     0.047 C 
ATOM      6  O   UNL     1      -4.020  -6.002   6.600  1.00  0.00    -0.471 OA
ATOM      7  C   UNL     1      -5.934  -7.466   6.480  1.00  0.00     0.094 C 
ATOM      8  C   UNL     1      -6.053  -8.386   4.222  1.00  0.00     0.037 C 
ATOM      9  C   UNL     1      -7.345  -7.565   5.989  1.00  0.00    -0.039 C 
ATOM     10  C   UNL     1      -7.404  -8.050   4.753  1.00  0.00    -0.024 C 
BRANCH   3  11
ATOM     11  C   UNL     1      -2.868  -8.736   4.317  1.00  0.00     0.337 C 
ATOM     12  O   UNL     1      -3.381  -9.654   3.619  1.00  0.00    -0.246 OA
BRANCH  11  13
ATOM     13  O   UNL     1      -1.487  -8.510   4.269  1.00  0.00    -0.466 OA
ATOM     14  C   UNL     1      -0.610  -9.286   3.462  1.00  0.00     0.282 C 
ENDBRANCH  11  13
ENDBRANCH   3  11
BRANCH   9  15
ATOM     15  C   UNL     1      -8.548  -7.120   6.771  1.00  0.00     0.187 C 
BRANCH  15  16
ATOM     16  O   UNL     1      -8.163  -6.234   7.788  1.00  0.00    -0.392 OA
ATOM     17  H   UNL     1      -7.217  -5.989   7.610  1.00  0.00     0.211 HD
ENDBRANCH  15  16
ENDBRANCH   9  15
ENDBRANCH   1   2
BRANCH   1  18
ATOM     18  C   UNL     1      -6.609  -4.200   5.476  1.00  0.00     0.286 C 
ATOM     19  C   UNL     1      -7.915  -4.314   4.662  1.00  0.00     0.202 C 
ATOM     20  O   UNL     1      -6.849  -3.964   6.861  1.00  0.00    -0.341 OA
ATOM     21  C   UNL     1      -8.764  -3.048   4.863  1.00  0.00     0.179 C 
ATOM     22  C   UNL     1      -7.588  -2.773   7.102  1.00  0.00     0.178 C 
ATOM     23  C   UNL     1      -8.948  -2.769   6.364  1.00  0.00     0.177 C 
BRANCH  19  24
ATOM     24  O   UNL     1      -7.593  -4.462   3.303  1.00  0.00    -0.385 OA
ATOM     25  H   UNL     1      -6.651  -4.773   3.261  1.00  0.00     0.211 HD
ENDBRANCH  19  24
BRANCH  21  26
ATOM     26  O   UNL     1     -10.023  -3.204   4.258  1.00  0.00    -0.387 OA
ATOM     27  H   UNL     1     -10.288  -4.154   4.379  1.00  0.00     0.211 HD
ENDBRANCH  21  26
BRANCH  22  28
ATOM     28  C   UNL     1      -6.744  -1.503   6.869  1.00  0.00     0.191 C 
BRANCH  28  29
ATOM     29  O   UNL     1      -5.562  -1.574   7.618  1.00  0.00    -0.394 OA
ATOM     30  H   UNL     1      -4.874  -1.958   7.013  1.00  0.00     0.210 HD
ENDBRANCH  28  29
ENDBRANCH  22  28
BRANCH  23  31
ATOM     31  O   UNL     1      -9.773  -3.753   6.939  1.00  0.00    -0.387 OA
ATOM     32  H   UNL     1      -9.178  -4.403   7.398  1.00  0.00     0.211 HD
ENDBRANCH  23  31
ENDBRANCH   1  18
TORSDOF 11
ENDMDL
MODEL 4
REMARK VINA RESULT:    -6.260     11.438     12.757
REMARK INTER + INTRA:         -11.131
REMARK INTER:                 -10.430
REMARK INTRA:                  -0.701
REMARK UNBOUND:                -1.761
REMARK SMILES COC(=O)C1=CO[C@@H](O[C@@H]2O[C@@H](CO)[C@H](O)[C@H](O)[C@H]2O)[C@H]2C(CO)=CC[C@@H]12
REMARK SMILES IDX 9 1 8 2 5 3 6 4 27 5 7 6 21 7 26 8 22 9 25 10 3 11 4 12 2 13
REMARK SMILES IDX 1 14 23 15 24 16 10 18 19 19 11 20 17 21 12 22 15 23 20 24
REMARK SMILES IDX 18 26 13 28 14 29 16 31
REMARK H PARENT 24 17 20 25 18 27 14 30 16 32
REMARK Flexibility Score: inf
ROOT
ATOM      1  O   UNL     1      -5.595  -5.651   6.080  1.00  0.00    -0.310 OA
ENDROOT
BRANCH   1   2
ATOM      2  C   UNL     1      -6.839  -5.897   6.725  1.00  0.00     0.316 C 
ATOM      3  C   UNL     1      -8.095  -3.570   5.619  1.00  0.00     0.076 C 
ATOM      4  C   UNL     1      -8.304  -4.786   5.089  1.00  0.00     0.202 C 
ATOM      5  C   UNL     1      -7.491  -3.433   7.010  1.00  0.00     0.047 C 
ATOM      6  O   UNL     1      -7.868  -5.942   5.741  1.00  0.00    -0.471 OA
ATOM      7  C   UNL     1      -7.157  -4.763   7.722  1.00  0.00     0.094 C 
ATOM      8  C   UNL     1      -6.178  -2.636   7.035  1.00  0.00     0.037 C 
ATOM      9  C   UNL     1      -5.959  -4.406   8.545  1.00  0.00    -0.039 C 
ATOM     10  C   UNL     1      -5.419  -3.257   8.157  1.00  0.00    -0.024 C 
BRANCH   3  11
ATOM     11  C   UNL     1      -8.552  -2.359   4.899  1.00  0.00     0.337 C 
ATOM     12  O   UNL     1      -9.726  -2.307   4.440  1.00  0.00    -0.246 OA
BRANCH  11  13
ATOM     13  O   UNL     1      -7.685  -1.273   4.727  1.00  0.00    -0.466 OA
ATOM     14  C   UNL     1      -8.040   0.057   5.084  1.00  0.00     0.282 C 
ENDBRANCH  11  13
ENDBRANCH   3  11
BRANCH   9  15
ATOM     15  C   UNL     1      -5.397  -5.267   9.642  1.00  0.00     0.187 C 
BRANCH  15  16
ATOM     16  O   UNL     1      -4.444  -6.153   9.120  1.00  0.00    -0.392 OA
ATOM     17  H   UNL     1      -4.233  -5.839   8.202  1.00  0.00     0.211 HD
ENDBRANCH  15  16
ENDBRANCH   9  15
ENDBRANCH   1   2
BRANCH   1  18
ATOM     18  C   UNL     1      -4.995  -6.828   5.554  1.00  0.00     0.286 C 
ATOM     19  C   UNL     1      -3.502  -6.878   5.941  1.00  0.00     0.202 C 
ATOM     20  O   UNL     1      -5.701  -8.000   5.951  1.00  0.00    -0.341 OA
ATOM     21  C   UNL     1      -2.853  -8.137   5.343  1.00  0.00     0.179 C 
ATOM     22  C   UNL     1      -5.169  -9.189   5.381  1.00  0.00     0.178 C 
ATOM     23  C   UNL     1      -3.672  -9.383   5.721  1.00  0.00     0.177 C 
BRANCH  19  24
ATOM     24  O   UNL     1      -2.864  -5.730   5.443  1.00  0.00    -0.385 OA
ATOM     25  H   UNL     1      -3.136  -4.972   6.024  1.00  0.00     0.211 HD
ENDBRANCH  19  24
BRANCH  21  26
ATOM     26  O   UNL     1      -1.538  -8.280   5.818  1.00  0.00    -0.387 OA
ATOM     27  H   UNL     1      -0.952  -8.389   5.024  1.00  0.00     0.211 HD
ENDBRANCH  21  26
BRANCH  22  28
ATOM     28  C   UNL     1      -5.491  -9.312   3.877  1.00  0.00     0.191 C 
BRANCH  28  29
ATOM     29  O   UNL     1      -6.618 -10.125   3.698  1.00  0.00    -0.394 OA
ATOM     30  H   UNL     1      -6.786 -10.152   2.719  1.00  0.00     0.210 HD
ENDBRANCH  28  29
ENDBRANCH  22  28
BRANCH  23  31
ATOM     31  O   UNL     1      -3.555  -9.636   7.100  1.00  0.00    -0.387 OA
ATOM     32  H   UNL     1      -4.167 -10.390   7.312  1.00  0.00     0.211 HD
ENDBRANCH  23  31
ENDBRANCH   1  18
TORSDOF 11
ENDMDL
MODEL 5
REMARK VINA RESULT:    -6.201     11.565     14.768
REMARK INTER + INTRA:         -11.043
REMARK INTER:                  -9.509
REMARK INTRA:                  -1.534
REMARK UNBOUND:                -1.761
REMARK SMILES COC(=O)C1=CO[C@@H](O[C@@H]2O[C@@H](CO)[C@H](O)[C@H](O)[C@H]2O)[C@H]2C(CO)=CC[C@@H]12
REMARK SMILES IDX 9 1 8 2 5 3 6 4 27 5 7 6 21 7 26 8 22 9 25 10 3 11 4 12 2 13
REMARK SMILES IDX 1 14 23 15 24 16 10 18 19 19 11 20 17 21 12 22 15 23 20 24
REMARK SMILES IDX 18 26 13 28 14 29 16 31
REMARK H PARENT 24 17 20 25 18 27 14 30 16 32
REMARK Flexibility Score: inf
ROOT
ATOM      1  O   UNL     1      -6.205  -4.351   7.253  1.00  0.00    -0.310 OA
ENDROOT
BRANCH   1   2
ATOM      2  C   UNL     1      -6.579  -5.637   7.734  1.00  0.00     0.316 C 
ATOM      3  C   UNL     1      -4.383  -6.969   6.464  1.00  0.00     0.076 C 
ATOM      4  C   UNL     1      -4.341  -6.659   7.769  1.00  0.00     0.202 C 
ATOM      5  C   UNL     1      -5.706  -6.951   5.712  1.00  0.00     0.047 C 
ATOM      6  O   UNL     1      -5.479  -6.203   8.439  1.00  0.00    -0.471 OA
ATOM      7  C   UNL     1      -6.942  -6.564   6.556  1.00  0.00     0.094 C 
ATOM      8  C   UNL     1      -5.726  -5.981   4.521  1.00  0.00     0.037 C 
ATOM      9  C   UNL     1      -7.817  -5.867   5.560  1.00  0.00    -0.039 C 
ATOM     10  C   UNL     1      -7.147  -5.536   4.462  1.00  0.00    -0.024 C 
BRANCH   3  11
ATOM     11  C   UNL     1      -3.157  -7.433   5.773  1.00  0.00     0.337 C 
ATOM     12  O   UNL     1      -2.284  -6.596   5.413  1.00  0.00    -0.246 OA
BRANCH  11  13
ATOM     13  O   UNL     1      -2.965  -8.796   5.520  1.00  0.00    -0.466 OA
ATOM     14  C   UNL     1      -2.285  -9.274   4.365  1.00  0.00     0.282 C 
ENDBRANCH  11  13
ENDBRANCH   3  11
BRANCH   9  15
ATOM     15  C   UNL     1      -9.263  -5.529   5.792  1.00  0.00     0.187 C 
BRANCH  15  16
ATOM     16  O   UNL     1      -9.442  -4.139   5.783  1.00  0.00    -0.392 OA
ATOM     17  H   UNL     1     -10.354  -3.970   5.430  1.00  0.00     0.211 HD
ENDBRANCH  15  16
ENDBRANCH   9  15
ENDBRANCH   1   2
BRANCH   1  18
ATOM     18  C   UNL     1      -6.862  -3.287   7.929  1.00  0.00     0.286 C 
ATOM     19  C   UNL     1      -6.929  -2.044   7.017  1.00  0.00     0.202 C 
ATOM     20  O   UNL     1      -8.144  -3.681   8.408  1.00  0.00    -0.341 OA
ATOM     21  C   UNL     1      -7.613  -0.887   7.766  1.00  0.00     0.179 C 
ATOM     22  C   UNL     1      -8.797  -2.661   9.153  1.00  0.00     0.178 C 
ATOM     23  C   UNL     1      -8.961  -1.356   8.339  1.00  0.00     0.177 C 
BRANCH  19  24
ATOM     24  O   UNL     1      -5.623  -1.672   6.657  1.00  0.00    -0.385 OA
ATOM     25  H   UNL     1      -5.654  -1.390   5.706  1.00  0.00     0.211 HD
ENDBRANCH  19  24
BRANCH  21  26
ATOM     26  O   UNL     1      -7.825   0.197   6.898  1.00  0.00    -0.387 OA
ATOM     27  H   UNL     1      -6.953   0.659   6.790  1.00  0.00     0.211 HD
ENDBRANCH  21  26
BRANCH  22  28
ATOM     28  C   UNL     1      -8.164  -2.456  10.545  1.00  0.00     0.191 C 
BRANCH  28  29
ATOM     29  O   UNL     1      -7.878  -3.699  11.124  1.00  0.00    -0.394 OA
ATOM     30  H   UNL     1      -7.642  -4.306  10.374  1.00  0.00     0.210 HD
ENDBRANCH  28  29
ENDBRANCH  22  28
BRANCH  23  31
ATOM     31  O   UNL     1      -9.874  -1.591   7.295  1.00  0.00    -0.387 OA
ATOM     32  H   UNL     1     -10.012  -0.726   6.826  1.00  0.00     0.211 HD
ENDBRANCH  23  31
ENDBRANCH   1  18
TORSDOF 11
ENDMDL
MODEL 6
REMARK VINA RESULT:    -6.201     10.947     13.992
REMARK INTER + INTRA:         -11.043
REMARK INTER:                 -10.166
REMARK INTRA:                  -0.877
REMARK UNBOUND:                -1.761
REMARK SMILES COC(=O)C1=CO[C@@H](O[C@@H]2O[C@@H](CO)[C@H](O)[C@H](O)[C@H]2O)[C@H]2C(CO)=CC[C@@H]12
REMARK SMILES IDX 9 1 8 2 5 3 6 4 27 5 7 6 21 7 26 8 22 9 25 10 3 11 4 12 2 13
REMARK SMILES IDX 1 14 23 15 24 16 10 18 19 19 11 20 17 21 12 22 15 23 20 24
REMARK SMILES IDX 18 26 13 28 14 29 16 31
REMARK H PARENT 24 17 20 25 18 27 14 30 16 32
REMARK Flexibility Score: inf
ROOT
ATOM      1  O   UNL     1      -4.677  -6.287   5.986  1.00  0.00    -0.310 OA
ENDROOT
BRANCH   1   2
ATOM      2  C   UNL     1      -4.537  -7.463   6.774  1.00  0.00     0.316 C 
ATOM      3  C   UNL     1      -2.860  -8.783   4.862  1.00  0.00     0.076 C 
ATOM      4  C   UNL     1      -2.335  -8.180   5.941  1.00  0.00     0.202 C 
ATOM      5  C   UNL     1      -4.349  -9.093   4.804  1.00  0.00     0.047 C 
ATOM      6  O   UNL     1      -3.151  -7.719   6.977  1.00  0.00    -0.471 OA
ATOM      7  C   UNL     1      -5.163  -8.671   6.048  1.00  0.00     0.094 C 
ATOM      8  C   UNL     1      -5.071  -8.431   3.621  1.00  0.00     0.037 C 
ATOM      9  C   UNL     1      -6.500  -8.328   5.468  1.00  0.00    -0.039 C 
ATOM     10  C   UNL     1      -6.442  -8.182   4.149  1.00  0.00    -0.024 C 
BRANCH   3  11
ATOM     11  C   UNL     1      -1.975  -9.245   3.768  1.00  0.00     0.337 C 
ATOM     12  O   UNL     1      -2.382 -10.125   2.960  1.00  0.00    -0.246 OA
BRANCH  11  13
ATOM     13  O   UNL     1      -0.689  -8.710   3.628  1.00  0.00    -0.466 OA
ATOM     14  C   UNL     1       0.399  -9.454   3.093  1.00  0.00     0.282 C 
ENDBRANCH  11  13
ENDBRANCH   3  11
BRANCH   9  15
ATOM     15  C   UNL     1      -7.748  -8.119   6.279  1.00  0.00     0.187 C 
BRANCH  15  16
ATOM     16  O   UNL     1      -8.317  -9.356   6.616  1.00  0.00    -0.392 OA
ATOM     17  H   UNL     1      -8.147  -9.495   7.584  1.00  0.00     0.211 HD
ENDBRANCH  15  16
ENDBRANCH   9  15
ENDBRANCH   1   2
BRANCH   1  18
ATOM     18  C   UNL     1      -5.274  -5.207   6.691  1.00  0.00     0.286 C 
ATOM     19  C   UNL     1      -6.588  -4.785   6.001  1.00  0.00     0.202 C 
ATOM     20  O   UNL     1      -5.458  -5.518   8.069  1.00  0.00    -0.341 OA
ATOM     21  C   UNL     1      -7.212  -3.597   6.752  1.00  0.00     0.179 C 
ATOM     22  C   UNL     1      -5.986  -4.430   8.819  1.00  0.00     0.178 C 
ATOM     23  C   UNL     1      -7.333  -3.926   8.249  1.00  0.00     0.177 C 
BRANCH  19  24
ATOM     24  O   UNL     1      -6.307  -4.417   4.674  1.00  0.00    -0.385 OA
ATOM     25  H   UNL     1      -5.397  -4.754   4.466  1.00  0.00     0.211 HD
ENDBRANCH  19  24
BRANCH  21  26
ATOM     26  O   UNL     1      -8.484  -3.306   6.232  1.00  0.00    -0.387 OA
ATOM     27  H   UNL     1      -8.803  -2.482   6.684  1.00  0.00     0.211 HD
ENDBRANCH  21  26
BRANCH  22  28
ATOM     28  C   UNL     1      -4.944  -3.316   9.046  1.00  0.00     0.191 C 
BRANCH  28  29
ATOM     29  O   UNL     1      -4.506  -3.339  10.377  1.00  0.00    -0.394 OA
ATOM     30  H   UNL     1      -3.658  -3.857  10.380  1.00  0.00     0.210 HD
ENDBRANCH  28  29
ENDBRANCH  22  28
BRANCH  23  31
ATOM     31  O   UNL     1      -8.305  -4.923   8.447  1.00  0.00    -0.387 OA
ATOM     32  H   UNL     1      -8.224  -5.564   7.693  1.00  0.00     0.211 HD
ENDBRANCH  23  31
ENDBRANCH   1  18
TORSDOF 11
ENDMDL
MODEL 7
REMARK VINA RESULT:    -6.184     11.362     13.238
REMARK INTER + INTRA:         -11.018
REMARK INTER:                 -10.293
REMARK INTRA:                  -0.726
REMARK UNBOUND:                -1.761
REMARK SMILES COC(=O)C1=CO[C@@H](O[C@@H]2O[C@@H](CO)[C@H](O)[C@H](O)[C@H]2O)[C@H]2C(CO)=CC[C@@H]12
REMARK SMILES IDX 9 1 8 2 5 3 6 4 27 5 7 6 21 7 26 8 22 9 25 10 3 11 4 12 2 13
REMARK SMILES IDX 1 14 23 15 24 16 10 18 19 19 11 20 17 21 12 22 15 23 20 24
REMARK SMILES IDX 18 26 13 28 14 29 16 31
REMARK H PARENT 24 17 20 25 18 27 14 30 16 32
REMARK Flexibility Score: inf
ROOT
ATOM      1  O   UNL     1      -6.540  -3.373   5.988  1.00  0.00    -0.310 OA
ENDROOT
BRANCH   1   2
ATOM      2  C   UNL     1      -7.961  -3.433   5.997  1.00  0.00     0.316 C 
ATOM      3  C   UNL     1      -8.280  -0.608   5.641  1.00  0.00     0.076 C 
ATOM      4  C   UNL     1      -8.403  -1.453   4.605  1.00  0.00     0.202 C 
ATOM      5  C   UNL     1      -8.326  -1.132   7.069  1.00  0.00     0.047 C 
ATOM      6  O   UNL     1      -8.457  -2.835   4.804  1.00  0.00    -0.471 OA
ATOM      7  C   UNL     1      -8.521  -2.660   7.209  1.00  0.00     0.094 C 
ATOM      8  C   UNL     1      -7.058  -0.825   7.880  1.00  0.00     0.037 C 
ATOM      9  C   UNL     1      -7.762  -2.977   8.460  1.00  0.00    -0.039 C 
ATOM     10  C   UNL     1      -6.954  -1.983   8.812  1.00  0.00    -0.024 C 
BRANCH   3  11
ATOM     11  C   UNL     1      -8.208   0.852   5.402  1.00  0.00     0.337 C 
ATOM     12  O   UNL     1      -7.520   1.297   4.441  1.00  0.00    -0.246 OA
BRANCH  11  13
ATOM     13  O   UNL     1      -8.899   1.738   6.235  1.00  0.00    -0.466 OA
ATOM     14  C   UNL     1      -8.989   3.132   5.968  1.00  0.00     0.282 C 
ENDBRANCH  11  13
ENDBRANCH   3  11
BRANCH   9  15
ATOM     15  C   UNL     1      -7.855  -4.281   9.200  1.00  0.00     0.187 C 
BRANCH  15  16
ATOM     16  O   UNL     1      -7.285  -4.155  10.475  1.00  0.00    -0.392 OA
ATOM     17  H   UNL     1      -7.602  -4.930  11.008  1.00  0.00     0.211 HD
ENDBRANCH  15  16
ENDBRANCH   9  15
ENDBRANCH   1   2
BRANCH   1  18
ATOM     18  C   UNL     1      -5.924  -4.623   6.270  1.00  0.00     0.286 C 
ATOM     19  C   UNL     1      -5.735  -5.425   4.965  1.00  0.00     0.202 C 
ATOM     20  O   UNL     1      -4.706  -4.457   6.989  1.00  0.00    -0.341 OA
ATOM     21  C   UNL     1      -5.096  -6.788   5.282  1.00  0.00     0.179 C 
ATOM     22  C   UNL     1      -4.101  -5.693   7.351  1.00  0.00     0.178 C 
ATOM     23  C   UNL     1      -3.823  -6.590   6.122  1.00  0.00     0.177 C 
BRANCH  19  24
ATOM     24  O   UNL     1      -6.988  -5.615   4.361  1.00  0.00    -0.385 OA
ATOM     25  H   UNL     1      -7.373  -6.445   4.746  1.00  0.00     0.211 HD
ENDBRANCH  19  24
BRANCH  21  26
ATOM     26  O   UNL     1      -4.771  -7.461   4.092  1.00  0.00    -0.387 OA
ATOM     27  H   UNL     1      -3.803  -7.314   3.929  1.00  0.00     0.211 HD
ENDBRANCH  21  26
BRANCH  22  28
ATOM     28  C   UNL     1      -4.862  -6.405   8.489  1.00  0.00     0.191 C 
BRANCH  28  29
ATOM     29  O   UNL     1      -4.810  -5.629   9.654  1.00  0.00    -0.394 OA
ATOM     30  H   UNL     1      -5.694  -5.183   9.728  1.00  0.00     0.210 HD
ENDBRANCH  28  29
ENDBRANCH  22  28
BRANCH  23  31
ATOM     31  O   UNL     1      -2.820  -5.985   5.344  1.00  0.00    -0.387 OA
ATOM     32  H   UNL     1      -1.949  -6.352   5.652  1.00  0.00     0.211 HD
ENDBRANCH  23  31
ENDBRANCH   1  18
TORSDOF 11
ENDMDL
MODEL 8
REMARK VINA RESULT:    -6.043     11.251     13.087
REMARK INTER + INTRA:         -10.807
REMARK INTER:                  -9.796
REMARK INTRA:                  -1.011
REMARK UNBOUND:                -1.761
REMARK SMILES COC(=O)C1=CO[C@@H](O[C@@H]2O[C@@H](CO)[C@H](O)[C@H](O)[C@H]2O)[C@H]2C(CO)=CC[C@@H]12
REMARK SMILES IDX 9 1 8 2 5 3 6 4 27 5 7 6 21 7 26 8 22 9 25 10 3 11 4 12 2 13
REMARK SMILES IDX 1 14 23 15 24 16 10 18 19 19 11 20 17 21 12 22 15 23 20 24
REMARK SMILES IDX 18 26 13 28 14 29 16 31
REMARK H PARENT 24 17 20 25 18 27 14 30 16 32
REMARK Flexibility Score: inf
ROOT
ATOM      1  O   UNL     1      -6.781  -4.764   6.363  1.00  0.00    -0.310 OA
ENDROOT
BRANCH   1   2
ATOM      2  C   UNL     1      -8.000  -4.512   7.051  1.00  0.00     0.316 C 
ATOM      3  C   UNL     1      -8.268  -1.857   6.006  1.00  0.00     0.076 C 
ATOM      4  C   UNL     1      -8.956  -2.881   5.476  1.00  0.00     0.202 C 
ATOM      5  C   UNL     1      -7.616  -1.997   7.374  1.00  0.00     0.047 C 
ATOM      6  O   UNL     1      -8.993  -4.128   6.105  1.00  0.00    -0.471 OA
ATOM      7  C   UNL     1      -7.813  -3.365   8.066  1.00  0.00     0.094 C 
ATOM      8  C   UNL     1      -6.094  -1.784   7.356  1.00  0.00     0.037 C 
ATOM      9  C   UNL     1      -6.546  -3.526   8.847  1.00  0.00    -0.039 C 
ATOM     10  C   UNL     1      -5.608  -2.676   8.446  1.00  0.00    -0.024 C 
BRANCH   3  11
ATOM     11  C   UNL     1      -8.231  -0.550   5.309  1.00  0.00     0.337 C 
ATOM     12  O   UNL     1      -7.469  -0.389   4.317  1.00  0.00    -0.246 OA
BRANCH  11  13
ATOM     13  O   UNL     1      -9.040   0.505   5.748  1.00  0.00    -0.466 OA
ATOM     14  C   UNL     1      -8.512   1.666   6.379  1.00  0.00     0.282 C 
ENDBRANCH  11  13
ENDBRANCH   3  11
BRANCH   9  15
ATOM     15  C   UNL     1      -6.336  -4.560   9.917  1.00  0.00     0.187 C 
BRANCH  15  16
ATOM     16  O   UNL     1      -5.179  -5.306   9.647  1.00  0.00    -0.392 OA
ATOM     17  H   UNL     1      -5.255  -5.622   8.709  1.00  0.00     0.211 HD
ENDBRANCH  15  16
ENDBRANCH   9  15
ENDBRANCH   1   2
BRANCH   1  18
ATOM     18  C   UNL     1      -6.799  -5.974   5.616  1.00  0.00     0.286 C 
ATOM     19  C   UNL     1      -5.374  -6.322   5.138  1.00  0.00     0.202 C 
ATOM     20  O   UNL     1      -7.401  -7.036   6.351  1.00  0.00    -0.341 OA
ATOM     21  C   UNL     1      -5.406  -7.615   4.306  1.00  0.00     0.179 C 
ATOM     22  C   UNL     1      -7.501  -8.242   5.604  1.00  0.00     0.178 C 
ATOM     23  C   UNL     1      -6.126  -8.726   5.088  1.00  0.00     0.177 C 
BRANCH  19  24
ATOM     24  O   UNL     1      -4.885  -5.263   4.355  1.00  0.00    -0.385 OA
ATOM     25  H   UNL     1      -4.060  -4.933   4.797  1.00  0.00     0.211 HD
ENDBRANCH  19  24
BRANCH  21  26
ATOM     26  O   UNL     1      -4.099  -8.030   4.000  1.00  0.00    -0.387 OA
ATOM     27  H   UNL     1      -3.505  -7.245   4.131  1.00  0.00     0.211 HD
ENDBRANCH  21  26
BRANCH  22  28
ATOM     28  C   UNL     1      -8.590  -8.167   4.514  1.00  0.00     0.191 C 
BRANCH  28  29
ATOM     29  O   UNL     1      -8.546  -9.318   3.717  1.00  0.00    -0.394 OA
ATOM     30  H   UNL     1      -8.897 -10.057   4.279  1.00  0.00     0.210 HD
ENDBRANCH  28  29
ENDBRANCH  22  28
BRANCH  23  31
ATOM     31  O   UNL     1      -5.347  -9.123   6.190  1.00  0.00    -0.387 OA
ATOM     32  H   UNL     1      -5.449  -8.423   6.887  1.00  0.00     0.211 HD
ENDBRANCH  23  31
ENDBRANCH   1  18
TORSDOF 11
ENDMDL
