MODEL 1
REMARK VINA RESULT:    -3.778      0.000      0.000
REMARK INTER + INTRA:          -5.940
REMARK INTER:                  -5.766
REMARK INTRA:                  -0.173
REMARK UNBOUND:                -0.173
REMARK SMILES CCCCCCCCCCC(=O)[O-]
REMARK SMILES IDX 7 1 8 2 9 3 10 4 11 5 12 6 13 7 6 8 5 9 4 10 3 11 2 12 1 13
REMARK H PARENT
REMARK Flexibility Score: inf
ROOT
ATOM      1  C   UNL     1      -2.964  -2.659   9.939  1.00  0.00     0.000 C 
ENDROOT
BRANCH   1   2
ATOM      2  C   UNL     1      -1.491  -2.212   9.975  1.00  0.00     0.000 C 
BRANCH   2   3
ATOM      3  C   UNL     1      -1.340  -0.689  10.123  1.00  0.00     0.006 C 
BRANCH   3   4
ATOM      4  C   UNL     1       0.125  -0.234  10.092  1.00  0.00     0.053 C 
BRANCH   4   5
ATOM      5  C   UNL     1       0.212   1.221   9.754  1.00  0.00     0.041 C 
ATOM      6  O   UNL     1      -0.818   1.944   9.797  1.00  0.00    -0.550 OA
ATOM      7  O   UNL     1       1.439   1.789   9.438  1.00  0.00    -0.550 OA
ENDBRANCH   4   5
ENDBRANCH   3   4
ENDBRANCH   2   3
ENDBRANCH   1   2
BRANCH   1   8
ATOM      8  C   UNL     1      -3.124  -4.175  10.124  1.00  0.00     0.000 C 
BRANCH   8   9
ATOM      9  C   UNL     1      -4.566  -4.653   9.891  1.00  0.00    -0.000 C 
BRANCH   9  10
ATOM     10  C   UNL     1      -4.586  -6.032   9.213  1.00  0.00    -0.000 C 
BRANCH  10  11
ATOM     11  C   UNL     1      -5.831  -6.228   8.323  1.00  0.00    -0.000 C 
BRANCH  11  12
ATOM     12  C   UNL     1      -6.726  -7.398   8.763  1.00  0.00    -0.003 C 
ATOM     13  C   UNL     1      -8.178  -7.242   8.315  1.00  0.00     0.004 C 
ENDBRANCH  11  12
ENDBRANCH  10  11
ENDBRANCH   9  10
ENDBRANCH   8   9
ENDBRANCH   1   8
TORSDOF 9
ENDMDL
MODEL 2
REMARK VINA RESULT:    -3.651      4.803      8.315
REMARK INTER + INTRA:          -5.745
REMARK INTER:                  -5.422
REMARK INTRA:                  -0.324
REMARK UNBOUND:                -0.173
REMARK SMILES CCCCCCCCCCC(=O)[O-]
REMARK SMILES IDX 7 1 8 2 9 3 10 4 11 5 12 6 13 7 6 8 5 9 4 10 3 11 2 12 1 13
REMARK H PARENT
REMARK Flexibility Score: inf
ROOT
ATOM      1  C   UNL     1      -4.863  -3.630  10.041  1.00  0.00     0.000 C 
ENDROOT
BRANCH   1   2
ATOM      2  C   UNL     1      -3.914  -4.777   9.650  1.00  0.00     0.000 C 
BRANCH   2   3
ATOM      3  C   UNL     1      -4.582  -6.158   9.753  1.00  0.00     0.006 C 
BRANCH   3   4
ATOM      4  C   UNL     1      -5.449  -6.489   8.532  1.00  0.00     0.053 C 
BRANCH   4   5
ATOM      5  C   UNL     1      -6.663  -7.259   8.947  1.00  0.00     0.041 C 
ATOM      6  O   UNL     1      -6.548  -8.271   9.687  1.00  0.00    -0.550 OA
ATOM      7  O   UNL     1      -7.925  -6.832   8.557  1.00  0.00    -0.550 OA
ENDBRANCH   4   5
ENDBRANCH   3   4
ENDBRANCH   2   3
ENDBRANCH   1   2
BRANCH   1   8
ATOM      8  C   UNL     1      -4.152  -2.269  10.092  1.00  0.00     0.000 C 
BRANCH   8   9
ATOM      9  C   UNL     1      -2.622  -2.396  10.057  1.00  0.00    -0.000 C 
BRANCH   9  10
ATOM     10  C   UNL     1      -1.953  -1.012  10.102  1.00  0.00    -0.000 C 
BRANCH  10  11
ATOM     11  C   UNL     1      -0.413  -1.107  10.125  1.00  0.00    -0.000 C 
BRANCH  11  12
ATOM     12  C   UNL     1       0.289   0.261  10.123  1.00  0.00    -0.003 C 
ATOM     13  C   UNL     1      -0.636   1.407   9.717  1.00  0.00     0.004 C 
ENDBRANCH  11  12
ENDBRANCH  10  11
ENDBRANCH   9  10
ENDBRANCH   8   9
ENDBRANCH   1   8
TORSDOF 9
ENDMDL
MODEL 3
REMARK VINA RESULT:    -3.442     21.153     21.680
REMARK INTER + INTRA:          -5.427
REMARK INTER:                  -4.851
REMARK INTRA:                  -0.576
REMARK UNBOUND:                -0.173
REMARK SMILES CCCCCCCCCCC(=O)[O-]
REMARK SMILES IDX 7 1 8 2 9 3 10 4 11 5 12 6 13 7 6 8 5 9 4 10 3 11 2 12 1 13
REMARK H PARENT
REMARK Flexibility Score: inf
ROOT
ATOM      1  C   UNL     1       4.524  -5.686  -8.948  1.00  0.00     0.000 C 
ENDROOT
BRANCH   1   2
ATOM      2  C   UNL     1       5.563  -4.764  -9.609  1.00  0.00     0.000 C 
BRANCH   2   3
ATOM      3  C   UNL     1       4.946  -3.453 -10.125  1.00  0.00     0.006 C 
BRANCH   3   4
ATOM      4  C   UNL     1       3.412  -3.476 -10.111  1.00  0.00     0.053 C 
BRANCH   4   5
ATOM      5  C   UNL     1       2.872  -2.083 -10.027  1.00  0.00     0.041 C 
ATOM      6  O   UNL     1       1.643  -1.891  -9.831  1.00  0.00    -0.550 OA
ATOM      7  O   UNL     1       3.732  -0.996 -10.117  1.00  0.00    -0.550 OA
ENDBRANCH   4   5
ENDBRANCH   3   4
ENDBRANCH   2   3
ENDBRANCH   1   2
BRANCH   1   8
ATOM      8  C   UNL     1       4.685  -7.155  -9.372  1.00  0.00     0.000 C 
BRANCH   8   9
ATOM      9  C   UNL     1       6.007  -7.419 -10.109  1.00  0.00    -0.000 C 
BRANCH   9  10
ATOM     10  C   UNL     1       6.969  -8.240  -9.236  1.00  0.00    -0.000 C 
BRANCH  10  11
ATOM     11  C   UNL     1       8.147  -7.394  -8.709  1.00  0.00    -0.000 C 
BRANCH  11  12
ATOM     12  C   UNL     1       9.526  -7.932  -9.122  1.00  0.00    -0.003 C 
ATOM     13  C   UNL     1       9.523  -9.433  -9.407  1.00  0.00     0.004 C 
ENDBRANCH  11  12
ENDBRANCH  10  11
ENDBRANCH   9  10
ENDBRANCH   8   9
ENDBRANCH   1   8
TORSDOF 9
ENDMDL
MODEL 4
REMARK VINA RESULT:    -3.381     20.863     21.678
REMARK INTER + INTRA:          -5.334
REMARK INTER:                  -5.069
REMARK INTRA:                  -0.264
REMARK UNBOUND:                -0.173
REMARK SMILES CCCCCCCCCCC(=O)[O-]
REMARK SMILES IDX 7 1 8 2 9 3 10 4 11 5 12 6 13 7 6 8 5 9 4 10 3 11 2 12 1 13
REMARK H PARENT
REMARK Flexibility Score: inf
ROOT
ATOM      1  C   UNL     1      -7.011   5.534  -8.265  1.00  0.00     0.000 C 
ENDROOT
BRANCH   1   2
ATOM      2  C   UNL     1      -8.069   5.570  -9.382  1.00  0.00     0.000 C 
BRANCH   2   3
ATOM      3  C   UNL     1      -8.817   6.911  -9.443  1.00  0.00     0.006 C 
BRANCH   3   4
ATOM      4  C   UNL     1      -8.349   7.900  -8.368  1.00  0.00     0.053 C 
BRANCH   4   5
ATOM      5  C   UNL     1      -7.889   9.177  -8.999  1.00  0.00     0.041 C 
ATOM      6  O   UNL     1      -6.676   9.511  -8.943  1.00  0.00    -0.550 OA
ATOM      7  O   UNL     1      -8.791   9.975  -9.690  1.00  0.00    -0.550 OA
ENDBRANCH   4   5
ENDBRANCH   3   4
ENDBRANCH   2   3
ENDBRANCH   1   2
BRANCH   1   8
ATOM      8  C   UNL     1      -5.653   6.091  -8.721  1.00  0.00     0.000 C 
BRANCH   8   9
ATOM      9  C   UNL     1      -5.182   5.492 -10.055  1.00  0.00    -0.000 C 
BRANCH   9  10
ATOM     10  C   UNL     1      -4.893   3.989  -9.911  1.00  0.00    -0.000 C 
BRANCH  10  11
ATOM     11  C   UNL     1      -3.387   3.671 -10.016  1.00  0.00    -0.000 C 
BRANCH  11  12
ATOM     12  C   UNL     1      -3.062   2.174  -9.886  1.00  0.00    -0.003 C 
ATOM     13  C   UNL     1      -1.569   1.898  -9.717  1.00  0.00     0.004 C 
ENDBRANCH  11  12
ENDBRANCH  10  11
ENDBRANCH   9  10
ENDBRANCH   8   9
ENDBRANCH   1   8
TORSDOF 9
ENDMDL
MODEL 5
REMARK VINA RESULT:    -3.374      5.403      8.718
REMARK INTER + INTRA:          -5.322
REMARK INTER:                  -5.020
REMARK INTRA:                  -0.302
REMARK UNBOUND:                -0.173
REMARK SMILES CCCCCCCCCCC(=O)[O-]
REMARK SMILES IDX 7 1 8 2 9 3 10 4 11 5 12 6 13 7 6 8 5 9 4 10 3 11 2 12 1 13
REMARK H PARENT
REMARK Flexibility Score: inf
ROOT
ATOM      1  C   UNL     1      -4.059  -5.702   9.076  1.00  0.00     0.000 C 
ENDROOT
BRANCH   1   2
ATOM      2  C   UNL     1      -5.507  -6.049   9.467  1.00  0.00     0.000 C 
BRANCH   2   3
ATOM      3  C   UNL     1      -6.257  -6.794   8.351  1.00  0.00     0.006 C 
BRANCH   3   4
ATOM      4  C   UNL     1      -7.743  -6.420   8.284  1.00  0.00     0.053 C 
BRANCH   4   5
ATOM      5  C   UNL     1      -8.582  -7.509   8.876  1.00  0.00     0.041 C 
ATOM      6  O   UNL     1      -8.263  -8.716   8.709  1.00  0.00    -0.550 OA
ATOM      7  O   UNL     1      -9.689  -7.190   9.652  1.00  0.00    -0.550 OA
ENDBRANCH   4   5
ENDBRANCH   3   4
ENDBRANCH   2   3
ENDBRANCH   1   2
BRANCH   1   8
ATOM      8  C   UNL     1      -3.467  -4.579   9.941  1.00  0.00     0.000 C 
BRANCH   8   9
ATOM      9  C   UNL     1      -3.960  -3.185   9.523  1.00  0.00    -0.000 C 
BRANCH   9  10
ATOM     10  C   UNL     1      -3.072  -2.084  10.125  1.00  0.00    -0.000 C 
BRANCH  10  11
ATOM     11  C   UNL     1      -1.735  -1.934   9.370  1.00  0.00    -0.000 C 
BRANCH  11  12
ATOM     12  C   UNL     1      -0.693  -1.090  10.123  1.00  0.00    -0.003 C 
ATOM     13  C   UNL     1       0.705  -1.705  10.101  1.00  0.00     0.004 C 
ENDBRANCH  11  12
ENDBRANCH  10  11
ENDBRANCH   9  10
ENDBRANCH   8   9
ENDBRANCH   1   8
TORSDOF 9
ENDMDL
MODEL 6
REMARK VINA RESULT:    -3.361      8.695     12.529
REMARK INTER + INTRA:          -5.303
REMARK INTER:                  -4.706
REMARK INTRA:                  -0.598
REMARK UNBOUND:                -0.173
REMARK SMILES CCCCCCCCCCC(=O)[O-]
REMARK SMILES IDX 7 1 8 2 9 3 10 4 11 5 12 6 13 7 6 8 5 9 4 10 3 11 2 12 1 13
REMARK H PARENT
REMARK Flexibility Score: inf
ROOT
ATOM      1  C   UNL     1       6.945   5.150   8.189  1.00  0.00     0.000 C 
ENDROOT
BRANCH   1   2
ATOM      2  C   UNL     1       7.850   6.389   8.068  1.00  0.00     0.000 C 
BRANCH   2   3
ATOM      3  C   UNL     1       8.390   6.861   9.427  1.00  0.00     0.006 C 
BRANCH   3   4
ATOM      4  C   UNL     1       8.269   8.379   9.619  1.00  0.00     0.053 C 
BRANCH   4   5
ATOM      5  C   UNL     1       6.832   8.795   9.585  1.00  0.00     0.041 C 
ATOM      6  O   UNL     1       5.950   8.068  10.113  1.00  0.00    -0.550 OA
ATOM      7  O   UNL     1       6.473  10.008   9.013  1.00  0.00    -0.550 OA
ENDBRANCH   4   5
ENDBRANCH   3   4
ENDBRANCH   2   3
ENDBRANCH   1   2
BRANCH   1   8
ATOM      8  C   UNL     1       7.154   4.395   9.511  1.00  0.00     0.000 C 
BRANCH   8   9
ATOM      9  C   UNL     1       5.851   3.805  10.071  1.00  0.00    -0.000 C 
BRANCH   9  10
ATOM     10  C   UNL     1       4.652   4.713   9.748  1.00  0.00    -0.000 C 
BRANCH  10  11
ATOM     11  C   UNL     1       3.306   4.060  10.125  1.00  0.00    -0.000 C 
BRANCH  11  12
ATOM     12  C   UNL     1       3.326   2.524  10.058  1.00  0.00    -0.003 C 
ATOM     13  C   UNL     1       1.950   1.919   9.789  1.00  0.00     0.004 C 
ENDBRANCH  11  12
ENDBRANCH  10  11
ENDBRANCH   9  10
ENDBRANCH   8   9
ENDBRANCH   1   8
TORSDOF 9
ENDMDL
