MODEL 1
REMARK VINA RESULT:    -6.491      0.000      0.000
REMARK INTER + INTRA:          -7.495
REMARK INTER:                  -7.060
REMARK INTRA:                  -0.434
REMARK UNBOUND:                -0.434
REMARK SMILES C=C(C)[C@H]1CC[C@]2(C)CC[C@@]3(C)[C@@H](CC[C@@H]4[C@@]5(C)CC[C@H](O)C(C)(C)[C@H]5CC[C@@]43C)[C@H]12
REMARK SMILES IDX 4 1 5 2 6 3 7 4 31 5 13 6 14 7 15 8 16 9 17 10 19 11 20 12
REMARK SMILES IDX 21 13 23 14 26 15 27 16 28 17 29 18 11 19 10 20 9 21 12 22
REMARK SMILES IDX 30 23 24 24 25 25 18 26 8 27 2 28 3 29 1 30 22 31
REMARK H PARENT 22 32
REMARK Flexibility Score: inf
ROOT
ATOM      1  C   UNL     1     310.774 233.490 193.710  1.00  0.00     0.018 C 
ATOM      2  C   UNL     1     310.720 232.215 192.865  1.00  0.00     0.009 C 
ATOM      3  C   UNL     1     311.871 231.357 193.361  1.00  0.00     0.008 C 
ATOM      4  C   UNL     1     312.975 232.345 193.763  1.00  0.00    -0.029 C 
ATOM      5  C   UNL     1     312.193 233.556 194.372  1.00  0.00     0.006 C 
ATOM      6  C   UNL     1     312.065 233.485 195.929  1.00  0.00    -0.000 C 
ATOM      7  C   UNL     1     311.368 234.701 196.519  1.00  0.00     0.005 C 
ATOM      8  C   UNL     1     310.832 234.350 197.906  1.00  0.00     0.005 C 
ATOM      9  C   UNL     1     311.636 233.254 198.723  1.00  0.00     0.002 C 
ATOM     10  C   UNL     1     311.242 233.363 200.280  1.00  0.00    -0.026 C 
ATOM     11  C   UNL     1     311.535 232.032 201.053  1.00  0.00     0.010 C 
ATOM     12  C   UNL     1     311.393 232.135 202.578  1.00  0.00     0.033 C 
ATOM     13  C   UNL     1     312.214 233.288 203.165  1.00  0.00     0.120 C 
ATOM     14  C   UNL     1     311.850 234.675 202.545  1.00  0.00    -0.006 C 
ATOM     15  C   UNL     1     311.959 234.616 200.952  1.00  0.00     0.003 C 
ATOM     16  C   UNL     1     313.433 234.802 200.474  1.00  0.00     0.005 C 
ATOM     17  C   UNL     1     313.684 234.660 198.960  1.00  0.00     0.008 C 
ATOM     18  C   UNL     1     313.182 233.316 198.341  1.00  0.00    -0.024 C 
ATOM     19  C   UNL     1     313.396 233.209 196.703  1.00  0.00    -0.024 C 
ATOM     20  C   UNL     1     313.776 231.765 196.212  1.00  0.00     0.008 C 
ATOM     21  C   UNL     1     314.021 231.655 194.698  1.00  0.00     0.007 C 
ATOM     22  C   UNL     1     314.532 234.182 196.246  1.00  0.00     0.012 C 
ATOM     23  C   UNL     1     314.047 232.196 198.998  1.00  0.00     0.012 C 
ATOM     24  C   UNL     1     312.827 235.738 203.133  1.00  0.00     0.014 C 
ATOM     25  C   UNL     1     310.435 235.138 203.004  1.00  0.00     0.014 C 
ATOM     26  C   UNL     1     309.680 233.524 200.350  1.00  0.00     0.012 C 
ATOM     27  C   UNL     1     313.734 232.789 192.484  1.00  0.00     0.011 C 
ENDROOT
BRANCH   1  28
ATOM     28  C   UNL     1     310.386 234.747 192.929  1.00  0.00    -0.077 C 
ATOM     29  C   UNL     1     309.234 235.627 193.361  1.00  0.00     0.039 C 
ATOM     30  C   UNL     1     311.131 235.128 191.875  1.00  0.00     0.008 C 
ENDBRANCH   1  28
BRANCH  13  31
ATOM     31  O   UNL     1     312.019 233.302 204.560  1.00  0.00    -0.393 OA
ATOM     32  H   UNL     1     311.077 233.040 204.730  1.00  0.00     0.210 HD
ENDBRANCH  13  31
TORSDOF 2
ENDMDL
MODEL 2
REMARK VINA RESULT:    -6.373      1.252      1.675
REMARK INTER + INTRA:          -7.366
REMARK INTER:                  -6.879
REMARK INTRA:                  -0.487
REMARK UNBOUND:                -0.434
REMARK SMILES C=C(C)[C@H]1CC[C@]2(C)CC[C@@]3(C)[C@@H](CC[C@@H]4[C@@]5(C)CC[C@H](O)C(C)(C)[C@H]5CC[C@@]43C)[C@H]12
REMARK SMILES IDX 4 1 5 2 6 3 7 4 31 5 13 6 14 7 15 8 16 9 17 10 19 11 20 12
REMARK SMILES IDX 21 13 23 14 26 15 27 16 28 17 29 18 11 19 10 20 9 21 12 22
REMARK SMILES IDX 30 23 24 24 25 25 18 26 8 27 2 28 3 29 1 30 22 31
REMARK H PARENT 22 32
REMARK Flexibility Score: inf
ROOT
ATOM      1  C   UNL     1     311.835 233.116 194.708  1.00  0.00     0.018 C 
ATOM      2  C   UNL     1     312.297 231.922 193.869  1.00  0.00     0.009 C 
ATOM      3  C   UNL     1     313.482 231.340 194.619  1.00  0.00     0.008 C 
ATOM      4  C   UNL     1     314.182 232.539 195.275  1.00  0.00    -0.029 C 
ATOM      5  C   UNL     1     313.003 233.483 195.687  1.00  0.00     0.006 C 
ATOM      6  C   UNL     1     312.545 233.284 197.169  1.00  0.00    -0.000 C 
ATOM      7  C   UNL     1     311.450 234.255 197.583  1.00  0.00     0.005 C 
ATOM      8  C   UNL     1     310.718 233.697 198.803  1.00  0.00     0.005 C 
ATOM      9  C   UNL     1     311.564 232.780 199.781  1.00  0.00     0.002 C 
ATOM     10  C   UNL     1     310.811 232.692 201.202  1.00  0.00    -0.026 C 
ATOM     11  C   UNL     1     311.245 231.425 202.016  1.00  0.00     0.010 C 
ATOM     12  C   UNL     1     310.738 231.393 203.466  1.00  0.00     0.033 C 
ATOM     13  C   UNL     1     311.087 232.673 204.235  1.00  0.00     0.120 C 
ATOM     14  C   UNL     1     310.538 233.965 203.552  1.00  0.00    -0.006 C 
ATOM     15  C   UNL     1     311.018 234.035 202.030  1.00  0.00     0.003 C 
ATOM     16  C   UNL     1     312.467 234.604 201.914  1.00  0.00     0.005 C 
ATOM     17  C   UNL     1     313.083 234.624 200.502  1.00  0.00     0.008 C 
ATOM     18  C   UNL     1     313.089 233.240 199.776  1.00  0.00    -0.024 C 
ATOM     19  C   UNL     1     313.691 233.292 198.234  1.00  0.00    -0.024 C 
ATOM     20  C   UNL     1     314.523 232.018 197.841  1.00  0.00     0.008 C 
ATOM     21  C   UNL     1     315.125 232.066 196.427  1.00  0.00     0.007 C 
ATOM     22  C   UNL     1     314.619 234.538 198.063  1.00  0.00     0.012 C 
ATOM     23  C   UNL     1     314.035 232.324 200.615  1.00  0.00     0.012 C 
ATOM     24  C   UNL     1     311.056 235.194 204.358  1.00  0.00     0.014 C 
ATOM     25  C   UNL     1     308.985 234.041 203.665  1.00  0.00     0.014 C 
ATOM     26  C   UNL     1     309.285 232.463 200.901  1.00  0.00     0.012 C 
ATOM     27  C   UNL     1     315.076 233.235 194.213  1.00  0.00     0.011 C 
ENDROOT
BRANCH   1  28
ATOM     28  C   UNL     1     311.333 234.289 193.863  1.00  0.00    -0.077 C 
ATOM     29  C   UNL     1     309.987 234.250 193.172  1.00  0.00     0.039 C 
ATOM     30  C   UNL     1     312.066 235.414 193.789  1.00  0.00     0.008 C 
ENDBRANCH   1  28
BRANCH  13  31
ATOM     31  O   UNL     1     310.583 232.550 205.544  1.00  0.00    -0.393 OA
ATOM     32  H   UNL     1     311.360 232.551 206.162  1.00  0.00     0.210 HD
ENDBRANCH  13  31
TORSDOF 2
ENDMDL
MODEL 3
REMARK VINA RESULT:    -6.025      5.921     11.806
REMARK INTER + INTRA:          -6.988
REMARK INTER:                  -6.489
REMARK INTRA:                  -0.499
REMARK UNBOUND:                -0.434
REMARK SMILES C=C(C)[C@H]1CC[C@]2(C)CC[C@@]3(C)[C@@H](CC[C@@H]4[C@@]5(C)CC[C@H](O)C(C)(C)[C@H]5CC[C@@]43C)[C@H]12
REMARK SMILES IDX 4 1 5 2 6 3 7 4 31 5 13 6 14 7 15 8 16 9 17 10 19 11 20 12
REMARK SMILES IDX 21 13 23 14 26 15 27 16 28 17 29 18 11 19 10 20 9 21 12 22
REMARK SMILES IDX 30 23 24 24 25 25 18 26 8 27 2 28 3 29 1 30 22 31
REMARK H PARENT 22 32
REMARK Flexibility Score: inf
ROOT
ATOM      1  C   UNL     1     314.165 232.226 209.319  1.00  0.00     0.018 C 
ATOM      2  C   UNL     1     314.663 230.966 210.032  1.00  0.00     0.009 C 
ATOM      3  C   UNL     1     313.430 230.100 210.223  1.00  0.00     0.008 C 
ATOM      4  C   UNL     1     312.269 231.081 210.441  1.00  0.00    -0.029 C 
ATOM      5  C   UNL     1     312.608 232.281 209.494  1.00  0.00     0.006 C 
ATOM      6  C   UNL     1     311.906 232.181 208.100  1.00  0.00    -0.000 C 
ATOM      7  C   UNL     1     312.182 233.385 207.214  1.00  0.00     0.005 C 
ATOM      8  C   UNL     1     311.919 233.009 205.757  1.00  0.00     0.005 C 
ATOM      9  C   UNL     1     310.816 231.899 205.498  1.00  0.00     0.002 C 
ATOM     10  C   UNL     1     310.339 231.980 203.962  1.00  0.00    -0.026 C 
ATOM     11  C   UNL     1     309.698 230.635 203.477  1.00  0.00     0.010 C 
ATOM     12  C   UNL     1     309.022 230.710 202.100  1.00  0.00     0.033 C 
ATOM     13  C   UNL     1     308.006 231.853 202.009  1.00  0.00     0.120 C 
ATOM     14  C   UNL     1     308.627 233.250 202.326  1.00  0.00    -0.006 C 
ATOM     15  C   UNL     1     309.366 233.220 203.742  1.00  0.00     0.003 C 
ATOM     16  C   UNL     1     308.356 233.416 204.917  1.00  0.00     0.005 C 
ATOM     17  C   UNL     1     308.933 233.303 206.341  1.00  0.00     0.008 C 
ATOM     18  C   UNL     1     309.696 231.970 206.628  1.00  0.00    -0.024 C 
ATOM     19  C   UNL     1     310.369 231.892 208.139  1.00  0.00    -0.024 C 
ATOM     20  C   UNL     1     310.314 230.458 208.779  1.00  0.00     0.008 C 
ATOM     21  C   UNL     1     310.896 230.375 210.200  1.00  0.00     0.007 C 
ATOM     22  C   UNL     1     309.630 232.874 209.106  1.00  0.00     0.012 C 
ATOM     23  C   UNL     1     308.625 230.838 206.537  1.00  0.00     0.012 C 
ATOM     24  C   UNL     1     307.478 234.303 202.318  1.00  0.00     0.014 C 
ATOM     25  C   UNL     1     309.591 233.705 201.189  1.00  0.00     0.014 C 
ATOM     26  C   UNL     1     311.634 232.138 203.085  1.00  0.00     0.012 C 
ATOM     27  C   UNL     1     312.285 231.549 211.921  1.00  0.00     0.011 C 
ENDROOT
BRANCH   1  28
ATOM     28  C   UNL     1     314.892 233.497 209.763  1.00  0.00    -0.077 C 
ATOM     29  C   UNL     1     314.141 234.773 210.074  1.00  0.00     0.039 C 
ATOM     30  C   UNL     1     316.223 233.465 209.959  1.00  0.00     0.008 C 
ENDBRANCH   1  28
BRANCH  13  31
ATOM     31  O   UNL     1     307.444 231.841 200.718  1.00  0.00    -0.393 OA
ATOM     32  H   UNL     1     307.803 231.045 200.246  1.00  0.00     0.210 HD
ENDBRANCH  13  31
TORSDOF 2
ENDMDL
MODEL 4
REMARK VINA RESULT:    -5.801      4.732     11.236
REMARK INTER + INTRA:          -6.744
REMARK INTER:                  -6.314
REMARK INTRA:                  -0.430
REMARK UNBOUND:                -0.434
REMARK SMILES C=C(C)[C@H]1CC[C@]2(C)CC[C@@]3(C)[C@@H](CC[C@@H]4[C@@]5(C)CC[C@H](O)C(C)(C)[C@H]5CC[C@@]43C)[C@H]12
REMARK SMILES IDX 4 1 5 2 6 3 7 4 31 5 13 6 14 7 15 8 16 9 17 10 19 11 20 12
REMARK SMILES IDX 21 13 23 14 26 15 27 16 28 17 29 18 11 19 10 20 9 21 12 22
REMARK SMILES IDX 30 23 24 24 25 25 18 26 8 27 2 28 3 29 1 30 22 31
REMARK H PARENT 22 32
REMARK Flexibility Score: inf
ROOT
ATOM      1  C   UNL     1     312.849 232.194 209.745  1.00  0.00     0.018 C 
ATOM      2  C   UNL     1     312.483 233.001 210.993  1.00  0.00     0.009 C 
ATOM      3  C   UNL     1     312.540 234.456 210.562  1.00  0.00     0.008 C 
ATOM      4  C   UNL     1     313.660 234.529 209.514  1.00  0.00    -0.029 C 
ATOM      5  C   UNL     1     313.536 233.177 208.735  1.00  0.00     0.006 C 
ATOM      6  C   UNL     1     312.679 233.296 207.432  1.00  0.00    -0.000 C 
ATOM      7  C   UNL     1     312.624 231.997 206.643  1.00  0.00     0.005 C 
ATOM      8  C   UNL     1     311.412 232.024 205.713  1.00  0.00     0.005 C 
ATOM      9  C   UNL     1     310.950 233.447 205.190  1.00  0.00     0.002 C 
ATOM     10  C   UNL     1     310.016 233.254 203.892  1.00  0.00    -0.026 C 
ATOM     11  C   UNL     1     309.095 234.496 203.644  1.00  0.00     0.010 C 
ATOM     12  C   UNL     1     308.342 234.475 202.305  1.00  0.00     0.033 C 
ATOM     13  C   UNL     1     309.279 234.254 201.112  1.00  0.00     0.120 C 
ATOM     14  C   UNL     1     310.112 232.938 201.225  1.00  0.00    -0.006 C 
ATOM     15  C   UNL     1     310.898 232.898 202.616  1.00  0.00     0.003 C 
ATOM     16  C   UNL     1     312.225 233.718 202.546  1.00  0.00     0.005 C 
ATOM     17  C   UNL     1     313.023 233.842 203.858  1.00  0.00     0.008 C 
ATOM     18  C   UNL     1     312.208 234.416 205.062  1.00  0.00    -0.024 C 
ATOM     19  C   UNL     1     313.059 234.478 206.481  1.00  0.00    -0.024 C 
ATOM     20  C   UNL     1     312.724 235.737 207.360  1.00  0.00     0.008 C 
ATOM     21  C   UNL     1     313.536 235.834 208.663  1.00  0.00     0.007 C 
ATOM     22  C   UNL     1     314.595 234.499 206.184  1.00  0.00     0.012 C 
ATOM     23  C   UNL     1     311.847 235.883 204.671  1.00  0.00     0.012 C 
ATOM     24  C   UNL     1     311.102 232.889 200.023  1.00  0.00     0.014 C 
ATOM     25  C   UNL     1     309.205 231.684 201.046  1.00  0.00     0.014 C 
ATOM     26  C   UNL     1     309.019 232.081 204.213  1.00  0.00     0.012 C 
ATOM     27  C   UNL     1     315.026 234.596 210.251  1.00  0.00     0.011 C 
ENDROOT
BRANCH   1  28
ATOM     28  C   UNL     1     313.669 230.941 210.056  1.00  0.00    -0.077 C 
ATOM     29  C   UNL     1     315.170 230.999 210.241  1.00  0.00     0.039 C 
ATOM     30  C   UNL     1     313.039 229.767 210.248  1.00  0.00     0.008 C 
ENDBRANCH   1  28
BRANCH  13  31
ATOM     31  O   UNL     1     308.502 234.249 199.938  1.00  0.00    -0.393 OA
ATOM     32  H   UNL     1     308.489 235.178 199.587  1.00  0.00     0.210 HD
ENDBRANCH  13  31
TORSDOF 2
ENDMDL
MODEL 5
REMARK VINA RESULT:    -5.774      2.621      7.883
REMARK INTER + INTRA:          -6.715
REMARK INTER:                  -6.213
REMARK INTRA:                  -0.502
REMARK UNBOUND:                -0.434
REMARK SMILES C=C(C)[C@H]1CC[C@]2(C)CC[C@@]3(C)[C@@H](CC[C@@H]4[C@@]5(C)CC[C@H](O)C(C)(C)[C@H]5CC[C@@]43C)[C@H]12
REMARK SMILES IDX 4 1 5 2 6 3 7 4 31 5 13 6 14 7 15 8 16 9 17 10 19 11 20 12
REMARK SMILES IDX 21 13 23 14 26 15 27 16 28 17 29 18 11 19 10 20 9 21 12 22
REMARK SMILES IDX 30 23 24 24 25 25 18 26 8 27 2 28 3 29 1 30 22 31
REMARK H PARENT 22 32
REMARK Flexibility Score: inf
ROOT
ATOM      1  C   UNL     1     311.010 235.115 202.590  1.00  0.00     0.018 C 
ATOM      2  C   UNL     1     311.798 236.100 203.456  1.00  0.00     0.009 C 
ATOM      3  C   UNL     1     313.258 235.853 203.119  1.00  0.00     0.008 C 
ATOM      4  C   UNL     1     313.361 234.350 202.820  1.00  0.00    -0.029 C 
ATOM      5  C   UNL     1     312.014 234.018 202.093  1.00  0.00     0.006 C 
ATOM      6  C   UNL     1     312.130 234.060 200.535  1.00  0.00    -0.000 C 
ATOM      7  C   UNL     1     310.838 233.666 199.837  1.00  0.00     0.005 C 
ATOM      8  C   UNL     1     310.854 234.204 198.407  1.00  0.00     0.005 C 
ATOM      9  C   UNL     1     312.274 234.349 197.717  1.00  0.00     0.002 C 
ATOM     10  C   UNL     1     312.077 234.453 196.123  1.00  0.00    -0.026 C 
ATOM     11  C   UNL     1     313.306 235.129 195.424  1.00  0.00     0.010 C 
ATOM     12  C   UNL     1     313.286 235.061 193.890  1.00  0.00     0.033 C 
ATOM     13  C   UNL     1     313.091 233.631 193.371  1.00  0.00     0.120 C 
ATOM     14  C   UNL     1     311.789 232.958 193.909  1.00  0.00    -0.006 C 
ATOM     15  C   UNL     1     311.749 233.023 195.504  1.00  0.00     0.003 C 
ATOM     16  C   UNL     1     312.592 231.876 196.144  1.00  0.00     0.005 C 
ATOM     17  C   UNL     1     312.717 231.893 197.680  1.00  0.00     0.008 C 
ATOM     18  C   UNL     1     313.265 233.231 198.272  1.00  0.00    -0.024 C 
ATOM     19  C   UNL     1     313.328 233.258 199.927  1.00  0.00    -0.024 C 
ATOM     20  C   UNL     1     314.572 234.031 200.496  1.00  0.00     0.008 C 
ATOM     21  C   UNL     1     314.671 234.031 202.030  1.00  0.00     0.007 C 
ATOM     22  C   UNL     1     313.377 231.799 200.485  1.00  0.00     0.012 C 
ATOM     23  C   UNL     1     314.730 233.360 197.748  1.00  0.00     0.012 C 
ATOM     24  C   UNL     1     311.768 231.481 193.409  1.00  0.00     0.014 C 
ATOM     25  C   UNL     1     310.521 233.610 193.279  1.00  0.00     0.014 C 
ATOM     26  C   UNL     1     310.885 235.446 195.870  1.00  0.00     0.012 C 
ATOM     27  C   UNL     1     313.444 233.580 204.166  1.00  0.00     0.011 C 
ENDROOT
BRANCH   1  28
ATOM     28  C   UNL     1     309.768 234.559 203.288  1.00  0.00    -0.077 C 
ATOM     29  C   UNL     1     309.466 233.076 203.311  1.00  0.00     0.039 C 
ATOM     30  C   UNL     1     308.959 235.394 203.966  1.00  0.00     0.008 C 
ENDBRANCH   1  28
BRANCH  13  31
ATOM     31  O   UNL     1     313.085 233.672 191.964  1.00  0.00    -0.393 OA
ATOM     32  H   UNL     1     312.988 234.623 191.695  1.00  0.00     0.210 HD
ENDBRANCH  13  31
TORSDOF 2
ENDMDL
MODEL 6
REMARK VINA RESULT:    -5.752      2.894      8.492
REMARK INTER + INTRA:          -6.691
REMARK INTER:                  -6.209
REMARK INTRA:                  -0.482
REMARK UNBOUND:                -0.434
REMARK SMILES C=C(C)[C@H]1CC[C@]2(C)CC[C@@]3(C)[C@@H](CC[C@@H]4[C@@]5(C)CC[C@H](O)C(C)(C)[C@H]5CC[C@@]43C)[C@H]12
REMARK SMILES IDX 4 1 5 2 6 3 7 4 31 5 13 6 14 7 15 8 16 9 17 10 19 11 20 12
REMARK SMILES IDX 21 13 23 14 26 15 27 16 28 17 29 18 11 19 10 20 9 21 12 22
REMARK SMILES IDX 30 23 24 24 25 25 18 26 8 27 2 28 3 29 1 30 22 31
REMARK H PARENT 22 32
REMARK Flexibility Score: inf
ROOT
ATOM      1  C   UNL     1     311.536 232.574 204.764  1.00  0.00     0.018 C 
ATOM      2  C   UNL     1     310.192 232.094 205.319  1.00  0.00     0.009 C 
ATOM      3  C   UNL     1     309.139 232.790 204.476  1.00  0.00     0.008 C 
ATOM      4  C   UNL     1     309.737 234.158 204.118  1.00  0.00    -0.029 C 
ATOM      5  C   UNL     1     311.260 233.860 203.912  1.00  0.00     0.006 C 
ATOM      6  C   UNL     1     311.639 233.606 202.416  1.00  0.00    -0.000 C 
ATOM      7  C   UNL     1     313.131 233.389 202.215  1.00  0.00     0.005 C 
ATOM      8  C   UNL     1     313.360 232.665 200.890  1.00  0.00     0.005 C 
ATOM      9  C   UNL     1     312.298 232.928 199.742  1.00  0.00     0.002 C 
ATOM     10  C   UNL     1     312.934 232.499 198.327  1.00  0.00    -0.026 C 
ATOM     11  C   UNL     1     311.831 232.204 197.255  1.00  0.00     0.010 C 
ATOM     12  C   UNL     1     312.363 232.006 195.828  1.00  0.00     0.033 C 
ATOM     13  C   UNL     1     313.259 233.164 195.373  1.00  0.00     0.120 C 
ATOM     14  C   UNL     1     314.476 233.404 196.321  1.00  0.00    -0.006 C 
ATOM     15  C   UNL     1     313.977 233.592 197.827  1.00  0.00     0.003 C 
ATOM     16  C   UNL     1     313.499 235.055 198.091  1.00  0.00     0.005 C 
ATOM     17  C   UNL     1     312.896 235.337 199.481  1.00  0.00     0.008 C 
ATOM     18  C   UNL     1     311.707 234.402 199.875  1.00  0.00    -0.024 C 
ATOM     19  C   UNL     1     311.116 234.672 201.398  1.00  0.00    -0.024 C 
ATOM     20  C   UNL     1     309.557 234.502 201.506  1.00  0.00     0.008 C 
ATOM     21  C   UNL     1     308.984 234.790 202.904  1.00  0.00     0.007 C 
ATOM     22  C   UNL     1     311.471 236.123 201.861  1.00  0.00     0.012 C 
ATOM     23  C   UNL     1     310.560 234.723 198.867  1.00  0.00     0.012 C 
ATOM     24  C   UNL     1     315.235 234.670 195.821  1.00  0.00     0.014 C 
ATOM     25  C   UNL     1     315.513 232.246 196.204  1.00  0.00     0.014 C 
ATOM     26  C   UNL     1     313.651 231.117 198.544  1.00  0.00     0.012 C 
ATOM     27  C   UNL     1     309.540 235.117 205.324  1.00  0.00     0.011 C 
ENDROOT
BRANCH   1  28
ATOM     28  C   UNL     1     312.604 232.754 205.845  1.00  0.00    -0.077 C 
ATOM     29  C   UNL     1     313.606 233.886 205.790  1.00  0.00     0.039 C 
ATOM     30  C   UNL     1     312.611 231.935 206.912  1.00  0.00     0.008 C 
ENDBRANCH   1  28
BRANCH  13  31
ATOM     31  O   UNL     1     313.696 232.893 194.062  1.00  0.00    -0.393 OA
ATOM     32  H   UNL     1     313.757 231.906 193.968  1.00  0.00     0.210 HD
ENDBRANCH  13  31
TORSDOF 2
ENDMDL
MODEL 7
REMARK VINA RESULT:    -5.706      6.669     11.687
REMARK INTER + INTRA:          -6.641
REMARK INTER:                  -6.164
REMARK INTRA:                  -0.477
REMARK UNBOUND:                -0.434
REMARK SMILES C=C(C)[C@H]1CC[C@]2(C)CC[C@@]3(C)[C@@H](CC[C@@H]4[C@@]5(C)CC[C@H](O)C(C)(C)[C@H]5CC[C@@]43C)[C@H]12
REMARK SMILES IDX 4 1 5 2 6 3 7 4 31 5 13 6 14 7 15 8 16 9 17 10 19 11 20 12
REMARK SMILES IDX 21 13 23 14 26 15 27 16 28 17 29 18 11 19 10 20 9 21 12 22
REMARK SMILES IDX 30 23 24 24 25 25 18 26 8 27 2 28 3 29 1 30 22 31
REMARK H PARENT 22 32
REMARK Flexibility Score: inf
ROOT
ATOM      1  C   UNL     1     313.413 232.431 208.521  1.00  0.00     0.018 C 
ATOM      2  C   UNL     1     314.027 231.455 209.527  1.00  0.00     0.009 C 
ATOM      3  C   UNL     1     312.857 230.655 210.074  1.00  0.00     0.008 C 
ATOM      4  C   UNL     1     311.669 231.628 210.094  1.00  0.00    -0.029 C 
ATOM      5  C   UNL     1     311.874 232.498 208.809  1.00  0.00     0.006 C 
ATOM      6  C   UNL     1     311.072 231.970 207.575  1.00  0.00    -0.000 C 
ATOM      7  C   UNL     1     311.218 232.861 206.352  1.00  0.00     0.005 C 
ATOM      8  C   UNL     1     310.862 232.061 205.100  1.00  0.00     0.005 C 
ATOM      9  C   UNL     1     309.799 230.897 205.279  1.00  0.00     0.002 C 
ATOM     10  C   UNL     1     309.201 230.504 203.837  1.00  0.00    -0.026 C 
ATOM     11  C   UNL     1     308.592 229.061 203.829  1.00  0.00     0.010 C 
ATOM     12  C   UNL     1     307.809 228.704 202.557  1.00  0.00     0.033 C 
ATOM     13  C   UNL     1     306.733 229.743 202.224  1.00  0.00     0.120 C 
ATOM     14  C   UNL     1     307.306 231.186 202.058  1.00  0.00    -0.006 C 
ATOM     15  C   UNL     1     308.153 231.598 203.348  1.00  0.00     0.003 C 
ATOM     16  C   UNL     1     307.229 232.111 204.497  1.00  0.00     0.005 C 
ATOM     17  C   UNL     1     307.919 232.442 205.834  1.00  0.00     0.008 C 
ATOM     18  C   UNL     1     308.768 231.275 206.434  1.00  0.00    -0.024 C 
ATOM     19  C   UNL     1     309.559 231.668 207.834  1.00  0.00    -0.024 C 
ATOM     20  C   UNL     1     309.624 230.489 208.872  1.00  0.00     0.008 C 
ATOM     21  C   UNL     1     310.318 230.849 210.196  1.00  0.00     0.007 C 
ATOM     22  C   UNL     1     308.849 232.876 208.529  1.00  0.00     0.012 C 
ATOM     23  C   UNL     1     307.750 230.141 206.776  1.00  0.00     0.012 C 
ATOM     24  C   UNL     1     306.109 232.160 201.841  1.00  0.00     0.014 C 
ATOM     25  C   UNL     1     308.156 231.303 200.756  1.00  0.00     0.014 C 
ATOM     26  C   UNL     1     310.414 230.425 202.841  1.00  0.00     0.012 C 
ATOM     27  C   UNL     1     311.776 232.517 211.363  1.00  0.00     0.011 C 
ENDROOT
BRANCH   1  28
ATOM     28  C   UNL     1     314.108 233.794 208.504  1.00  0.00    -0.077 C 
ATOM     29  C   UNL     1     314.328 234.557 207.216  1.00  0.00     0.039 C 
ATOM     30  C   UNL     1     314.467 234.370 209.666  1.00  0.00     0.008 C 
ENDBRANCH   1  28
BRANCH  13  31
ATOM     31  O   UNL     1     306.074 229.333 201.049  1.00  0.00    -0.393 OA
ATOM     32  H   UNL     1     306.701 228.750 200.545  1.00  0.00     0.210 HD
ENDBRANCH  13  31
TORSDOF 2
ENDMDL
MODEL 8
REMARK VINA RESULT:    -5.700      2.856      7.744
REMARK INTER + INTRA:          -6.634
REMARK INTER:                  -6.198
REMARK INTRA:                  -0.437
REMARK UNBOUND:                -0.434
REMARK SMILES C=C(C)[C@H]1CC[C@]2(C)CC[C@@]3(C)[C@@H](CC[C@@H]4[C@@]5(C)CC[C@H](O)C(C)(C)[C@H]5CC[C@@]43C)[C@H]12
REMARK SMILES IDX 4 1 5 2 6 3 7 4 31 5 13 6 14 7 15 8 16 9 17 10 19 11 20 12
REMARK SMILES IDX 21 13 23 14 26 15 27 16 28 17 29 18 11 19 10 20 9 21 12 22
REMARK SMILES IDX 30 23 24 24 25 25 18 26 8 27 2 28 3 29 1 30 22 31
REMARK H PARENT 22 32
REMARK Flexibility Score: inf
ROOT
ATOM      1  C   UNL     1     308.747 231.505 201.352  1.00  0.00     0.018 C 
ATOM      2  C   UNL     1     307.219 231.569 201.399  1.00  0.00     0.009 C 
ATOM      3  C   UNL     1     306.862 232.975 200.951  1.00  0.00     0.008 C 
ATOM      4  C   UNL     1     308.000 233.870 201.464  1.00  0.00    -0.029 C 
ATOM      5  C   UNL     1     309.278 232.979 201.307  1.00  0.00     0.006 C 
ATOM      6  C   UNL     1     310.044 233.235 199.968  1.00  0.00    -0.000 C 
ATOM      7  C   UNL     1     311.323 232.420 199.857  1.00  0.00     0.005 C 
ATOM      8  C   UNL     1     311.730 232.320 198.387  1.00  0.00     0.005 C 
ATOM      9  C   UNL     1     311.317 233.532 197.451  1.00  0.00     0.002 C 
ATOM     10  C   UNL     1     312.213 233.494 196.114  1.00  0.00    -0.026 C 
ATOM     11  C   UNL     1     311.537 234.270 194.934  1.00  0.00     0.010 C 
ATOM     12  C   UNL     1     312.431 234.464 193.701  1.00  0.00     0.033 C 
ATOM     13  C   UNL     1     313.783 235.093 194.053  1.00  0.00     0.120 C 
ATOM     14  C   UNL     1     314.582 234.272 195.113  1.00  0.00    -0.006 C 
ATOM     15  C   UNL     1     313.685 234.021 196.411  1.00  0.00     0.003 C 
ATOM     16  C   UNL     1     313.708 235.254 197.368  1.00  0.00     0.005 C 
ATOM     17  C   UNL     1     312.797 235.176 198.608  1.00  0.00     0.008 C 
ATOM     18  C   UNL     1     311.294 234.885 198.292  1.00  0.00    -0.024 C 
ATOM     19  C   UNL     1     310.341 234.735 199.638  1.00  0.00    -0.024 C 
ATOM     20  C   UNL     1     308.898 235.330 199.455  1.00  0.00     0.008 C 
ATOM     21  C   UNL     1     308.011 235.238 200.708  1.00  0.00     0.007 C 
ATOM     22  C   UNL     1     311.007 235.464 200.850  1.00  0.00     0.012 C 
ATOM     23  C   UNL     1     310.780 236.124 197.493  1.00  0.00     0.012 C 
ATOM     24  C   UNL     1     315.872 235.070 195.471  1.00  0.00     0.014 C 
ATOM     25  C   UNL     1     315.099 232.931 194.509  1.00  0.00     0.014 C 
ATOM     26  C   UNL     1     312.254 231.999 195.630  1.00  0.00     0.012 C 
ATOM     27  C   UNL     1     307.749 234.182 202.964  1.00  0.00     0.011 C 
ENDROOT
BRANCH   1  28
ATOM     28  C   UNL     1     309.349 230.655 202.473  1.00  0.00    -0.077 C 
ATOM     29  C   UNL     1     310.747 230.905 202.995  1.00  0.00     0.039 C 
ATOM     30  C   UNL     1     308.596 229.711 203.066  1.00  0.00     0.008 C 
ENDBRANCH   1  28
BRANCH  13  31
ATOM     31  O   UNL     1     314.528 235.229 192.865  1.00  0.00    -0.393 OA
ATOM     32  H   UNL     1     315.366 235.710 193.094  1.00  0.00     0.210 HD
ENDBRANCH  13  31
TORSDOF 2
ENDMDL
MODEL 9
REMARK VINA RESULT:    -5.602      2.662      8.112
REMARK INTER + INTRA:          -6.528
REMARK INTER:                  -6.054
REMARK INTRA:                  -0.475
REMARK UNBOUND:                -0.434
REMARK SMILES C=C(C)[C@H]1CC[C@]2(C)CC[C@@]3(C)[C@@H](CC[C@@H]4[C@@]5(C)CC[C@H](O)C(C)(C)[C@H]5CC[C@@]43C)[C@H]12
REMARK SMILES IDX 4 1 5 2 6 3 7 4 31 5 13 6 14 7 15 8 16 9 17 10 19 11 20 12
REMARK SMILES IDX 21 13 23 14 26 15 27 16 28 17 29 18 11 19 10 20 9 21 12 22
REMARK SMILES IDX 30 23 24 24 25 25 18 26 8 27 2 28 3 29 1 30 22 31
REMARK H PARENT 22 32
REMARK Flexibility Score: inf
ROOT
ATOM      1  C   UNL     1     310.667 233.102 203.233  1.00  0.00     0.018 C 
ATOM      2  C   UNL     1     310.042 234.210 204.085  1.00  0.00     0.009 C 
ATOM      3  C   UNL     1     310.922 235.428 203.865  1.00  0.00     0.008 C 
ATOM      4  C   UNL     1     312.343 234.879 203.673  1.00  0.00    -0.029 C 
ATOM      5  C   UNL     1     312.127 233.547 202.880  1.00  0.00     0.006 C 
ATOM      6  C   UNL     1     312.278 233.722 201.334  1.00  0.00    -0.000 C 
ATOM      7  C   UNL     1     312.140 232.410 200.577  1.00  0.00     0.005 C 
ATOM      8  C   UNL     1     311.790 232.705 199.119  1.00  0.00     0.005 C 
ATOM      9  C   UNL     1     312.331 234.070 198.520  1.00  0.00     0.002 C 
ATOM     10  C   UNL     1     312.294 233.990 196.912  1.00  0.00    -0.026 C 
ATOM     11  C   UNL     1     312.277 235.413 196.256  1.00  0.00     0.010 C 
ATOM     12  C   UNL     1     312.465 235.416 194.732  1.00  0.00     0.033 C 
ATOM     13  C   UNL     1     313.712 234.638 194.296  1.00  0.00     0.120 C 
ATOM     14  C   UNL     1     313.711 233.156 194.787  1.00  0.00    -0.006 C 
ATOM     15  C   UNL     1     313.493 233.095 196.368  1.00  0.00     0.003 C 
ATOM     16  C   UNL     1     314.829 233.336 197.138  1.00  0.00     0.005 C 
ATOM     17  C   UNL     1     314.731 233.405 198.674  1.00  0.00     0.008 C 
ATOM     18  C   UNL     1     313.711 234.459 199.213  1.00  0.00    -0.024 C 
ATOM     19  C   UNL     1     313.567 234.472 200.863  1.00  0.00    -0.024 C 
ATOM     20  C   UNL     1     313.356 235.909 201.464  1.00  0.00     0.008 C 
ATOM     21  C   UNL     1     313.262 235.947 202.998  1.00  0.00     0.007 C 
ATOM     22  C   UNL     1     314.851 233.866 201.518  1.00  0.00     0.012 C 
ATOM     23  C   UNL     1     314.271 235.851 198.784  1.00  0.00     0.012 C 
ATOM     24  C   UNL     1     315.073 232.513 194.385  1.00  0.00     0.014 C 
ATOM     25  C   UNL     1     312.637 232.318 194.030  1.00  0.00     0.014 C 
ATOM     26  C   UNL     1     310.913 233.356 196.513  1.00  0.00     0.012 C 
ATOM     27  C   UNL     1     312.951 234.576 205.070  1.00  0.00     0.011 C 
ENDROOT
BRANCH   1  28
ATOM     28  C   UNL     1     310.571 231.719 203.881  1.00  0.00    -0.077 C 
ATOM     29  C   UNL     1     310.340 230.471 203.056  1.00  0.00     0.039 C 
ATOM     30  C   UNL     1     310.772 231.591 205.205  1.00  0.00     0.008 C 
ENDBRANCH   1  28
BRANCH  13  31
ATOM     31  O   UNL     1     313.799 234.697 192.892  1.00  0.00    -0.393 OA
ATOM     32  H   UNL     1     313.753 233.764 192.553  1.00  0.00     0.210 HD
ENDBRANCH  13  31
TORSDOF 2
ENDMDL
