MODEL 1
REMARK VINA RESULT:    -5.390      0.000      0.000
REMARK INTER + INTRA:         -18.927
REMARK INTER:                 -14.214
REMARK INTRA:                  -4.713
REMARK UNBOUND:                -4.713
REMARK SMILES CCCCCCCCCCCCCCCCCCCCCCCCCCCCCC(=O)[O-]
REMARK SMILES IDX 16 1 17 2 18 3 19 4 20 5 21 6 22 7 23 8 24 9 25 10 26 11
REMARK SMILES IDX 27 12 28 13 29 14 30 15 31 16 32 17 15 18 14 19 13 20 12 21
REMARK SMILES IDX 11 22 10 23 9 24 8 25 7 26 6 27 5 28 4 29 3 30 2 31 1 32
REMARK H PARENT
REMARK Flexibility Score: inf
ROOT
ATOM      1  C   UNL     1      13.071 -29.207  23.817  1.00  0.00     0.000 C 
ENDROOT
BRANCH   1   2
ATOM      2  C   UNL     1      14.357 -28.423  23.484  1.00  0.00     0.000 C 
BRANCH   2   3
ATOM      3  C   UNL     1      14.809 -28.639  22.028  1.00  0.00     0.000 C 
BRANCH   3   4
ATOM      4  C   UNL     1      16.167 -29.354  21.927  1.00  0.00     0.000 C 
BRANCH   4   5
ATOM      5  C   UNL     1      16.472 -30.221  23.163  1.00  0.00     0.000 C 
BRANCH   5   6
ATOM      6  C   UNL     1      17.497 -31.326  22.866  1.00  0.00     0.000 C 
BRANCH   6   7
ATOM      7  C   UNL     1      17.851 -31.431  21.372  1.00  0.00     0.000 C 
BRANCH   7   8
ATOM      8  C   UNL     1      19.372 -31.439  21.146  1.00  0.00     0.000 C 
BRANCH   8   9
ATOM      9  C   UNL     1      20.071 -30.248  21.829  1.00  0.00     0.000 C 
BRANCH   9  10
ATOM     10  C   UNL     1      20.606 -29.221  20.816  1.00  0.00     0.000 C 
BRANCH  10  11
ATOM     11  C   UNL     1      19.559 -28.139  20.500  1.00  0.00     0.000 C 
BRANCH  11  12
ATOM     12  C   UNL     1      19.894 -26.770  21.121  1.00  0.00     0.000 C 
BRANCH  12  13
ATOM     13  C   UNL     1      20.576 -25.765  20.173  1.00  0.00     0.006 C 
BRANCH  13  14
ATOM     14  C   UNL     1      21.952 -25.295  20.672  1.00  0.00     0.053 C 
BRANCH  14  15
ATOM     15  C   UNL     1      23.032 -25.650  19.694  1.00  0.00     0.041 C 
ATOM     16  O   UNL     1      23.503 -26.819  19.661  1.00  0.00    -0.550 OA
ATOM     17  O   UNL     1      23.545 -24.677  18.842  1.00  0.00    -0.550 OA
ENDBRANCH  14  15
ENDBRANCH  13  14
ENDBRANCH  12  13
ENDBRANCH  11  12
ENDBRANCH  10  11
ENDBRANCH   9  10
ENDBRANCH   8   9
ENDBRANCH   7   8
ENDBRANCH   6   7
ENDBRANCH   5   6
ENDBRANCH   4   5
ENDBRANCH   3   4
ENDBRANCH   2   3
ENDBRANCH   1   2
BRANCH   1  18
ATOM     18  C   UNL     1      11.822 -28.646  23.107  1.00  0.00     0.000 C 
BRANCH  18  19
ATOM     19  C   UNL     1      11.193 -29.667  22.143  1.00  0.00     0.000 C 
BRANCH  19  20
ATOM     20  C   UNL     1      12.011 -30.972  22.039  1.00  0.00     0.000 C 
BRANCH  20  21
ATOM     21  C   UNL     1      12.537 -31.267  20.621  1.00  0.00     0.000 C 
BRANCH  21  22
ATOM     22  C   UNL     1      13.887 -32.005  20.567  1.00  0.00     0.000 C 
BRANCH  22  23
ATOM     23  C   UNL     1      14.235 -32.832  21.822  1.00  0.00     0.000 C 
BRANCH  23  24
ATOM     24  C   UNL     1      15.190 -34.016  21.584  1.00  0.00    -0.000 C 
BRANCH  24  25
ATOM     25  C   UNL     1      15.202 -34.495  20.120  1.00  0.00    -0.000 C 
BRANCH  25  26
ATOM     26  C   UNL     1      16.595 -34.964  19.666  1.00  0.00    -0.000 C 
BRANCH  26  27
ATOM     27  C   UNL     1      17.290 -35.850  20.716  1.00  0.00    -0.000 C 
BRANCH  27  28
ATOM     28  C   UNL     1      18.672 -35.312  21.130  1.00  0.00    -0.000 C 
BRANCH  28  29
ATOM     29  C   UNL     1      18.781 -34.865  22.602  1.00  0.00    -0.000 C 
BRANCH  29  30
ATOM     30  C   UNL     1      17.719 -35.520  23.505  1.00  0.00    -0.000 C 
BRANCH  30  31
ATOM     31  C   UNL     1      18.042 -35.367  25.000  1.00  0.00    -0.003 C 
ATOM     32  C   UNL     1      17.843 -33.939  25.504  1.00  0.00     0.004 C 
ENDBRANCH  30  31
ENDBRANCH  29  30
ENDBRANCH  28  29
ENDBRANCH  27  28
ENDBRANCH  26  27
ENDBRANCH  25  26
ENDBRANCH  24  25
ENDBRANCH  23  24
ENDBRANCH  22  23
ENDBRANCH  21  22
ENDBRANCH  20  21
ENDBRANCH  19  20
ENDBRANCH  18  19
ENDBRANCH   1  18
TORSDOF 28
ENDMDL
MODEL 2
REMARK VINA RESULT:    -5.313      1.257      2.042
REMARK INTER + INTRA:         -18.723
REMARK INTER:                 -13.621
REMARK INTRA:                  -5.101
REMARK UNBOUND:                -4.713
REMARK SMILES CCCCCCCCCCCCCCCCCCCCCCCCCCCCCC(=O)[O-]
REMARK SMILES IDX 16 1 17 2 18 3 19 4 20 5 21 6 22 7 23 8 24 9 25 10 26 11
REMARK SMILES IDX 27 12 28 13 29 14 30 15 31 16 32 17 15 18 14 19 13 20 12 21
REMARK SMILES IDX 11 22 10 23 9 24 8 25 7 26 6 27 5 28 4 29 3 30 2 31 1 32
REMARK H PARENT
REMARK Flexibility Score: inf
ROOT
ATOM      1  C   UNL     1      15.533 -30.157  23.262  1.00  0.00     0.000 C 
ENDROOT
BRANCH   1   2
ATOM      2  C   UNL     1      15.993 -29.396  22.002  1.00  0.00     0.000 C 
BRANCH   2   3
ATOM      3  C   UNL     1      17.375 -29.866  21.512  1.00  0.00     0.000 C 
BRANCH   3   4
ATOM      4  C   UNL     1      17.343 -31.282  20.912  1.00  0.00     0.000 C 
BRANCH   4   5
ATOM      5  C   UNL     1      18.752 -31.869  20.706  1.00  0.00     0.000 C 
BRANCH   5   6
ATOM      6  C   UNL     1      19.039 -33.052  21.644  1.00  0.00     0.000 C 
BRANCH   6   7
ATOM      7  C   UNL     1      20.256 -32.813  22.555  1.00  0.00     0.000 C 
BRANCH   7   8
ATOM      8  C   UNL     1      20.362 -31.342  22.991  1.00  0.00     0.000 C 
BRANCH   8   9
ATOM      9  C   UNL     1      21.713 -30.713  22.603  1.00  0.00     0.000 C 
BRANCH   9  10
ATOM     10  C   UNL     1      21.600 -29.204  22.326  1.00  0.00     0.000 C 
BRANCH  10  11
ATOM     11  C   UNL     1      20.969 -28.926  20.951  1.00  0.00     0.000 C 
BRANCH  11  12
ATOM     12  C   UNL     1      20.588 -27.448  20.744  1.00  0.00     0.000 C 
BRANCH  12  13
ATOM     13  C   UNL     1      21.307 -26.446  21.666  1.00  0.00     0.006 C 
BRANCH  13  14
ATOM     14  C   UNL     1      22.194 -25.446  20.904  1.00  0.00     0.053 C 
BRANCH  14  15
ATOM     15  C   UNL     1      23.218 -26.157  20.072  1.00  0.00     0.041 C 
ATOM     16  O   UNL     1      23.329 -25.904  18.843  1.00  0.00    -0.550 OA
ATOM     17  O   UNL     1      24.028 -27.131  20.650  1.00  0.00    -0.550 OA
ENDBRANCH  14  15
ENDBRANCH  13  14
ENDBRANCH  12  13
ENDBRANCH  11  12
ENDBRANCH  10  11
ENDBRANCH   9  10
ENDBRANCH   8   9
ENDBRANCH   7   8
ENDBRANCH   6   7
ENDBRANCH   5   6
ENDBRANCH   4   5
ENDBRANCH   3   4
ENDBRANCH   2   3
ENDBRANCH   1   2
BRANCH   1  18
ATOM     18  C   UNL     1      14.022 -30.016  23.534  1.00  0.00     0.000 C 
BRANCH  18  19
ATOM     19  C   UNL     1      13.225 -31.235  23.035  1.00  0.00     0.000 C 
BRANCH  19  20
ATOM     20  C   UNL     1      12.608 -31.012  21.637  1.00  0.00     0.000 C 
BRANCH  20  21
ATOM     21  C   UNL     1      13.312 -31.795  20.513  1.00  0.00     0.000 C 
BRANCH  21  22
ATOM     22  C   UNL     1      14.244 -32.925  20.990  1.00  0.00     0.000 C 
BRANCH  22  23
ATOM     23  C   UNL     1      14.736 -33.882  19.883  1.00  0.00     0.000 C 
BRANCH  23  24
ATOM     24  C   UNL     1      15.745 -34.951  20.340  1.00  0.00    -0.000 C 
BRANCH  24  25
ATOM     25  C   UNL     1      16.851 -35.216  19.303  1.00  0.00    -0.000 C 
BRANCH  25  26
ATOM     26  C   UNL     1      17.982 -36.098  19.861  1.00  0.00    -0.000 C 
BRANCH  26  27
ATOM     27  C   UNL     1      17.727 -36.531  21.317  1.00  0.00    -0.000 C 
BRANCH  27  28
ATOM     28  C   UNL     1      19.028 -36.765  22.106  1.00  0.00    -0.000 C 
BRANCH  28  29
ATOM     29  C   UNL     1      19.037 -36.180  23.532  1.00  0.00    -0.000 C 
BRANCH  29  30
ATOM     30  C   UNL     1      17.622 -35.907  24.075  1.00  0.00    -0.000 C 
BRANCH  30  31
ATOM     31  C   UNL     1      17.418 -34.436  24.473  1.00  0.00    -0.003 C 
ATOM     32  C   UNL     1      16.063 -33.887  24.029  1.00  0.00     0.004 C 
ENDBRANCH  30  31
ENDBRANCH  29  30
ENDBRANCH  28  29
ENDBRANCH  27  28
ENDBRANCH  26  27
ENDBRANCH  25  26
ENDBRANCH  24  25
ENDBRANCH  23  24
ENDBRANCH  22  23
ENDBRANCH  21  22
ENDBRANCH  20  21
ENDBRANCH  19  20
ENDBRANCH  18  19
ENDBRANCH   1  18
TORSDOF 28
ENDMDL
MODEL 3
REMARK VINA RESULT:    -5.269      1.703      4.169
REMARK INTER + INTRA:         -18.608
REMARK INTER:                 -12.895
REMARK INTRA:                  -5.713
REMARK UNBOUND:                -4.713
REMARK SMILES CCCCCCCCCCCCCCCCCCCCCCCCCCCCCC(=O)[O-]
REMARK SMILES IDX 16 1 17 2 18 3 19 4 20 5 21 6 22 7 23 8 24 9 25 10 26 11
REMARK SMILES IDX 27 12 28 13 29 14 30 15 31 16 32 17 15 18 14 19 13 20 12 21
REMARK SMILES IDX 11 22 10 23 9 24 8 25 7 26 6 27 5 28 4 29 3 30 2 31 1 32
REMARK H PARENT
REMARK Flexibility Score: inf
ROOT
ATOM      1  C   UNL     1      14.970 -33.625  22.971  1.00  0.00     0.000 C 
ENDROOT
BRANCH   1   2
ATOM      2  C   UNL     1      14.413 -32.463  23.817  1.00  0.00     0.000 C 
BRANCH   2   3
ATOM      3  C   UNL     1      13.734 -31.386  22.950  1.00  0.00     0.000 C 
BRANCH   3   4
ATOM      4  C   UNL     1      14.390 -30.003  23.098  1.00  0.00     0.000 C 
BRANCH   4   5
ATOM      5  C   UNL     1      15.922 -30.088  23.239  1.00  0.00     0.000 C 
BRANCH   5   6
ATOM      6  C   UNL     1      16.656 -29.586  21.985  1.00  0.00     0.000 C 
BRANCH   6   7
ATOM      7  C   UNL     1      17.201 -30.729  21.112  1.00  0.00     0.000 C 
BRANCH   7   8
ATOM      8  C   UNL     1      17.834 -31.844  21.961  1.00  0.00     0.000 C 
BRANCH   8   9
ATOM      9  C   UNL     1      19.119 -32.405  21.324  1.00  0.00     0.000 C 
BRANCH   9  10
ATOM     10  C   UNL     1      20.323 -32.346  22.280  1.00  0.00     0.000 C 
BRANCH  10  11
ATOM     11  C   UNL     1      20.651 -30.899  22.687  1.00  0.00     0.000 C 
BRANCH  11  12
ATOM     12  C   UNL     1      21.258 -30.069  21.540  1.00  0.00     0.000 C 
BRANCH  12  13
ATOM     13  C   UNL     1      21.246 -28.543  21.753  1.00  0.00     0.006 C 
BRANCH  13  14
ATOM     14  C   UNL     1      20.286 -27.804  20.805  1.00  0.00     0.053 C 
BRANCH  14  15
ATOM     15  C   UNL     1      20.879 -26.507  20.340  1.00  0.00     0.041 C 
ATOM     16  O   UNL     1      20.143 -25.503  20.147  1.00  0.00    -0.550 OA
ATOM     17  O   UNL     1      22.243 -26.420  20.082  1.00  0.00    -0.550 OA
ENDBRANCH  14  15
ENDBRANCH  13  14
ENDBRANCH  12  13
ENDBRANCH  11  12
ENDBRANCH  10  11
ENDBRANCH   9  10
ENDBRANCH   8   9
ENDBRANCH   7   8
ENDBRANCH   6   7
ENDBRANCH   5   6
ENDBRANCH   4   5
ENDBRANCH   3   4
ENDBRANCH   2   3
ENDBRANCH   1   2
BRANCH   1  18
ATOM     18  C   UNL     1      14.682 -33.468  21.465  1.00  0.00     0.000 C 
BRANCH  18  19
ATOM     19  C   UNL     1      15.228 -34.647  20.641  1.00  0.00     0.000 C 
BRANCH  19  20
ATOM     20  C   UNL     1      16.237 -34.203  19.560  1.00  0.00     0.000 C 
BRANCH  20  21
ATOM     21  C   UNL     1      17.397 -35.194  19.345  1.00  0.00     0.000 C 
BRANCH  21  22
ATOM     22  C   UNL     1      17.091 -36.651  19.738  1.00  0.00     0.000 C 
BRANCH  22  23
ATOM     23  C   UNL     1      17.956 -37.217  20.885  1.00  0.00     0.000 C 
BRANCH  23  24
ATOM     24  C   UNL     1      18.726 -36.167  21.706  1.00  0.00    -0.000 C 
BRANCH  24  25
ATOM     25  C   UNL     1      17.954 -35.695  22.952  1.00  0.00    -0.000 C 
BRANCH  25  26
ATOM     26  C   UNL     1      18.587 -36.198  24.262  1.00  0.00    -0.000 C 
BRANCH  26  27
ATOM     27  C   UNL     1      18.257 -35.291  25.462  1.00  0.00    -0.000 C 
BRANCH  27  28
ATOM     28  C   UNL     1      18.832 -33.871  25.312  1.00  0.00    -0.000 C 
BRANCH  28  29
ATOM     29  C   UNL     1      17.798 -32.735  25.438  1.00  0.00    -0.000 C 
BRANCH  29  30
ATOM     30  C   UNL     1      18.450 -31.345  25.562  1.00  0.00    -0.000 C 
BRANCH  30  31
ATOM     31  C   UNL     1      19.515 -31.290  26.670  1.00  0.00    -0.003 C 
ATOM     32  C   UNL     1      19.533 -29.952  27.406  1.00  0.00     0.004 C 
ENDBRANCH  30  31
ENDBRANCH  29  30
ENDBRANCH  28  29
ENDBRANCH  27  28
ENDBRANCH  26  27
ENDBRANCH  25  26
ENDBRANCH  24  25
ENDBRANCH  23  24
ENDBRANCH  22  23
ENDBRANCH  21  22
ENDBRANCH  20  21
ENDBRANCH  19  20
ENDBRANCH  18  19
ENDBRANCH   1  18
TORSDOF 28
ENDMDL
MODEL 4
REMARK VINA RESULT:    -5.241      1.380      2.929
REMARK INTER + INTRA:         -18.533
REMARK INTER:                 -13.367
REMARK INTRA:                  -5.166
REMARK UNBOUND:                -4.713
REMARK SMILES CCCCCCCCCCCCCCCCCCCCCCCCCCCCCC(=O)[O-]
REMARK SMILES IDX 16 1 17 2 18 3 19 4 20 5 21 6 22 7 23 8 24 9 25 10 26 11
REMARK SMILES IDX 27 12 28 13 29 14 30 15 31 16 32 17 15 18 14 19 13 20 12 21
REMARK SMILES IDX 11 22 10 23 9 24 8 25 7 26 6 27 5 28 4 29 3 30 2 31 1 32
REMARK H PARENT
REMARK Flexibility Score: inf
ROOT
ATOM      1  C   UNL     1      14.060 -30.343  21.950  1.00  0.00     0.000 C 
ENDROOT
BRANCH   1   2
ATOM      2  C   UNL     1      14.769 -30.786  23.246  1.00  0.00     0.000 C 
BRANCH   2   3
ATOM      3  C   UNL     1      16.283 -30.509  23.204  1.00  0.00     0.000 C 
BRANCH   3   4
ATOM      4  C   UNL     1      16.720 -29.794  21.913  1.00  0.00     0.000 C 
BRANCH   4   5
ATOM      5  C   UNL     1      17.498 -30.720  20.959  1.00  0.00     0.000 C 
BRANCH   5   6
ATOM      6  C   UNL     1      17.946 -32.022  21.640  1.00  0.00     0.000 C 
BRANCH   6   7
ATOM      7  C   UNL     1      19.440 -32.326  21.429  1.00  0.00     0.000 C 
BRANCH   7   8
ATOM      8  C   UNL     1      20.249 -32.137  22.723  1.00  0.00     0.000 C 
BRANCH   8   9
ATOM      9  C   UNL     1      21.434 -31.171  22.535  1.00  0.00     0.000 C 
BRANCH   9  10
ATOM     10  C   UNL     1      20.986 -29.702  22.435  1.00  0.00     0.000 C 
BRANCH  10  11
ATOM     11  C   UNL     1      20.961 -29.218  20.975  1.00  0.00     0.000 C 
BRANCH  11  12
ATOM     12  C   UNL     1      20.012 -28.027  20.745  1.00  0.00     0.000 C 
BRANCH  12  13
ATOM     13  C   UNL     1      20.547 -26.658  21.207  1.00  0.00     0.006 C 
BRANCH  13  14
ATOM     14  C   UNL     1      20.934 -25.731  20.042  1.00  0.00     0.053 C 
BRANCH  14  15
ATOM     15  C   UNL     1      22.424 -25.630  19.904  1.00  0.00     0.041 C 
ATOM     16  O   UNL     1      22.994 -24.507  19.949  1.00  0.00    -0.550 OA
ATOM     17  O   UNL     1      23.180 -26.777  19.686  1.00  0.00    -0.550 OA
ENDBRANCH  14  15
ENDBRANCH  13  14
ENDBRANCH  12  13
ENDBRANCH  11  12
ENDBRANCH  10  11
ENDBRANCH   9  10
ENDBRANCH   8   9
ENDBRANCH   7   8
ENDBRANCH   6   7
ENDBRANCH   5   6
ENDBRANCH   4   5
ENDBRANCH   3   4
ENDBRANCH   2   3
ENDBRANCH   1   2
BRANCH   1  18
ATOM     18  C   UNL     1      13.507 -31.526  21.131  1.00  0.00     0.000 C 
BRANCH  18  19
ATOM     19  C   UNL     1      14.294 -32.825  21.379  1.00  0.00     0.000 C 
BRANCH  19  20
ATOM     20  C   UNL     1      14.556 -33.621  20.082  1.00  0.00     0.000 C 
BRANCH  20  21
ATOM     21  C   UNL     1      15.667 -34.680  20.215  1.00  0.00     0.000 C 
BRANCH  21  22
ATOM     22  C   UNL     1      16.759 -34.619  19.131  1.00  0.00     0.000 C 
BRANCH  22  23
ATOM     23  C   UNL     1      18.021 -35.459  19.421  1.00  0.00     0.000 C 
BRANCH  23  24
ATOM     24  C   UNL     1      18.390 -35.597  20.909  1.00  0.00    -0.000 C 
BRANCH  24  25
ATOM     25  C   UNL     1      18.267 -37.042  21.429  1.00  0.00    -0.000 C 
BRANCH  25  26
ATOM     26  C   UNL     1      19.129 -37.292  22.679  1.00  0.00    -0.000 C 
BRANCH  26  27
ATOM     27  C   UNL     1      20.379 -36.394  22.723  1.00  0.00    -0.000 C 
BRANCH  27  28
ATOM     28  C   UNL     1      20.477 -35.571  24.020  1.00  0.00    -0.000 C 
BRANCH  28  29
ATOM     29  C   UNL     1      19.362 -35.845  25.049  1.00  0.00    -0.000 C 
BRANCH  29  30
ATOM     30  C   UNL     1      18.495 -34.604  25.334  1.00  0.00    -0.000 C 
BRANCH  30  31
ATOM     31  C   UNL     1      16.991 -34.895  25.211  1.00  0.00    -0.003 C 
ATOM     32  C   UNL     1      16.410 -34.445  23.872  1.00  0.00     0.004 C 
ENDBRANCH  30  31
ENDBRANCH  29  30
ENDBRANCH  28  29
ENDBRANCH  27  28
ENDBRANCH  26  27
ENDBRANCH  25  26
ENDBRANCH  24  25
ENDBRANCH  23  24
ENDBRANCH  22  23
ENDBRANCH  21  22
ENDBRANCH  20  21
ENDBRANCH  19  20
ENDBRANCH  18  19
ENDBRANCH   1  18
TORSDOF 28
ENDMDL
MODEL 5
REMARK VINA RESULT:    -5.176      1.248      5.858
REMARK INTER + INTRA:         -18.361
REMARK INTER:                 -14.342
REMARK INTRA:                  -4.019
REMARK UNBOUND:                -4.713
REMARK SMILES CCCCCCCCCCCCCCCCCCCCCCCCCCCCCC(=O)[O-]
REMARK SMILES IDX 16 1 17 2 18 3 19 4 20 5 21 6 22 7 23 8 24 9 25 10 26 11
REMARK SMILES IDX 27 12 28 13 29 14 30 15 31 16 32 17 15 18 14 19 13 20 12 21
REMARK SMILES IDX 11 22 10 23 9 24 8 25 7 26 6 27 5 28 4 29 3 30 2 31 1 32
REMARK H PARENT
REMARK Flexibility Score: inf
ROOT
ATOM      1  C   UNL     1      17.349 -36.653  19.563  1.00  0.00     0.000 C 
ENDROOT
BRANCH   1   2
ATOM      2  C   UNL     1      16.131 -35.744  19.827  1.00  0.00     0.000 C 
BRANCH   2   3
ATOM      3  C   UNL     1      16.348 -34.314  19.298  1.00  0.00     0.000 C 
BRANCH   3   4
ATOM      4  C   UNL     1      17.834 -33.980  19.083  1.00  0.00     0.000 C 
BRANCH   4   5
ATOM      5  C   UNL     1      18.445 -33.216  20.273  1.00  0.00     0.000 C 
BRANCH   5   6
ATOM      6  C   UNL     1      17.661 -31.940  20.618  1.00  0.00     0.000 C 
BRANCH   6   7
ATOM      7  C   UNL     1      18.359 -31.078  21.684  1.00  0.00     0.000 C 
BRANCH   7   8
ATOM      8  C   UNL     1      19.891 -31.182  21.589  1.00  0.00     0.000 C 
BRANCH   8   9
ATOM      9  C   UNL     1      20.587 -29.842  21.892  1.00  0.00     0.000 C 
BRANCH   9  10
ATOM     10  C   UNL     1      20.733 -28.959  20.640  1.00  0.00     0.000 C 
BRANCH  10  11
ATOM     11  C   UNL     1      19.870 -27.689  20.741  1.00  0.00     0.000 C 
BRANCH  11  12
ATOM     12  C   UNL     1      20.695 -26.389  20.698  1.00  0.00     0.000 C 
BRANCH  12  13
ATOM     13  C   UNL     1      22.145 -26.511  21.204  1.00  0.00     0.006 C 
BRANCH  13  14
ATOM     14  C   UNL     1      22.874 -25.160  21.294  1.00  0.00     0.053 C 
BRANCH  14  15
ATOM     15  C   UNL     1      23.445 -24.764  19.965  1.00  0.00     0.041 C 
ATOM     16  O   UNL     1      24.005 -23.644  19.820  1.00  0.00    -0.550 OA
ATOM     17  O   UNL     1      23.323 -25.619  18.874  1.00  0.00    -0.550 OA
ENDBRANCH  14  15
ENDBRANCH  13  14
ENDBRANCH  12  13
ENDBRANCH  11  12
ENDBRANCH  10  11
ENDBRANCH   9  10
ENDBRANCH   8   9
ENDBRANCH   7   8
ENDBRANCH   6   7
ENDBRANCH   5   6
ENDBRANCH   4   5
ENDBRANCH   3   4
ENDBRANCH   2   3
ENDBRANCH   1   2
BRANCH   1  18
ATOM     18  C   UNL     1      17.850 -37.374  20.831  1.00  0.00     0.000 C 
BRANCH  18  19
ATOM     19  C   UNL     1      18.753 -36.475  21.694  1.00  0.00     0.000 C 
BRANCH  19  20
ATOM     20  C   UNL     1      18.040 -35.953  22.960  1.00  0.00     0.000 C 
BRANCH  20  21
ATOM     21  C   UNL     1      18.613 -34.628  23.497  1.00  0.00     0.000 C 
BRANCH  21  22
ATOM     22  C   UNL     1      17.594 -33.714  24.201  1.00  0.00     0.000 C 
BRANCH  22  23
ATOM     23  C   UNL     1      16.282 -34.402  24.634  1.00  0.00     0.000 C 
BRANCH  23  24
ATOM     24  C   UNL     1      14.991 -33.683  24.204  1.00  0.00    -0.000 C 
BRANCH  24  25
ATOM     25  C   UNL     1      14.919 -33.432  22.686  1.00  0.00    -0.000 C 
BRANCH  25  26
ATOM     26  C   UNL     1      14.553 -31.976  22.347  1.00  0.00    -0.000 C 
BRANCH  26  27
ATOM     27  C   UNL     1      14.691 -31.036  23.560  1.00  0.00    -0.000 C 
BRANCH  27  28
ATOM     28  C   UNL     1      14.581 -29.549  23.177  1.00  0.00    -0.000 C 
BRANCH  28  29
ATOM     29  C   UNL     1      13.418 -28.790  23.847  1.00  0.00    -0.000 C 
BRANCH  29  30
ATOM     30  C   UNL     1      12.237 -28.543  22.889  1.00  0.00    -0.000 C 
BRANCH  30  31
ATOM     31  C   UNL     1      11.207 -29.684  22.916  1.00  0.00    -0.003 C 
ATOM     32  C   UNL     1      11.093 -30.406  21.574  1.00  0.00     0.004 C 
ENDBRANCH  30  31
ENDBRANCH  29  30
ENDBRANCH  28  29
ENDBRANCH  27  28
ENDBRANCH  26  27
ENDBRANCH  25  26
ENDBRANCH  24  25
ENDBRANCH  23  24
ENDBRANCH  22  23
ENDBRANCH  21  22
ENDBRANCH  20  21
ENDBRANCH  19  20
ENDBRANCH  18  19
ENDBRANCH   1  18
TORSDOF 28
ENDMDL
MODEL 6
REMARK VINA RESULT:    -5.166      1.506      5.163
REMARK INTER + INTRA:         -18.335
REMARK INTER:                 -13.556
REMARK INTRA:                  -4.778
REMARK UNBOUND:                -4.713
REMARK SMILES CCCCCCCCCCCCCCCCCCCCCCCCCCCCCC(=O)[O-]
REMARK SMILES IDX 16 1 17 2 18 3 19 4 20 5 21 6 22 7 23 8 24 9 25 10 26 11
REMARK SMILES IDX 27 12 28 13 29 14 30 15 31 16 32 17 15 18 14 19 13 20 12 21
REMARK SMILES IDX 11 22 10 23 9 24 8 25 7 26 6 27 5 28 4 29 3 30 2 31 1 32
REMARK H PARENT
REMARK Flexibility Score: inf
ROOT
ATOM      1  C   UNL     1      15.125 -33.735  23.475  1.00  0.00     0.000 C 
ENDROOT
BRANCH   1   2
ATOM      2  C   UNL     1      16.575 -33.978  23.941  1.00  0.00     0.000 C 
BRANCH   2   3
ATOM      3  C   UNL     1      17.193 -32.727  24.593  1.00  0.00     0.000 C 
BRANCH   3   4
ATOM      4  C   UNL     1      18.558 -33.009  25.244  1.00  0.00     0.000 C 
BRANCH   4   5
ATOM      5  C   UNL     1      19.392 -34.030  24.448  1.00  0.00     0.000 C 
BRANCH   5   6
ATOM      6  C   UNL     1      20.689 -33.423  23.891  1.00  0.00     0.000 C 
BRANCH   6   7
ATOM      7  C   UNL     1      20.912 -31.968  24.342  1.00  0.00     0.000 C 
BRANCH   7   8
ATOM      8  C   UNL     1      20.915 -30.996  23.151  1.00  0.00     0.000 C 
BRANCH   8   9
ATOM      9  C   UNL     1      22.042 -29.950  23.254  1.00  0.00     0.000 C 
BRANCH   9  10
ATOM     10  C   UNL     1      21.821 -28.754  22.312  1.00  0.00     0.000 C 
BRANCH  10  11
ATOM     11  C   UNL     1      20.926 -29.132  21.119  1.00  0.00     0.000 C 
BRANCH  11  12
ATOM     12  C   UNL     1      19.948 -28.012  20.715  1.00  0.00     0.000 C 
BRANCH  12  13
ATOM     13  C   UNL     1      20.346 -26.594  21.166  1.00  0.00     0.006 C 
BRANCH  13  14
ATOM     14  C   UNL     1      20.841 -25.705  20.014  1.00  0.00     0.053 C 
BRANCH  14  15
ATOM     15  C   UNL     1      22.338 -25.624  19.999  1.00  0.00     0.041 C 
ATOM     16  O   UNL     1      23.029 -26.635  19.699  1.00  0.00    -0.550 OA
ATOM     17  O   UNL     1      22.973 -24.438  20.355  1.00  0.00    -0.550 OA
ENDBRANCH  14  15
ENDBRANCH  13  14
ENDBRANCH  12  13
ENDBRANCH  11  12
ENDBRANCH  10  11
ENDBRANCH   9  10
ENDBRANCH   8   9
ENDBRANCH   7   8
ENDBRANCH   6   7
ENDBRANCH   5   6
ENDBRANCH   4   5
ENDBRANCH   3   4
ENDBRANCH   2   3
ENDBRANCH   1   2
BRANCH   1  18
ATOM     18  C   UNL     1      14.986 -33.682  21.941  1.00  0.00     0.000 C 
BRANCH  18  19
ATOM     19  C   UNL     1      15.793 -34.791  21.244  1.00  0.00     0.000 C 
BRANCH  19  20
ATOM     20  C   UNL     1      15.968 -34.540  19.730  1.00  0.00     0.000 C 
BRANCH  20  21
ATOM     21  C   UNL     1      17.344 -33.962  19.349  1.00  0.00     0.000 C 
BRANCH  21  22
ATOM     22  C   UNL     1      18.363 -33.887  20.502  1.00  0.00     0.000 C 
BRANCH  22  23
ATOM     23  C   UNL     1      18.493 -32.504  21.175  1.00  0.00     0.000 C 
BRANCH  23  24
ATOM     24  C   UNL     1      17.680 -31.375  20.517  1.00  0.00    -0.000 C 
BRANCH  24  25
ATOM     25  C   UNL     1      17.322 -30.242  21.497  1.00  0.00    -0.000 C 
BRANCH  25  26
ATOM     26  C   UNL     1      15.811 -30.159  21.775  1.00  0.00    -0.000 C 
BRANCH  26  27
ATOM     27  C   UNL     1      15.496 -29.978  23.271  1.00  0.00    -0.000 C 
BRANCH  27  28
ATOM     28  C   UNL     1      14.034 -30.313  23.618  1.00  0.00    -0.000 C 
BRANCH  28  29
ATOM     29  C   UNL     1      12.994 -29.825  22.590  1.00  0.00    -0.000 C 
BRANCH  29  30
ATOM     30  C   UNL     1      12.195 -28.605  23.082  1.00  0.00    -0.000 C 
BRANCH  30  31
ATOM     31  C   UNL     1      12.506 -28.246  24.544  1.00  0.00    -0.003 C 
ATOM     32  C   UNL     1      13.302 -26.949  24.678  1.00  0.00     0.004 C 
ENDBRANCH  30  31
ENDBRANCH  29  30
ENDBRANCH  28  29
ENDBRANCH  27  28
ENDBRANCH  26  27
ENDBRANCH  25  26
ENDBRANCH  24  25
ENDBRANCH  23  24
ENDBRANCH  22  23
ENDBRANCH  21  22
ENDBRANCH  20  21
ENDBRANCH  19  20
ENDBRANCH  18  19
ENDBRANCH   1  18
TORSDOF 28
ENDMDL
MODEL 7
REMARK VINA RESULT:    -5.152      3.699      5.941
REMARK INTER + INTRA:         -18.297
REMARK INTER:                 -12.687
REMARK INTRA:                  -5.610
REMARK UNBOUND:                -4.713
REMARK SMILES CCCCCCCCCCCCCCCCCCCCCCCCCCCCCC(=O)[O-]
REMARK SMILES IDX 16 1 17 2 18 3 19 4 20 5 21 6 22 7 23 8 24 9 25 10 26 11
REMARK SMILES IDX 27 12 28 13 29 14 30 15 31 16 32 17 15 18 14 19 13 20 12 21
REMARK SMILES IDX 11 22 10 23 9 24 8 25 7 26 6 27 5 28 4 29 3 30 2 31 1 32
REMARK H PARENT
REMARK Flexibility Score: inf
ROOT
ATOM      1  C   UNL     1      18.075 -33.508  25.608  1.00  0.00     0.000 C 
ENDROOT
BRANCH   1   2
ATOM      2  C   UNL     1      19.351 -32.645  25.544  1.00  0.00     0.000 C 
BRANCH   2   3
ATOM      3  C   UNL     1      19.595 -32.072  24.135  1.00  0.00     0.000 C 
BRANCH   3   4
ATOM      4  C   UNL     1      20.803 -32.715  23.434  1.00  0.00     0.000 C 
BRANCH   4   5
ATOM      5  C   UNL     1      21.730 -31.673  22.779  1.00  0.00     0.000 C 
BRANCH   5   6
ATOM      6  C   UNL     1      21.124 -30.261  22.786  1.00  0.00     0.000 C 
BRANCH   6   7
ATOM      7  C   UNL     1      20.679 -29.794  21.389  1.00  0.00     0.000 C 
BRANCH   7   8
ATOM      8  C   UNL     1      19.147 -29.785  21.252  1.00  0.00     0.000 C 
BRANCH   8   9
ATOM      9  C   UNL     1      18.590 -31.163  20.847  1.00  0.00     0.000 C 
BRANCH   9  10
ATOM     10  C   UNL     1      17.094 -31.312  21.177  1.00  0.00     0.000 C 
BRANCH  10  11
ATOM     11  C   UNL     1      16.645 -30.291  22.237  1.00  0.00     0.000 C 
BRANCH  11  12
ATOM     12  C   UNL     1      15.361 -29.535  21.847  1.00  0.00     0.000 C 
BRANCH  12  13
ATOM     13  C   UNL     1      14.043 -30.211  22.271  1.00  0.00     0.006 C 
BRANCH  13  14
ATOM     14  C   UNL     1      13.700 -29.997  23.755  1.00  0.00     0.053 C 
BRANCH  14  15
ATOM     15  C   UNL     1      12.676 -28.914  23.922  1.00  0.00     0.041 C 
ATOM     16  O   UNL     1      11.743 -28.784  23.085  1.00  0.00    -0.550 OA
ATOM     17  O   UNL     1      12.776 -28.021  24.984  1.00  0.00    -0.550 OA
ENDBRANCH  14  15
ENDBRANCH  13  14
ENDBRANCH  12  13
ENDBRANCH  11  12
ENDBRANCH  10  11
ENDBRANCH   9  10
ENDBRANCH   8   9
ENDBRANCH   7   8
ENDBRANCH   6   7
ENDBRANCH   5   6
ENDBRANCH   4   5
ENDBRANCH   3   4
ENDBRANCH   2   3
ENDBRANCH   1   2
BRANCH   1  18
ATOM     18  C   UNL     1      17.239 -33.446  24.314  1.00  0.00     0.000 C 
BRANCH  18  19
ATOM     19  C   UNL     1      15.743 -33.697  24.575  1.00  0.00     0.000 C 
BRANCH  19  20
ATOM     20  C   UNL     1      14.885 -33.569  23.297  1.00  0.00     0.000 C 
BRANCH  20  21
ATOM     21  C   UNL     1      15.431 -34.367  22.098  1.00  0.00     0.000 C 
BRANCH  21  22
ATOM     22  C   UNL     1      14.851 -33.965  20.729  1.00  0.00     0.000 C 
BRANCH  22  23
ATOM     23  C   UNL     1      15.724 -34.335  19.511  1.00  0.00     0.000 C 
BRANCH  23  24
ATOM     24  C   UNL     1      16.690 -35.514  19.730  1.00  0.00    -0.000 C 
BRANCH  24  25
ATOM     25  C   UNL     1      18.171 -35.100  19.658  1.00  0.00    -0.000 C 
BRANCH  25  26
ATOM     26  C   UNL     1      18.794 -34.899  21.050  1.00  0.00    -0.000 C 
BRANCH  26  27
ATOM     27  C   UNL     1      18.535 -36.092  21.989  1.00  0.00    -0.000 C 
BRANCH  27  28
ATOM     28  C   UNL     1      19.485 -36.115  23.200  1.00  0.00    -0.000 C 
BRANCH  28  29
ATOM     29  C   UNL     1      19.387 -37.378  24.079  1.00  0.00    -0.000 C 
BRANCH  29  30
ATOM     30  C   UNL     1      19.230 -37.053  25.576  1.00  0.00    -0.000 C 
BRANCH  30  31
ATOM     31  C   UNL     1      18.056 -37.804  26.223  1.00  0.00    -0.003 C 
ATOM     32  C   UNL     1      16.851 -36.902  26.487  1.00  0.00     0.004 C 
ENDBRANCH  30  31
ENDBRANCH  29  30
ENDBRANCH  28  29
ENDBRANCH  27  28
ENDBRANCH  26  27
ENDBRANCH  25  26
ENDBRANCH  24  25
ENDBRANCH  23  24
ENDBRANCH  22  23
ENDBRANCH  21  22
ENDBRANCH  20  21
ENDBRANCH  19  20
ENDBRANCH  18  19
ENDBRANCH   1  18
TORSDOF 28
ENDMDL
MODEL 8
REMARK VINA RESULT:    -5.072      3.397      5.868
REMARK INTER + INTRA:         -18.088
REMARK INTER:                 -12.463
REMARK INTRA:                  -5.625
REMARK UNBOUND:                -4.713
REMARK SMILES CCCCCCCCCCCCCCCCCCCCCCCCCCCCCC(=O)[O-]
REMARK SMILES IDX 16 1 17 2 18 3 19 4 20 5 21 6 22 7 23 8 24 9 25 10 26 11
REMARK SMILES IDX 27 12 28 13 29 14 30 15 31 16 32 17 15 18 14 19 13 20 12 21
REMARK SMILES IDX 11 22 10 23 9 24 8 25 7 26 6 27 5 28 4 29 3 30 2 31 1 32
REMARK H PARENT
REMARK Flexibility Score: inf
ROOT
ATOM      1  C   UNL     1      14.668 -33.324  24.235  1.00  0.00     0.000 C 
ENDROOT
BRANCH   1   2
ATOM      2  C   UNL     1      15.388 -34.030  23.068  1.00  0.00     0.000 C 
BRANCH   2   3
ATOM      3  C   UNL     1      16.720 -34.667  23.506  1.00  0.00     0.000 C 
BRANCH   3   4
ATOM      4  C   UNL     1      17.274 -34.051  24.802  1.00  0.00     0.000 C 
BRANCH   4   5
ATOM      5  C   UNL     1      18.144 -35.040  25.601  1.00  0.00     0.000 C 
BRANCH   5   6
ATOM      6  C   UNL     1      17.465 -36.406  25.783  1.00  0.00     0.000 C 
BRANCH   6   7
ATOM      7  C   UNL     1      18.426 -37.587  25.561  1.00  0.00     0.000 C 
BRANCH   7   8
ATOM      8  C   UNL     1      19.039 -37.567  24.151  1.00  0.00     0.000 C 
BRANCH   8   9
ATOM      9  C   UNL     1      20.576 -37.467  24.184  1.00  0.00     0.000 C 
BRANCH   9  10
ATOM     10  C   UNL     1      21.148 -36.791  22.926  1.00  0.00     0.000 C 
BRANCH  10  11
ATOM     11  C   UNL     1      20.464 -35.441  22.649  1.00  0.00     0.000 C 
BRANCH  11  12
ATOM     12  C   UNL     1      21.104 -34.267  23.413  1.00  0.00     0.000 C 
BRANCH  12  13
ATOM     13  C   UNL     1      20.650 -32.864  22.967  1.00  0.00     0.006 C 
BRANCH  13  14
ATOM     14  C   UNL     1      21.766 -31.808  23.049  1.00  0.00     0.053 C 
BRANCH  14  15
ATOM     15  C   UNL     1      22.155 -31.543  24.472  1.00  0.00     0.041 C 
ATOM     16  O   UNL     1      21.416 -30.843  25.216  1.00  0.00    -0.550 OA
ATOM     17  O   UNL     1      23.357 -32.039  24.968  1.00  0.00    -0.550 OA
ENDBRANCH  14  15
ENDBRANCH  13  14
ENDBRANCH  12  13
ENDBRANCH  11  12
ENDBRANCH  10  11
ENDBRANCH   9  10
ENDBRANCH   8   9
ENDBRANCH   7   8
ENDBRANCH   6   7
ENDBRANCH   5   6
ENDBRANCH   4   5
ENDBRANCH   3   4
ENDBRANCH   2   3
ENDBRANCH   1   2
BRANCH   1  18
ATOM     18  C   UNL     1      13.798 -32.137  23.779  1.00  0.00     0.000 C 
BRANCH  18  19
ATOM     19  C   UNL     1      13.653 -32.076  22.248  1.00  0.00     0.000 C 
BRANCH  19  20
ATOM     20  C   UNL     1      13.199 -30.688  21.746  1.00  0.00     0.000 C 
BRANCH  20  21
ATOM     21  C   UNL     1      13.235 -29.591  22.828  1.00  0.00     0.000 C 
BRANCH  21  22
ATOM     22  C   UNL     1      14.402 -28.594  22.706  1.00  0.00     0.000 C 
BRANCH  22  23
ATOM     23  C   UNL     1      15.723 -29.188  22.173  1.00  0.00     0.000 C 
BRANCH  23  24
ATOM     24  C   UNL     1      16.590 -29.906  23.222  1.00  0.00    -0.000 C 
BRANCH  24  25
ATOM     25  C   UNL     1      17.402 -31.075  22.634  1.00  0.00    -0.000 C 
BRANCH  25  26
ATOM     26  C   UNL     1      17.079 -31.328  21.151  1.00  0.00    -0.000 C 
BRANCH  26  27
ATOM     27  C   UNL     1      18.286 -31.882  20.371  1.00  0.00    -0.000 C 
BRANCH  27  28
ATOM     28  C   UNL     1      18.345 -33.421  20.380  1.00  0.00    -0.000 C 
BRANCH  28  29
ATOM     29  C   UNL     1      17.811 -34.099  19.103  1.00  0.00    -0.000 C 
BRANCH  29  30
ATOM     30  C   UNL     1      16.401 -34.691  19.287  1.00  0.00    -0.000 C 
BRANCH  30  31
ATOM     31  C   UNL     1      16.419 -36.034  20.034  1.00  0.00    -0.003 C 
ATOM     32  C   UNL     1      17.540 -36.958  19.562  1.00  0.00     0.004 C 
ENDBRANCH  30  31
ENDBRANCH  29  30
ENDBRANCH  28  29
ENDBRANCH  27  28
ENDBRANCH  26  27
ENDBRANCH  25  26
ENDBRANCH  24  25
ENDBRANCH  23  24
ENDBRANCH  22  23
ENDBRANCH  21  22
ENDBRANCH  20  21
ENDBRANCH  19  20
ENDBRANCH  18  19
ENDBRANCH   1  18
TORSDOF 28
ENDMDL
MODEL 9
REMARK VINA RESULT:    -5.059      3.026      6.741
REMARK INTER + INTRA:         -18.054
REMARK INTER:                 -12.129
REMARK INTRA:                  -5.926
REMARK UNBOUND:                -4.713
REMARK SMILES CCCCCCCCCCCCCCCCCCCCCCCCCCCCCC(=O)[O-]
REMARK SMILES IDX 16 1 17 2 18 3 19 4 20 5 21 6 22 7 23 8 24 9 25 10 26 11
REMARK SMILES IDX 27 12 28 13 29 14 30 15 31 16 32 17 15 18 14 19 13 20 12 21
REMARK SMILES IDX 11 22 10 23 9 24 8 25 7 26 6 27 5 28 4 29 3 30 2 31 1 32
REMARK H PARENT
REMARK Flexibility Score: inf
ROOT
ATOM      1  C   UNL     1      21.282 -30.300  22.595  1.00  0.00     0.000 C 
ENDROOT
BRANCH   1   2
ATOM      2  C   UNL     1      22.193 -31.487  22.968  1.00  0.00     0.000 C 
BRANCH   2   3
ATOM      3  C   UNL     1      21.447 -32.557  23.787  1.00  0.00     0.000 C 
BRANCH   3   4
ATOM      4  C   UNL     1      21.405 -33.923  23.080  1.00  0.00     0.000 C 
BRANCH   4   5
ATOM      5  C   UNL     1      20.461 -34.921  23.777  1.00  0.00     0.000 C 
BRANCH   5   6
ATOM      6  C   UNL     1      20.120 -36.126  22.887  1.00  0.00     0.000 C 
BRANCH   6   7
ATOM      7  C   UNL     1      18.676 -36.623  23.079  1.00  0.00     0.000 C 
BRANCH   7   8
ATOM      8  C   UNL     1      17.687 -35.455  23.230  1.00  0.00     0.000 C 
BRANCH   8   9
ATOM      9  C   UNL     1      16.971 -35.468  24.594  1.00  0.00     0.000 C 
BRANCH   9  10
ATOM     10  C   UNL     1      17.122 -34.137  25.350  1.00  0.00     0.000 C 
BRANCH  10  11
ATOM     11  C   UNL     1      17.018 -32.932  24.400  1.00  0.00     0.000 C 
BRANCH  11  12
ATOM     12  C   UNL     1      17.799 -31.699  24.894  1.00  0.00     0.000 C 
BRANCH  12  13
ATOM     13  C   UNL     1      18.696 -31.936  26.124  1.00  0.00     0.006 C 
BRANCH  13  14
ATOM     14  C   UNL     1      19.174 -30.634  26.789  1.00  0.00     0.053 C 
BRANCH  14  15
ATOM     15  C   UNL     1      20.663 -30.630  26.959  1.00  0.00     0.041 C 
ATOM     16  O   UNL     1      21.210 -31.376  27.815  1.00  0.00    -0.550 OA
ATOM     17  O   UNL     1      21.447 -29.770  26.195  1.00  0.00    -0.550 OA
ENDBRANCH  14  15
ENDBRANCH  13  14
ENDBRANCH  12  13
ENDBRANCH  11  12
ENDBRANCH  10  11
ENDBRANCH   9  10
ENDBRANCH   8   9
ENDBRANCH   7   8
ENDBRANCH   6   7
ENDBRANCH   5   6
ENDBRANCH   4   5
ENDBRANCH   3   4
ENDBRANCH   2   3
ENDBRANCH   1   2
BRANCH   1  18
ATOM     18  C   UNL     1      19.785 -30.670  22.578  1.00  0.00     0.000 C 
BRANCH  18  19
ATOM     19  C   UNL     1      19.117 -30.330  21.233  1.00  0.00     0.000 C 
BRANCH  19  20
ATOM     20  C   UNL     1      18.084 -31.390  20.795  1.00  0.00     0.000 C 
BRANCH  20  21
ATOM     21  C   UNL     1      18.638 -32.828  20.772  1.00  0.00     0.000 C 
BRANCH  21  22
ATOM     22  C   UNL     1      18.352 -33.616  19.480  1.00  0.00     0.000 C 
BRANCH  22  23
ATOM     23  C   UNL     1      18.264 -35.147  19.650  1.00  0.00     0.000 C 
BRANCH  23  24
ATOM     24  C   UNL     1      16.837 -35.722  19.691  1.00  0.00    -0.000 C 
BRANCH  24  25
ATOM     25  C   UNL     1      15.748 -34.635  19.624  1.00  0.00    -0.000 C 
BRANCH  25  26
ATOM     26  C   UNL     1      14.983 -34.486  20.951  1.00  0.00    -0.000 C 
BRANCH  26  27
ATOM     27  C   UNL     1      14.943 -33.029  21.448  1.00  0.00    -0.000 C 
BRANCH  27  28
ATOM     28  C   UNL     1      13.809 -32.211  20.805  1.00  0.00    -0.000 C 
BRANCH  28  29
ATOM     29  C   UNL     1      13.097 -31.228  21.755  1.00  0.00    -0.000 C 
BRANCH  29  30
ATOM     30  C   UNL     1      13.600 -31.330  23.207  1.00  0.00    -0.000 C 
BRANCH  30  31
ATOM     31  C   UNL     1      14.281 -30.039  23.687  1.00  0.00    -0.003 C 
ATOM     32  C   UNL     1      15.429 -29.604  22.778  1.00  0.00     0.004 C 
ENDBRANCH  30  31
ENDBRANCH  29  30
ENDBRANCH  28  29
ENDBRANCH  27  28
ENDBRANCH  26  27
ENDBRANCH  25  26
ENDBRANCH  24  25
ENDBRANCH  23  24
ENDBRANCH  22  23
ENDBRANCH  21  22
ENDBRANCH  20  21
ENDBRANCH  19  20
ENDBRANCH  18  19
ENDBRANCH   1  18
TORSDOF 28
ENDMDL
