MODEL 1
REMARK VINA RESULT:    -7.485      0.000      0.000
REMARK INTER + INTRA:          -8.701
REMARK INTER:                  -8.141
REMARK INTRA:                  -0.560
REMARK UNBOUND:                -0.560
REMARK SMILES C=C(C)[C@H]1CC[C@@]2(C)CC[C@@]3(C)[C@@H](CC[C@H]4[C@]5(C)CC[C@H](O)C(C)(C)[C@@H]5CC[C@]43C)[C@H]12
REMARK SMILES IDX 4 1 5 2 6 3 7 4 31 5 13 6 14 7 15 8 16 9 17 10 19 11 20 12
REMARK SMILES IDX 21 13 23 14 26 15 27 16 28 17 29 18 11 19 10 20 9 21 12 22
REMARK SMILES IDX 30 23 24 24 25 25 18 26 8 27 2 28 3 29 1 30 22 31
REMARK H PARENT 22 32
REMARK Flexibility Score: inf
ROOT
ATOM      1  C   UNL     1       2.133  27.219  27.360  1.00  0.00     0.018 C 
ATOM      2  C   UNL     1       2.505  27.128  25.857  1.00  0.00     0.009 C 
ATOM      3  C   UNL     1       1.546  26.100  25.221  1.00  0.00     0.008 C 
ATOM      4  C   UNL     1       0.365  26.028  26.196  1.00  0.00    -0.029 C 
ATOM      5  C   UNL     1       1.110  26.085  27.547  1.00  0.00     0.006 C 
ATOM      6  C   UNL     1       0.095  26.073  28.721  1.00  0.00    -0.000 C 
ATOM      7  C   UNL     1       0.640  26.479  30.086  1.00  0.00     0.005 C 
ATOM      8  C   UNL     1      -0.513  26.878  31.029  1.00  0.00     0.005 C 
ATOM      9  C   UNL     1      -1.874  26.121  30.812  1.00  0.00     0.002 C 
ATOM     10  C   UNL     1      -3.113  27.053  30.435  1.00  0.00    -0.026 C 
ATOM     11  C   UNL     1      -3.306  28.144  31.554  1.00  0.00     0.010 C 
ATOM     12  C   UNL     1      -4.749  28.639  31.675  1.00  0.00     0.033 C 
ATOM     13  C   UNL     1      -5.742  27.525  32.076  1.00  0.00     0.120 C 
ATOM     14  C   UNL     1      -5.325  26.075  31.599  1.00  0.00    -0.006 C 
ATOM     15  C   UNL     1      -4.439  26.209  30.284  1.00  0.00     0.003 C 
ATOM     16  C   UNL     1      -4.232  24.950  29.403  1.00  0.00     0.005 C 
ATOM     17  C   UNL     1      -3.090  24.027  29.825  1.00  0.00     0.008 C 
ATOM     18  C   UNL     1      -1.697  24.694  30.106  1.00  0.00    -0.024 C 
ATOM     19  C   UNL     1      -0.697  24.706  28.786  1.00  0.00    -0.024 C 
ATOM     20  C   UNL     1      -1.408  24.550  27.381  1.00  0.00     0.008 C 
ATOM     21  C   UNL     1      -0.476  24.727  26.132  1.00  0.00     0.007 C 
ATOM     22  C   UNL     1       0.283  23.473  28.858  1.00  0.00     0.012 C 
ATOM     23  C   UNL     1      -1.089  23.785  31.251  1.00  0.00     0.012 C 
ATOM     24  C   UNL     1      -4.629  25.312  32.761  1.00  0.00     0.014 C 
ATOM     25  C   UNL     1      -6.632  25.299  31.283  1.00  0.00     0.014 C 
ATOM     26  C   UNL     1      -2.884  27.831  29.113  1.00  0.00     0.012 C 
ATOM     27  C   UNL     1      -0.564  27.246  25.887  1.00  0.00     0.011 C 
ENDROOT
BRANCH   1  28
ATOM     28  C   UNL     1       3.368  27.105  28.253  1.00  0.00    -0.077 C 
ATOM     29  C   UNL     1       3.863  28.271  29.075  1.00  0.00     0.039 C 
ATOM     30  C   UNL     1       4.009  25.930  28.364  1.00  0.00     0.008 C 
ENDBRANCH   1  28
BRANCH  13  31
ATOM     31  O   UNL     1      -5.945  27.579  33.468  1.00  0.00    -0.393 OA
ATOM     32  H   UNL     1      -6.868  27.914  33.616  1.00  0.00     0.210 HD
ENDBRANCH  13  31
TORSDOF 2
ENDMDL
MODEL 2
REMARK VINA RESULT:    -7.472      2.542      7.341
REMARK INTER + INTRA:          -8.687
REMARK INTER:                  -8.139
REMARK INTRA:                  -0.549
REMARK UNBOUND:                -0.560
REMARK SMILES C=C(C)[C@H]1CC[C@@]2(C)CC[C@@]3(C)[C@@H](CC[C@H]4[C@]5(C)CC[C@H](O)C(C)(C)[C@@H]5CC[C@]43C)[C@H]12
REMARK SMILES IDX 4 1 5 2 6 3 7 4 31 5 13 6 14 7 15 8 16 9 17 10 19 11 20 12
REMARK SMILES IDX 21 13 23 14 26 15 27 16 28 17 29 18 11 19 10 20 9 21 12 22
REMARK SMILES IDX 30 23 24 24 25 25 18 26 8 27 2 28 3 29 1 30 22 31
REMARK H PARENT 22 32
REMARK Flexibility Score: inf
ROOT
ATOM      1  C   UNL     1      -5.322  24.872  31.519  1.00  0.00     0.018 C 
ATOM      2  C   UNL     1      -6.756  25.312  31.123  1.00  0.00     0.009 C 
ATOM      3  C   UNL     1      -6.611  26.592  30.274  1.00  0.00     0.008 C 
ATOM      4  C   UNL     1      -5.160  26.560  29.780  1.00  0.00    -0.029 C 
ATOM      5  C   UNL     1      -4.443  26.042  31.044  1.00  0.00     0.006 C 
ATOM      6  C   UNL     1      -2.924  25.876  30.771  1.00  0.00    -0.000 C 
ATOM      7  C   UNL     1      -2.143  25.048  31.786  1.00  0.00     0.005 C 
ATOM      8  C   UNL     1      -0.809  24.572  31.179  1.00  0.00     0.005 C 
ATOM      9  C   UNL     1      -0.145  25.536  30.131  1.00  0.00     0.002 C 
ATOM     10  C   UNL     1       0.054  24.917  28.673  1.00  0.00    -0.026 C 
ATOM     11  C   UNL     1       0.915  23.602  28.778  1.00  0.00     0.010 C 
ATOM     12  C   UNL     1       1.705  23.293  27.503  1.00  0.00     0.033 C 
ATOM     13  C   UNL     1       2.744  24.382  27.155  1.00  0.00     0.120 C 
ATOM     14  C   UNL     1       2.354  25.837  27.642  1.00  0.00    -0.006 C 
ATOM     15  C   UNL     1       0.768  25.941  27.708  1.00  0.00     0.003 C 
ATOM     16  C   UNL     1       0.124  27.351  27.774  1.00  0.00     0.005 C 
ATOM     17  C   UNL     1       0.013  27.963  29.170  1.00  0.00     0.008 C 
ATOM     18  C   UNL     1      -0.600  27.062  30.300  1.00  0.00    -0.024 C 
ATOM     19  C   UNL     1      -2.231  27.270  30.490  1.00  0.00    -0.024 C 
ATOM     20  C   UNL     1      -2.997  27.892  29.253  1.00  0.00     0.008 C 
ATOM     21  C   UNL     1      -4.560  27.932  29.379  1.00  0.00     0.007 C 
ATOM     22  C   UNL     1      -2.499  28.294  31.659  1.00  0.00     0.012 C 
ATOM     23  C   UNL     1       0.172  27.539  31.597  1.00  0.00     0.012 C 
ATOM     24  C   UNL     1       3.071  26.159  28.983  1.00  0.00     0.014 C 
ATOM     25  C   UNL     1       2.910  26.839  26.594  1.00  0.00     0.014 C 
ATOM     26  C   UNL     1      -1.291  24.499  28.023  1.00  0.00     0.012 C 
ATOM     27  C   UNL     1      -5.115  25.607  28.542  1.00  0.00     0.011 C 
ENDROOT
BRANCH   1  28
ATOM     28  C   UNL     1      -5.219  24.574  33.014  1.00  0.00    -0.077 C 
ATOM     29  C   UNL     1      -5.050  25.676  34.033  1.00  0.00     0.039 C 
ATOM     30  C   UNL     1      -5.335  23.311  33.456  1.00  0.00     0.008 C 
ENDBRANCH   1  28
BRANCH  13  31
ATOM     31  O   UNL     1       4.001  23.985  27.648  1.00  0.00    -0.393 OA
ATOM     32  H   UNL     1       4.122  23.030  27.406  1.00  0.00     0.210 HD
ENDBRANCH  13  31
TORSDOF 2
ENDMDL
MODEL 3
REMARK VINA RESULT:    -7.462      1.302      1.727
REMARK INTER + INTRA:          -8.676
REMARK INTER:                  -8.150
REMARK INTRA:                  -0.525
REMARK UNBOUND:                -0.560
REMARK SMILES C=C(C)[C@H]1CC[C@@]2(C)CC[C@@]3(C)[C@@H](CC[C@H]4[C@]5(C)CC[C@H](O)C(C)(C)[C@@H]5CC[C@]43C)[C@H]12
REMARK SMILES IDX 4 1 5 2 6 3 7 4 31 5 13 6 14 7 15 8 16 9 17 10 19 11 20 12
REMARK SMILES IDX 21 13 23 14 26 15 27 16 28 17 29 18 11 19 10 20 9 21 12 22
REMARK SMILES IDX 30 23 24 24 25 25 18 26 8 27 2 28 3 29 1 30 22 31
REMARK H PARENT 22 32
REMARK Flexibility Score: inf
ROOT
ATOM      1  C   UNL     1       2.380  26.614  27.701  1.00  0.00     0.018 C 
ATOM      2  C   UNL     1       2.841  27.418  26.457  1.00  0.00     0.009 C 
ATOM      3  C   UNL     1       1.616  27.543  25.527  1.00  0.00     0.008 C 
ATOM      4  C   UNL     1       0.414  27.290  26.445  1.00  0.00    -0.029 C 
ATOM      5  C   UNL     1       0.964  26.147  27.323  1.00  0.00     0.006 C 
ATOM      6  C   UNL     1      -0.084  25.738  28.392  1.00  0.00    -0.000 C 
ATOM      7  C   UNL     1       0.429  24.884  29.546  1.00  0.00     0.005 C 
ATOM      8  C   UNL     1      -0.548  24.945  30.737  1.00  0.00     0.005 C 
ATOM      9  C   UNL     1      -2.068  25.115  30.374  1.00  0.00     0.002 C 
ATOM     10  C   UNL     1      -2.758  26.432  30.953  1.00  0.00    -0.026 C 
ATOM     11  C   UNL     1      -2.599  26.461  32.519  1.00  0.00     0.010 C 
ATOM     12  C   UNL     1      -3.709  27.242  33.226  1.00  0.00     0.033 C 
ATOM     13  C   UNL     1      -5.112  26.632  33.013  1.00  0.00     0.120 C 
ATOM     14  C   UNL     1      -5.288  25.860  31.642  1.00  0.00    -0.006 C 
ATOM     15  C   UNL     1      -4.290  26.490  30.575  1.00  0.00     0.003 C 
ATOM     16  C   UNL     1      -4.532  26.190  29.072  1.00  0.00     0.005 C 
ATOM     17  C   UNL     1      -3.931  24.885  28.553  1.00  0.00     0.008 C 
ATOM     18  C   UNL     1      -2.426  24.602  28.900  1.00  0.00    -0.024 C 
ATOM     19  C   UNL     1      -1.376  25.113  27.726  1.00  0.00    -0.024 C 
ATOM     20  C   UNL     1      -1.930  26.217  26.738  1.00  0.00     0.008 C 
ATOM     21  C   UNL     1      -0.880  26.814  25.737  1.00  0.00     0.007 C 
ATOM     22  C   UNL     1      -1.012  23.903  26.782  1.00  0.00     0.012 C 
ATOM     23  C   UNL     1      -2.379  23.025  29.033  1.00  0.00     0.012 C 
ATOM     24  C   UNL     1      -5.103  24.333  31.863  1.00  0.00     0.014 C 
ATOM     25  C   UNL     1      -6.757  26.064  31.182  1.00  0.00     0.014 C 
ATOM     26  C   UNL     1      -2.084  27.728  30.430  1.00  0.00     0.012 C 
ATOM     27  C   UNL     1       0.116  28.630  27.193  1.00  0.00     0.011 C 
ENDROOT
BRANCH   1  28
ATOM     28  C   UNL     1       3.351  25.481  28.029  1.00  0.00    -0.077 C 
ATOM     29  C   UNL     1       3.234  24.123  27.379  1.00  0.00     0.039 C 
ATOM     30  C   UNL     1       4.372  25.696  28.874  1.00  0.00     0.008 C 
ENDBRANCH   1  28
BRANCH  13  31
ATOM     31  O   UNL     1      -5.424  25.815  34.116  1.00  0.00    -0.393 OA
ATOM     32  H   UNL     1      -4.565  25.491  34.493  1.00  0.00     0.210 HD
ENDBRANCH  13  31
TORSDOF 2
ENDMDL
MODEL 4
REMARK VINA RESULT:    -7.063      2.521      7.233
REMARK INTER + INTRA:          -8.242
REMARK INTER:                  -7.694
REMARK INTRA:                  -0.548
REMARK UNBOUND:                -0.560
REMARK SMILES C=C(C)[C@H]1CC[C@@]2(C)CC[C@@]3(C)[C@@H](CC[C@H]4[C@]5(C)CC[C@H](O)C(C)(C)[C@@H]5CC[C@]43C)[C@H]12
REMARK SMILES IDX 4 1 5 2 6 3 7 4 31 5 13 6 14 7 15 8 16 9 17 10 19 11 20 12
REMARK SMILES IDX 21 13 23 14 26 15 27 16 28 17 29 18 11 19 10 20 9 21 12 22
REMARK SMILES IDX 30 23 24 24 25 25 18 26 8 27 2 28 3 29 1 30 22 31
REMARK H PARENT 22 32
REMARK Flexibility Score: inf
ROOT
ATOM      1  C   UNL     1      -4.838  27.736  31.535  1.00  0.00     0.018 C 
ATOM      2  C   UNL     1      -5.746  26.991  32.549  1.00  0.00     0.009 C 
ATOM      3  C   UNL     1      -5.560  25.481  32.288  1.00  0.00     0.008 C 
ATOM      4  C   UNL     1      -4.225  25.386  31.539  1.00  0.00    -0.029 C 
ATOM      5  C   UNL     1      -4.333  26.614  30.612  1.00  0.00     0.006 C 
ATOM      6  C   UNL     1      -3.043  26.761  29.762  1.00  0.00    -0.000 C 
ATOM      7  C   UNL     1      -2.843  28.104  29.067  1.00  0.00     0.005 C 
ATOM      8  C   UNL     1      -1.366  28.290  28.670  1.00  0.00     0.005 C 
ATOM      9  C   UNL     1      -0.582  26.979  28.297  1.00  0.00     0.002 C 
ATOM     10  C   UNL     1       0.683  26.664  29.218  1.00  0.00    -0.026 C 
ATOM     11  C   UNL     1       1.677  27.885  29.177  1.00  0.00     0.010 C 
ATOM     12  C   UNL     1       3.133  27.489  29.437  1.00  0.00     0.033 C 
ATOM     13  C   UNL     1       3.698  26.523  28.373  1.00  0.00     0.120 C 
ATOM     14  C   UNL     1       2.616  25.582  27.703  1.00  0.00    -0.006 C 
ATOM     15  C   UNL     1       1.429  25.358  28.739  1.00  0.00     0.003 C 
ATOM     16  C   UNL     1       0.448  24.182  28.492  1.00  0.00     0.005 C 
ATOM     17  C   UNL     1      -0.715  24.478  27.545  1.00  0.00     0.008 C 
ATOM     18  C   UNL     1      -1.536  25.790  27.808  1.00  0.00    -0.024 C 
ATOM     19  C   UNL     1      -2.868  25.549  28.762  1.00  0.00    -0.024 C 
ATOM     20  C   UNL     1      -2.847  24.247  29.660  1.00  0.00     0.008 C 
ATOM     21  C   UNL     1      -4.032  24.111  30.679  1.00  0.00     0.007 C 
ATOM     22  C   UNL     1      -4.141  25.363  27.850  1.00  0.00     0.012 C 
ATOM     23  C   UNL     1      -1.973  26.238  26.354  1.00  0.00     0.012 C 
ATOM     24  C   UNL     1       2.167  26.175  26.338  1.00  0.00     0.014 C 
ATOM     25  C   UNL     1       3.311  24.229  27.389  1.00  0.00     0.014 C 
ATOM     26  C   UNL     1       0.294  26.476  30.708  1.00  0.00     0.012 C 
ATOM     27  C   UNL     1      -3.090  25.449  32.611  1.00  0.00     0.011 C 
ENDROOT
BRANCH   1  28
ATOM     28  C   UNL     1      -5.597  28.850  30.816  1.00  0.00    -0.077 C 
ATOM     29  C   UNL     1      -6.493  28.565  29.633  1.00  0.00     0.039 C 
ATOM     30  C   UNL     1      -5.520  30.113  31.266  1.00  0.00     0.008 C 
ENDBRANCH   1  28
BRANCH  13  31
ATOM     31  O   UNL     1       4.407  27.269  27.413  1.00  0.00    -0.393 OA
ATOM     32  H   UNL     1       3.853  27.288  26.589  1.00  0.00     0.210 HD
ENDBRANCH  13  31
TORSDOF 2
ENDMDL
MODEL 5
REMARK VINA RESULT:    -6.978      2.902      6.946
REMARK INTER + INTRA:          -8.150
REMARK INTER:                  -7.664
REMARK INTRA:                  -0.486
REMARK UNBOUND:                -0.560
REMARK SMILES C=C(C)[C@H]1CC[C@@]2(C)CC[C@@]3(C)[C@@H](CC[C@H]4[C@]5(C)CC[C@H](O)C(C)(C)[C@@H]5CC[C@]43C)[C@H]12
REMARK SMILES IDX 4 1 5 2 6 3 7 4 31 5 13 6 14 7 15 8 16 9 17 10 19 11 20 12
REMARK SMILES IDX 21 13 23 14 26 15 27 16 28 17 29 18 11 19 10 20 9 21 12 22
REMARK SMILES IDX 30 23 24 24 25 25 18 26 8 27 2 28 3 29 1 30 22 31
REMARK H PARENT 22 32
REMARK Flexibility Score: inf
ROOT
ATOM      1  C   UNL     1      -1.755  24.227  31.989  1.00  0.00     0.018 C 
ATOM      2  C   UNL     1      -3.042  23.423  32.312  1.00  0.00     0.009 C 
ATOM      3  C   UNL     1      -4.199  24.110  31.556  1.00  0.00     0.008 C 
ATOM      4  C   UNL     1      -3.505  24.920  30.454  1.00  0.00    -0.029 C 
ATOM      5  C   UNL     1      -2.280  25.455  31.225  1.00  0.00     0.006 C 
ATOM      6  C   UNL     1      -1.374  26.290  30.282  1.00  0.00    -0.000 C 
ATOM      7  C   UNL     1       0.034  26.585  30.787  1.00  0.00     0.005 C 
ATOM      8  C   UNL     1       0.953  26.985  29.616  1.00  0.00     0.005 C 
ATOM      9  C   UNL     1       0.264  27.752  28.430  1.00  0.00     0.002 C 
ATOM     10  C   UNL     1       0.348  27.023  27.013  1.00  0.00    -0.026 C 
ATOM     11  C   UNL     1       1.859  26.764  26.648  1.00  0.00     0.010 C 
ATOM     12  C   UNL     1       2.114  26.699  25.140  1.00  0.00     0.033 C 
ATOM     13  C   UNL     1       1.783  28.021  24.411  1.00  0.00     0.120 C 
ATOM     14  C   UNL     1       0.640  28.876  25.094  1.00  0.00    -0.006 C 
ATOM     15  C   UNL     1      -0.329  27.889  25.881  1.00  0.00     0.003 C 
ATOM     16  C   UNL     1      -1.728  28.410  26.303  1.00  0.00     0.005 C 
ATOM     17  C   UNL     1      -1.777  29.176  27.625  1.00  0.00     0.008 C 
ATOM     18  C   UNL     1      -1.078  28.511  28.863  1.00  0.00    -0.024 C 
ATOM     19  C   UNL     1      -2.108  27.601  29.787  1.00  0.00    -0.024 C 
ATOM     20  C   UNL     1      -3.429  27.111  29.067  1.00  0.00     0.008 C 
ATOM     21  C   UNL     1      -4.317  26.115  29.892  1.00  0.00     0.007 C 
ATOM     22  C   UNL     1      -2.631  28.464  30.998  1.00  0.00     0.012 C 
ATOM     23  C   UNL     1      -0.552  29.756  29.689  1.00  0.00     0.012 C 
ATOM     24  C   UNL     1       1.265  29.993  25.976  1.00  0.00     0.014 C 
ATOM     25  C   UNL     1      -0.140  29.594  23.960  1.00  0.00     0.014 C 
ATOM     26  C   UNL     1      -0.334  25.629  27.027  1.00  0.00     0.012 C 
ATOM     27  C   UNL     1      -3.187  23.932  29.286  1.00  0.00     0.011 C 
ENDROOT
BRANCH   1  28
ATOM     28  C   UNL     1      -0.970  24.563  33.256  1.00  0.00    -0.077 C 
ATOM     29  C   UNL     1      -1.200  25.849  34.015  1.00  0.00     0.039 C 
ATOM     30  C   UNL     1      -0.089  23.679  33.753  1.00  0.00     0.008 C 
ENDBRANCH   1  28
BRANCH  13  31
ATOM     31  O   UNL     1       2.969  28.763  24.257  1.00  0.00    -0.393 OA
ATOM     32  H   UNL     1       3.703  28.113  24.100  1.00  0.00     0.210 HD
ENDBRANCH  13  31
TORSDOF 2
ENDMDL
MODEL 6
REMARK VINA RESULT:    -6.809      1.603      2.711
REMARK INTER + INTRA:          -7.966
REMARK INTER:                  -7.440
REMARK INTRA:                  -0.527
REMARK UNBOUND:                -0.560
REMARK SMILES C=C(C)[C@H]1CC[C@@]2(C)CC[C@@]3(C)[C@@H](CC[C@H]4[C@]5(C)CC[C@H](O)C(C)(C)[C@@H]5CC[C@]43C)[C@H]12
REMARK SMILES IDX 4 1 5 2 6 3 7 4 31 5 13 6 14 7 15 8 16 9 17 10 19 11 20 12
REMARK SMILES IDX 21 13 23 14 26 15 27 16 28 17 29 18 11 19 10 20 9 21 12 22
REMARK SMILES IDX 30 23 24 24 25 25 18 26 8 27 2 28 3 29 1 30 22 31
REMARK H PARENT 22 32
REMARK Flexibility Score: inf
ROOT
ATOM      1  C   UNL     1       0.413  27.627  26.056  1.00  0.00     0.018 C 
ATOM      2  C   UNL     1       1.418  26.889  25.133  1.00  0.00     0.009 C 
ATOM      3  C   UNL     1       1.887  25.633  25.898  1.00  0.00     0.008 C 
ATOM      4  C   UNL     1       0.801  25.404  26.956  1.00  0.00    -0.029 C 
ATOM      5  C   UNL     1       0.514  26.859  27.385  1.00  0.00     0.006 C 
ATOM      6  C   UNL     1      -0.618  26.892  28.446  1.00  0.00    -0.000 C 
ATOM      7  C   UNL     1      -1.258  28.252  28.706  1.00  0.00     0.005 C 
ATOM      8  C   UNL     1      -2.628  28.080  29.391  1.00  0.00     0.005 C 
ATOM      9  C   UNL     1      -2.770  26.842  30.349  1.00  0.00     0.002 C 
ATOM     10  C   UNL     1      -3.899  25.793  29.935  1.00  0.00    -0.026 C 
ATOM     11  C   UNL     1      -5.288  26.530  29.841  1.00  0.00     0.010 C 
ATOM     12  C   UNL     1      -6.481  25.609  30.105  1.00  0.00     0.033 C 
ATOM     13  C   UNL     1      -6.482  25.009  31.529  1.00  0.00     0.120 C 
ATOM     14  C   UNL     1      -5.042  24.820  32.159  1.00  0.00    -0.006 C 
ATOM     15  C   UNL     1      -3.996  24.613  30.979  1.00  0.00     0.003 C 
ATOM     16  C   UNL     1      -2.603  24.024  31.324  1.00  0.00     0.005 C 
ATOM     17  C   UNL     1      -1.556  25.032  31.795  1.00  0.00     0.008 C 
ATOM     18  C   UNL     1      -1.368  26.327  30.926  1.00  0.00    -0.024 C 
ATOM     19  C   UNL     1      -0.173  26.185  29.789  1.00  0.00    -0.024 C 
ATOM     20  C   UNL     1       0.226  24.707  29.387  1.00  0.00     0.008 C 
ATOM     21  C   UNL     1       1.238  24.583  28.195  1.00  0.00     0.007 C 
ATOM     22  C   UNL     1       1.165  26.802  30.352  1.00  0.00     0.012 C 
ATOM     23  C   UNL     1      -0.981  27.425  31.999  1.00  0.00     0.012 C 
ATOM     24  C   UNL     1      -4.713  26.012  33.101  1.00  0.00     0.014 C 
ATOM     25  C   UNL     1      -5.093  23.553  33.054  1.00  0.00     0.014 C 
ATOM     26  C   UNL     1      -3.645  25.177  28.534  1.00  0.00     0.012 C 
ATOM     27  C   UNL     1      -0.382  24.664  26.251  1.00  0.00     0.011 C 
ENDROOT
BRANCH   1  28
ATOM     28  C   UNL     1       0.738  29.116  26.163  1.00  0.00    -0.077 C 
ATOM     29  C   UNL     1       1.728  29.641  27.177  1.00  0.00     0.039 C 
ATOM     30  C   UNL     1       0.181  29.988  25.307  1.00  0.00     0.008 C 
ENDBRANCH   1  28
BRANCH  13  31
ATOM     31  O   UNL     1      -7.313  25.793  32.351  1.00  0.00    -0.393 OA
ATOM     32  H   UNL     1      -7.405  25.314  33.216  1.00  0.00     0.210 HD
ENDBRANCH  13  31
TORSDOF 2
ENDMDL
MODEL 7
REMARK VINA RESULT:    -6.806      2.514      7.300
REMARK INTER + INTRA:          -7.963
REMARK INTER:                  -7.403
REMARK INTRA:                  -0.559
REMARK UNBOUND:                -0.560
REMARK SMILES C=C(C)[C@H]1CC[C@@]2(C)CC[C@@]3(C)[C@@H](CC[C@H]4[C@]5(C)CC[C@H](O)C(C)(C)[C@@H]5CC[C@]43C)[C@H]12
REMARK SMILES IDX 4 1 5 2 6 3 7 4 31 5 13 6 14 7 15 8 16 9 17 10 19 11 20 12
REMARK SMILES IDX 21 13 23 14 26 15 27 16 28 17 29 18 11 19 10 20 9 21 12 22
REMARK SMILES IDX 30 23 24 24 25 25 18 26 8 27 2 28 3 29 1 30 22 31
REMARK H PARENT 22 32
REMARK Flexibility Score: inf
ROOT
ATOM      1  C   UNL     1      -4.965  26.552  32.048  1.00  0.00     0.018 C 
ATOM      2  C   UNL     1      -5.181  26.304  33.564  1.00  0.00     0.009 C 
ATOM      3  C   UNL     1      -4.122  25.272  34.003  1.00  0.00     0.008 C 
ATOM      4  C   UNL     1      -3.042  25.348  32.916  1.00  0.00    -0.029 C 
ATOM      5  C   UNL     1      -3.921  25.492  31.656  1.00  0.00     0.006 C 
ATOM      6  C   UNL     1      -3.029  25.638  30.394  1.00  0.00    -0.000 C 
ATOM      7  C   UNL     1      -3.724  26.140  29.133  1.00  0.00     0.005 C 
ATOM      8  C   UNL     1      -2.688  26.680  28.126  1.00  0.00     0.005 C 
ATOM      9  C   UNL     1      -1.284  25.974  28.137  1.00  0.00     0.002 C 
ATOM     10  C   UNL     1      -0.051  26.928  28.482  1.00  0.00    -0.026 C 
ATOM     11  C   UNL     1      -0.015  28.126  27.459  1.00  0.00     0.010 C 
ATOM     12  C   UNL     1       1.388  28.700  27.249  1.00  0.00     0.033 C 
ATOM     13  C   UNL     1       2.379  27.679  26.649  1.00  0.00     0.120 C 
ATOM     14  C   UNL     1       2.070  26.171  27.022  1.00  0.00    -0.006 C 
ATOM     15  C   UNL     1       1.316  26.141  28.423  1.00  0.00     0.003 C 
ATOM     16  C   UNL     1       1.249  24.798  29.195  1.00  0.00     0.005 C 
ATOM     17  C   UNL     1       0.109  23.861  28.798  1.00  0.00     0.008 C 
ATOM     18  C   UNL     1      -1.331  24.482  28.717  1.00  0.00    -0.024 C 
ATOM     19  C   UNL     1      -2.193  24.323  30.121  1.00  0.00    -0.024 C 
ATOM     20  C   UNL     1      -1.340  24.075  31.431  1.00  0.00     0.008 C 
ATOM     21  C   UNL     1      -2.148  24.090  32.775  1.00  0.00     0.007 C 
ATOM     22  C   UNL     1      -3.125  23.055  30.026  1.00  0.00     0.012 C 
ATOM     23  C   UNL     1      -2.014  23.653  27.553  1.00  0.00     0.012 C 
ATOM     24  C   UNL     1       1.293  25.485  25.865  1.00  0.00     0.014 C 
ATOM     25  C   UNL     1       3.433  25.436  27.136  1.00  0.00     0.014 C 
ATOM     26  C   UNL     1      -0.178  27.569  29.889  1.00  0.00     0.012 C 
ATOM     27  C   UNL     1      -2.137  26.577  33.251  1.00  0.00     0.011 C 
ENDROOT
BRANCH   1  28
ATOM     28  C   UNL     1      -6.278  26.459  31.271  1.00  0.00    -0.077 C 
ATOM     29  C   UNL     1      -6.878  27.661  30.580  1.00  0.00     0.039 C 
ATOM     30  C   UNL     1      -6.899  25.275  31.142  1.00  0.00     0.008 C 
ENDBRANCH   1  28
BRANCH  13  31
ATOM     31  O   UNL     1       2.439  27.870  25.256  1.00  0.00    -0.393 OA
ATOM     32  H   UNL     1       3.214  28.463  25.075  1.00  0.00     0.210 HD
ENDBRANCH  13  31
TORSDOF 2
ENDMDL
MODEL 8
REMARK VINA RESULT:    -6.579      1.625      3.457
REMARK INTER + INTRA:          -7.715
REMARK INTER:                  -7.188
REMARK INTRA:                  -0.528
REMARK UNBOUND:                -0.560
REMARK SMILES C=C(C)[C@H]1CC[C@@]2(C)CC[C@@]3(C)[C@@H](CC[C@H]4[C@]5(C)CC[C@H](O)C(C)(C)[C@@H]5CC[C@]43C)[C@H]12
REMARK SMILES IDX 4 1 5 2 6 3 7 4 31 5 13 6 14 7 15 8 16 9 17 10 19 11 20 12
REMARK SMILES IDX 21 13 23 14 26 15 27 16 28 17 29 18 11 19 10 20 9 21 12 22
REMARK SMILES IDX 30 23 24 24 25 25 18 26 8 27 2 28 3 29 1 30 22 31
REMARK H PARENT 22 32
REMARK Flexibility Score: inf
ROOT
ATOM      1  C   UNL     1       2.480  26.186  28.444  1.00  0.00     0.018 C 
ATOM      2  C   UNL     1       3.615  27.241  28.515  1.00  0.00     0.009 C 
ATOM      3  C   UNL     1       2.938  28.612  28.719  1.00  0.00     0.008 C 
ATOM      4  C   UNL     1       1.546  28.272  29.267  1.00  0.00    -0.029 C 
ATOM      5  C   UNL     1       1.199  27.038  28.409  1.00  0.00     0.006 C 
ATOM      6  C   UNL     1      -0.184  26.468  28.822  1.00  0.00    -0.000 C 
ATOM      7  C   UNL     1      -0.509  25.062  28.327  1.00  0.00     0.005 C 
ATOM      8  C   UNL     1      -1.648  24.447  29.164  1.00  0.00     0.005 C 
ATOM      9  C   UNL     1      -2.718  25.455  29.719  1.00  0.00     0.002 C 
ATOM     10  C   UNL     1      -2.843  25.502  31.309  1.00  0.00    -0.026 C 
ATOM     11  C   UNL     1      -3.169  24.059  31.850  1.00  0.00     0.010 C 
ATOM     12  C   UNL     1      -3.933  24.068  33.176  1.00  0.00     0.033 C 
ATOM     13  C   UNL     1      -5.320  24.741  33.073  1.00  0.00     0.120 C 
ATOM     14  C   UNL     1      -5.417  25.873  31.971  1.00  0.00    -0.006 C 
ATOM     15  C   UNL     1      -3.971  26.506  31.766  1.00  0.00     0.003 C 
ATOM     16  C   UNL     1      -3.862  27.874  31.045  1.00  0.00     0.005 C 
ATOM     17  C   UNL     1      -3.823  27.817  29.518  1.00  0.00     0.008 C 
ATOM     18  C   UNL     1      -2.813  26.807  28.866  1.00  0.00    -0.024 C 
ATOM     19  C   UNL     1      -1.349  27.488  28.501  1.00  0.00    -0.024 C 
ATOM     20  C   UNL     1      -0.990  28.814  29.287  1.00  0.00     0.008 C 
ATOM     21  C   UNL     1       0.462  29.360  29.059  1.00  0.00     0.007 C 
ATOM     22  C   UNL     1      -1.334  27.926  26.986  1.00  0.00     0.012 C 
ATOM     23  C   UNL     1      -3.559  26.360  27.542  1.00  0.00     0.012 C 
ATOM     24  C   UNL     1      -6.051  25.298  30.673  1.00  0.00     0.014 C 
ATOM     25  C   UNL     1      -6.400  26.951  32.502  1.00  0.00     0.014 C 
ATOM     26  C   UNL     1      -1.516  25.926  31.992  1.00  0.00     0.012 C 
ATOM     27  C   UNL     1       1.706  28.005  30.798  1.00  0.00     0.011 C 
ENDROOT
BRANCH   1  28
ATOM     28  C   UNL     1       2.651  25.256  27.244  1.00  0.00    -0.077 C 
ATOM     29  C   UNL     1       2.115  25.617  25.878  1.00  0.00     0.039 C 
ATOM     30  C   UNL     1       3.340  24.111  27.376  1.00  0.00     0.008 C 
ENDBRANCH   1  28
BRANCH  13  31
ATOM     31  O   UNL     1      -6.295  23.744  32.886  1.00  0.00    -0.393 OA
ATOM     32  H   UNL     1      -6.926  24.078  32.196  1.00  0.00     0.210 HD
ENDBRANCH  13  31
TORSDOF 2
ENDMDL
MODEL 9
REMARK VINA RESULT:    -6.366      2.390      7.252
REMARK INTER + INTRA:          -7.484
REMARK INTER:                  -6.973
REMARK INTRA:                  -0.512
REMARK UNBOUND:                -0.560
REMARK SMILES C=C(C)[C@H]1CC[C@@]2(C)CC[C@@]3(C)[C@@H](CC[C@H]4[C@]5(C)CC[C@H](O)C(C)(C)[C@@H]5CC[C@]43C)[C@H]12
REMARK SMILES IDX 4 1 5 2 6 3 7 4 31 5 13 6 14 7 15 8 16 9 17 10 19 11 20 12
REMARK SMILES IDX 21 13 23 14 26 15 27 16 28 17 29 18 11 19 10 20 9 21 12 22
REMARK SMILES IDX 30 23 24 24 25 25 18 26 8 27 2 28 3 29 1 30 22 31
REMARK H PARENT 22 32
REMARK Flexibility Score: inf
ROOT
ATOM      1  C   UNL     1      -5.037  26.182  32.356  1.00  0.00     0.018 C 
ATOM      2  C   UNL     1      -5.724  25.053  33.167  1.00  0.00     0.009 C 
ATOM      3  C   UNL     1      -5.206  23.716  32.599  1.00  0.00     0.008 C 
ATOM      4  C   UNL     1      -3.904  24.087  31.878  1.00  0.00    -0.029 C 
ATOM      5  C   UNL     1      -4.314  25.426  31.228  1.00  0.00     0.006 C 
ATOM      6  C   UNL     1      -3.114  26.039  30.459  1.00  0.00    -0.000 C 
ATOM      7  C   UNL     1      -3.243  27.507  30.067  1.00  0.00     0.005 C 
ATOM      8  C   UNL     1      -1.857  28.104  29.753  1.00  0.00     0.005 C 
ATOM      9  C   UNL     1      -0.806  27.116  29.131  1.00  0.00     0.002 C 
ATOM     10  C   UNL     1       0.522  26.911  29.993  1.00  0.00    -0.026 C 
ATOM     11  C   UNL     1       1.210  28.307  30.234  1.00  0.00     0.010 C 
ATOM     12  C   UNL     1       2.723  28.208  30.438  1.00  0.00     0.033 C 
ATOM     13  C   UNL     1       3.466  27.643  29.207  1.00  0.00     0.120 C 
ATOM     14  C   UNL     1       2.609  26.643  28.329  1.00  0.00    -0.006 C 
ATOM     15  C   UNL     1       1.532  25.940  29.266  1.00  0.00     0.003 C 
ATOM     16  C   UNL     1       0.839  24.651  28.754  1.00  0.00     0.005 C 
ATOM     17  C   UNL     1      -0.385  24.867  27.864  1.00  0.00     0.008 C 
ATOM     18  C   UNL     1      -1.476  25.871  28.379  1.00  0.00    -0.024 C 
ATOM     19  C   UNL     1      -2.693  25.137  29.229  1.00  0.00    -0.024 C 
ATOM     20  C   UNL     1      -2.352  23.715  29.833  1.00  0.00     0.008 C 
ATOM     21  C   UNL     1      -3.448  23.101  30.772  1.00  0.00     0.007 C 
ATOM     22  C   UNL     1      -3.914  24.862  28.269  1.00  0.00     0.012 C 
ATOM     23  C   UNL     1      -2.041  26.504  27.042  1.00  0.00     0.012 C 
ATOM     24  C   UNL     1       2.002  27.391  27.110  1.00  0.00     0.014 C 
ATOM     25  C   UNL     1       3.586  25.581  27.753  1.00  0.00     0.014 C 
ATOM     26  C   UNL     1       0.224  26.330  31.401  1.00  0.00     0.012 C 
ATOM     27  C   UNL     1      -2.785  24.180  32.964  1.00  0.00     0.011 C 
ENDROOT
BRANCH   1  28
ATOM     28  C   UNL     1      -6.047  27.220  31.870  1.00  0.00    -0.077 C 
ATOM     29  C   UNL     1      -7.190  26.848  30.955  1.00  0.00     0.039 C 
ATOM     30  C   UNL     1      -5.965  28.489  32.301  1.00  0.00     0.008 C 
ENDBRANCH   1  28
BRANCH  13  31
ATOM     31  O   UNL     1       3.961  28.716  28.443  1.00  0.00    -0.393 OA
ATOM     32  H   UNL     1       3.209  29.053  27.889  1.00  0.00     0.210 HD
ENDBRANCH  13  31
TORSDOF 2
ENDMDL
