MODEL 1
REMARK VINA RESULT:    -3.172      0.000      0.000
REMARK INTER + INTRA:          -8.449
REMARK INTER:                  -5.954
REMARK INTRA:                  -2.494
REMARK UNBOUND:                -2.494
REMARK SMILES O=C([O-])CCCCCCCCCCCCCCC(=O)[O-]
REMARK SMILES IDX 10 1 9 2 8 3 7 4 6 5 5 6 4 7 2 8 1 9 3 10 11 11 12 12 13 13
REMARK SMILES IDX 14 14 15 15 16 16 17 17 18 18 19 19 20 20
REMARK H PARENT
REMARK Flexibility Score: inf
ROOT
ATOM      1  C   UNL     1      57.299  26.171  53.049  1.00  0.00     0.000 C 
ENDROOT
BRANCH   1   2
ATOM      2  C   UNL     1      57.487  25.570  51.645  1.00  0.00     0.000 C 
BRANCH   2   3
ATOM      3  C   UNL     1      56.345  25.928  50.683  1.00  0.00     0.000 C 
BRANCH   3   4
ATOM      4  C   UNL     1      54.981  25.607  51.305  1.00  0.00     0.000 C 
BRANCH   4   5
ATOM      5  C   UNL     1      54.073  26.846  51.311  1.00  0.00     0.000 C 
BRANCH   5   6
ATOM      6  C   UNL     1      54.594  27.965  50.395  1.00  0.00     0.006 C 
BRANCH   6   7
ATOM      7  C   UNL     1      53.717  29.222  50.441  1.00  0.00     0.053 C 
BRANCH   7   8
ATOM      8  C   UNL     1      54.336  30.259  51.325  1.00  0.00     0.041 C 
ATOM      9  O   UNL     1      54.150  30.223  52.570  1.00  0.00    -0.550 OA
ATOM     10  O   UNL     1      55.159  31.236  50.779  1.00  0.00    -0.550 OA
ENDBRANCH   7   8
ENDBRANCH   6   7
ENDBRANCH   5   6
ENDBRANCH   4   5
ENDBRANCH   3   4
ENDBRANCH   2   3
ENDBRANCH   1   2
BRANCH   1  11
ATOM     11  C   UNL     1      58.089  27.468  53.314  1.00  0.00     0.000 C 
BRANCH  11  12
ATOM     12  C   UNL     1      57.366  28.768  52.909  1.00  0.00     0.000 C 
BRANCH  12  13
ATOM     13  C   UNL     1      58.127  29.644  51.894  1.00  0.00     0.000 C 
BRANCH  13  14
ATOM     14  C   UNL     1      58.000  29.199  50.423  1.00  0.00     0.000 C 
BRANCH  14  15
ATOM     15  C   UNL     1      59.334  29.029  49.675  1.00  0.00     0.000 C 
BRANCH  15  16
ATOM     16  C   UNL     1      59.920  27.613  49.812  1.00  0.00     0.006 C 
BRANCH  16  17
ATOM     17  C   UNL     1      60.980  27.531  50.917  1.00  0.00     0.053 C 
BRANCH  17  18
ATOM     18  C   UNL     1      62.335  27.205  50.367  1.00  0.00     0.041 C 
ATOM     19  O   UNL     1      62.832  27.908  49.448  1.00  0.00    -0.550 OA
ATOM     20  O   UNL     1      63.035  26.107  50.849  1.00  0.00    -0.550 OA
ENDBRANCH  17  18
ENDBRANCH  16  17
ENDBRANCH  15  16
ENDBRANCH  14  15
ENDBRANCH  13  14
ENDBRANCH  12  13
ENDBRANCH  11  12
ENDBRANCH   1  11
TORSDOF 15
ENDMDL
MODEL 2
REMARK VINA RESULT:    -3.150      1.138      6.234
REMARK INTER + INTRA:          -8.407
REMARK INTER:                  -6.261
REMARK INTRA:                  -2.146
REMARK UNBOUND:                -2.494
REMARK SMILES O=C([O-])CCCCCCCCCCCCCCC(=O)[O-]
REMARK SMILES IDX 10 1 9 2 8 3 7 4 6 5 5 6 4 7 2 8 1 9 3 10 11 11 12 12 13 13
REMARK SMILES IDX 14 14 15 15 16 16 17 17 18 18 19 19 20 20
REMARK H PARENT
REMARK Flexibility Score: inf
ROOT
ATOM      1  C   UNL     1      56.679  26.626  53.066  1.00  0.00     0.000 C 
ENDROOT
BRANCH   1   2
ATOM      2  C   UNL     1      58.011  27.388  52.949  1.00  0.00     0.000 C 
BRANCH   2   3
ATOM      3  C   UNL     1      57.843  28.909  53.081  1.00  0.00     0.000 C 
BRANCH   3   4
ATOM      4  C   UNL     1      58.540  29.640  51.927  1.00  0.00     0.000 C 
BRANCH   4   5
ATOM      5  C   UNL     1      58.144  29.035  50.572  1.00  0.00     0.000 C 
BRANCH   5   6
ATOM      6  C   UNL     1      59.359  28.737  49.680  1.00  0.00     0.006 C 
BRANCH   6   7
ATOM      7  C   UNL     1      59.813  27.275  49.768  1.00  0.00     0.053 C 
BRANCH   7   8
ATOM      8  C   UNL     1      61.189  27.189  50.350  1.00  0.00     0.041 C 
ATOM      9  O   UNL     1      61.395  26.519  51.394  1.00  0.00    -0.550 OA
ATOM     10  O   UNL     1      62.254  27.809  49.708  1.00  0.00    -0.550 OA
ENDBRANCH   7   8
ENDBRANCH   6   7
ENDBRANCH   5   6
ENDBRANCH   4   5
ENDBRANCH   3   4
ENDBRANCH   2   3
ENDBRANCH   1   2
BRANCH   1  11
ATOM     11  C   UNL     1      56.475  25.506  52.025  1.00  0.00     0.000 C 
BRANCH  11  12
ATOM     12  C   UNL     1      55.255  25.687  51.102  1.00  0.00     0.000 C 
BRANCH  12  13
ATOM     13  C   UNL     1      55.193  27.041  50.366  1.00  0.00     0.000 C 
BRANCH  13  14
ATOM     14  C   UNL     1      53.772  27.590  50.128  1.00  0.00     0.000 C 
BRANCH  14  15
ATOM     15  C   UNL     1      53.578  29.074  50.485  1.00  0.00     0.000 C 
BRANCH  15  16
ATOM     16  C   UNL     1      54.667  29.608  51.431  1.00  0.00     0.006 C 
BRANCH  16  17
ATOM     17  C   UNL     1      55.058  31.055  51.104  1.00  0.00     0.053 C 
BRANCH  17  18
ATOM     18  C   UNL     1      55.212  31.884  52.342  1.00  0.00     0.041 C 
ATOM     19  O   UNL     1      56.359  32.201  52.755  1.00  0.00    -0.550 OA
ATOM     20  O   UNL     1      54.090  32.283  53.056  1.00  0.00    -0.550 OA
ENDBRANCH  17  18
ENDBRANCH  16  17
ENDBRANCH  15  16
ENDBRANCH  14  15
ENDBRANCH  13  14
ENDBRANCH  12  13
ENDBRANCH  11  12
ENDBRANCH   1  11
TORSDOF 15
ENDMDL
MODEL 3
REMARK VINA RESULT:    -3.128      2.562      5.993
REMARK INTER + INTRA:          -8.366
REMARK INTER:                  -6.429
REMARK INTRA:                  -1.938
REMARK UNBOUND:                -2.494
REMARK SMILES O=C([O-])CCCCCCCCCCCCCCC(=O)[O-]
REMARK SMILES IDX 10 1 9 2 8 3 7 4 6 5 5 6 4 7 2 8 1 9 3 10 11 11 12 12 13 13
REMARK SMILES IDX 14 14 15 15 16 16 17 17 18 18 19 19 20 20
REMARK H PARENT
REMARK Flexibility Score: inf
ROOT
ATOM      1  C   UNL     1      57.106  31.216  52.662  1.00  0.00     0.000 C 
ENDROOT
BRANCH   1   2
ATOM      2  C   UNL     1      57.205  29.818  53.297  1.00  0.00     0.000 C 
BRANCH   2   3
ATOM      3  C   UNL     1      57.818  28.774  52.352  1.00  0.00     0.000 C 
BRANCH   3   4
ATOM      4  C   UNL     1      58.602  29.450  51.221  1.00  0.00     0.000 C 
BRANCH   4   5
ATOM      5  C   UNL     1      58.673  28.543  49.983  1.00  0.00     0.000 C 
BRANCH   5   6
ATOM      6  C   UNL     1      59.675  27.390  50.151  1.00  0.00     0.006 C 
BRANCH   6   7
ATOM      7  C   UNL     1      58.994  26.017  50.193  1.00  0.00     0.053 C 
BRANCH   7   8
ATOM      8  C   UNL     1      59.461  25.238  51.381  1.00  0.00     0.041 C 
ATOM      9  O   UNL     1      59.533  25.787  52.511  1.00  0.00    -0.550 OA
ATOM     10  O   UNL     1      59.769  23.889  51.251  1.00  0.00    -0.550 OA
ENDBRANCH   7   8
ENDBRANCH   6   7
ENDBRANCH   5   6
ENDBRANCH   4   5
ENDBRANCH   3   4
ENDBRANCH   2   3
ENDBRANCH   1   2
BRANCH   1  11
ATOM     11  C   UNL     1      55.689  31.631  52.218  1.00  0.00     0.000 C 
BRANCH  11  12
ATOM     12  C   UNL     1      55.241  31.066  50.856  1.00  0.00     0.000 C 
BRANCH  12  13
ATOM     13  C   UNL     1      54.201  29.930  50.935  1.00  0.00     0.000 C 
BRANCH  13  14
ATOM     14  C   UNL     1      54.718  28.542  50.510  1.00  0.00     0.000 C 
BRANCH  14  15
ATOM     15  C   UNL     1      53.631  27.554  50.048  1.00  0.00     0.000 C 
BRANCH  15  16
ATOM     16  C   UNL     1      54.144  26.107  49.947  1.00  0.00     0.006 C 
BRANCH  16  17
ATOM     17  C   UNL     1      55.501  25.925  50.639  1.00  0.00     0.053 C 
BRANCH  17  18
ATOM     18  C   UNL     1      55.351  25.374  52.024  1.00  0.00     0.041 C 
ATOM     19  O   UNL     1      54.398  24.598  52.299  1.00  0.00    -0.550 OA
ATOM     20  O   UNL     1      56.247  25.741  53.019  1.00  0.00    -0.550 OA
ENDBRANCH  17  18
ENDBRANCH  16  17
ENDBRANCH  15  16
ENDBRANCH  14  15
ENDBRANCH  13  14
ENDBRANCH  12  13
ENDBRANCH  11  12
ENDBRANCH   1  11
TORSDOF 15
ENDMDL
MODEL 4
REMARK VINA RESULT:    -3.048      2.235      3.389
REMARK INTER + INTRA:          -8.215
REMARK INTER:                  -5.922
REMARK INTRA:                  -2.293
REMARK UNBOUND:                -2.494
REMARK SMILES O=C([O-])CCCCCCCCCCCCCCC(=O)[O-]
REMARK SMILES IDX 10 1 9 2 8 3 7 4 6 5 5 6 4 7 2 8 1 9 3 10 11 11 12 12 13 13
REMARK SMILES IDX 14 14 15 15 16 16 17 17 18 18 19 19 20 20
REMARK H PARENT
REMARK Flexibility Score: inf
ROOT
ATOM      1  C   UNL     1      57.269  28.160  53.169  1.00  0.00     0.000 C 
ENDROOT
BRANCH   1   2
ATOM      2  C   UNL     1      57.358  29.486  52.393  1.00  0.00     0.000 C 
BRANCH   2   3
ATOM      3  C   UNL     1      56.292  29.611  51.295  1.00  0.00     0.000 C 
BRANCH   3   4
ATOM      4  C   UNL     1      55.081  28.722  51.602  1.00  0.00     0.000 C 
BRANCH   4   5
ATOM      5  C   UNL     1      54.038  28.806  50.476  1.00  0.00     0.000 C 
BRANCH   5   6
ATOM      6  C   UNL     1      53.537  27.424  50.030  1.00  0.00     0.006 C 
BRANCH   6   7
ATOM      7  C   UNL     1      54.643  26.361  50.044  1.00  0.00     0.053 C 
BRANCH   7   8
ATOM      8  C   UNL     1      54.157  25.110  50.706  1.00  0.00     0.041 C 
ATOM      9  O   UNL     1      53.559  24.229  50.035  1.00  0.00    -0.550 OA
ATOM     10  O   UNL     1      54.410  24.895  52.055  1.00  0.00    -0.550 OA
ENDBRANCH   7   8
ENDBRANCH   6   7
ENDBRANCH   5   6
ENDBRANCH   4   5
ENDBRANCH   3   4
ENDBRANCH   2   3
ENDBRANCH   1   2
BRANCH   1  11
ATOM     11  C   UNL     1      58.626  27.540  53.559  1.00  0.00     0.000 C 
BRANCH  11  12
ATOM     12  C   UNL     1      58.964  26.212  52.853  1.00  0.00     0.000 C 
BRANCH  12  13
ATOM     13  C   UNL     1      57.889  25.708  51.869  1.00  0.00     0.000 C 
BRANCH  13  14
ATOM     14  C   UNL     1      58.194  25.969  50.381  1.00  0.00     0.000 C 
BRANCH  14  15
ATOM     15  C   UNL     1      59.566  26.606  50.098  1.00  0.00     0.000 C 
BRANCH  15  16
ATOM     16  C   UNL     1      59.464  28.083  49.679  1.00  0.00     0.006 C 
BRANCH  16  17
ATOM     17  C   UNL     1      60.392  28.983  50.504  1.00  0.00     0.053 C 
BRANCH  17  18
ATOM     18  C   UNL     1      61.709  28.324  50.779  1.00  0.00     0.041 C 
ATOM     19  O   UNL     1      62.021  27.994  51.953  1.00  0.00    -0.550 OA
ATOM     20  O   UNL     1      62.604  28.101  49.741  1.00  0.00    -0.550 OA
ENDBRANCH  17  18
ENDBRANCH  16  17
ENDBRANCH  15  16
ENDBRANCH  14  15
ENDBRANCH  13  14
ENDBRANCH  12  13
ENDBRANCH  11  12
ENDBRANCH   1  11
TORSDOF 15
ENDMDL
MODEL 5
REMARK VINA RESULT:    -2.999      2.289      6.095
REMARK INTER + INTRA:          -8.124
REMARK INTER:                  -5.744
REMARK INTRA:                  -2.380
REMARK UNBOUND:                -2.494
REMARK SMILES O=C([O-])CCCCCCCCCCCCCCC(=O)[O-]
REMARK SMILES IDX 10 1 9 2 8 3 7 4 6 5 5 6 4 7 2 8 1 9 3 10 11 11 12 12 13 13
REMARK SMILES IDX 14 14 15 15 16 16 17 17 18 18 19 19 20 20
REMARK H PARENT
REMARK Flexibility Score: inf
ROOT
ATOM      1  C   UNL     1      57.406  31.429  53.240  1.00  0.00     0.000 C 
ENDROOT
BRANCH   1   2
ATOM      2  C   UNL     1      57.494  30.032  53.880  1.00  0.00     0.000 C 
BRANCH   2   3
ATOM      3  C   UNL     1      58.024  28.963  52.914  1.00  0.00     0.000 C 
BRANCH   3   4
ATOM      4  C   UNL     1      58.432  29.587  51.573  1.00  0.00     0.000 C 
BRANCH   4   5
ATOM      5  C   UNL     1      58.065  28.663  50.402  1.00  0.00     0.000 C 
BRANCH   5   6
ATOM      6  C   UNL     1      58.903  27.375  50.380  1.00  0.00     0.006 C 
BRANCH   6   7
ATOM      7  C   UNL     1      60.209  27.533  49.592  1.00  0.00     0.053 C 
BRANCH   7   8
ATOM      8  C   UNL     1      61.384  27.526  50.519  1.00  0.00     0.041 C 
ATOM      9  O   UNL     1      62.108  28.548  50.632  1.00  0.00    -0.550 OA
ATOM     10  O   UNL     1      61.648  26.405  51.296  1.00  0.00    -0.550 OA
ENDBRANCH   7   8
ENDBRANCH   6   7
ENDBRANCH   5   6
ENDBRANCH   4   5
ENDBRANCH   3   4
ENDBRANCH   2   3
ENDBRANCH   1   2
BRANCH   1  11
ATOM     11  C   UNL     1      56.154  32.244  53.622  1.00  0.00     0.000 C 
BRANCH  11  12
ATOM     12  C   UNL     1      54.990  32.163  52.616  1.00  0.00     0.000 C 
BRANCH  12  13
ATOM     13  C   UNL     1      55.370  31.608  51.228  1.00  0.00     0.000 C 
BRANCH  13  14
ATOM     14  C   UNL     1      54.758  30.236  50.884  1.00  0.00     0.000 C 
BRANCH  14  15
ATOM     15  C   UNL     1      54.348  29.382  52.098  1.00  0.00     0.000 C 
BRANCH  15  16
ATOM     16  C   UNL     1      54.497  27.872  51.843  1.00  0.00     0.006 C 
BRANCH  16  17
ATOM     17  C   UNL     1      54.558  27.542  50.347  1.00  0.00     0.053 C 
BRANCH  17  18
ATOM     18  C   UNL     1      54.901  26.103  50.107  1.00  0.00     0.041 C 
ATOM     19  O   UNL     1      55.921  25.595  50.643  1.00  0.00    -0.550 OA
ATOM     20  O   UNL     1      54.108  25.330  49.268  1.00  0.00    -0.550 OA
ENDBRANCH  17  18
ENDBRANCH  16  17
ENDBRANCH  15  16
ENDBRANCH  14  15
ENDBRANCH  13  14
ENDBRANCH  12  13
ENDBRANCH  11  12
ENDBRANCH   1  11
TORSDOF 15
ENDMDL
MODEL 6
REMARK VINA RESULT:    -2.981      1.863      2.362
REMARK INTER + INTRA:          -8.089
REMARK INTER:                  -6.215
REMARK INTRA:                  -1.873
REMARK UNBOUND:                -2.494
REMARK SMILES O=C([O-])CCCCCCCCCCCCCCC(=O)[O-]
REMARK SMILES IDX 10 1 9 2 8 3 7 4 6 5 5 6 4 7 2 8 1 9 3 10 11 11 12 12 13 13
REMARK SMILES IDX 14 14 15 15 16 16 17 17 18 18 19 19 20 20
REMARK H PARENT
REMARK Flexibility Score: inf
ROOT
ATOM      1  C   UNL     1      56.070  25.631  51.667  1.00  0.00     0.000 C 
ENDROOT
BRANCH   1   2
ATOM      2  C   UNL     1      54.599  25.339  51.321  1.00  0.00     0.000 C 
BRANCH   2   3
ATOM      3  C   UNL     1      54.312  25.421  49.814  1.00  0.00     0.000 C 
BRANCH   3   4
ATOM      4  C   UNL     1      53.314  26.544  49.505  1.00  0.00     0.000 C 
BRANCH   4   5
ATOM      5  C   UNL     1      52.922  27.299  50.784  1.00  0.00     0.000 C 
BRANCH   5   6
ATOM      6  C   UNL     1      53.180  28.810  50.681  1.00  0.00     0.006 C 
BRANCH   6   7
ATOM      7  C   UNL     1      53.635  29.424  52.011  1.00  0.00     0.053 C 
BRANCH   7   8
ATOM      8  C   UNL     1      54.238  30.774  51.784  1.00  0.00     0.041 C 
ATOM      9  O   UNL     1      53.985  31.722  52.573  1.00  0.00    -0.550 OA
ATOM     10  O   UNL     1      55.121  30.973  50.730  1.00  0.00    -0.550 OA
ENDBRANCH   7   8
ENDBRANCH   6   7
ENDBRANCH   5   6
ENDBRANCH   4   5
ENDBRANCH   3   4
ENDBRANCH   2   3
ENDBRANCH   1   2
BRANCH   1  11
ATOM     11  C   UNL     1      56.849  26.416  50.593  1.00  0.00     0.000 C 
BRANCH  11  12
ATOM     12  C   UNL     1      56.780  27.950  50.727  1.00  0.00     0.000 C 
BRANCH  12  13
ATOM     13  C   UNL     1      58.127  28.636  51.033  1.00  0.00     0.000 C 
BRANCH  13  14
ATOM     14  C   UNL     1      59.088  28.749  49.833  1.00  0.00     0.000 C 
BRANCH  14  15
ATOM     15  C   UNL     1      60.105  27.602  49.701  1.00  0.00     0.000 C 
BRANCH  15  16
ATOM     16  C   UNL     1      61.120  27.567  50.857  1.00  0.00     0.006 C 
BRANCH  16  17
ATOM     17  C   UNL     1      61.404  26.137  51.334  1.00  0.00     0.053 C 
BRANCH  17  18
ATOM     18  C   UNL     1      60.155  25.441  51.785  1.00  0.00     0.041 C 
ATOM     19  O   UNL     1      59.530  25.853  52.797  1.00  0.00    -0.550 OA
ATOM     20  O   UNL     1      59.700  24.320  51.104  1.00  0.00    -0.550 OA
ENDBRANCH  17  18
ENDBRANCH  16  17
ENDBRANCH  15  16
ENDBRANCH  14  15
ENDBRANCH  13  14
ENDBRANCH  12  13
ENDBRANCH  11  12
ENDBRANCH   1  11
TORSDOF 15
ENDMDL
MODEL 7
REMARK VINA RESULT:    -2.959      1.825      5.576
REMARK INTER + INTRA:          -8.049
REMARK INTER:                  -6.195
REMARK INTRA:                  -1.854
REMARK UNBOUND:                -2.494
REMARK SMILES O=C([O-])CCCCCCCCCCCCCCC(=O)[O-]
REMARK SMILES IDX 10 1 9 2 8 3 7 4 6 5 5 6 4 7 2 8 1 9 3 10 11 11 12 12 13 13
REMARK SMILES IDX 14 14 15 15 16 16 17 17 18 18 19 19 20 20
REMARK H PARENT
REMARK Flexibility Score: inf
ROOT
ATOM      1  C   UNL     1      54.334  27.224  51.087  1.00  0.00     0.000 C 
ENDROOT
BRANCH   1   2
ATOM      2  C   UNL     1      55.377  26.342  50.378  1.00  0.00     0.000 C 
BRANCH   2   3
ATOM      3  C   UNL     1      56.821  26.693  50.766  1.00  0.00     0.000 C 
BRANCH   3   4
ATOM      4  C   UNL     1      57.682  25.429  50.882  1.00  0.00     0.000 C 
BRANCH   4   5
ATOM      5  C   UNL     1      59.168  25.755  50.668  1.00  0.00     0.000 C 
BRANCH   5   6
ATOM      6  C   UNL     1      59.469  27.256  50.798  1.00  0.00     0.006 C 
BRANCH   6   7
ATOM      7  C   UNL     1      60.431  27.762  49.715  1.00  0.00     0.053 C 
BRANCH   7   8
ATOM      8  C   UNL     1      61.806  27.936  50.278  1.00  0.00     0.041 C 
ATOM      9  O   UNL     1      61.960  28.282  51.478  1.00  0.00    -0.550 OA
ATOM     10  O   UNL     1      62.919  27.668  49.490  1.00  0.00    -0.550 OA
ENDBRANCH   7   8
ENDBRANCH   6   7
ENDBRANCH   5   6
ENDBRANCH   4   5
ENDBRANCH   3   4
ENDBRANCH   2   3
ENDBRANCH   1   2
BRANCH   1  11
ATOM     11  C   UNL     1      53.289  27.872  50.157  1.00  0.00     0.000 C 
BRANCH  11  12
ATOM     12  C   UNL     1      53.119  29.395  50.327  1.00  0.00     0.000 C 
BRANCH  12  13
ATOM     13  C   UNL     1      53.327  29.914  51.764  1.00  0.00     0.000 C 
BRANCH  13  14
ATOM     14  C   UNL     1      54.513  30.882  51.942  1.00  0.00     0.000 C 
BRANCH  14  15
ATOM     15  C   UNL     1      55.454  30.991  50.729  1.00  0.00     0.000 C 
BRANCH  15  16
ATOM     16  C   UNL     1      56.769  30.215  50.921  1.00  0.00     0.006 C 
BRANCH  16  17
ATOM     17  C   UNL     1      57.080  29.964  52.401  1.00  0.00     0.053 C 
BRANCH  17  18
ATOM     18  C   UNL     1      58.147  30.885  52.911  1.00  0.00     0.041 C 
ATOM     19  O   UNL     1      57.842  32.021  53.361  1.00  0.00    -0.550 OA
ATOM     20  O   UNL     1      59.480  30.500  52.860  1.00  0.00    -0.550 OA
ENDBRANCH  17  18
ENDBRANCH  16  17
ENDBRANCH  15  16
ENDBRANCH  14  15
ENDBRANCH  13  14
ENDBRANCH  12  13
ENDBRANCH  11  12
ENDBRANCH   1  11
TORSDOF 15
ENDMDL
MODEL 8
REMARK VINA RESULT:    -2.889      2.645      4.026
REMARK INTER + INTRA:          -7.917
REMARK INTER:                  -5.904
REMARK INTRA:                  -2.012
REMARK UNBOUND:                -2.494
REMARK SMILES O=C([O-])CCCCCCCCCCCCCCC(=O)[O-]
REMARK SMILES IDX 10 1 9 2 8 3 7 4 6 5 5 6 4 7 2 8 1 9 3 10 11 11 12 12 13 13
REMARK SMILES IDX 14 14 15 15 16 16 17 17 18 18 19 19 20 20
REMARK H PARENT
REMARK Flexibility Score: inf
ROOT
ATOM      1  C   UNL     1      53.564  29.175  50.371  1.00  0.00     0.000 C 
ENDROOT
BRANCH   1   2
ATOM      2  C   UNL     1      53.245  27.710  50.025  1.00  0.00     0.000 C 
BRANCH   2   3
ATOM      3  C   UNL     1      54.064  26.707  50.851  1.00  0.00     0.000 C 
BRANCH   3   4
ATOM      4  C   UNL     1      55.138  26.032  49.990  1.00  0.00     0.000 C 
BRANCH   4   5
ATOM      5  C   UNL     1      56.366  25.659  50.834  1.00  0.00     0.000 C 
BRANCH   5   6
ATOM      6  C   UNL     1      56.229  26.096  52.302  1.00  0.00     0.006 C 
BRANCH   6   7
ATOM      7  C   UNL     1      57.586  26.299  52.987  1.00  0.00     0.053 C 
BRANCH   7   8
ATOM      8  C   UNL     1      57.955  25.089  53.785  1.00  0.00     0.041 C 
ATOM      9  O   UNL     1      58.772  25.183  54.739  1.00  0.00    -0.550 OA
ATOM     10  O   UNL     1      57.358  23.865  53.508  1.00  0.00    -0.550 OA
ENDBRANCH   7   8
ENDBRANCH   6   7
ENDBRANCH   5   6
ENDBRANCH   4   5
ENDBRANCH   3   4
ENDBRANCH   2   3
ENDBRANCH   1   2
BRANCH   1  11
ATOM     11  C   UNL     1      54.646  29.367  51.454  1.00  0.00     0.000 C 
BRANCH  11  12
ATOM     12  C   UNL     1      55.682  30.468  51.152  1.00  0.00     0.000 C 
BRANCH  12  13
ATOM     13  C   UNL     1      57.153  30.043  51.336  1.00  0.00     0.000 C 
BRANCH  13  14
ATOM     14  C   UNL     1      57.631  28.925  50.388  1.00  0.00     0.000 C 
BRANCH  14  15
ATOM     15  C   UNL     1      58.983  29.185  49.701  1.00  0.00     0.000 C 
BRANCH  15  16
ATOM     16  C   UNL     1      60.167  28.550  50.452  1.00  0.00     0.006 C 
BRANCH  16  17
ATOM     17  C   UNL     1      60.138  27.018  50.384  1.00  0.00     0.053 C 
BRANCH  17  18
ATOM     18  C   UNL     1      61.273  26.405  51.147  1.00  0.00     0.041 C 
ATOM     19  O   UNL     1      61.044  25.678  52.149  1.00  0.00    -0.550 OA
ATOM     20  O   UNL     1      62.584  26.661  50.767  1.00  0.00    -0.550 OA
ENDBRANCH  17  18
ENDBRANCH  16  17
ENDBRANCH  15  16
ENDBRANCH  14  15
ENDBRANCH  13  14
ENDBRANCH  12  13
ENDBRANCH  11  12
ENDBRANCH   1  11
TORSDOF 15
ENDMDL
MODEL 9
REMARK VINA RESULT:    -2.881      2.535      3.742
REMARK INTER + INTRA:          -7.903
REMARK INTER:                  -5.273
REMARK INTRA:                  -2.630
REMARK UNBOUND:                -2.494
REMARK SMILES O=C([O-])CCCCCCCCCCCCCCC(=O)[O-]
REMARK SMILES IDX 10 1 9 2 8 3 7 4 6 5 5 6 4 7 2 8 1 9 3 10 11 11 12 12 13 13
REMARK SMILES IDX 14 14 15 15 16 16 17 17 18 18 19 19 20 20
REMARK H PARENT
REMARK Flexibility Score: inf
ROOT
ATOM      1  C   UNL     1      60.179  26.489  52.600  1.00  0.00     0.000 C 
ENDROOT
BRANCH   1   2
ATOM      2  C   UNL     1      58.899  25.754  53.035  1.00  0.00     0.000 C 
BRANCH   2   3
ATOM      3  C   UNL     1      58.049  25.279  51.847  1.00  0.00     0.000 C 
BRANCH   3   4
ATOM      4  C   UNL     1      56.673  25.956  51.849  1.00  0.00     0.000 C 
BRANCH   4   5
ATOM      5  C   UNL     1      56.085  26.012  50.431  1.00  0.00     0.000 C 
BRANCH   5   6
ATOM      6  C   UNL     1      54.889  26.972  50.324  1.00  0.00     0.006 C 
BRANCH   6   7
ATOM      7  C   UNL     1      54.487  27.569  51.679  1.00  0.00     0.053 C 
BRANCH   7   8
ATOM      8  C   UNL     1      53.805  28.886  51.487  1.00  0.00     0.041 C 
ATOM      9  O   UNL     1      53.902  29.497  50.391  1.00  0.00    -0.550 OA
ATOM     10  O   UNL     1      53.021  29.417  52.504  1.00  0.00    -0.550 OA
ENDBRANCH   7   8
ENDBRANCH   6   7
ENDBRANCH   5   6
ENDBRANCH   4   5
ENDBRANCH   3   4
ENDBRANCH   2   3
ENDBRANCH   1   2
BRANCH   1  11
ATOM     11  C   UNL     1      60.631  26.209  51.152  1.00  0.00     0.000 C 
BRANCH  11  12
ATOM     12  C   UNL     1      60.701  27.449  50.239  1.00  0.00     0.000 C 
BRANCH  12  13
ATOM     13  C   UNL     1      59.358  27.865  49.605  1.00  0.00     0.000 C 
BRANCH  13  14
ATOM     14  C   UNL     1      58.914  29.310  49.908  1.00  0.00     0.000 C 
BRANCH  14  15
ATOM     15  C   UNL     1      57.617  29.437  50.727  1.00  0.00     0.000 C 
BRANCH  15  16
ATOM     16  C   UNL     1      57.864  29.391  52.246  1.00  0.00     0.006 C 
BRANCH  16  17
ATOM     17  C   UNL     1      59.147  30.129  52.645  1.00  0.00     0.053 C 
BRANCH  17  18
ATOM     18  C   UNL     1      58.855  31.366  53.439  1.00  0.00     0.041 C 
ATOM     19  O   UNL     1      57.728  31.522  53.979  1.00  0.00    -0.550 OA
ATOM     20  O   UNL     1      59.817  32.360  53.557  1.00  0.00    -0.550 OA
ENDBRANCH  17  18
ENDBRANCH  16  17
ENDBRANCH  15  16
ENDBRANCH  14  15
ENDBRANCH  13  14
ENDBRANCH  12  13
ENDBRANCH  11  12
ENDBRANCH   1  11
TORSDOF 15
ENDMDL
