MODEL 1
REMARK VINA RESULT:    -4.074      0.000      0.000
REMARK INTER + INTRA:          -9.619
REMARK INTER:                  -7.409
REMARK INTRA:                  -2.210
REMARK UNBOUND:                -2.210
REMARK SMILES CCCCCCCCCCCCCC[C@@H](C)C(=O)[O-]
REMARK SMILES IDX 9 1 10 2 11 3 12 4 13 5 14 6 15 7 16 8 17 9 18 10 19 11 8 12
REMARK SMILES IDX 7 13 6 14 5 15 4 16 3 17 2 18 1 19
REMARK H PARENT
REMARK Flexibility Score: inf
ROOT
ATOM      1  C   UNL     1      21.616  -0.018  13.371  1.00  0.00     0.000 C 
ENDROOT
BRANCH   1   2
ATOM      2  C   UNL     1      21.953   0.656  14.712  1.00  0.00     0.000 C 
BRANCH   2   3
ATOM      3  C   UNL     1      23.390   0.365  15.177  1.00  0.00     0.000 C 
BRANCH   3   4
ATOM      4  C   UNL     1      24.262   1.632  15.233  1.00  0.00     0.000 C 
BRANCH   4   5
ATOM      5  C   UNL     1      23.453   2.917  14.991  1.00  0.00     0.001 C 
BRANCH   5   6
ATOM      6  C   UNL     1      24.193   3.922  14.089  1.00  0.00     0.009 C 
BRANCH   6   7
ATOM      7  C   UNL     1      23.423   4.233  12.787  1.00  0.00     0.032 C 
ATOM      8  C   UNL     1      21.987   3.693  12.815  1.00  0.00     0.014 C 
BRANCH   7   9
ATOM      9  C   UNL     1      23.396   5.719  12.556  1.00  0.00     0.044 C 
ATOM     10  O   UNL     1      24.254   6.461  13.105  1.00  0.00    -0.550 OA
ATOM     11  O   UNL     1      22.425   6.284  11.738  1.00  0.00    -0.550 OA
ENDBRANCH   7   9
ENDBRANCH   6   7
ENDBRANCH   5   6
ENDBRANCH   4   5
ENDBRANCH   3   4
ENDBRANCH   2   3
ENDBRANCH   1   2
BRANCH   1  12
ATOM     12  C   UNL     1      22.061  -1.489  13.322  1.00  0.00     0.000 C 
BRANCH  12  13
ATOM     13  C   UNL     1      20.893  -2.455  13.076  1.00  0.00    -0.000 C 
BRANCH  13  14
ATOM     14  C   UNL     1      19.863  -2.370  14.213  1.00  0.00    -0.000 C 
BRANCH  14  15
ATOM     15  C   UNL     1      20.295  -3.150  15.466  1.00  0.00    -0.000 C 
BRANCH  15  16
ATOM     16  C   UNL     1      20.646  -2.230  16.644  1.00  0.00    -0.000 C 
BRANCH  16  17
ATOM     17  C   UNL     1      22.065  -2.508  17.153  1.00  0.00    -0.000 C 
BRANCH  17  18
ATOM     18  C   UNL     1      22.710  -3.665  16.382  1.00  0.00    -0.003 C 
ATOM     19  C   UNL     1      24.045  -3.245  15.772  1.00  0.00     0.004 C 
ENDBRANCH  17  18
ENDBRANCH  16  17
ENDBRANCH  15  16
ENDBRANCH  14  15
ENDBRANCH  13  14
ENDBRANCH  12  13
ENDBRANCH   1  12
TORSDOF 14
ENDMDL
MODEL 2
REMARK VINA RESULT:    -4.065      1.268      2.205
REMARK INTER + INTRA:          -9.601
REMARK INTER:                  -7.337
REMARK INTRA:                  -2.264
REMARK UNBOUND:                -2.210
REMARK SMILES CCCCCCCCCCCCCC[C@@H](C)C(=O)[O-]
REMARK SMILES IDX 9 1 10 2 11 3 12 4 13 5 14 6 15 7 16 8 17 9 18 10 19 11 8 12
REMARK SMILES IDX 7 13 6 14 5 15 4 16 3 17 2 18 1 19
REMARK H PARENT
REMARK Flexibility Score: inf
ROOT
ATOM      1  C   UNL     1      20.940  -0.148  17.179  1.00  0.00     0.000 C 
ENDROOT
BRANCH   1   2
ATOM      2  C   UNL     1      21.723   0.983  16.489  1.00  0.00     0.000 C 
BRANCH   2   3
ATOM      3  C   UNL     1      23.228   0.934  16.798  1.00  0.00     0.000 C 
BRANCH   3   4
ATOM      4  C   UNL     1      24.097   1.099  15.538  1.00  0.00     0.000 C 
BRANCH   4   5
ATOM      5  C   UNL     1      24.723   2.500  15.432  1.00  0.00     0.001 C 
BRANCH   5   6
ATOM      6  C   UNL     1      23.716   3.563  14.957  1.00  0.00     0.009 C 
BRANCH   6   7
ATOM      7  C   UNL     1      23.451   3.495  13.437  1.00  0.00     0.032 C 
ATOM      8  C   UNL     1      22.023   3.033  13.113  1.00  0.00     0.014 C 
BRANCH   7   9
ATOM      9  C   UNL     1      23.695   4.844  12.817  1.00  0.00     0.044 C 
ATOM     10  O   UNL     1      22.738   5.647  12.652  1.00  0.00    -0.550 OA
ATOM     11  O   UNL     1      24.975   5.212  12.422  1.00  0.00    -0.550 OA
ENDBRANCH   7   9
ENDBRANCH   6   7
ENDBRANCH   5   6
ENDBRANCH   4   5
ENDBRANCH   3   4
ENDBRANCH   2   3
ENDBRANCH   1   2
BRANCH   1  12
ATOM     12  C   UNL     1      20.177  -1.033  16.180  1.00  0.00     0.000 C 
BRANCH  12  13
ATOM     13  C   UNL     1      20.583  -0.770  14.722  1.00  0.00    -0.000 C 
BRANCH  13  14
ATOM     14  C   UNL     1      21.181  -2.034  14.084  1.00  0.00    -0.000 C 
BRANCH  14  15
ATOM     15  C   UNL     1      22.700  -1.931  13.871  1.00  0.00    -0.000 C 
BRANCH  15  16
ATOM     16  C   UNL     1      23.476  -3.040  14.597  1.00  0.00    -0.000 C 
BRANCH  16  17
ATOM     17  C   UNL     1      23.853  -2.607  16.018  1.00  0.00    -0.000 C 
BRANCH  17  18
ATOM     18  C   UNL     1      23.584  -3.729  17.026  1.00  0.00    -0.003 C 
ATOM     19  C   UNL     1      22.107  -4.115  17.041  1.00  0.00     0.004 C 
ENDBRANCH  17  18
ENDBRANCH  16  17
ENDBRANCH  15  16
ENDBRANCH  14  15
ENDBRANCH  13  14
ENDBRANCH  12  13
ENDBRANCH   1  12
TORSDOF 14
ENDMDL
MODEL 3
REMARK VINA RESULT:    -3.990      3.404      5.715
REMARK INTER + INTRA:          -9.464
REMARK INTER:                  -6.773
REMARK INTRA:                  -2.691
REMARK UNBOUND:                -2.210
REMARK SMILES CCCCCCCCCCCCCC[C@@H](C)C(=O)[O-]
REMARK SMILES IDX 9 1 10 2 11 3 12 4 13 5 14 6 15 7 16 8 17 9 18 10 19 11 8 12
REMARK SMILES IDX 7 13 6 14 5 15 4 16 3 17 2 18 1 19
REMARK H PARENT
REMARK Flexibility Score: inf
ROOT
ATOM      1  C   UNL     1      20.974  -3.547  16.877  1.00  0.00     0.000 C 
ENDROOT
BRANCH   1   2
ATOM      2  C   UNL     1      22.365  -4.196  16.993  1.00  0.00     0.000 C 
BRANCH   2   3
ATOM      3  C   UNL     1      23.506  -3.197  16.742  1.00  0.00     0.000 C 
BRANCH   3   4
ATOM      4  C   UNL     1      23.826  -3.027  15.246  1.00  0.00     0.000 C 
BRANCH   4   5
ATOM      5  C   UNL     1      23.176  -1.770  14.643  1.00  0.00     0.001 C 
BRANCH   5   6
ATOM      6  C   UNL     1      22.074  -2.107  13.622  1.00  0.00     0.009 C 
BRANCH   6   7
ATOM      7  C   UNL     1      20.978  -1.021  13.549  1.00  0.00     0.032 C 
ATOM      8  C   UNL     1      21.418   0.199  12.729  1.00  0.00     0.014 C 
BRANCH   7   9
ATOM      9  C   UNL     1      19.726  -1.602  12.952  1.00  0.00     0.044 C 
ATOM     10  O   UNL     1      19.072  -2.478  13.580  1.00  0.00    -0.550 OA
ATOM     11  O   UNL     1      19.283  -1.180  11.705  1.00  0.00    -0.550 OA
ENDBRANCH   7   9
ENDBRANCH   6   7
ENDBRANCH   5   6
ENDBRANCH   4   5
ENDBRANCH   3   4
ENDBRANCH   2   3
ENDBRANCH   1   2
BRANCH   1  12
ATOM     12  C   UNL     1      20.839  -2.284  17.742  1.00  0.00     0.000 C 
BRANCH  12  13
ATOM     13  C   UNL     1      19.995  -1.190  17.070  1.00  0.00    -0.000 C 
BRANCH  13  14
ATOM     14  C   UNL     1      20.789   0.120  16.955  1.00  0.00    -0.000 C 
BRANCH  14  15
ATOM     15  C   UNL     1      22.116   0.082  17.730  1.00  0.00    -0.000 C 
BRANCH  15  16
ATOM     16  C   UNL     1      23.066   1.222  17.334  1.00  0.00    -0.000 C 
BRANCH  16  17
ATOM     17  C   UNL     1      22.700   1.787  15.957  1.00  0.00    -0.000 C 
BRANCH  17  18
ATOM     18  C   UNL     1      23.914   1.789  15.021  1.00  0.00    -0.003 C 
ATOM     19  C   UNL     1      25.082   2.555  15.635  1.00  0.00     0.004 C 
ENDBRANCH  17  18
ENDBRANCH  16  17
ENDBRANCH  15  16
ENDBRANCH  14  15
ENDBRANCH  13  14
ENDBRANCH  12  13
ENDBRANCH   1  12
TORSDOF 14
ENDMDL
MODEL 4
REMARK VINA RESULT:    -3.951      2.397      4.655
REMARK INTER + INTRA:          -9.395
REMARK INTER:                  -6.772
REMARK INTRA:                  -2.623
REMARK UNBOUND:                -2.210
REMARK SMILES CCCCCCCCCCCCCC[C@@H](C)C(=O)[O-]
REMARK SMILES IDX 9 1 10 2 11 3 12 4 13 5 14 6 15 7 16 8 17 9 18 10 19 11 8 12
REMARK SMILES IDX 7 13 6 14 5 15 4 16 3 17 2 18 1 19
REMARK H PARENT
REMARK Flexibility Score: inf
ROOT
ATOM      1  C   UNL     1      23.700  -2.454  16.638  1.00  0.00     0.000 C 
ENDROOT
BRANCH   1   2
ATOM      2  C   UNL     1      23.847  -3.196  15.298  1.00  0.00     0.000 C 
BRANCH   2   3
ATOM      3  C   UNL     1      23.024  -2.549  14.170  1.00  0.00     0.000 C 
BRANCH   3   4
ATOM      4  C   UNL     1      21.507  -2.691  14.388  1.00  0.00     0.000 C 
BRANCH   4   5
ATOM      5  C   UNL     1      20.775  -1.339  14.344  1.00  0.00     0.001 C 
BRANCH   5   6
ATOM      6  C   UNL     1      21.658  -0.207  13.788  1.00  0.00     0.009 C 
BRANCH   6   7
ATOM      7  C   UNL     1      21.833   0.957  14.788  1.00  0.00     0.032 C 
ATOM      8  C   UNL     1      21.583   0.524  16.239  1.00  0.00     0.014 C 
BRANCH   7   9
ATOM      9  C   UNL     1      23.219   1.528  14.666  1.00  0.00     0.044 C 
ATOM     10  O   UNL     1      23.441   2.491  13.885  1.00  0.00    -0.550 OA
ATOM     11  O   UNL     1      24.264   0.995  15.411  1.00  0.00    -0.550 OA
ENDBRANCH   7   9
ENDBRANCH   6   7
ENDBRANCH   5   6
ENDBRANCH   4   5
ENDBRANCH   3   4
ENDBRANCH   2   3
ENDBRANCH   1   2
BRANCH   1  12
ATOM     12  C   UNL     1      24.276  -3.250  17.820  1.00  0.00     0.000 C 
BRANCH  12  13
ATOM     13  C   UNL     1      24.205  -4.769  17.604  1.00  0.00    -0.000 C 
BRANCH  13  14
ATOM     14  C   UNL     1      23.054  -5.385  18.413  1.00  0.00    -0.000 C 
BRANCH  14  15
ATOM     15  C   UNL     1      21.712  -5.343  17.665  1.00  0.00    -0.000 C 
BRANCH  15  16
ATOM     16  C   UNL     1      20.644  -4.528  18.409  1.00  0.00    -0.000 C 
BRANCH  16  17
ATOM     17  C   UNL     1      20.140  -3.365  17.546  1.00  0.00    -0.000 C 
BRANCH  17  18
ATOM     18  C   UNL     1      20.014  -2.080  18.372  1.00  0.00    -0.003 C 
ATOM     19  C   UNL     1      21.182  -1.931  19.343  1.00  0.00     0.004 C 
ENDBRANCH  17  18
ENDBRANCH  16  17
ENDBRANCH  15  16
ENDBRANCH  14  15
ENDBRANCH  13  14
ENDBRANCH  12  13
ENDBRANCH   1  12
TORSDOF 14
ENDMDL
MODEL 5
REMARK VINA RESULT:    -3.948      4.136      6.973
REMARK INTER + INTRA:          -9.389
REMARK INTER:                  -7.071
REMARK INTRA:                  -2.318
REMARK UNBOUND:                -2.210
REMARK SMILES CCCCCCCCCCCCCC[C@@H](C)C(=O)[O-]
REMARK SMILES IDX 9 1 10 2 11 3 12 4 13 5 14 6 15 7 16 8 17 9 18 10 19 11 8 12
REMARK SMILES IDX 7 13 6 14 5 15 4 16 3 17 2 18 1 19
REMARK H PARENT
REMARK Flexibility Score: inf
ROOT
ATOM      1  C   UNL     1      23.055   0.907  17.509  1.00  0.00     0.000 C 
ENDROOT
BRANCH   1   2
ATOM      2  C   UNL     1      21.521   0.975  17.402  1.00  0.00     0.000 C 
BRANCH   2   3
ATOM      3  C   UNL     1      20.843  -0.357  17.761  1.00  0.00     0.000 C 
BRANCH   3   4
ATOM      4  C   UNL     1      20.213  -1.049  16.539  1.00  0.00     0.000 C 
BRANCH   4   5
ATOM      5  C   UNL     1      20.870  -2.403  16.223  1.00  0.00     0.001 C 
BRANCH   5   6
ATOM      6  C   UNL     1      22.044  -2.725  17.167  1.00  0.00     0.009 C 
BRANCH   6   7
ATOM      7  C   UNL     1      23.046  -3.726  16.551  1.00  0.00     0.032 C 
ATOM      8  C   UNL     1      23.808  -3.131  15.359  1.00  0.00     0.014 C 
BRANCH   7   9
ATOM      9  C   UNL     1      24.026  -4.174  17.600  1.00  0.00     0.044 C 
ATOM     10  O   UNL     1      24.279  -5.399  17.748  1.00  0.00    -0.550 OA
ATOM     11  O   UNL     1      24.657  -3.241  18.414  1.00  0.00    -0.550 OA
ENDBRANCH   7   9
ENDBRANCH   6   7
ENDBRANCH   5   6
ENDBRANCH   4   5
ENDBRANCH   3   4
ENDBRANCH   2   3
ENDBRANCH   1   2
BRANCH   1  12
ATOM     12  C   UNL     1      23.757   1.351  16.216  1.00  0.00     0.000 C 
BRANCH  12  13
ATOM     13  C   UNL     1      23.311   0.543  14.988  1.00  0.00    -0.000 C 
BRANCH  13  14
ATOM     14  C   UNL     1      22.498   1.419  14.022  1.00  0.00    -0.000 C 
BRANCH  14  15
ATOM     15  C   UNL     1      21.599   0.595  13.086  1.00  0.00    -0.000 C 
BRANCH  15  16
ATOM     16  C   UNL     1      21.970  -0.896  13.070  1.00  0.00    -0.000 C 
BRANCH  16  17
ATOM     17  C   UNL     1      20.991  -1.696  12.204  1.00  0.00    -0.000 C 
BRANCH  17  18
ATOM     18  C   UNL     1      19.551  -1.525  12.699  1.00  0.00    -0.003 C 
ATOM     19  C   UNL     1      18.562  -1.537  11.537  1.00  0.00     0.004 C 
ENDBRANCH  17  18
ENDBRANCH  16  17
ENDBRANCH  15  16
ENDBRANCH  14  15
ENDBRANCH  13  14
ENDBRANCH  12  13
ENDBRANCH   1  12
TORSDOF 14
ENDMDL
MODEL 6
REMARK VINA RESULT:    -3.938      3.418      6.255
REMARK INTER + INTRA:          -9.371
REMARK INTER:                  -6.829
REMARK INTRA:                  -2.542
REMARK UNBOUND:                -2.210
REMARK SMILES CCCCCCCCCCCCCC[C@@H](C)C(=O)[O-]
REMARK SMILES IDX 9 1 10 2 11 3 12 4 13 5 14 6 15 7 16 8 17 9 18 10 19 11 8 12
REMARK SMILES IDX 7 13 6 14 5 15 4 16 3 17 2 18 1 19
REMARK H PARENT
REMARK Flexibility Score: inf
ROOT
ATOM      1  C   UNL     1      21.579  -0.280  16.770  1.00  0.00     0.000 C 
ENDROOT
BRANCH   1   2
ATOM      2  C   UNL     1      22.819  -1.185  16.876  1.00  0.00     0.000 C 
BRANCH   2   3
ATOM      3  C   UNL     1      22.545  -2.622  16.401  1.00  0.00     0.000 C 
BRANCH   3   4
ATOM      4  C   UNL     1      23.359  -2.996  15.149  1.00  0.00     0.000 C 
BRANCH   4   5
ATOM      5  C   UNL     1      22.741  -2.438  13.855  1.00  0.00     0.001 C 
BRANCH   5   6
ATOM      6  C   UNL     1      21.215  -2.632  13.797  1.00  0.00     0.009 C 
BRANCH   6   7
ATOM      7  C   UNL     1      20.475  -1.379  13.277  1.00  0.00     0.032 C 
ATOM      8  C   UNL     1      21.325  -0.567  12.290  1.00  0.00     0.014 C 
BRANCH   7   9
ATOM      9  C   UNL     1      19.189  -1.789  12.613  1.00  0.00     0.044 C 
ATOM     10  O   UNL     1      18.418  -2.609  13.179  1.00  0.00    -0.550 OA
ATOM     11  O   UNL     1      18.844  -1.267  11.372  1.00  0.00    -0.550 OA
ENDBRANCH   7   9
ENDBRANCH   6   7
ENDBRANCH   5   6
ENDBRANCH   4   5
ENDBRANCH   3   4
ENDBRANCH   2   3
ENDBRANCH   1   2
BRANCH   1  12
ATOM     12  C   UNL     1      21.824   0.957  15.891  1.00  0.00     0.000 C 
BRANCH  12  13
ATOM     13  C   UNL     1      23.138   0.873  15.099  1.00  0.00    -0.000 C 
BRANCH  13  14
ATOM     14  C   UNL     1      23.388   2.170  14.315  1.00  0.00    -0.000 C 
BRANCH  14  15
ATOM     15  C   UNL     1      24.322   3.142  15.056  1.00  0.00    -0.000 C 
BRANCH  15  16
ATOM     16  C   UNL     1      25.407   2.417  15.866  1.00  0.00    -0.000 C 
BRANCH  16  17
ATOM     17  C   UNL     1      25.417   2.896  17.322  1.00  0.00    -0.000 C 
BRANCH  17  18
ATOM     18  C   UNL     1      24.784   1.854  18.249  1.00  0.00    -0.003 C 
ATOM     19  C   UNL     1      23.523   2.400  18.914  1.00  0.00     0.004 C 
ENDBRANCH  17  18
ENDBRANCH  16  17
ENDBRANCH  15  16
ENDBRANCH  14  15
ENDBRANCH  13  14
ENDBRANCH  12  13
ENDBRANCH   1  12
TORSDOF 14
ENDMDL
MODEL 7
REMARK VINA RESULT:    -3.916      1.763      3.677
REMARK INTER + INTRA:          -9.331
REMARK INTER:                  -6.503
REMARK INTRA:                  -2.829
REMARK UNBOUND:                -2.210
REMARK SMILES CCCCCCCCCCCCCC[C@@H](C)C(=O)[O-]
REMARK SMILES IDX 9 1 10 2 11 3 12 4 13 5 14 6 15 7 16 8 17 9 18 10 19 11 8 12
REMARK SMILES IDX 7 13 6 14 5 15 4 16 3 17 2 18 1 19
REMARK H PARENT
REMARK Flexibility Score: inf
ROOT
ATOM      1  C   UNL     1      21.275  -2.078  17.880  1.00  0.00     0.000 C 
ENDROOT
BRANCH   1   2
ATOM      2  C   UNL     1      20.042  -1.250  17.477  1.00  0.00     0.000 C 
BRANCH   2   3
ATOM      3  C   UNL     1      20.416   0.119  16.887  1.00  0.00     0.000 C 
BRANCH   3   4
ATOM      4  C   UNL     1      21.533   0.821  17.681  1.00  0.00     0.000 C 
BRANCH   4   5
ATOM      5  C   UNL     1      22.642   1.378  16.773  1.00  0.00     0.001 C 
BRANCH   5   6
ATOM      6  C   UNL     1      22.093   2.287  15.658  1.00  0.00     0.009 C 
BRANCH   6   7
ATOM      7  C   UNL     1      22.868   2.137  14.331  1.00  0.00     0.032 C 
ATOM      8  C   UNL     1      21.942   2.159  13.107  1.00  0.00     0.014 C 
BRANCH   7   9
ATOM      9  C   UNL     1      23.886   3.238  14.209  1.00  0.00     0.044 C 
ATOM     10  O   UNL     1      24.805   3.348  15.064  1.00  0.00    -0.550 OA
ATOM     11  O   UNL     1      23.818   4.142  13.156  1.00  0.00    -0.550 OA
ENDBRANCH   7   9
ENDBRANCH   6   7
ENDBRANCH   5   6
ENDBRANCH   4   5
ENDBRANCH   3   4
ENDBRANCH   2   3
ENDBRANCH   1   2
BRANCH   1  12
ATOM     12  C   UNL     1      21.348  -3.425  17.143  1.00  0.00     0.000 C 
BRANCH  12  13
ATOM     13  C   UNL     1      22.637  -3.584  16.322  1.00  0.00    -0.000 C 
BRANCH  13  14
ATOM     14  C   UNL     1      23.440  -2.275  16.304  1.00  0.00    -0.000 C 
BRANCH  14  15
ATOM     15  C   UNL     1      23.404  -1.575  14.935  1.00  0.00    -0.000 C 
BRANCH  15  16
ATOM     16  C   UNL     1      22.687  -2.409  13.863  1.00  0.00    -0.000 C 
BRANCH  16  17
ATOM     17  C   UNL     1      21.776  -1.527  13.000  1.00  0.00    -0.000 C 
BRANCH  17  18
ATOM     18  C   UNL     1      20.423  -1.300  13.683  1.00  0.00    -0.003 C 
ATOM     19  C   UNL     1      19.684  -2.618  13.896  1.00  0.00     0.004 C 
ENDBRANCH  17  18
ENDBRANCH  16  17
ENDBRANCH  15  16
ENDBRANCH  14  15
ENDBRANCH  13  14
ENDBRANCH  12  13
ENDBRANCH   1  12
TORSDOF 14
ENDMDL
MODEL 8
REMARK VINA RESULT:    -3.911      3.545      7.187
REMARK INTER + INTRA:          -9.321
REMARK INTER:                  -7.202
REMARK INTRA:                  -2.119
REMARK UNBOUND:                -2.210
REMARK SMILES CCCCCCCCCCCCCC[C@@H](C)C(=O)[O-]
REMARK SMILES IDX 9 1 10 2 11 3 12 4 13 5 14 6 15 7 16 8 17 9 18 10 19 11 8 12
REMARK SMILES IDX 7 13 6 14 5 15 4 16 3 17 2 18 1 19
REMARK H PARENT
REMARK Flexibility Score: inf
ROOT
ATOM      1  C   UNL     1      23.129   1.390  15.922  1.00  0.00     0.000 C 
ENDROOT
BRANCH   1   2
ATOM      2  C   UNL     1      21.620   1.232  16.178  1.00  0.00     0.000 C 
BRANCH   2   3
ATOM      3  C   UNL     1      21.310   0.166  17.243  1.00  0.00     0.000 C 
BRANCH   3   4
ATOM      4  C   UNL     1      20.158  -0.768  16.828  1.00  0.00     0.000 C 
BRANCH   4   5
ATOM      5  C   UNL     1      20.172  -1.088  15.323  1.00  0.00     0.001 C 
BRANCH   5   6
ATOM      6  C   UNL     1      20.452  -2.575  15.038  1.00  0.00     0.009 C 
BRANCH   6   7
ATOM      7  C   UNL     1      21.881  -2.820  14.505  1.00  0.00     0.032 C 
ATOM      8  C   UNL     1      22.340  -1.720  13.538  1.00  0.00     0.014 C 
BRANCH   7   9
ATOM      9  C   UNL     1      22.844  -2.909  15.657  1.00  0.00     0.044 C 
ATOM     10  O   UNL     1      23.806  -2.100  15.742  1.00  0.00    -0.550 OA
ATOM     11  O   UNL     1      22.681  -3.885  16.633  1.00  0.00    -0.550 OA
ENDBRANCH   7   9
ENDBRANCH   6   7
ENDBRANCH   5   6
ENDBRANCH   4   5
ENDBRANCH   3   4
ENDBRANCH   2   3
ENDBRANCH   1   2
BRANCH   1  12
ATOM     12  C   UNL     1      23.434   1.958  14.527  1.00  0.00     0.000 C 
BRANCH  12  13
ATOM     13  C   UNL     1      22.232   1.875  13.574  1.00  0.00    -0.000 C 
BRANCH  13  14
ATOM     14  C   UNL     1      22.089   3.169  12.759  1.00  0.00    -0.000 C 
BRANCH  14  15
ATOM     15  C   UNL     1      21.672   4.372  13.621  1.00  0.00    -0.000 C 
BRANCH  15  16
ATOM     16  C   UNL     1      22.667   5.538  13.530  1.00  0.00    -0.000 C 
BRANCH  16  17
ATOM     17  C   UNL     1      23.753   5.253  12.486  1.00  0.00    -0.000 C 
BRANCH  17  18
ATOM     18  C   UNL     1      25.141   5.204  13.133  1.00  0.00    -0.003 C 
ATOM     19  C   UNL     1      25.101   5.732  14.564  1.00  0.00     0.004 C 
ENDBRANCH  17  18
ENDBRANCH  16  17
ENDBRANCH  15  16
ENDBRANCH  14  15
ENDBRANCH  13  14
ENDBRANCH  12  13
ENDBRANCH   1  12
TORSDOF 14
ENDMDL
MODEL 9
REMARK VINA RESULT:    -3.881      4.823      7.781
REMARK INTER + INTRA:          -9.268
REMARK INTER:                  -6.553
REMARK INTRA:                  -2.715
REMARK UNBOUND:                -2.210
REMARK SMILES CCCCCCCCCCCCCC[C@@H](C)C(=O)[O-]
REMARK SMILES IDX 9 1 10 2 11 3 12 4 13 5 14 6 15 7 16 8 17 9 18 10 19 11 8 12
REMARK SMILES IDX 7 13 6 14 5 15 4 16 3 17 2 18 1 19
REMARK H PARENT
REMARK Flexibility Score: inf
ROOT
ATOM      1  C   UNL     1      20.124  -1.198  16.261  1.00  0.00     0.000 C 
ENDROOT
BRANCH   1   2
ATOM      2  C   UNL     1      21.203  -2.218  16.665  1.00  0.00     0.000 C 
BRANCH   2   3
ATOM      3  C   UNL     1      21.885  -2.870  15.451  1.00  0.00     0.000 C 
BRANCH   3   4
ATOM      4  C   UNL     1      23.417  -2.924  15.591  1.00  0.00     0.000 C 
BRANCH   4   5
ATOM      5  C   UNL     1      23.885  -2.704  17.039  1.00  0.00     0.001 C 
BRANCH   5   6
ATOM      6  C   UNL     1      24.573  -3.946  17.634  1.00  0.00     0.009 C 
BRANCH   6   7
ATOM      7  C   UNL     1      23.853  -4.480  18.892  1.00  0.00     0.032 C 
ATOM      8  C   UNL     1      23.016  -3.399  19.589  1.00  0.00     0.014 C 
BRANCH   7   9
ATOM      9  C   UNL     1      22.967  -5.636  18.518  1.00  0.00     0.044 C 
ATOM     10  O   UNL     1      23.451  -6.794  18.406  1.00  0.00    -0.550 OA
ATOM     11  O   UNL     1      21.611  -5.435  18.290  1.00  0.00    -0.550 OA
ENDBRANCH   7   9
ENDBRANCH   6   7
ENDBRANCH   5   6
ENDBRANCH   4   5
ENDBRANCH   3   4
ENDBRANCH   2   3
ENDBRANCH   1   2
BRANCH   1  12
ATOM     12  C   UNL     1      20.387   0.201  16.841  1.00  0.00     0.000 C 
BRANCH  12  13
ATOM     13  C   UNL     1      21.675   0.266  17.674  1.00  0.00    -0.000 C 
BRANCH  13  14
ATOM     14  C   UNL     1      22.563   1.436  17.221  1.00  0.00    -0.000 C 
BRANCH  14  15
ATOM     15  C   UNL     1      23.776   0.976  16.395  1.00  0.00    -0.000 C 
BRANCH  15  16
ATOM     16  C   UNL     1      23.427   0.723  14.921  1.00  0.00    -0.000 C 
BRANCH  16  17
ATOM     17  C   UNL     1      22.852   1.986  14.269  1.00  0.00    -0.000 C 
BRANCH  17  18
ATOM     18  C   UNL     1      21.826   1.630  13.188  1.00  0.00    -0.003 C 
ATOM     19  C   UNL     1      21.511   0.137  13.196  1.00  0.00     0.004 C 
ENDBRANCH  17  18
ENDBRANCH  16  17
ENDBRANCH  15  16
ENDBRANCH  14  15
ENDBRANCH  13  14
ENDBRANCH  12  13
ENDBRANCH   1  12
TORSDOF 14
ENDMDL
