MODEL 1
REMARK VINA RESULT:    -4.692      0.000      0.000
REMARK INTER + INTRA:          -6.092
REMARK INTER:                  -5.790
REMARK INTRA:                  -0.302
REMARK UNBOUND:                -0.302
REMARK SMILES CCOC(=O)c1ccc(O)c(O)c1
REMARK SMILES IDX 4 1 5 2 3 3 2 4 1 5 6 6 13 7 7 8 11 9 8 10 9 11 12 12 10 14
REMARK H PARENT 12 13 10 15
REMARK Flexibility Score: inf
ROOT
ATOM      1  C   UNL     1       9.971  -7.624  -9.294  1.00  0.00     0.338 C 
ATOM      2  O   UNL     1      10.637  -8.676  -9.087  1.00  0.00    -0.246 OA
ENDROOT
BRANCH   1   3
ATOM      3  O   UNL     1       9.782  -7.157 -10.601  1.00  0.00    -0.462 OA
BRANCH   3   4
ATOM      4  C   UNL     1       9.721  -5.773 -10.940  1.00  0.00     0.230 C 
ATOM      5  C   UNL     1       8.316  -5.392 -11.395  1.00  0.00     0.049 C 
ENDBRANCH   3   4
ENDBRANCH   1   3
BRANCH   1   6
ATOM      6  C   UNL     1       9.393  -6.877  -8.154  1.00  0.00     0.064 A 
ATOM      7  C   UNL     1      10.214  -6.074  -7.343  1.00  0.00     0.065 A 
ATOM      8  C   UNL     1       8.022  -6.957  -7.866  1.00  0.00     0.020 A 
ATOM      9  C   UNL     1       9.681  -5.362  -6.261  1.00  0.00     0.158 A 
ATOM     10  C   UNL     1       7.483  -6.249  -6.790  1.00  0.00     0.051 A 
ATOM     11  C   UNL     1       8.297  -5.449  -5.981  1.00  0.00     0.157 A 
BRANCH   9  12
ATOM     12  O   UNL     1      10.556  -4.584  -5.499  1.00  0.00    -0.504 OA
ATOM     13  H   UNL     1      11.507  -4.850  -5.283  1.00  0.00     0.293 HD
ENDBRANCH   9  12
BRANCH  11  14
ATOM     14  O   UNL     1       7.696  -4.768  -4.921  1.00  0.00    -0.504 OA
ATOM     15  H   UNL     1       6.698  -4.659  -4.813  1.00  0.00     0.293 HD
ENDBRANCH  11  14
ENDBRANCH   1   6
TORSDOF 5
ENDMDL
MODEL 2
REMARK VINA RESULT:    -4.674      1.679      2.525
REMARK INTER + INTRA:          -6.070
REMARK INTER:                  -5.802
REMARK INTRA:                  -0.268
REMARK UNBOUND:                -0.302
REMARK SMILES CCOC(=O)c1ccc(O)c(O)c1
REMARK SMILES IDX 4 1 5 2 3 3 2 4 1 5 6 6 13 7 7 8 11 9 8 10 9 11 12 12 10 14
REMARK H PARENT 12 13 10 15
REMARK Flexibility Score: inf
ROOT
ATOM      1  C   UNL     1       8.769  -6.189  -8.960  1.00  0.00     0.338 C 
ATOM      2  O   UNL     1       8.351  -5.139  -9.524  1.00  0.00    -0.246 OA
ENDROOT
BRANCH   1   3
ATOM      3  O   UNL     1       9.595  -7.080  -9.656  1.00  0.00    -0.462 OA
BRANCH   3   4
ATOM      4  C   UNL     1      10.949  -7.343  -9.294  1.00  0.00     0.230 C 
ATOM      5  C   UNL     1      11.769  -6.058  -9.302  1.00  0.00     0.049 C 
ENDBRANCH   3   4
ENDBRANCH   1   3
BRANCH   1   6
ATOM      6  C   UNL     1       8.381  -6.483  -7.562  1.00  0.00     0.064 A 
ATOM      7  C   UNL     1       8.299  -5.448  -6.615  1.00  0.00     0.065 A 
ATOM      8  C   UNL     1       8.090  -7.797  -7.160  1.00  0.00     0.020 A 
ATOM      9  C   UNL     1       7.934  -5.711  -5.289  1.00  0.00     0.158 A 
ATOM     10  C   UNL     1       7.726  -8.067  -5.840  1.00  0.00     0.051 A 
ATOM     11  C   UNL     1       7.643  -7.039  -4.895  1.00  0.00     0.157 A 
BRANCH   9  12
ATOM     12  O   UNL     1       7.874  -4.633  -4.403  1.00  0.00    -0.504 OA
ATOM     13  H   UNL     1       8.155  -4.680  -3.435  1.00  0.00     0.293 HD
ENDBRANCH   9  12
BRANCH  11  14
ATOM     14  O   UNL     1       7.272  -7.377  -3.592  1.00  0.00    -0.504 OA
ATOM     15  H   UNL     1       7.009  -8.308  -3.304  1.00  0.00     0.293 HD
ENDBRANCH  11  14
ENDBRANCH   1   6
TORSDOF 5
ENDMDL
MODEL 3
REMARK VINA RESULT:    -4.646     14.639     16.625
REMARK INTER + INTRA:          -6.035
REMARK INTER:                  -5.809
REMARK INTRA:                  -0.226
REMARK UNBOUND:                -0.302
REMARK SMILES CCOC(=O)c1ccc(O)c(O)c1
REMARK SMILES IDX 4 1 5 2 3 3 2 4 1 5 6 6 13 7 7 8 11 9 8 10 9 11 12 12 10 14
REMARK H PARENT 12 13 10 15
REMARK Flexibility Score: inf
ROOT
ATOM      1  C   UNL     1      12.855   6.387 -17.872  1.00  0.00     0.338 C 
ATOM      2  O   UNL     1      12.294   6.744 -16.798  1.00  0.00    -0.246 OA
ENDROOT
BRANCH   1   3
ATOM      3  O   UNL     1      14.078   6.958 -18.249  1.00  0.00    -0.462 OA
BRANCH   3   4
ATOM      4  C   UNL     1      15.207   6.193 -18.667  1.00  0.00     0.230 C 
ATOM      5  C   UNL     1      15.985   6.930 -19.752  1.00  0.00     0.049 C 
ENDBRANCH   3   4
ENDBRANCH   1   3
BRANCH   1   6
ATOM      6  C   UNL     1      12.219   5.370 -18.738  1.00  0.00     0.064 A 
ATOM      7  C   UNL     1      12.297   4.006 -18.405  1.00  0.00     0.065 A 
ATOM      8  C   UNL     1      11.532   5.747 -19.902  1.00  0.00     0.020 A 
ATOM      9  C   UNL     1      11.700   3.032 -19.215  1.00  0.00     0.158 A 
ATOM     10  C   UNL     1      10.934   4.782 -20.715  1.00  0.00     0.051 A 
ATOM     11  C   UNL     1      11.009   3.424 -20.386  1.00  0.00     0.157 A 
BRANCH   9  12
ATOM     12  O   UNL     1      11.817   1.697 -18.822  1.00  0.00    -0.504 OA
ATOM     13  H   UNL     1      12.141   0.955 -19.427  1.00  0.00     0.293 HD
ENDBRANCH   9  12
BRANCH  11  14
ATOM     14  O   UNL     1      10.390   2.510 -21.241  1.00  0.00    -0.504 OA
ATOM     15  H   UNL     1      10.524   1.511 -21.191  1.00  0.00     0.293 HD
ENDBRANCH  11  14
ENDBRANCH   1   6
TORSDOF 5
ENDMDL
MODEL 4
REMARK VINA RESULT:    -4.510     14.306     15.596
REMARK INTER + INTRA:          -5.867
REMARK INTER:                  -5.570
REMARK INTRA:                  -0.297
REMARK UNBOUND:                -0.302
REMARK SMILES CCOC(=O)c1ccc(O)c(O)c1
REMARK SMILES IDX 4 1 5 2 3 3 2 4 1 5 6 6 13 7 7 8 11 9 8 10 9 11 12 12 10 14
REMARK H PARENT 12 13 10 15
REMARK Flexibility Score: inf
ROOT
ATOM      1  C   UNL     1      12.440   4.352 -17.457  1.00  0.00     0.338 C 
ATOM      2  O   UNL     1      12.227   4.862 -16.322  1.00  0.00    -0.246 OA
ENDROOT
BRANCH   1   3
ATOM      3  O   UNL     1      13.751   4.205 -17.927  1.00  0.00    -0.462 OA
BRANCH   3   4
ATOM      4  C   UNL     1      14.715   5.256 -17.911  1.00  0.00     0.230 C 
ATOM      5  C   UNL     1      14.269   6.409 -18.804  1.00  0.00     0.049 C 
ENDBRANCH   3   4
ENDBRANCH   1   3
BRANCH   1   6
ATOM      6  C   UNL     1      11.303   3.914 -18.297  1.00  0.00     0.064 A 
ATOM      7  C   UNL     1      11.516   3.526 -19.631  1.00  0.00     0.065 A 
ATOM      8  C   UNL     1       9.999   3.879 -17.779  1.00  0.00     0.020 A 
ATOM      9  C   UNL     1      10.451   3.109 -20.439  1.00  0.00     0.158 A 
ATOM     10  C   UNL     1       8.932   3.464 -18.578  1.00  0.00     0.051 A 
ATOM     11  C   UNL     1       9.141   3.077 -19.906  1.00  0.00     0.157 A 
BRANCH   9  12
ATOM     12  O   UNL     1      10.737   2.738 -21.755  1.00  0.00    -0.504 OA
ATOM     13  H   UNL     1      11.033   3.383 -22.473  1.00  0.00     0.293 HD
ENDBRANCH   9  12
BRANCH  11  14
ATOM     14  O   UNL     1       8.031   2.673 -20.650  1.00  0.00    -0.504 OA
ATOM     15  H   UNL     1       7.094   3.019 -20.501  1.00  0.00     0.293 HD
ENDBRANCH  11  14
ENDBRANCH   1   6
TORSDOF 5
ENDMDL
MODEL 5
REMARK VINA RESULT:    -4.476      1.984      2.958
REMARK INTER + INTRA:          -5.825
REMARK INTER:                  -5.586
REMARK INTRA:                  -0.239
REMARK UNBOUND:                -0.302
REMARK SMILES CCOC(=O)c1ccc(O)c(O)c1
REMARK SMILES IDX 4 1 5 2 3 3 2 4 1 5 6 6 13 7 7 8 11 9 8 10 9 11 12 12 10 14
REMARK H PARENT 12 13 10 15
REMARK Flexibility Score: inf
ROOT
ATOM      1  C   UNL     1       9.675  -6.406 -11.139  1.00  0.00     0.338 C 
ATOM      2  O   UNL     1       8.918  -6.827 -12.057  1.00  0.00    -0.246 OA
ENDROOT
BRANCH   1   3
ATOM      3  O   UNL     1      11.051  -6.273 -11.368  1.00  0.00    -0.462 OA
BRANCH   3   4
ATOM      4  C   UNL     1      11.776  -5.070 -11.119  1.00  0.00     0.230 C 
ATOM      5  C   UNL     1      13.038  -5.359 -10.313  1.00  0.00     0.049 C 
ENDBRANCH   3   4
ENDBRANCH   1   3
BRANCH   1   6
ATOM      6  C   UNL     1       9.113  -6.059  -9.815  1.00  0.00     0.064 A 
ATOM      7  C   UNL     1       7.966  -5.252  -9.722  1.00  0.00     0.065 A 
ATOM      8  C   UNL     1       9.712  -6.528  -8.635  1.00  0.00     0.020 A 
ATOM      9  C   UNL     1       7.422  -4.915  -8.476  1.00  0.00     0.158 A 
ATOM     10  C   UNL     1       9.176  -6.196  -7.390  1.00  0.00     0.051 A 
ATOM     11  C   UNL     1       8.035  -5.393  -7.294  1.00  0.00     0.157 A 
BRANCH   9  12
ATOM     12  O   UNL     1       6.281  -4.109  -8.459  1.00  0.00    -0.504 OA
ATOM     13  H   UNL     1       5.414  -4.365  -8.010  1.00  0.00     0.293 HD
ENDBRANCH   9  12
BRANCH  11  14
ATOM     14  O   UNL     1       7.549  -5.098  -6.018  1.00  0.00    -0.504 OA
ATOM     15  H   UNL     1       6.700  -5.487  -5.634  1.00  0.00     0.293 HD
ENDBRANCH  11  14
ENDBRANCH   1   6
TORSDOF 5
ENDMDL
MODEL 6
REMARK VINA RESULT:    -4.444      1.863      2.700
REMARK INTER + INTRA:          -5.785
REMARK INTER:                  -5.588
REMARK INTRA:                  -0.197
REMARK UNBOUND:                -0.302
REMARK SMILES CCOC(=O)c1ccc(O)c(O)c1
REMARK SMILES IDX 4 1 5 2 3 3 2 4 1 5 6 6 13 7 7 8 11 9 8 10 9 11 12 12 10 14
REMARK H PARENT 12 13 10 15
REMARK Flexibility Score: inf
ROOT
ATOM      1  C   UNL     1       9.916  -5.951 -10.717  1.00  0.00     0.338 C 
ATOM      2  O   UNL     1      10.823  -5.164 -11.104  1.00  0.00    -0.246 OA
ENDROOT
BRANCH   1   3
ATOM      3  O   UNL     1       9.513  -7.016 -11.533  1.00  0.00    -0.462 OA
BRANCH   3   4
ATOM      4  C   UNL     1       8.402  -6.948 -12.424  1.00  0.00     0.230 C 
ATOM      5  C   UNL     1       7.456  -8.122 -12.197  1.00  0.00     0.049 C 
ENDBRANCH   3   4
ENDBRANCH   1   3
BRANCH   1   6
ATOM      6  C   UNL     1       9.269  -5.748  -9.401  1.00  0.00     0.064 A 
ATOM      7  C   UNL     1       7.964  -5.231  -9.325  1.00  0.00     0.065 A 
ATOM      8  C   UNL     1       9.945  -6.066  -8.213  1.00  0.00     0.020 A 
ATOM      9  C   UNL     1       7.340  -5.032  -8.087  1.00  0.00     0.158 A 
ATOM     10  C   UNL     1       9.330  -5.871  -6.975  1.00  0.00     0.051 A 
ATOM     11  C   UNL     1       8.031  -5.357  -6.896  1.00  0.00     0.157 A 
BRANCH   9  12
ATOM     12  O   UNL     1       6.042  -4.515  -8.087  1.00  0.00    -0.504 OA
ATOM     13  H   UNL     1       5.744  -3.736  -8.656  1.00  0.00     0.293 HD
ENDBRANCH   9  12
BRANCH  11  14
ATOM     14  O   UNL     1       7.473  -5.186  -5.627  1.00  0.00    -0.504 OA
ATOM     15  H   UNL     1       8.006  -5.196  -4.770  1.00  0.00     0.293 HD
ENDBRANCH  11  14
ENDBRANCH   1   6
TORSDOF 5
ENDMDL
MODEL 7
REMARK VINA RESULT:    -4.425      1.995      3.023
REMARK INTER + INTRA:          -5.762
REMARK INTER:                  -5.652
REMARK INTRA:                  -0.110
REMARK UNBOUND:                -0.302
REMARK SMILES CCOC(=O)c1ccc(O)c(O)c1
REMARK SMILES IDX 4 1 5 2 3 3 2 4 1 5 6 6 13 7 7 8 11 9 8 10 9 11 12 12 10 14
REMARK H PARENT 12 13 10 15
REMARK Flexibility Score: inf
ROOT
ATOM      1  C   UNL     1       8.085  -6.559 -11.646  1.00  0.00     0.338 C 
ATOM      2  O   UNL     1       7.855  -7.753 -11.984  1.00  0.00    -0.246 OA
ENDROOT
BRANCH   1   3
ATOM      3  O   UNL     1       7.727  -5.505 -12.497  1.00  0.00    -0.462 OA
BRANCH   3   4
ATOM      4  C   UNL     1       7.688  -4.140 -12.086  1.00  0.00     0.230 C 
ATOM      5  C   UNL     1       7.337  -3.234 -13.260  1.00  0.00     0.049 C 
ENDBRANCH   3   4
ENDBRANCH   1   3
BRANCH   1   6
ATOM      6  C   UNL     1       8.741  -6.268 -10.351  1.00  0.00     0.064 A 
ATOM      7  C   UNL     1      10.141  -6.191 -10.267  1.00  0.00     0.065 A 
ATOM      8  C   UNL     1       7.977  -6.065  -9.191  1.00  0.00     0.020 A 
ATOM      9  C   UNL     1      10.776  -5.918  -9.048  1.00  0.00     0.158 A 
ATOM     10  C   UNL     1       8.602  -5.792  -7.972  1.00  0.00     0.051 A 
ATOM     11  C   UNL     1       9.996  -5.714  -7.885  1.00  0.00     0.157 A 
BRANCH   9  12
ATOM     12  O   UNL     1      12.171  -5.856  -9.040  1.00  0.00    -0.504 OA
ATOM     13  H   UNL     1      12.755  -6.156  -9.807  1.00  0.00     0.293 HD
ENDBRANCH   9  12
BRANCH  11  14
ATOM     14  O   UNL     1      10.558  -5.437  -6.637  1.00  0.00    -0.504 OA
ATOM     15  H   UNL     1      10.278  -4.664  -6.051  1.00  0.00     0.293 HD
ENDBRANCH  11  14
ENDBRANCH   1   6
TORSDOF 5
ENDMDL
MODEL 8
REMARK VINA RESULT:    -4.419     11.135     13.525
REMARK INTER + INTRA:          -5.755
REMARK INTER:                  -5.520
REMARK INTRA:                  -0.235
REMARK UNBOUND:                -0.302
REMARK SMILES CCOC(=O)c1ccc(O)c(O)c1
REMARK SMILES IDX 4 1 5 2 3 3 2 4 1 5 6 6 13 7 7 8 11 9 8 10 9 11 12 12 10 14
REMARK H PARENT 12 13 10 15
REMARK Flexibility Score: inf
ROOT
ATOM      1  C   UNL     1      17.855  -4.411 -15.648  1.00  0.00     0.338 C 
ATOM      2  O   UNL     1      18.124  -4.240 -14.427  1.00  0.00    -0.246 OA
ENDROOT
BRANCH   1   3
ATOM      3  O   UNL     1      17.186  -5.568 -16.066  1.00  0.00    -0.462 OA
BRANCH   3   4
ATOM      4  C   UNL     1      15.791  -5.786 -15.864  1.00  0.00     0.230 C 
ATOM      5  C   UNL     1      15.103  -6.125 -17.182  1.00  0.00     0.049 C 
ENDBRANCH   3   4
ENDBRANCH   1   3
BRANCH   1   6
ATOM      6  C   UNL     1      18.253  -3.391 -16.645  1.00  0.00     0.064 A 
ATOM      7  C   UNL     1      18.388  -2.045 -16.266  1.00  0.00     0.065 A 
ATOM      8  C   UNL     1      18.500  -3.751 -17.979  1.00  0.00     0.020 A 
ATOM      9  C   UNL     1      18.762  -1.068 -17.198  1.00  0.00     0.158 A 
ATOM     10  C   UNL     1      18.874  -2.783 -18.914  1.00  0.00     0.051 A 
ATOM     11  C   UNL     1      19.010  -1.442 -18.540  1.00  0.00     0.157 A 
BRANCH   9  12
ATOM     12  O   UNL     1      18.877   0.250 -16.750  1.00  0.00    -0.504 OA
ATOM     13  H   UNL     1      18.705   1.060 -17.327  1.00  0.00     0.293 HD
ENDBRANCH   9  12
BRANCH  11  14
ATOM     14  O   UNL     1      19.387  -0.525 -19.523  1.00  0.00    -0.504 OA
ATOM     15  H   UNL     1      18.833   0.275 -19.791  1.00  0.00     0.293 HD
ENDBRANCH  11  14
ENDBRANCH   1   6
TORSDOF 5
ENDMDL
MODEL 9
REMARK VINA RESULT:    -4.308      2.039      5.079
REMARK INTER + INTRA:          -5.618
REMARK INTER:                  -5.335
REMARK INTRA:                  -0.282
REMARK UNBOUND:                -0.302
REMARK SMILES CCOC(=O)c1ccc(O)c(O)c1
REMARK SMILES IDX 4 1 5 2 3 3 2 4 1 5 6 6 13 7 7 8 11 9 8 10 9 11 12 12 10 14
REMARK H PARENT 12 13 10 15
REMARK Flexibility Score: inf
ROOT
ATOM      1  C   UNL     1       9.127  -5.815  -7.810  1.00  0.00     0.338 C 
ATOM      2  O   UNL     1      10.328  -5.907  -7.431  1.00  0.00    -0.246 OA
ENDROOT
BRANCH   1   3
ATOM      3  O   UNL     1       8.128  -5.453  -6.899  1.00  0.00    -0.462 OA
BRANCH   3   4
ATOM      4  C   UNL     1       7.916  -6.122  -5.657  1.00  0.00     0.230 C 
ATOM      5  C   UNL     1       7.566  -7.588  -5.887  1.00  0.00     0.049 C 
ENDBRANCH   3   4
ENDBRANCH   1   3
BRANCH   1   6
ATOM      6  C   UNL     1       8.772  -6.097  -9.219  1.00  0.00     0.064 A 
ATOM      7  C   UNL     1       8.385  -5.052 -10.076  1.00  0.00     0.065 A 
ATOM      8  C   UNL     1       8.814  -7.407  -9.721  1.00  0.00     0.020 A 
ATOM      9  C   UNL     1       8.045  -5.303 -11.411  1.00  0.00     0.158 A 
ATOM     10  C   UNL     1       8.476  -7.666 -11.051  1.00  0.00     0.051 A 
ATOM     11  C   UNL     1       8.092  -6.627 -11.906  1.00  0.00     0.157 A 
BRANCH   9  12
ATOM     12  O   UNL     1       7.671  -4.215 -12.204  1.00  0.00    -0.504 OA
ATOM     13  H   UNL     1       7.986  -4.072 -13.152  1.00  0.00     0.293 HD
ENDBRANCH   9  12
BRANCH  11  14
ATOM     14  O   UNL     1       7.767  -6.953 -13.225  1.00  0.00    -0.504 OA
ATOM     15  H   UNL     1       7.962  -7.849 -13.649  1.00  0.00     0.293 HD
ENDBRANCH  11  14
ENDBRANCH   1   6
TORSDOF 5
ENDMDL
