MODEL 1
REMARK VINA RESULT:    -6.199      0.000      0.000
REMARK INTER + INTRA:          -6.873
REMARK INTER:                  -6.743
REMARK INTRA:                  -0.130
REMARK UNBOUND:                -0.130
REMARK SMILES O=C([O-])c1ccccc1O
REMARK SMILES IDX 4 1 9 2 5 3 8 4 6 5 7 6 2 7 1 8 3 9 10 10
REMARK H PARENT 10 11
REMARK Flexibility Score: inf
ROOT
ATOM      1  C   UNL     1      85.278  69.104 105.028  1.00  0.00     0.039 A 
ATOM      2  C   UNL     1      85.944  69.105 103.775  1.00  0.00     0.124 A 
ATOM      3  C   UNL     1      85.847  68.393 106.101  1.00  0.00     0.014 A 
ATOM      4  C   UNL     1      87.180  68.456 103.647  1.00  0.00     0.047 A 
ATOM      5  C   UNL     1      87.070  67.734 105.950  1.00  0.00     0.001 A 
ATOM      6  C   UNL     1      87.740  67.774 104.728  1.00  0.00     0.004 A 
ENDROOT
BRANCH   1   7
ATOM      7  C   UNL     1      84.024  69.854 105.259  1.00  0.00     0.075 C 
ATOM      8  O   UNL     1      82.965  69.237 105.552  1.00  0.00    -0.545 OA
ATOM      9  O   UNL     1      84.008  71.242 105.226  1.00  0.00    -0.545 OA
ENDBRANCH   1   7
BRANCH   2  10
ATOM     10  O   UNL     1      85.402  69.701 102.635  1.00  0.00    -0.507 OA
ATOM     11  H   UNL     1      84.613  70.333 102.660  1.00  0.00     0.293 HD
ENDBRANCH   2  10
TORSDOF 2
ENDMDL
MODEL 2
REMARK VINA RESULT:    -5.851      2.086      3.251
REMARK INTER + INTRA:          -6.495
REMARK INTER:                  -6.242
REMARK INTRA:                  -0.252
REMARK UNBOUND:                -0.130
REMARK SMILES O=C([O-])c1ccccc1O
REMARK SMILES IDX 4 1 9 2 5 3 8 4 6 5 7 6 2 7 1 8 3 9 10 10
REMARK H PARENT 10 11
REMARK Flexibility Score: inf
ROOT
ATOM      1  C   UNL     1      85.648  69.142 104.948  1.00  0.00     0.039 A 
ATOM      2  C   UNL     1      86.145  69.519 103.674  1.00  0.00     0.124 A 
ATOM      3  C   UNL     1      84.602  69.890 105.519  1.00  0.00     0.014 A 
ATOM      4  C   UNL     1      85.548  70.583 102.984  1.00  0.00     0.047 A 
ATOM      5  C   UNL     1      84.031  70.960 104.826  1.00  0.00     0.001 A 
ATOM      6  C   UNL     1      84.497  71.300 103.557  1.00  0.00     0.004 A 
ENDROOT
BRANCH   1   7
ATOM      7  C   UNL     1      86.165  67.967 105.684  1.00  0.00     0.075 C 
ATOM      8  O   UNL     1      85.365  67.178 106.255  1.00  0.00    -0.545 OA
ATOM      9  O   UNL     1      87.523  67.677 105.699  1.00  0.00    -0.545 OA
ENDBRANCH   1   7
BRANCH   2  10
ATOM     10  O   UNL     1      87.243  68.895 103.079  1.00  0.00    -0.507 OA
ATOM     11  H   UNL     1      87.158  68.139 102.413  1.00  0.00     0.293 HD
ENDBRANCH   2  10
TORSDOF 2
ENDMDL
MODEL 3
REMARK VINA RESULT:    -5.408      8.076      8.789
REMARK INTER + INTRA:          -6.013
REMARK INTER:                  -5.790
REMARK INTRA:                  -0.223
REMARK UNBOUND:                -0.130
REMARK SMILES O=C([O-])c1ccccc1O
REMARK SMILES IDX 4 1 9 2 5 3 8 4 6 5 7 6 2 7 1 8 3 9 10 10
REMARK H PARENT 10 11
REMARK Flexibility Score: inf
ROOT
ATOM      1  C   UNL     1      79.428  63.684 103.368  1.00  0.00     0.039 A 
ATOM      2  C   UNL     1      78.564  63.680 104.494  1.00  0.00     0.124 A 
ATOM      3  C   UNL     1      80.715  63.130 103.497  1.00  0.00     0.014 A 
ATOM      4  C   UNL     1      78.980  63.073 105.686  1.00  0.00     0.047 A 
ATOM      5  C   UNL     1      81.122  62.546 104.699  1.00  0.00     0.001 A 
ATOM      6  C   UNL     1      80.253  62.509 105.788  1.00  0.00     0.004 A 
ENDROOT
BRANCH   1   7
ATOM      7  C   UNL     1      79.012  64.216 102.052  1.00  0.00     0.075 C 
ATOM      8  O   UNL     1      78.115  65.098 101.983  1.00  0.00    -0.545 OA
ATOM      9  O   UNL     1      79.648  63.808 100.886  1.00  0.00    -0.545 OA
ENDBRANCH   1   7
BRANCH   2  10
ATOM     10  O   UNL     1      77.310  64.295 104.482  1.00  0.00    -0.507 OA
ATOM     11  H   UNL     1      76.586  64.092 105.158  1.00  0.00     0.293 HD
ENDBRANCH   2  10
TORSDOF 2
ENDMDL
MODEL 4
REMARK VINA RESULT:    -5.408      8.045      8.835
REMARK INTER + INTRA:          -6.013
REMARK INTER:                  -5.763
REMARK INTRA:                  -0.250
REMARK UNBOUND:                -0.130
REMARK SMILES O=C([O-])c1ccccc1O
REMARK SMILES IDX 4 1 9 2 5 3 8 4 6 5 7 6 2 7 1 8 3 9 10 10
REMARK H PARENT 10 11
REMARK Flexibility Score: inf
ROOT
ATOM      1  C   UNL     1      79.554  63.568 103.230  1.00  0.00     0.039 A 
ATOM      2  C   UNL     1      78.610  63.793 104.265  1.00  0.00     0.124 A 
ATOM      3  C   UNL     1      80.775  62.943 103.547  1.00  0.00     0.014 A 
ATOM      4  C   UNL     1      78.882  63.336 105.562  1.00  0.00     0.047 A 
ATOM      5  C   UNL     1      81.038  62.512 104.849  1.00  0.00     0.001 A 
ATOM      6  C   UNL     1      80.089  62.700 105.853  1.00  0.00     0.004 A 
ENDROOT
BRANCH   1   7
ATOM      7  C   UNL     1      79.287  63.931 101.821  1.00  0.00     0.075 C 
ATOM      8  O   UNL     1      80.241  64.227 101.054  1.00  0.00    -0.545 OA
ATOM      9  O   UNL     1      77.998  63.885 101.306  1.00  0.00    -0.545 OA
ENDBRANCH   1   7
BRANCH   2  10
ATOM     10  O   UNL     1      77.419  64.491 104.059  1.00  0.00    -0.507 OA
ATOM     11  H   UNL     1      76.970  65.047 104.774  1.00  0.00     0.293 HD
ENDBRANCH   2  10
TORSDOF 2
ENDMDL
MODEL 5
REMARK VINA RESULT:    -5.325      1.164      2.168
REMARK INTER + INTRA:          -5.922
REMARK INTER:                  -5.707
REMARK INTRA:                  -0.216
REMARK UNBOUND:                -0.130
REMARK SMILES O=C([O-])c1ccccc1O
REMARK SMILES IDX 4 1 9 2 5 3 8 4 6 5 7 6 2 7 1 8 3 9 10 10
REMARK H PARENT 10 11
REMARK Flexibility Score: inf
ROOT
ATOM      1  C   UNL     1      85.497  69.120 104.742  1.00  0.00     0.039 A 
ATOM      2  C   UNL     1      86.224  68.400 105.724  1.00  0.00     0.124 A 
ATOM      3  C   UNL     1      85.985  69.156 103.423  1.00  0.00     0.014 A 
ATOM      4  C   UNL     1      87.373  67.689 105.352  1.00  0.00     0.047 A 
ATOM      5  C   UNL     1      87.143  68.458 103.073  1.00  0.00     0.001 A 
ATOM      6  C   UNL     1      87.831  67.718 104.034  1.00  0.00     0.004 A 
ENDROOT
BRANCH   1   7
ATOM      7  C   UNL     1      84.222  69.806 105.046  1.00  0.00     0.075 C 
ATOM      8  O   UNL     1      83.245  69.151 105.499  1.00  0.00    -0.545 OA
ATOM      9  O   UNL     1      84.103  71.183 104.905  1.00  0.00    -0.545 OA
ENDBRANCH   1   7
BRANCH   2  10
ATOM     10  O   UNL     1      85.865  68.393 107.073  1.00  0.00    -0.507 OA
ATOM     11  H   UNL     1      85.734  67.546 107.609  1.00  0.00     0.293 HD
ENDBRANCH   2  10
TORSDOF 2
ENDMDL
MODEL 6
REMARK VINA RESULT:    -5.307      8.318      9.102
REMARK INTER + INTRA:          -5.903
REMARK INTER:                  -5.663
REMARK INTRA:                  -0.240
REMARK UNBOUND:                -0.130
REMARK SMILES O=C([O-])c1ccccc1O
REMARK SMILES IDX 4 1 9 2 5 3 8 4 6 5 7 6 2 7 1 8 3 9 10 10
REMARK H PARENT 10 11
REMARK Flexibility Score: inf
ROOT
ATOM      1  C   UNL     1      79.573  63.227 104.171  1.00  0.00     0.039 A 
ATOM      2  C   UNL     1      78.333  63.913 104.110  1.00  0.00     0.124 A 
ATOM      3  C   UNL     1      80.391  63.197 103.026  1.00  0.00     0.014 A 
ATOM      4  C   UNL     1      77.976  64.598 102.941  1.00  0.00     0.047 A 
ATOM      5  C   UNL     1      80.010  63.867 101.861  1.00  0.00     0.001 A 
ATOM      6  C   UNL     1      78.809  64.574 101.822  1.00  0.00     0.004 A 
ENDROOT
BRANCH   1   7
ATOM      7  C   UNL     1      80.057  62.572 105.406  1.00  0.00     0.075 C 
ATOM      8  O   UNL     1      81.290  62.538 105.661  1.00  0.00    -0.545 OA
ATOM      9  O   UNL     1      79.163  62.050 106.332  1.00  0.00    -0.545 OA
ENDBRANCH   1   7
BRANCH   2  10
ATOM     10  O   UNL     1      77.419  63.910 105.166  1.00  0.00    -0.507 OA
ATOM     11  H   UNL     1      77.216  64.727 105.727  1.00  0.00     0.293 HD
ENDBRANCH   2  10
TORSDOF 2
ENDMDL
MODEL 7
REMARK VINA RESULT:    -5.297      9.358     10.072
REMARK INTER + INTRA:          -5.892
REMARK INTER:                  -5.705
REMARK INTRA:                  -0.187
REMARK UNBOUND:                -0.130
REMARK SMILES O=C([O-])c1ccccc1O
REMARK SMILES IDX 4 1 9 2 5 3 8 4 6 5 7 6 2 7 1 8 3 9 10 10
REMARK H PARENT 10 11
REMARK Flexibility Score: inf
ROOT
ATOM      1  C   UNL     1      79.005  61.593 105.307  1.00  0.00     0.039 A 
ATOM      2  C   UNL     1      78.499  61.911 104.021  1.00  0.00     0.124 A 
ATOM      3  C   UNL     1      80.312  61.992 105.642  1.00  0.00     0.014 A 
ATOM      4  C   UNL     1      79.280  62.667 103.136  1.00  0.00     0.047 A 
ATOM      5  C   UNL     1      81.085  62.728 104.741  1.00  0.00     0.001 A 
ATOM      6  C   UNL     1      80.566  63.073 103.493  1.00  0.00     0.004 A 
ENDROOT
BRANCH   1   7
ATOM      7  C   UNL     1      78.196  60.888 106.325  1.00  0.00     0.075 C 
ATOM      8  O   UNL     1      77.892  59.675 106.161  1.00  0.00    -0.545 OA
ATOM      9  O   UNL     1      77.819  61.523 107.501  1.00  0.00    -0.545 OA
ENDBRANCH   1   7
BRANCH   2  10
ATOM     10  O   UNL     1      77.253  61.470 103.571  1.00  0.00    -0.507 OA
ATOM     11  H   UNL     1      76.830  60.602 103.872  1.00  0.00     0.293 HD
ENDBRANCH   2  10
TORSDOF 2
ENDMDL
MODEL 8
REMARK VINA RESULT:    -5.294      9.651     10.570
REMARK INTER + INTRA:          -5.889
REMARK INTER:                  -5.647
REMARK INTRA:                  -0.241
REMARK UNBOUND:                -0.130
REMARK SMILES O=C([O-])c1ccccc1O
REMARK SMILES IDX 4 1 9 2 5 3 8 4 6 5 7 6 2 7 1 8 3 9 10 10
REMARK H PARENT 10 11
REMARK Flexibility Score: inf
ROOT
ATOM      1  C   UNL     1      78.133  62.420 107.275  1.00  0.00     0.039 A 
ATOM      2  C   UNL     1      78.037  61.089 106.793  1.00  0.00     0.124 A 
ATOM      3  C   UNL     1      79.121  63.267 106.740  1.00  0.00     0.014 A 
ATOM      4  C   UNL     1      78.880  60.664 105.757  1.00  0.00     0.047 A 
ATOM      5  C   UNL     1      79.967  62.822 105.722  1.00  0.00     0.001 A 
ATOM      6  C   UNL     1      79.840  61.526 105.225  1.00  0.00     0.004 A 
ENDROOT
BRANCH   1   7
ATOM      7  C   UNL     1      77.207  62.962 108.293  1.00  0.00     0.075 C 
ATOM      8  O   UNL     1      75.962  62.845 108.140  1.00  0.00    -0.545 OA
ATOM      9  O   UNL     1      77.691  63.542 109.459  1.00  0.00    -0.545 OA
ENDBRANCH   1   7
BRANCH   2  10
ATOM     10  O   UNL     1      77.153  60.153 107.335  1.00  0.00    -0.507 OA
ATOM     11  H   UNL     1      76.638  59.487 106.775  1.00  0.00     0.293 HD
ENDBRANCH   2  10
TORSDOF 2
ENDMDL
MODEL 9
REMARK VINA RESULT:    -5.228      9.102     10.176
REMARK INTER + INTRA:          -5.816
REMARK INTER:                  -5.656
REMARK INTRA:                  -0.161
REMARK UNBOUND:                -0.130
REMARK SMILES O=C([O-])c1ccccc1O
REMARK SMILES IDX 4 1 9 2 5 3 8 4 6 5 7 6 2 7 1 8 3 9 10 10
REMARK H PARENT 10 11
REMARK Flexibility Score: inf
ROOT
ATOM      1  C   UNL     1      78.451  63.263 107.337  1.00  0.00     0.039 A 
ATOM      2  C   UNL     1      77.594  62.221 107.775  1.00  0.00     0.124 A 
ATOM      3  C   UNL     1      79.346  63.009 106.281  1.00  0.00     0.014 A 
ATOM      4  C   UNL     1      77.609  60.986 107.112  1.00  0.00     0.047 A 
ATOM      5  C   UNL     1      79.363  61.766 105.644  1.00  0.00     0.001 A 
ATOM      6  C   UNL     1      78.489  60.759 106.053  1.00  0.00     0.004 A 
ENDROOT
BRANCH   1   7
ATOM      7  C   UNL     1      78.413  64.620 107.924  1.00  0.00     0.075 C 
ATOM      8  O   UNL     1      78.880  64.821 109.078  1.00  0.00    -0.545 OA
ATOM      9  O   UNL     1      77.931  65.699 107.194  1.00  0.00    -0.545 OA
ENDBRANCH   1   7
BRANCH   2  10
ATOM     10  O   UNL     1      76.747  62.356 108.876  1.00  0.00    -0.507 OA
ATOM     11  H   UNL     1      77.071  62.618 109.797  1.00  0.00     0.293 HD
ENDBRANCH   2  10
TORSDOF 2
ENDMDL
