MODEL 1
REMARK VINA RESULT:    -3.001      0.000      0.000
REMARK INTER + INTRA:         -12.704
REMARK INTER:                  -7.563
REMARK INTRA:                  -5.141
REMARK UNBOUND:                -5.141
REMARK SMILES CCCCCCCCCCCCCCCCCCCCCCCCCCCC(=O)[O-]
REMARK SMILES IDX 15 1 16 2 17 3 18 4 19 5 20 6 21 7 22 8 23 9 24 10 25 11
REMARK SMILES IDX 26 12 27 13 28 14 29 15 30 16 14 17 13 18 12 19 11 20 10 21
REMARK SMILES IDX 9 22 8 23 7 24 6 25 5 26 4 27 3 28 2 29 1 30
REMARK H PARENT
REMARK Flexibility Score: inf
ROOT
ATOM      1  C   UNL     1      60.217  24.469  52.354  1.00  0.00     0.000 C 
ENDROOT
BRANCH   1   2
ATOM      2  C   UNL     1      59.578  24.068  51.011  1.00  0.00     0.000 C 
BRANCH   2   3
ATOM      3  C   UNL     1      58.251  24.794  50.739  1.00  0.00     0.000 C 
BRANCH   3   4
ATOM      4  C   UNL     1      58.264  25.454  49.352  1.00  0.00     0.000 C 
BRANCH   4   5
ATOM      5  C   UNL     1      59.607  26.130  49.025  1.00  0.00     0.000 C 
BRANCH   5   6
ATOM      6  C   UNL     1      59.502  27.603  48.581  1.00  0.00     0.000 C 
BRANCH   6   7
ATOM      7  C   UNL     1      59.904  28.641  49.648  1.00  0.00     0.000 C 
BRANCH   7   8
ATOM      8  C   UNL     1      60.390  28.042  50.981  1.00  0.00     0.000 C 
BRANCH   8   9
ATOM      9  C   UNL     1      59.315  28.089  52.080  1.00  0.00     0.000 C 
BRANCH   9  10
ATOM     10  C   UNL     1      58.217  29.127  51.792  1.00  0.00     0.000 C 
BRANCH  10  11
ATOM     11  C   UNL     1      56.816  28.495  51.716  1.00  0.00     0.000 C 
BRANCH  11  12
ATOM     12  C   UNL     1      56.248  28.465  50.285  1.00  0.00     0.006 C 
BRANCH  12  13
ATOM     13  C   UNL     1      55.818  29.844  49.754  1.00  0.00     0.053 C 
BRANCH  13  14
ATOM     14  C   UNL     1      54.947  30.587  50.718  1.00  0.00     0.041 C 
ATOM     15  O   UNL     1      55.353  31.657  51.245  1.00  0.00    -0.550 OA
ATOM     16  O   UNL     1      53.676  30.113  51.020  1.00  0.00    -0.550 OA
ENDBRANCH  13  14
ENDBRANCH  12  13
ENDBRANCH  11  12
ENDBRANCH  10  11
ENDBRANCH   9  10
ENDBRANCH   8   9
ENDBRANCH   7   8
ENDBRANCH   6   7
ENDBRANCH   5   6
ENDBRANCH   4   5
ENDBRANCH   3   4
ENDBRANCH   2   3
ENDBRANCH   1   2
BRANCH   1  17
ATOM     17  C   UNL     1      61.697  24.880  52.269  1.00  0.00     0.000 C 
BRANCH  17  18
ATOM     18  C   UNL     1      62.404  24.313  51.025  1.00  0.00     0.000 C 
BRANCH  18  19
ATOM     19  C   UNL     1      63.546  25.211  50.525  1.00  0.00     0.000 C 
BRANCH  19  20
ATOM     20  C   UNL     1      63.398  25.580  49.039  1.00  0.00     0.000 C 
BRANCH  20  21
ATOM     21  C   UNL     1      63.126  27.079  48.820  1.00  0.00     0.000 C 
BRANCH  21  22
ATOM     22  C   UNL     1      63.720  27.670  47.525  1.00  0.00    -0.000 C 
BRANCH  22  23
ATOM     23  C   UNL     1      65.054  27.044  47.067  1.00  0.00    -0.000 C 
BRANCH  23  24
ATOM     24  C   UNL     1      66.034  28.028  46.401  1.00  0.00    -0.000 C 
BRANCH  24  25
ATOM     25  C   UNL     1      66.645  29.025  47.400  1.00  0.00    -0.000 C 
BRANCH  25  26
ATOM     26  C   UNL     1      66.321  30.485  47.047  1.00  0.00    -0.000 C 
BRANCH  26  27
ATOM     27  C   UNL     1      65.440  31.165  48.111  1.00  0.00    -0.000 C 
BRANCH  27  28
ATOM     28  C   UNL     1      65.385  30.371  49.426  1.00  0.00    -0.000 C 
BRANCH  28  29
ATOM     29  C   UNL     1      63.986  30.373  50.058  1.00  0.00    -0.003 C 
ATOM     30  C   UNL     1      62.939  30.892  49.075  1.00  0.00     0.004 C 
ENDBRANCH  28  29
ENDBRANCH  27  28
ENDBRANCH  26  27
ENDBRANCH  25  26
ENDBRANCH  24  25
ENDBRANCH  23  24
ENDBRANCH  22  23
ENDBRANCH  21  22
ENDBRANCH  20  21
ENDBRANCH  19  20
ENDBRANCH  18  19
ENDBRANCH  17  18
ENDBRANCH   1  17
TORSDOF 26
ENDMDL
MODEL 2
REMARK VINA RESULT:    -2.975      3.654      7.788
REMARK INTER + INTRA:         -12.639
REMARK INTER:                  -8.646
REMARK INTRA:                  -3.993
REMARK UNBOUND:                -5.141
REMARK SMILES CCCCCCCCCCCCCCCCCCCCCCCCCCCC(=O)[O-]
REMARK SMILES IDX 15 1 16 2 17 3 18 4 19 5 20 6 21 7 22 8 23 9 24 10 25 11
REMARK SMILES IDX 26 12 27 13 28 14 29 15 30 16 14 17 13 18 12 19 11 20 10 21
REMARK SMILES IDX 9 22 8 23 7 24 6 25 5 26 4 27 3 28 2 29 1 30
REMARK H PARENT
REMARK Flexibility Score: inf
ROOT
ATOM      1  C   UNL     1      59.374  24.999  51.719  1.00  0.00     0.000 C 
ENDROOT
BRANCH   1   2
ATOM      2  C   UNL     1      59.075  24.801  50.222  1.00  0.00     0.000 C 
BRANCH   2   3
ATOM      3  C   UNL     1      60.346  24.663  49.370  1.00  0.00     0.000 C 
BRANCH   3   4
ATOM      4  C   UNL     1      61.604  24.742  50.248  1.00  0.00     0.000 C 
BRANCH   4   5
ATOM      5  C   UNL     1      62.870  25.092  49.447  1.00  0.00     0.000 C 
BRANCH   5   6
ATOM      6  C   UNL     1      63.059  26.593  49.152  1.00  0.00     0.000 C 
BRANCH   6   7
ATOM      7  C   UNL     1      62.612  27.545  50.280  1.00  0.00     0.000 C 
BRANCH   7   8
ATOM      8  C   UNL     1      61.737  28.726  49.819  1.00  0.00     0.000 C 
BRANCH   8   9
ATOM      9  C   UNL     1      60.415  28.272  49.177  1.00  0.00     0.000 C 
BRANCH   9  10
ATOM     10  C   UNL     1      59.203  28.496  50.096  1.00  0.00     0.000 C 
BRANCH  10  11
ATOM     11  C   UNL     1      57.867  28.216  49.384  1.00  0.00     0.000 C 
BRANCH  11  12
ATOM     12  C   UNL     1      56.666  28.196  50.348  1.00  0.00     0.006 C 
BRANCH  12  13
ATOM     13  C   UNL     1      56.500  29.487  51.168  1.00  0.00     0.053 C 
BRANCH  13  14
ATOM     14  C   UNL     1      55.354  30.328  50.695  1.00  0.00     0.041 C 
ATOM     15  O   UNL     1      55.192  31.492  51.147  1.00  0.00    -0.550 OA
ATOM     16  O   UNL     1      54.477  29.835  49.736  1.00  0.00    -0.550 OA
ENDBRANCH  13  14
ENDBRANCH  12  13
ENDBRANCH  11  12
ENDBRANCH  10  11
ENDBRANCH   9  10
ENDBRANCH   8   9
ENDBRANCH   7   8
ENDBRANCH   6   7
ENDBRANCH   5   6
ENDBRANCH   4   5
ENDBRANCH   3   4
ENDBRANCH   2   3
ENDBRANCH   1   2
BRANCH   1  17
ATOM     17  C   UNL     1      58.758  23.938  52.648  1.00  0.00     0.000 C 
BRANCH  17  18
ATOM     18  C   UNL     1      59.121  22.501  52.236  1.00  0.00     0.000 C 
BRANCH  18  19
ATOM     19  C   UNL     1      58.024  21.483  52.585  1.00  0.00     0.000 C 
BRANCH  19  20
ATOM     20  C   UNL     1      58.593  20.091  52.909  1.00  0.00     0.000 C 
BRANCH  20  21
ATOM     21  C   UNL     1      57.513  18.994  52.931  1.00  0.00     0.000 C 
BRANCH  21  22
ATOM     22  C   UNL     1      56.348  19.202  51.941  1.00  0.00    -0.000 C 
BRANCH  22  23
ATOM     23  C   UNL     1      56.014  17.986  51.053  1.00  0.00    -0.000 C 
BRANCH  23  24
ATOM     24  C   UNL     1      56.911  17.826  49.811  1.00  0.00    -0.000 C 
BRANCH  24  25
ATOM     25  C   UNL     1      58.120  16.910  50.066  1.00  0.00    -0.000 C 
BRANCH  25  26
ATOM     26  C   UNL     1      59.458  17.656  49.948  1.00  0.00    -0.000 C 
BRANCH  26  27
ATOM     27  C   UNL     1      59.314  19.012  49.233  1.00  0.00    -0.000 C 
BRANCH  27  28
ATOM     28  C   UNL     1      60.361  20.037  49.698  1.00  0.00    -0.000 C 
BRANCH  28  29
ATOM     29  C   UNL     1      60.629  21.125  48.647  1.00  0.00    -0.003 C 
ATOM     30  C   UNL     1      62.112  21.479  48.588  1.00  0.00     0.004 C 
ENDBRANCH  28  29
ENDBRANCH  27  28
ENDBRANCH  26  27
ENDBRANCH  25  26
ENDBRANCH  24  25
ENDBRANCH  23  24
ENDBRANCH  22  23
ENDBRANCH  21  22
ENDBRANCH  20  21
ENDBRANCH  19  20
ENDBRANCH  18  19
ENDBRANCH  17  18
ENDBRANCH   1  17
TORSDOF 26
ENDMDL
MODEL 3
REMARK VINA RESULT:    -2.895      3.960      6.372
REMARK INTER + INTRA:         -12.435
REMARK INTER:                  -7.768
REMARK INTRA:                  -4.668
REMARK UNBOUND:                -5.141
REMARK SMILES CCCCCCCCCCCCCCCCCCCCCCCCCCCC(=O)[O-]
REMARK SMILES IDX 15 1 16 2 17 3 18 4 19 5 20 6 21 7 22 8 23 9 24 10 25 11
REMARK SMILES IDX 26 12 27 13 28 14 29 15 30 16 14 17 13 18 12 19 11 20 10 21
REMARK SMILES IDX 9 22 8 23 7 24 6 25 5 26 4 27 3 28 2 29 1 30
REMARK H PARENT
REMARK Flexibility Score: inf
ROOT
ATOM      1  C   UNL     1      57.989  28.154  49.967  1.00  0.00     0.000 C 
ENDROOT
BRANCH   1   2
ATOM      2  C   UNL     1      56.864  27.112  49.833  1.00  0.00     0.000 C 
BRANCH   2   3
ATOM      3  C   UNL     1      57.384  25.708  49.489  1.00  0.00     0.000 C 
BRANCH   3   4
ATOM      4  C   UNL     1      57.783  24.946  50.761  1.00  0.00     0.000 C 
BRANCH   4   5
ATOM      5  C   UNL     1      59.284  24.614  50.812  1.00  0.00     0.000 C 
BRANCH   5   6
ATOM      6  C   UNL     1      60.016  24.700  49.458  1.00  0.00     0.000 C 
BRANCH   6   7
ATOM      7  C   UNL     1      61.555  24.760  49.546  1.00  0.00     0.000 C 
BRANCH   7   8
ATOM      8  C   UNL     1      62.216  23.514  50.163  1.00  0.00     0.000 C 
BRANCH   8   9
ATOM      9  C   UNL     1      62.892  22.618  49.111  1.00  0.00     0.000 C 
BRANCH   9  10
ATOM     10  C   UNL     1      62.305  21.196  49.080  1.00  0.00     0.000 C 
BRANCH  10  11
ATOM     11  C   UNL     1      60.786  21.193  48.832  1.00  0.00     0.000 C 
BRANCH  11  12
ATOM     12  C   UNL     1      60.006  20.404  49.900  1.00  0.00     0.006 C 
BRANCH  12  13
ATOM     13  C   UNL     1      59.585  18.993  49.452  1.00  0.00     0.053 C 
BRANCH  13  14
ATOM     14  C   UNL     1      58.368  18.498  50.171  1.00  0.00     0.041 C 
ATOM     15  O   UNL     1      57.425  17.965  49.530  1.00  0.00    -0.550 OA
ATOM     16  O   UNL     1      58.285  18.604  51.554  1.00  0.00    -0.550 OA
ENDBRANCH  13  14
ENDBRANCH  12  13
ENDBRANCH  11  12
ENDBRANCH  10  11
ENDBRANCH   9  10
ENDBRANCH   8   9
ENDBRANCH   7   8
ENDBRANCH   6   7
ENDBRANCH   5   6
ENDBRANCH   4   5
ENDBRANCH   3   4
ENDBRANCH   2   3
ENDBRANCH   1   2
BRANCH   1  17
ATOM     17  C   UNL     1      58.997  28.171  48.804  1.00  0.00     0.000 C 
BRANCH  17  18
ATOM     18  C   UNL     1      60.451  28.342  49.276  1.00  0.00     0.000 C 
BRANCH  18  19
ATOM     19  C   UNL     1      60.557  28.685  50.771  1.00  0.00     0.000 C 
BRANCH  19  20
ATOM     20  C   UNL     1      61.497  27.732  51.528  1.00  0.00     0.000 C 
BRANCH  20  21
ATOM     21  C   UNL     1      62.970  27.885  51.108  1.00  0.00     0.000 C 
BRANCH  21  22
ATOM     22  C   UNL     1      63.925  26.810  51.665  1.00  0.00    -0.000 C 
BRANCH  22  23
ATOM     23  C   UNL     1      65.200  26.565  50.831  1.00  0.00    -0.000 C 
BRANCH  23  24
ATOM     24  C   UNL     1      64.962  25.875  49.475  1.00  0.00    -0.000 C 
BRANCH  24  25
ATOM     25  C   UNL     1      65.481  26.704  48.288  1.00  0.00    -0.000 C 
BRANCH  25  26
ATOM     26  C   UNL     1      64.348  27.195  47.373  1.00  0.00    -0.000 C 
BRANCH  26  27
ATOM     27  C   UNL     1      63.874  28.614  47.736  1.00  0.00    -0.000 C 
BRANCH  27  28
ATOM     28  C   UNL     1      65.030  29.529  48.171  1.00  0.00    -0.000 C 
BRANCH  28  29
ATOM     29  C   UNL     1      64.552  30.927  48.589  1.00  0.00    -0.003 C 
ATOM     30  C   UNL     1      63.062  30.921  48.924  1.00  0.00     0.004 C 
ENDBRANCH  28  29
ENDBRANCH  27  28
ENDBRANCH  26  27
ENDBRANCH  25  26
ENDBRANCH  24  25
ENDBRANCH  23  24
ENDBRANCH  22  23
ENDBRANCH  21  22
ENDBRANCH  20  21
ENDBRANCH  19  20
ENDBRANCH  18  19
ENDBRANCH  17  18
ENDBRANCH   1  17
TORSDOF 26
ENDMDL
MODEL 4
REMARK VINA RESULT:    -2.891      5.056      8.076
REMARK INTER + INTRA:         -12.426
REMARK INTER:                  -8.548
REMARK INTRA:                  -3.877
REMARK UNBOUND:                -5.141
REMARK SMILES CCCCCCCCCCCCCCCCCCCCCCCCCCCC(=O)[O-]
REMARK SMILES IDX 15 1 16 2 17 3 18 4 19 5 20 6 21 7 22 8 23 9 24 10 25 11
REMARK SMILES IDX 26 12 27 13 28 14 29 15 30 16 14 17 13 18 12 19 11 20 10 21
REMARK SMILES IDX 9 22 8 23 7 24 6 25 5 26 4 27 3 28 2 29 1 30
REMARK H PARENT
REMARK Flexibility Score: inf
ROOT
ATOM      1  C   UNL     1      58.980  25.241  51.457  1.00  0.00     0.000 C 
ENDROOT
BRANCH   1   2
ATOM      2  C   UNL     1      58.836  24.513  50.108  1.00  0.00     0.000 C 
BRANCH   2   3
ATOM      3  C   UNL     1      60.020  23.585  49.798  1.00  0.00     0.000 C 
BRANCH   3   4
ATOM      4  C   UNL     1      60.258  22.598  50.951  1.00  0.00     0.000 C 
BRANCH   4   5
ATOM      5  C   UNL     1      60.971  21.312  50.499  1.00  0.00     0.000 C 
BRANCH   5   6
ATOM      6  C   UNL     1      60.068  20.066  50.408  1.00  0.00     0.000 C 
BRANCH   6   7
ATOM      7  C   UNL     1      59.721  19.609  48.976  1.00  0.00     0.000 C 
BRANCH   7   8
ATOM      8  C   UNL     1      59.059  18.223  48.882  1.00  0.00     0.000 C 
BRANCH   8   9
ATOM      9  C   UNL     1      59.228  17.395  50.167  1.00  0.00     0.000 C 
BRANCH   9  10
ATOM     10  C   UNL     1      57.885  16.915  50.744  1.00  0.00     0.000 C 
BRANCH  10  11
ATOM     11  C   UNL     1      56.688  17.693  50.171  1.00  0.00     0.000 C 
BRANCH  11  12
ATOM     12  C   UNL     1      56.002  18.593  51.216  1.00  0.00     0.006 C 
BRANCH  12  13
ATOM     13  C   UNL     1      56.728  18.644  52.571  1.00  0.00     0.053 C 
BRANCH  13  14
ATOM     14  C   UNL     1      55.983  17.922  53.651  1.00  0.00     0.041 C 
ATOM     15  O   UNL     1      54.749  18.116  53.810  1.00  0.00    -0.550 OA
ATOM     16  O   UNL     1      56.646  17.014  54.469  1.00  0.00    -0.550 OA
ENDBRANCH  13  14
ENDBRANCH  12  13
ENDBRANCH  11  12
ENDBRANCH  10  11
ENDBRANCH   9  10
ENDBRANCH   8   9
ENDBRANCH   7   8
ENDBRANCH   6   7
ENDBRANCH   5   6
ENDBRANCH   4   5
ENDBRANCH   3   4
ENDBRANCH   2   3
ENDBRANCH   1   2
BRANCH   1  17
ATOM     17  C   UNL     1      57.961  26.369  51.696  1.00  0.00     0.000 C 
BRANCH  17  18
ATOM     18  C   UNL     1      56.813  26.363  50.671  1.00  0.00     0.000 C 
BRANCH  18  19
ATOM     19  C   UNL     1      56.618  27.724  49.984  1.00  0.00     0.000 C 
BRANCH  19  20
ATOM     20  C   UNL     1      57.909  28.560  49.958  1.00  0.00     0.000 C 
BRANCH  20  21
ATOM     21  C   UNL     1      58.607  28.539  48.585  1.00  0.00     0.000 C 
BRANCH  21  22
ATOM     22  C   UNL     1      59.798  27.565  48.472  1.00  0.00    -0.000 C 
BRANCH  22  23
ATOM     23  C   UNL     1      60.884  27.724  49.556  1.00  0.00    -0.000 C 
BRANCH  23  24
ATOM     24  C   UNL     1      62.032  26.700  49.475  1.00  0.00    -0.000 C 
BRANCH  24  25
ATOM     25  C   UNL     1      62.584  26.317  50.858  1.00  0.00    -0.000 C 
BRANCH  25  26
ATOM     26  C   UNL     1      63.291  24.953  50.852  1.00  0.00    -0.000 C 
BRANCH  26  27
ATOM     27  C   UNL     1      63.550  24.431  49.426  1.00  0.00    -0.000 C 
BRANCH  27  28
ATOM     28  C   UNL     1      64.962  23.848  49.259  1.00  0.00    -0.000 C 
BRANCH  28  29
ATOM     29  C   UNL     1      66.018  24.929  48.984  1.00  0.00    -0.003 C 
ATOM     30  C   UNL     1      65.490  25.978  48.010  1.00  0.00     0.004 C 
ENDBRANCH  28  29
ENDBRANCH  27  28
ENDBRANCH  26  27
ENDBRANCH  25  26
ENDBRANCH  24  25
ENDBRANCH  23  24
ENDBRANCH  22  23
ENDBRANCH  21  22
ENDBRANCH  20  21
ENDBRANCH  19  20
ENDBRANCH  18  19
ENDBRANCH  17  18
ENDBRANCH   1  17
TORSDOF 26
ENDMDL
MODEL 5
REMARK VINA RESULT:    -2.887      5.798     10.262
REMARK INTER + INTRA:         -12.415
REMARK INTER:                  -8.162
REMARK INTRA:                  -4.253
REMARK UNBOUND:                -5.141
REMARK SMILES CCCCCCCCCCCCCCCCCCCCCCCCCCCC(=O)[O-]
REMARK SMILES IDX 15 1 16 2 17 3 18 4 19 5 20 6 21 7 22 8 23 9 24 10 25 11
REMARK SMILES IDX 26 12 27 13 28 14 29 15 30 16 14 17 13 18 12 19 11 20 10 21
REMARK SMILES IDX 9 22 8 23 7 24 6 25 5 26 4 27 3 28 2 29 1 30
REMARK H PARENT
REMARK Flexibility Score: inf
ROOT
ATOM      1  C   UNL     1      57.437  21.082  52.758  1.00  0.00     0.000 C 
ENDROOT
BRANCH   1   2
ATOM      2  C   UNL     1      58.777  21.550  52.162  1.00  0.00     0.000 C 
BRANCH   2   3
ATOM      3  C   UNL     1      59.783  20.404  51.974  1.00  0.00     0.000 C 
BRANCH   3   4
ATOM      4  C   UNL     1      60.303  20.365  50.529  1.00  0.00     0.000 C 
BRANCH   4   5
ATOM      5  C   UNL     1      61.838  20.314  50.447  1.00  0.00     0.000 C 
BRANCH   5   6
ATOM      6  C   UNL     1      62.542  21.680  50.567  1.00  0.00     0.000 C 
BRANCH   6   7
ATOM      7  C   UNL     1      62.311  22.644  49.385  1.00  0.00     0.000 C 
BRANCH   7   8
ATOM      8  C   UNL     1      62.612  24.123  49.689  1.00  0.00     0.000 C 
BRANCH   8   9
ATOM      9  C   UNL     1      61.344  24.934  50.007  1.00  0.00     0.000 C 
BRANCH   9  10
ATOM     10  C   UNL     1      60.070  24.292  49.433  1.00  0.00     0.000 C 
BRANCH  10  11
ATOM     11  C   UNL     1      58.810  24.676  50.228  1.00  0.00     0.000 C 
BRANCH  11  12
ATOM     12  C   UNL     1      57.801  25.491  49.399  1.00  0.00     0.006 C 
BRANCH  12  13
ATOM     13  C   UNL     1      57.652  26.953  49.855  1.00  0.00     0.053 C 
BRANCH  13  14
ATOM     14  C   UNL     1      58.855  27.784  49.530  1.00  0.00     0.041 C 
ATOM     15  O   UNL     1      59.139  28.047  48.331  1.00  0.00    -0.550 OA
ATOM     16  O   UNL     1      59.651  28.289  50.551  1.00  0.00    -0.550 OA
ENDBRANCH  13  14
ENDBRANCH  12  13
ENDBRANCH  11  12
ENDBRANCH  10  11
ENDBRANCH   9  10
ENDBRANCH   8   9
ENDBRANCH   7   8
ENDBRANCH   6   7
ENDBRANCH   5   6
ENDBRANCH   4   5
ENDBRANCH   3   4
ENDBRANCH   2   3
ENDBRANCH   1   2
BRANCH   1  17
ATOM     17  C   UNL     1      57.213  19.559  52.729  1.00  0.00     0.000 C 
BRANCH  17  18
ATOM     18  C   UNL     1      55.839  19.168  52.158  1.00  0.00     0.000 C 
BRANCH  18  19
ATOM     19  C   UNL     1      55.937  18.151  51.010  1.00  0.00     0.000 C 
BRANCH  19  20
ATOM     20  C   UNL     1      57.139  18.418  50.087  1.00  0.00     0.000 C 
BRANCH  20  21
ATOM     21  C   UNL     1      57.844  17.126  49.635  1.00  0.00     0.000 C 
BRANCH  21  22
ATOM     22  C   UNL     1      58.457  16.283  50.771  1.00  0.00    -0.000 C 
BRANCH  22  23
ATOM     23  C   UNL     1      59.893  16.672  51.178  1.00  0.00    -0.000 C 
BRANCH  23  24
ATOM     24  C   UNL     1      60.144  16.717  52.697  1.00  0.00    -0.000 C 
BRANCH  24  25
ATOM     25  C   UNL     1      58.922  16.265  53.514  1.00  0.00    -0.000 C 
BRANCH  25  26
ATOM     26  C   UNL     1      58.637  17.191  54.707  1.00  0.00    -0.000 C 
BRANCH  26  27
ATOM     27  C   UNL     1      57.503  16.661  55.605  1.00  0.00    -0.000 C 
BRANCH  27  28
ATOM     28  C   UNL     1      56.142  16.652  54.890  1.00  0.00    -0.000 C 
BRANCH  28  29
ATOM     29  C   UNL     1      55.052  17.382  55.688  1.00  0.00    -0.003 C 
ATOM     30  C   UNL     1      53.798  17.590  54.843  1.00  0.00     0.004 C 
ENDBRANCH  28  29
ENDBRANCH  27  28
ENDBRANCH  26  27
ENDBRANCH  25  26
ENDBRANCH  24  25
ENDBRANCH  23  24
ENDBRANCH  22  23
ENDBRANCH  21  22
ENDBRANCH  20  21
ENDBRANCH  19  20
ENDBRANCH  18  19
ENDBRANCH  17  18
ENDBRANCH   1  17
TORSDOF 26
ENDMDL
MODEL 6
REMARK VINA RESULT:    -2.842      3.350      7.364
REMARK INTER + INTRA:         -12.303
REMARK INTER:                  -6.942
REMARK INTRA:                  -5.362
REMARK UNBOUND:                -5.141
REMARK SMILES CCCCCCCCCCCCCCCCCCCCCCCCCCCC(=O)[O-]
REMARK SMILES IDX 15 1 16 2 17 3 18 4 19 5 20 6 21 7 22 8 23 9 24 10 25 11
REMARK SMILES IDX 26 12 27 13 28 14 29 15 30 16 14 17 13 18 12 19 11 20 10 21
REMARK SMILES IDX 9 22 8 23 7 24 6 25 5 26 4 27 3 28 2 29 1 30
REMARK H PARENT
REMARK Flexibility Score: inf
ROOT
ATOM      1  C   UNL     1      57.236  27.212  53.199  1.00  0.00     0.000 C 
ENDROOT
BRANCH   1   2
ATOM      2  C   UNL     1      58.510  26.801  52.438  1.00  0.00     0.000 C 
BRANCH   2   3
ATOM      3  C   UNL     1      59.683  27.767  52.666  1.00  0.00     0.000 C 
BRANCH   3   4
ATOM      4  C   UNL     1      60.539  27.897  51.398  1.00  0.00     0.000 C 
BRANCH   4   5
ATOM      5  C   UNL     1      59.705  28.216  50.145  1.00  0.00     0.000 C 
BRANCH   5   6
ATOM      6  C   UNL     1      59.935  27.267  48.952  1.00  0.00     0.000 C 
BRANCH   6   7
ATOM      7  C   UNL     1      59.055  26.000  48.942  1.00  0.00     0.000 C 
BRANCH   7   8
ATOM      8  C   UNL     1      59.610  24.823  49.764  1.00  0.00     0.000 C 
BRANCH   8   9
ATOM      9  C   UNL     1      60.988  24.350  49.270  1.00  0.00     0.000 C 
BRANCH   9  10
ATOM     10  C   UNL     1      62.116  24.670  50.265  1.00  0.00     0.000 C 
BRANCH  10  11
ATOM     11  C   UNL     1      63.402  25.141  49.563  1.00  0.00     0.000 C 
BRANCH  11  12
ATOM     12  C   UNL     1      63.537  26.675  49.523  1.00  0.00     0.006 C 
BRANCH  12  13
ATOM     13  C   UNL     1      63.373  27.280  48.118  1.00  0.00     0.053 C 
BRANCH  13  14
ATOM     14  C   UNL     1      64.659  27.814  47.567  1.00  0.00     0.041 C 
ATOM     15  O   UNL     1      64.652  28.589  46.573  1.00  0.00    -0.550 OA
ATOM     16  O   UNL     1      65.868  27.476  48.164  1.00  0.00    -0.550 OA
ENDBRANCH  13  14
ENDBRANCH  12  13
ENDBRANCH  11  12
ENDBRANCH  10  11
ENDBRANCH   9  10
ENDBRANCH   8   9
ENDBRANCH   7   8
ENDBRANCH   6   7
ENDBRANCH   5   6
ENDBRANCH   4   5
ENDBRANCH   3   4
ENDBRANCH   2   3
ENDBRANCH   1   2
BRANCH   1  17
ATOM     17  C   UNL     1      56.085  27.713  52.310  1.00  0.00     0.000 C 
BRANCH  17  18
ATOM     18  C   UNL     1      56.300  27.396  50.819  1.00  0.00     0.000 C 
BRANCH  18  19
ATOM     19  C   UNL     1      56.192  28.639  49.922  1.00  0.00     0.000 C 
BRANCH  19  20
ATOM     20  C   UNL     1      54.899  29.434  50.170  1.00  0.00     0.000 C 
BRANCH  20  21
ATOM     21  C   UNL     1      55.161  30.917  50.492  1.00  0.00     0.000 C 
BRANCH  21  22
ATOM     22  C   UNL     1      55.230  31.259  51.994  1.00  0.00    -0.000 C 
BRANCH  22  23
ATOM     23  C   UNL     1      56.541  31.926  52.458  1.00  0.00    -0.000 C 
BRANCH  23  24
ATOM     24  C   UNL     1      57.677  30.946  52.807  1.00  0.00    -0.000 C 
BRANCH  24  25
ATOM     25  C   UNL     1      59.069  31.507  52.472  1.00  0.00    -0.000 C 
BRANCH  25  26
ATOM     26  C   UNL     1      60.100  31.219  53.574  1.00  0.00    -0.000 C 
BRANCH  26  27
ATOM     27  C   UNL     1      61.527  31.064  53.018  1.00  0.00    -0.000 C 
BRANCH  27  28
ATOM     28  C   UNL     1      61.652  31.564  51.570  1.00  0.00    -0.000 C 
BRANCH  28  29
ATOM     29  C   UNL     1      62.799  30.884  50.808  1.00  0.00    -0.003 C 
ATOM     30  C   UNL     1      62.431  30.664  49.342  1.00  0.00     0.004 C 
ENDBRANCH  28  29
ENDBRANCH  27  28
ENDBRANCH  26  27
ENDBRANCH  25  26
ENDBRANCH  24  25
ENDBRANCH  23  24
ENDBRANCH  22  23
ENDBRANCH  21  22
ENDBRANCH  20  21
ENDBRANCH  19  20
ENDBRANCH  18  19
ENDBRANCH  17  18
ENDBRANCH   1  17
TORSDOF 26
ENDMDL
MODEL 7
REMARK VINA RESULT:    -2.835      5.228      7.812
REMARK INTER + INTRA:         -12.284
REMARK INTER:                  -8.436
REMARK INTRA:                  -3.848
REMARK UNBOUND:                -5.141
REMARK SMILES CCCCCCCCCCCCCCCCCCCCCCCCCCCC(=O)[O-]
REMARK SMILES IDX 15 1 16 2 17 3 18 4 19 5 20 6 21 7 22 8 23 9 24 10 25 11
REMARK SMILES IDX 26 12 27 13 28 14 29 15 30 16 14 17 13 18 12 19 11 20 10 21
REMARK SMILES IDX 9 22 8 23 7 24 6 25 5 26 4 27 3 28 2 29 1 30
REMARK H PARENT
REMARK Flexibility Score: inf
ROOT
ATOM      1  C   UNL     1      59.791  24.451  51.401  1.00  0.00     0.000 C 
ENDROOT
BRANCH   1   2
ATOM      2  C   UNL     1      60.946  23.589  50.857  1.00  0.00     0.000 C 
BRANCH   2   3
ATOM      3  C   UNL     1      60.777  23.227  49.374  1.00  0.00     0.000 C 
BRANCH   3   4
ATOM      4  C   UNL     1      61.373  21.843  49.077  1.00  0.00     0.000 C 
BRANCH   4   5
ATOM      5  C   UNL     1      60.314  20.727  49.067  1.00  0.00     0.000 C 
BRANCH   5   6
ATOM      6  C   UNL     1      60.157  19.967  50.399  1.00  0.00     0.000 C 
BRANCH   6   7
ATOM      7  C   UNL     1      59.766  18.481  50.265  1.00  0.00     0.000 C 
BRANCH   7   8
ATOM      8  C   UNL     1      58.942  18.141  49.011  1.00  0.00     0.000 C 
BRANCH   8   9
ATOM      9  C   UNL     1      57.832  17.113  49.290  1.00  0.00     0.000 C 
BRANCH   9  10
ATOM     10  C   UNL     1      57.140  17.341  50.644  1.00  0.00     0.000 C 
BRANCH  10  11
ATOM     11  C   UNL     1      56.059  18.434  50.574  1.00  0.00     0.000 C 
BRANCH  11  12
ATOM     12  C   UNL     1      55.577  18.892  51.963  1.00  0.00     0.006 C 
BRANCH  12  13
ATOM     13  C   UNL     1      56.254  18.156  53.134  1.00  0.00     0.053 C 
BRANCH  13  14
ATOM     14  C   UNL     1      55.277  17.720  54.182  1.00  0.00     0.041 C 
ATOM     15  O   UNL     1      54.039  17.779  53.959  1.00  0.00    -0.550 OA
ATOM     16  O   UNL     1      55.733  17.225  55.398  1.00  0.00    -0.550 OA
ENDBRANCH  13  14
ENDBRANCH  12  13
ENDBRANCH  11  12
ENDBRANCH  10  11
ENDBRANCH   9  10
ENDBRANCH   8   9
ENDBRANCH   7   8
ENDBRANCH   6   7
ENDBRANCH   5   6
ENDBRANCH   4   5
ENDBRANCH   3   4
ENDBRANCH   2   3
ENDBRANCH   1   2
BRANCH   1  17
ATOM     17  C   UNL     1      58.510  24.429  50.548  1.00  0.00     0.000 C 
BRANCH  17  18
ATOM     18  C   UNL     1      57.608  25.651  50.795  1.00  0.00     0.000 C 
BRANCH  18  19
ATOM     19  C   UNL     1      58.396  26.967  50.886  1.00  0.00     0.000 C 
BRANCH  19  20
ATOM     20  C   UNL     1      58.039  27.947  49.755  1.00  0.00     0.000 C 
BRANCH  20  21
ATOM     21  C   UNL     1      59.219  28.221  48.806  1.00  0.00     0.000 C 
BRANCH  21  22
ATOM     22  C   UNL     1      60.222  27.058  48.655  1.00  0.00    -0.000 C 
BRANCH  22  23
ATOM     23  C   UNL     1      61.710  27.459  48.721  1.00  0.00    -0.000 C 
BRANCH  23  24
ATOM     24  C   UNL     1      62.622  26.441  49.431  1.00  0.00    -0.000 C 
BRANCH  24  25
ATOM     25  C   UNL     1      63.101  26.933  50.807  1.00  0.00    -0.000 C 
BRANCH  25  26
ATOM     26  C   UNL     1      61.953  27.483  51.668  1.00  0.00    -0.000 C 
BRANCH  26  27
ATOM     27  C   UNL     1      62.191  28.941  52.102  1.00  0.00    -0.000 C 
BRANCH  27  28
ATOM     28  C   UNL     1      61.215  29.922  51.431  1.00  0.00    -0.000 C 
BRANCH  28  29
ATOM     29  C   UNL     1      61.923  31.155  50.851  1.00  0.00    -0.003 C 
ATOM     30  C   UNL     1      62.329  30.923  49.398  1.00  0.00     0.004 C 
ENDBRANCH  28  29
ENDBRANCH  27  28
ENDBRANCH  26  27
ENDBRANCH  25  26
ENDBRANCH  24  25
ENDBRANCH  23  24
ENDBRANCH  22  23
ENDBRANCH  21  22
ENDBRANCH  20  21
ENDBRANCH  19  20
ENDBRANCH  18  19
ENDBRANCH  17  18
ENDBRANCH   1  17
TORSDOF 26
ENDMDL
MODEL 8
REMARK VINA RESULT:    -2.820      3.762      7.271
REMARK INTER + INTRA:         -12.248
REMARK INTER:                  -7.165
REMARK INTRA:                  -5.083
REMARK UNBOUND:                -5.141
REMARK SMILES CCCCCCCCCCCCCCCCCCCCCCCCCCCC(=O)[O-]
REMARK SMILES IDX 15 1 16 2 17 3 18 4 19 5 20 6 21 7 22 8 23 9 24 10 25 11
REMARK SMILES IDX 26 12 27 13 28 14 29 15 30 16 14 17 13 18 12 19 11 20 10 21
REMARK SMILES IDX 9 22 8 23 7 24 6 25 5 26 4 27 3 28 2 29 1 30
REMARK H PARENT
REMARK Flexibility Score: inf
ROOT
ATOM      1  C   UNL     1      61.876  23.290  50.566  1.00  0.00     0.000 C 
ENDROOT
BRANCH   1   2
ATOM      2  C   UNL     1      62.613  24.629  50.746  1.00  0.00     0.000 C 
BRANCH   2   3
ATOM      3  C   UNL     1      64.090  24.562  50.329  1.00  0.00     0.000 C 
BRANCH   3   4
ATOM      4  C   UNL     1      64.321  25.318  49.012  1.00  0.00     0.000 C 
BRANCH   4   5
ATOM      5  C   UNL     1      63.332  26.478  48.809  1.00  0.00     0.000 C 
BRANCH   5   6
ATOM      6  C   UNL     1      63.714  27.470  47.692  1.00  0.00     0.000 C 
BRANCH   6   7
ATOM      7  C   UNL     1      64.037  28.902  48.167  1.00  0.00     0.000 C 
BRANCH   7   8
ATOM      8  C   UNL     1      63.846  29.140  49.675  1.00  0.00     0.000 C 
BRANCH   8   9
ATOM      9  C   UNL     1      63.557  30.613  50.013  1.00  0.00     0.000 C 
BRANCH   9  10
ATOM     10  C   UNL     1      62.576  31.266  49.025  1.00  0.00     0.000 C 
BRANCH  10  11
ATOM     11  C   UNL     1      62.876  32.758  48.799  1.00  0.00     0.000 C 
BRANCH  11  12
ATOM     12  C   UNL     1      64.277  33.007  48.210  1.00  0.00     0.006 C 
BRANCH  12  13
ATOM     13  C   UNL     1      65.110  34.038  48.992  1.00  0.00     0.053 C 
BRANCH  13  14
ATOM     14  C   UNL     1      65.968  34.881  48.100  1.00  0.00     0.041 C 
ATOM     15  O   UNL     1      66.056  36.123  48.292  1.00  0.00    -0.550 OA
ATOM     16  O   UNL     1      66.692  34.294  47.069  1.00  0.00    -0.550 OA
ENDBRANCH  13  14
ENDBRANCH  12  13
ENDBRANCH  11  12
ENDBRANCH  10  11
ENDBRANCH   9  10
ENDBRANCH   8   9
ENDBRANCH   7   8
ENDBRANCH   6   7
ENDBRANCH   5   6
ENDBRANCH   4   5
ENDBRANCH   3   4
ENDBRANCH   2   3
ENDBRANCH   1   2
BRANCH   1  17
ATOM     17  C   UNL     1      60.732  23.315  49.536  1.00  0.00     0.000 C 
BRANCH  17  18
ATOM     18  C   UNL     1      60.092  24.706  49.389  1.00  0.00     0.000 C 
BRANCH  18  19
ATOM     19  C   UNL     1      58.749  24.827  50.127  1.00  0.00     0.000 C 
BRANCH  19  20
ATOM     20  C   UNL     1      57.712  25.641  49.335  1.00  0.00     0.000 C 
BRANCH  20  21
ATOM     21  C   UNL     1      57.147  26.829  50.134  1.00  0.00     0.000 C 
BRANCH  21  22
ATOM     22  C   UNL     1      57.644  28.218  49.683  1.00  0.00    -0.000 C 
BRANCH  22  23
ATOM     23  C   UNL     1      58.754  28.203  48.613  1.00  0.00    -0.000 C 
BRANCH  23  24
ATOM     24  C   UNL     1      60.180  28.413  49.157  1.00  0.00    -0.000 C 
BRANCH  24  25
ATOM     25  C   UNL     1      60.193  28.858  50.629  1.00  0.00    -0.000 C 
BRANCH  25  26
ATOM     26  C   UNL     1      60.894  27.842  51.544  1.00  0.00    -0.000 C 
BRANCH  26  27
ATOM     27  C   UNL     1      59.947  27.261  52.610  1.00  0.00    -0.000 C 
BRANCH  27  28
ATOM     28  C   UNL     1      60.429  25.904  53.149  1.00  0.00    -0.000 C 
BRANCH  28  29
ATOM     29  C   UNL     1      59.300  25.093  53.801  1.00  0.00    -0.003 C 
ATOM     30  C   UNL     1      59.490  23.597  53.564  1.00  0.00     0.004 C 
ENDBRANCH  28  29
ENDBRANCH  27  28
ENDBRANCH  26  27
ENDBRANCH  25  26
ENDBRANCH  24  25
ENDBRANCH  23  24
ENDBRANCH  22  23
ENDBRANCH  21  22
ENDBRANCH  20  21
ENDBRANCH  19  20
ENDBRANCH  18  19
ENDBRANCH  17  18
ENDBRANCH   1  17
TORSDOF 26
ENDMDL
MODEL 9
REMARK VINA RESULT:    -2.800      2.225      6.867
REMARK INTER + INTRA:         -12.197
REMARK INTER:                  -7.764
REMARK INTRA:                  -4.433
REMARK UNBOUND:                -5.141
REMARK SMILES CCCCCCCCCCCCCCCCCCCCCCCCCCCC(=O)[O-]
REMARK SMILES IDX 15 1 16 2 17 3 18 4 19 5 20 6 21 7 22 8 23 9 24 10 25 11
REMARK SMILES IDX 26 12 27 13 28 14 29 15 30 16 14 17 13 18 12 19 11 20 10 21
REMARK SMILES IDX 9 22 8 23 7 24 6 25 5 26 4 27 3 28 2 29 1 30
REMARK H PARENT
REMARK Flexibility Score: inf
ROOT
ATOM      1  C   UNL     1      63.690  25.558  49.659  1.00  0.00     0.000 C 
ENDROOT
BRANCH   1   2
ATOM      2  C   UNL     1      64.348  26.431  48.575  1.00  0.00     0.000 C 
BRANCH   2   3
ATOM      3  C   UNL     1      63.392  27.480  47.986  1.00  0.00     0.000 C 
BRANCH   3   4
ATOM      4  C   UNL     1      64.087  28.299  46.889  1.00  0.00     0.000 C 
BRANCH   4   5
ATOM      5  C   UNL     1      65.516  27.811  46.594  1.00  0.00     0.000 C 
BRANCH   5   6
ATOM      6  C   UNL     1      66.581  28.924  46.520  1.00  0.00     0.000 C 
BRANCH   6   7
ATOM      7  C   UNL     1      66.545  29.945  47.675  1.00  0.00     0.000 C 
BRANCH   7   8
ATOM      8  C   UNL     1      66.468  31.418  47.233  1.00  0.00     0.000 C 
BRANCH   8   9
ATOM      9  C   UNL     1      65.382  32.208  47.983  1.00  0.00     0.000 C 
BRANCH   9  10
ATOM     10  C   UNL     1      64.453  31.301  48.808  1.00  0.00     0.000 C 
BRANCH  10  11
ATOM     11  C   UNL     1      62.974  31.703  48.679  1.00  0.00     0.000 C 
BRANCH  11  12
ATOM     12  C   UNL     1      62.750  33.222  48.801  1.00  0.00     0.006 C 
BRANCH  12  13
ATOM     13  C   UNL     1      62.816  33.749  50.245  1.00  0.00     0.053 C 
BRANCH  13  14
ATOM     14  C   UNL     1      61.500  34.278  50.726  1.00  0.00     0.041 C 
ATOM     15  O   UNL     1      61.067  35.382  50.303  1.00  0.00    -0.550 OA
ATOM     16  O   UNL     1      60.738  33.541  51.625  1.00  0.00    -0.550 OA
ENDBRANCH  13  14
ENDBRANCH  12  13
ENDBRANCH  11  12
ENDBRANCH  10  11
ENDBRANCH   9  10
ENDBRANCH   8   9
ENDBRANCH   7   8
ENDBRANCH   6   7
ENDBRANCH   5   6
ENDBRANCH   4   5
ENDBRANCH   3   4
ENDBRANCH   2   3
ENDBRANCH   1   2
BRANCH   1  17
ATOM     17  C   UNL     1      62.216  25.203  49.396  1.00  0.00     0.000 C 
BRANCH  17  18
ATOM     18  C   UNL     1      61.370  25.175  50.681  1.00  0.00     0.000 C 
BRANCH  18  19
ATOM     19  C   UNL     1      60.101  26.036  50.580  1.00  0.00     0.000 C 
BRANCH  19  20
ATOM     20  C   UNL     1      59.641  26.239  49.126  1.00  0.00     0.000 C 
BRANCH  20  21
ATOM     21  C   UNL     1      59.764  27.700  48.657  1.00  0.00     0.000 C 
BRANCH  21  22
ATOM     22  C   UNL     1      58.449  28.505  48.671  1.00  0.00    -0.000 C 
BRANCH  22  23
ATOM     23  C   UNL     1      57.304  27.881  49.495  1.00  0.00    -0.000 C 
BRANCH  23  24
ATOM     24  C   UNL     1      56.582  28.858  50.442  1.00  0.00    -0.000 C 
BRANCH  24  25
ATOM     25  C   UNL     1      57.233  28.925  51.834  1.00  0.00    -0.000 C 
BRANCH  25  26
ATOM     26  C   UNL     1      57.609  30.359  52.239  1.00  0.00    -0.000 C 
BRANCH  26  27
ATOM     27  C   UNL     1      59.079  30.477  52.682  1.00  0.00    -0.000 C 
BRANCH  27  28
ATOM     28  C   UNL     1      59.969  29.383  52.070  1.00  0.00    -0.000 C 
BRANCH  28  29
ATOM     29  C   UNL     1      61.130  29.959  51.247  1.00  0.00    -0.003 C 
ATOM     30  C   UNL     1      62.274  28.955  51.133  1.00  0.00     0.004 C 
ENDBRANCH  28  29
ENDBRANCH  27  28
ENDBRANCH  26  27
ENDBRANCH  25  26
ENDBRANCH  24  25
ENDBRANCH  23  24
ENDBRANCH  22  23
ENDBRANCH  21  22
ENDBRANCH  20  21
ENDBRANCH  19  20
ENDBRANCH  18  19
ENDBRANCH  17  18
ENDBRANCH   1  17
TORSDOF 26
ENDMDL
