MODEL 1
REMARK VINA RESULT:    27.010      0.000      0.000
REMARK INTER + INTRA:          40.787
REMARK INTER:                  38.064
REMARK INTRA:                   2.724
REMARK UNBOUND:                 2.724
REMARK SMILES O=C(C=Cc1ccc(O)cc1)CC(=O)C=Cc1ccc(O)cc1
REMARK SMILES IDX 12 1 2 2 1 3 3 4 4 5 5 6 6 7 7 8 8 9 11 10 10 11 9 12 13 14
REMARK SMILES IDX 14 15 15 16 16 17 17 18 18 19 23 20 19 21 22 22 20 23 21 24
REMARK H PARENT 9 13 21 25
REMARK Flexibility Score: inf
ROOT
ATOM      1  C   UNL     1      -5.547  -0.737  -0.897  1.00  0.00     0.160 C 
ENDROOT
BRANCH   1   2
ATOM      2  C   UNL     1      -4.984  -2.112  -0.709  1.00  0.00     0.163 C 
ATOM      3  O   UNL     1      -3.819  -2.358  -1.121  1.00  0.00    -0.294 OA
BRANCH   2   4
ATOM      4  C   UNL     1      -5.752  -3.125   0.050  1.00  0.00     0.048 C 
ATOM      5  C   UNL     1      -6.054  -3.057   1.355  1.00  0.00     0.012 C 
BRANCH   5   6
ATOM      6  C   UNL     1      -5.523  -2.058   2.306  1.00  0.00    -0.025 A 
ATOM      7  C   UNL     1      -4.393  -2.373   3.074  1.00  0.00     0.012 A 
ATOM      8  C   UNL     1      -3.846  -1.427   3.946  1.00  0.00     0.047 A 
ATOM      9  C   UNL     1      -4.410  -0.151   4.046  1.00  0.00     0.115 A 
ATOM     10  C   UNL     1      -6.069  -0.764   2.384  1.00  0.00     0.012 A 
ATOM     11  C   UNL     1      -5.521   0.180   3.259  1.00  0.00     0.047 A 
BRANCH   9  12
ATOM     12  O   UNL     1      -3.856   0.780   4.921  1.00  0.00    -0.508 OA
ATOM     13  H   UNL     1      -4.137   1.754   4.905  1.00  0.00     0.293 HD
ENDBRANCH   9  12
ENDBRANCH   5   6
ENDBRANCH   2   4
ENDBRANCH   1   2
BRANCH   1  14
ATOM     14  C   UNL     1      -4.767   0.257  -0.089  1.00  0.00     0.163 C 
ATOM     15  O   UNL     1      -5.195   1.439   0.012  1.00  0.00    -0.294 OA
BRANCH  14  16
ATOM     16  C   UNL     1      -3.487  -0.137   0.535  1.00  0.00     0.048 C 
ATOM     17  C   UNL     1      -2.870   0.631   1.443  1.00  0.00     0.012 C 
BRANCH  17  18
ATOM     18  C   UNL     1      -1.586   0.267   2.092  1.00  0.00    -0.025 A 
ATOM     19  C   UNL     1      -0.421  -0.029   1.353  1.00  0.00     0.012 A 
ATOM     20  C   UNL     1      -1.519   0.256   3.495  1.00  0.00     0.012 A 
ATOM     21  C   UNL     1       0.770  -0.350   2.011  1.00  0.00     0.047 A 
ATOM     22  C   UNL     1      -0.326  -0.068   4.148  1.00  0.00     0.047 A 
ATOM     23  C   UNL     1       0.821  -0.370   3.409  1.00  0.00     0.115 A 
BRANCH  23  24
ATOM     24  O   UNL     1       2.005  -0.686   4.074  1.00  0.00    -0.508 OA
ATOM     25  H   UNL     1       2.665   0.031   4.346  1.00  0.00     0.293 HD
ENDBRANCH  23  24
ENDBRANCH  17  18
ENDBRANCH  14  16
ENDBRANCH   1  14
TORSDOF 8
ENDMDL
MODEL 2
REMARK VINA RESULT:    27.956      2.572      5.726
REMARK INTER + INTRA:          42.120
REMARK INTER:                  41.665
REMARK INTRA:                   0.455
REMARK UNBOUND:                 2.724
REMARK SMILES O=C(C=Cc1ccc(O)cc1)CC(=O)C=Cc1ccc(O)cc1
REMARK SMILES IDX 12 1 2 2 1 3 3 4 4 5 5 6 6 7 7 8 8 9 11 10 10 11 9 12 13 14
REMARK SMILES IDX 14 15 15 16 16 17 17 18 18 19 23 20 19 21 22 22 20 23 21 24
REMARK H PARENT 9 13 21 25
REMARK Flexibility Score: inf
ROOT
ATOM      1  C   UNL     1      -3.731  -1.694   1.694  1.00  0.00     0.160 C 
ENDROOT
BRANCH   1   2
ATOM      2  C   UNL     1      -4.428  -1.562   3.013  1.00  0.00     0.163 C 
ATOM      3  O   UNL     1      -4.893  -2.595   3.566  1.00  0.00    -0.294 OA
BRANCH   2   4
ATOM      4  C   UNL     1      -4.465  -0.251   3.699  1.00  0.00     0.048 C 
ATOM      5  C   UNL     1      -3.424   0.582   3.846  1.00  0.00     0.012 C 
BRANCH   5   6
ATOM      6  C   UNL     1      -2.020   0.263   3.515  1.00  0.00    -0.025 A 
ATOM      7  C   UNL     1      -1.261  -0.509   4.408  1.00  0.00     0.012 A 
ATOM      8  C   UNL     1       0.055  -0.861   4.095  1.00  0.00     0.047 A 
ATOM      9  C   UNL     1       0.620  -0.465   2.878  1.00  0.00     0.115 A 
ATOM     10  C   UNL     1      -1.459   0.633   2.279  1.00  0.00     0.012 A 
ATOM     11  C   UNL     1      -0.142   0.280   1.969  1.00  0.00     0.047 A 
BRANCH   9  12
ATOM     12  O   UNL     1       1.934  -0.822   2.581  1.00  0.00    -0.508 OA
ATOM     13  H   UNL     1       2.196  -1.151   1.659  1.00  0.00     0.293 HD
ENDBRANCH   9  12
ENDBRANCH   5   6
ENDBRANCH   2   4
ENDBRANCH   1   2
BRANCH   1  14
ATOM     14  C   UNL     1      -4.632  -1.238   0.585  1.00  0.00     0.163 C 
ATOM     15  O   UNL     1      -4.708  -1.928  -0.468  1.00  0.00    -0.294 OA
BRANCH  14  16
ATOM     16  C   UNL     1      -5.378   0.031   0.711  1.00  0.00     0.048 C 
ATOM     17  C   UNL     1      -4.806   1.153   1.168  1.00  0.00     0.012 C 
BRANCH  17  18
ATOM     18  C   UNL     1      -5.523   2.445   1.305  1.00  0.00    -0.025 A 
ATOM     19  C   UNL     1      -5.588   3.390   0.260  1.00  0.00     0.012 A 
ATOM     20  C   UNL     1      -6.197   2.718   2.507  1.00  0.00     0.012 A 
ATOM     21  C   UNL     1      -6.291   4.586   0.431  1.00  0.00     0.047 A 
ATOM     22  C   UNL     1      -6.898   3.916   2.674  1.00  0.00     0.047 A 
ATOM     23  C   UNL     1      -6.948   4.852   1.638  1.00  0.00     0.115 A 
BRANCH  23  24
ATOM     24  O   UNL     1      -7.654   6.040   1.817  1.00  0.00    -0.508 OA
ATOM     25  H   UNL     1      -7.221   6.941   1.659  1.00  0.00     0.293 HD
ENDBRANCH  23  24
ENDBRANCH  17  18
ENDBRANCH  14  16
ENDBRANCH   1  14
TORSDOF 8
ENDMDL
