MODEL 1
REMARK VINA RESULT:    -5.322      0.000      0.000
REMARK INTER + INTRA:          -6.721
REMARK INTER:                  -6.567
REMARK INTRA:                  -0.155
REMARK UNBOUND:                -0.155
REMARK SMILES CCOC(=O)c1ccc(O)c(O)c1
REMARK SMILES IDX 4 1 5 2 3 3 2 4 1 5 6 6 13 7 7 8 11 9 8 10 9 11 12 12 10 14
REMARK H PARENT 12 13 10 15
REMARK Flexibility Score: inf
ROOT
ATOM      1  C   UNL     1       2.673  10.616   5.614  1.00  0.00     0.338 C 
ATOM      2  O   UNL     1       1.796   9.740   5.377  1.00  0.00    -0.246 OA
ENDROOT
BRANCH   1   3
ATOM      3  O   UNL     1       2.569  11.421   6.753  1.00  0.00    -0.462 OA
BRANCH   3   4
ATOM      4  C   UNL     1       2.174  10.909   8.023  1.00  0.00     0.230 C 
ATOM      5  C   UNL     1       0.751  11.347   8.327  1.00  0.00     0.049 C 
ENDBRANCH   3   4
ENDBRANCH   1   3
BRANCH   1   6
ATOM      6  C   UNL     1       3.814  10.795   4.688  1.00  0.00     0.064 A 
ATOM      7  C   UNL     1       4.326  12.080   4.433  1.00  0.00     0.065 A 
ATOM      8  C   UNL     1       4.401   9.688   4.051  1.00  0.00     0.020 A 
ATOM      9  C   UNL     1       5.404  12.258   3.559  1.00  0.00     0.158 A 
ATOM     10  C   UNL     1       5.478   9.863   3.178  1.00  0.00     0.051 A 
ATOM     11  C   UNL     1       5.985  11.146   2.928  1.00  0.00     0.157 A 
BRANCH   9  12
ATOM     12  O   UNL     1       5.886  13.547   3.332  1.00  0.00    -0.504 OA
ATOM     13  H   UNL     1       5.750  14.024   2.448  1.00  0.00     0.293 HD
ENDBRANCH   9  12
BRANCH  11  14
ATOM     14  O   UNL     1       7.059  11.316   2.056  1.00  0.00    -0.504 OA
ATOM     15  H   UNL     1       7.432  10.544   1.517  1.00  0.00     0.293 HD
ENDBRANCH  11  14
ENDBRANCH   1   6
TORSDOF 5
ENDMDL
MODEL 2
REMARK VINA RESULT:    -5.272      2.540      4.356
REMARK INTER + INTRA:          -6.660
REMARK INTER:                  -6.395
REMARK INTRA:                  -0.265
REMARK UNBOUND:                -0.155
REMARK SMILES CCOC(=O)c1ccc(O)c(O)c1
REMARK SMILES IDX 4 1 5 2 3 3 2 4 1 5 6 6 13 7 7 8 11 9 8 10 9 11 12 12 10 14
REMARK H PARENT 12 13 10 15
REMARK Flexibility Score: inf
ROOT
ATOM      1  C   UNL     1       4.318   7.899   4.098  1.00  0.00     0.338 C 
ATOM      2  O   UNL     1       4.686   7.284   5.136  1.00  0.00    -0.246 OA
ENDROOT
BRANCH   1   3
ATOM      3  O   UNL     1       3.546   7.245   3.132  1.00  0.00    -0.462 OA
BRANCH   3   4
ATOM      4  C   UNL     1       4.030   6.135   2.383  1.00  0.00     0.230 C 
ATOM      5  C   UNL     1       4.444   6.599   0.996  1.00  0.00     0.049 C 
ENDBRANCH   3   4
ENDBRANCH   1   3
BRANCH   1   6
ATOM      6  C   UNL     1       4.701   9.315   3.898  1.00  0.00     0.064 A 
ATOM      7  C   UNL     1       5.734   9.651   3.005  1.00  0.00     0.065 A 
ATOM      8  C   UNL     1       4.041  10.342   4.596  1.00  0.00     0.020 A 
ATOM      9  C   UNL     1       6.103  10.987   2.811  1.00  0.00     0.158 A 
ATOM     10  C   UNL     1       4.407  11.676   4.403  1.00  0.00     0.051 A 
ATOM     11  C   UNL     1       5.437  12.007   3.512  1.00  0.00     0.157 A 
BRANCH   9  12
ATOM     12  O   UNL     1       7.132  11.283   1.916  1.00  0.00    -0.504 OA
ATOM     13  H   UNL     1       7.868  10.619   1.705  1.00  0.00     0.293 HD
ENDBRANCH   9  12
BRANCH  11  14
ATOM     14  O   UNL     1       5.800  13.339   3.323  1.00  0.00    -0.504 OA
ATOM     15  H   UNL     1       5.138  14.025   2.980  1.00  0.00     0.293 HD
ENDBRANCH  11  14
ENDBRANCH   1   6
TORSDOF 5
ENDMDL
MODEL 3
REMARK VINA RESULT:    -5.029      2.371      5.009
REMARK INTER + INTRA:          -6.359
REMARK INTER:                  -6.085
REMARK INTRA:                  -0.274
REMARK UNBOUND:                -0.155
REMARK SMILES CCOC(=O)c1ccc(O)c(O)c1
REMARK SMILES IDX 4 1 5 2 3 3 2 4 1 5 6 6 13 7 7 8 11 9 8 10 9 11 12 12 10 14
REMARK H PARENT 12 13 10 15
REMARK Flexibility Score: inf
ROOT
ATOM      1  C   UNL     1       5.115   8.222   2.964  1.00  0.00     0.338 C 
ATOM      2  O   UNL     1       5.376   7.261   3.738  1.00  0.00    -0.246 OA
ENDROOT
BRANCH   1   3
ATOM      3  O   UNL     1       5.156   8.036   1.578  1.00  0.00    -0.462 OA
BRANCH   3   4
ATOM      4  C   UNL     1       6.244   7.393   0.920  1.00  0.00     0.230 C 
ATOM      5  C   UNL     1       7.294   8.426   0.546  1.00  0.00     0.049 C 
ENDBRANCH   3   4
ENDBRANCH   1   3
BRANCH   1   6
ATOM      6  C   UNL     1       4.765   9.549   3.519  1.00  0.00     0.064 A 
ATOM      7  C   UNL     1       5.472  10.696   3.115  1.00  0.00     0.065 A 
ATOM      8  C   UNL     1       3.724   9.684   4.454  1.00  0.00     0.020 A 
ATOM      9  C   UNL     1       5.147  11.954   3.635  1.00  0.00     0.158 A 
ATOM     10  C   UNL     1       3.398  10.939   4.974  1.00  0.00     0.051 A 
ATOM     11  C   UNL     1       4.105  12.079   4.568  1.00  0.00     0.157 A 
BRANCH   9  12
ATOM     12  O   UNL     1       5.870  13.069   3.210  1.00  0.00    -0.504 OA
ATOM     13  H   UNL     1       5.587  13.621   2.409  1.00  0.00     0.293 HD
ENDBRANCH   9  12
BRANCH  11  14
ATOM     14  O   UNL     1       3.777  13.329   5.090  1.00  0.00    -0.504 OA
ATOM     15  H   UNL     1       4.491  13.994   5.363  1.00  0.00     0.293 HD
ENDBRANCH  11  14
ENDBRANCH   1   6
TORSDOF 5
ENDMDL
MODEL 4
REMARK VINA RESULT:    -4.999      3.605      5.434
REMARK INTER + INTRA:          -6.323
REMARK INTER:                  -6.022
REMARK INTRA:                  -0.301
REMARK UNBOUND:                -0.155
REMARK SMILES CCOC(=O)c1ccc(O)c(O)c1
REMARK SMILES IDX 4 1 5 2 3 3 2 4 1 5 6 6 13 7 7 8 11 9 8 10 9 11 12 12 10 14
REMARK H PARENT 12 13 10 15
REMARK Flexibility Score: inf
ROOT
ATOM      1  C   UNL     1       4.694   6.217   2.862  1.00  0.00     0.338 C 
ATOM      2  O   UNL     1       5.129   5.473   3.784  1.00  0.00    -0.246 OA
ENDROOT
BRANCH   1   3
ATOM      3  O   UNL     1       3.626   5.792   2.065  1.00  0.00    -0.462 OA
BRANCH   3   4
ATOM      4  C   UNL     1       3.809   5.009   0.889  1.00  0.00     0.230 C 
ATOM      5  C   UNL     1       3.660   5.893  -0.339  1.00  0.00     0.049 C 
ENDBRANCH   3   4
ENDBRANCH   1   3
BRANCH   1   6
ATOM      6  C   UNL     1       5.310   7.541   2.622  1.00  0.00     0.064 A 
ATOM      7  C   UNL     1       4.736   8.701   3.171  1.00  0.00     0.065 A 
ATOM      8  C   UNL     1       6.475   7.659   1.842  1.00  0.00     0.020 A 
ATOM      9  C   UNL     1       5.313   9.957   2.949  1.00  0.00     0.158 A 
ATOM     10  C   UNL     1       7.052   8.912   1.619  1.00  0.00     0.051 A 
ATOM     11  C   UNL     1       6.477  10.065   2.169  1.00  0.00     0.157 A 
BRANCH   9  12
ATOM     12  O   UNL     1       4.716  11.085   3.511  1.00  0.00    -0.504 OA
ATOM     13  H   UNL     1       4.684  11.975   3.026  1.00  0.00     0.293 HD
ENDBRANCH   9  12
BRANCH  11  14
ATOM     14  O   UNL     1       7.055  11.313   1.944  1.00  0.00    -0.504 OA
ATOM     15  H   UNL     1       6.625  11.994   1.331  1.00  0.00     0.293 HD
ENDBRANCH  11  14
ENDBRANCH   1   6
TORSDOF 5
ENDMDL
MODEL 5
REMARK VINA RESULT:    -4.783      2.306      5.140
REMARK INTER + INTRA:          -6.056
REMARK INTER:                  -5.880
REMARK INTRA:                  -0.176
REMARK UNBOUND:                -0.155
REMARK SMILES CCOC(=O)c1ccc(O)c(O)c1
REMARK SMILES IDX 4 1 5 2 3 3 2 4 1 5 6 6 13 7 7 8 11 9 8 10 9 11 12 12 10 14
REMARK H PARENT 12 13 10 15
REMARK Flexibility Score: inf
ROOT
ATOM      1  C   UNL     1       5.975   8.783   2.154  1.00  0.00     0.338 C 
ATOM      2  O   UNL     1       7.082   8.931   1.568  1.00  0.00    -0.246 OA
ENDROOT
BRANCH   1   3
ATOM      3  O   UNL     1       5.281   7.574   2.047  1.00  0.00    -0.462 OA
BRANCH   3   4
ATOM      4  C   UNL     1       5.535   6.631   1.009  1.00  0.00     0.230 C 
ATOM      5  C   UNL     1       4.323   6.541   0.097  1.00  0.00     0.049 C 
ENDBRANCH   3   4
ENDBRANCH   1   3
BRANCH   1   6
ATOM      6  C   UNL     1       5.407   9.889   2.959  1.00  0.00     0.064 A 
ATOM      7  C   UNL     1       5.912  11.194   2.828  1.00  0.00     0.065 A 
ATOM      8  C   UNL     1       4.357   9.651   3.864  1.00  0.00     0.020 A 
ATOM      9  C   UNL     1       5.380  12.245   3.584  1.00  0.00     0.158 A 
ATOM     10  C   UNL     1       3.825  10.698   4.620  1.00  0.00     0.051 A 
ATOM     11  C   UNL     1       4.331  11.998   4.485  1.00  0.00     0.157 A 
BRANCH   9  12
ATOM     12  O   UNL     1       5.907  13.527   3.426  1.00  0.00    -0.504 OA
ATOM     13  H   UNL     1       6.901  13.711   3.488  1.00  0.00     0.293 HD
ENDBRANCH   9  12
BRANCH  11  14
ATOM     14  O   UNL     1       3.798  13.040   5.242  1.00  0.00    -0.504 OA
ATOM     15  H   UNL     1       3.391  12.878   6.155  1.00  0.00     0.293 HD
ENDBRANCH  11  14
ENDBRANCH   1   6
TORSDOF 5
ENDMDL
MODEL 6
REMARK VINA RESULT:    -4.754      4.428      6.410
REMARK INTER + INTRA:          -6.021
REMARK INTER:                  -5.862
REMARK INTRA:                  -0.159
REMARK UNBOUND:                -0.155
REMARK SMILES CCOC(=O)c1ccc(O)c(O)c1
REMARK SMILES IDX 4 1 5 2 3 3 2 4 1 5 6 6 13 7 7 8 11 9 8 10 9 11 12 12 10 14
REMARK H PARENT 12 13 10 15
REMARK Flexibility Score: inf
ROOT
ATOM      1  C   UNL     1       4.305   5.610   1.911  1.00  0.00     0.338 C 
ATOM      2  O   UNL     1       4.601   4.718   2.754  1.00  0.00    -0.246 OA
ENDROOT
BRANCH   1   3
ATOM      3  O   UNL     1       3.288   5.381   0.978  1.00  0.00    -0.462 OA
BRANCH   3   4
ATOM      4  C   UNL     1       3.429   4.467  -0.105  1.00  0.00     0.230 C 
ATOM      5  C   UNL     1       2.223   4.578  -1.024  1.00  0.00     0.049 C 
ENDBRANCH   3   4
ENDBRANCH   1   3
BRANCH   1   6
ATOM      6  C   UNL     1       5.032   6.899   1.907  1.00  0.00     0.064 A 
ATOM      7  C   UNL     1       6.068   7.126   0.984  1.00  0.00     0.065 A 
ATOM      8  C   UNL     1       4.699   7.913   2.823  1.00  0.00     0.020 A 
ATOM      9  C   UNL     1       6.760   8.343   0.973  1.00  0.00     0.158 A 
ATOM     10  C   UNL     1       5.389   9.128   2.814  1.00  0.00     0.051 A 
ATOM     11  C   UNL     1       6.420   9.350   1.891  1.00  0.00     0.157 A 
BRANCH   9  12
ATOM     12  O   UNL     1       7.782   8.532   0.042  1.00  0.00    -0.504 OA
ATOM     13  H   UNL     1       7.592   8.786  -0.920  1.00  0.00     0.293 HD
ENDBRANCH   9  12
BRANCH  11  14
ATOM     14  O   UNL     1       7.106  10.563   1.886  1.00  0.00    -0.504 OA
ATOM     15  H   UNL     1       7.844  10.753   1.218  1.00  0.00     0.293 HD
ENDBRANCH  11  14
ENDBRANCH   1   6
TORSDOF 5
ENDMDL
MODEL 7
REMARK VINA RESULT:    -4.739      1.207      1.839
REMARK INTER + INTRA:          -6.001
REMARK INTER:                  -5.851
REMARK INTRA:                  -0.150
REMARK UNBOUND:                -0.155
REMARK SMILES CCOC(=O)c1ccc(O)c(O)c1
REMARK SMILES IDX 4 1 5 2 3 3 2 4 1 5 6 6 13 7 7 8 11 9 8 10 9 11 12 12 10 14
REMARK H PARENT 12 13 10 15
REMARK Flexibility Score: inf
ROOT
ATOM      1  C   UNL     1       3.538  11.807   5.461  1.00  0.00     0.338 C 
ATOM      2  O   UNL     1       3.812  13.031   5.593  1.00  0.00    -0.246 OA
ENDROOT
BRANCH   1   3
ATOM      3  O   UNL     1       2.536  11.225   6.245  1.00  0.00    -0.462 OA
BRANCH   3   4
ATOM      4  C   UNL     1       2.405  11.481   7.640  1.00  0.00     0.230 C 
ATOM      5  C   UNL     1       0.945  11.357   8.044  1.00  0.00     0.049 C 
ENDBRANCH   3   4
ENDBRANCH   1   3
BRANCH   1   6
ATOM      6  C   UNL     1       4.275  10.982   4.478  1.00  0.00     0.064 A 
ATOM      7  C   UNL     1       5.311  11.546   3.713  1.00  0.00     0.065 A 
ATOM      8  C   UNL     1       3.952   9.626   4.293  1.00  0.00     0.020 A 
ATOM      9  C   UNL     1       6.013  10.773   2.781  1.00  0.00     0.158 A 
ATOM     10  C   UNL     1       4.651   8.852   3.364  1.00  0.00     0.051 A 
ATOM     11  C   UNL     1       5.684   9.419   2.604  1.00  0.00     0.157 A 
BRANCH   9  12
ATOM     12  O   UNL     1       7.035  11.368   2.040  1.00  0.00    -0.504 OA
ATOM     13  H   UNL     1       7.623  10.835   1.411  1.00  0.00     0.293 HD
ENDBRANCH   9  12
BRANCH  11  14
ATOM     14  O   UNL     1       6.379   8.644   1.677  1.00  0.00    -0.504 OA
ATOM     15  H   UNL     1       6.220   7.647   1.595  1.00  0.00     0.293 HD
ENDBRANCH  11  14
ENDBRANCH   1   6
TORSDOF 5
ENDMDL
MODEL 8
REMARK VINA RESULT:    -4.708      3.487      5.796
REMARK INTER + INTRA:          -5.963
REMARK INTER:                  -5.781
REMARK INTRA:                  -0.182
REMARK UNBOUND:                -0.155
REMARK SMILES CCOC(=O)c1ccc(O)c(O)c1
REMARK SMILES IDX 4 1 5 2 3 3 2 4 1 5 6 6 13 7 7 8 11 9 8 10 9 11 12 12 10 14
REMARK H PARENT 12 13 10 15
REMARK Flexibility Score: inf
ROOT
ATOM      1  C   UNL     1       5.758   6.611   1.746  1.00  0.00     0.338 C 
ATOM      2  O   UNL     1       6.893   6.061   1.714  1.00  0.00    -0.246 OA
ENDROOT
BRANCH   1   3
ATOM      3  O   UNL     1       4.637   5.933   1.256  1.00  0.00    -0.462 OA
BRANCH   3   4
ATOM      4  C   UNL     1       3.970   6.315   0.057  1.00  0.00     0.230 C 
ATOM      5  C   UNL     1       3.415   5.079  -0.633  1.00  0.00     0.049 C 
ENDBRANCH   3   4
ENDBRANCH   1   3
BRANCH   1   6
ATOM      6  C   UNL     1       5.608   7.975   2.302  1.00  0.00     0.064 A 
ATOM      7  C   UNL     1       6.450   9.014   1.868  1.00  0.00     0.065 A 
ATOM      8  C   UNL     1       4.626   8.251   3.270  1.00  0.00     0.020 A 
ATOM      9  C   UNL     1       6.316  10.306   2.389  1.00  0.00     0.158 A 
ATOM     10  C   UNL     1       4.490   9.540   3.791  1.00  0.00     0.051 A 
ATOM     11  C   UNL     1       5.331  10.573   3.355  1.00  0.00     0.157 A 
BRANCH   9  12
ATOM     12  O   UNL     1       7.168  11.312   1.934  1.00  0.00    -0.504 OA
ATOM     13  H   UNL     1       7.266  12.195   2.421  1.00  0.00     0.293 HD
ENDBRANCH   9  12
BRANCH  11  14
ATOM     14  O   UNL     1       5.192  11.857   3.878  1.00  0.00    -0.504 OA
ATOM     15  H   UNL     1       5.974  12.347   4.296  1.00  0.00     0.293 HD
ENDBRANCH  11  14
ENDBRANCH   1   6
TORSDOF 5
ENDMDL
MODEL 9
REMARK VINA RESULT:    -4.550      7.373      9.343
REMARK INTER + INTRA:          -5.768
REMARK INTER:                  -5.633
REMARK INTRA:                  -0.135
REMARK UNBOUND:                -0.155
REMARK SMILES CCOC(=O)c1ccc(O)c(O)c1
REMARK SMILES IDX 4 1 5 2 3 3 2 4 1 5 6 6 13 7 7 8 11 9 8 10 9 11 12 12 10 14
REMARK H PARENT 12 13 10 15
REMARK Flexibility Score: inf
ROOT
ATOM      1  C   UNL     1       4.871   5.460   1.262  1.00  0.00     0.338 C 
ATOM      2  O   UNL     1       4.816   5.119   2.476  1.00  0.00    -0.246 OA
ENDROOT
BRANCH   1   3
ATOM      3  O   UNL     1       5.495   6.658   0.899  1.00  0.00    -0.462 OA
BRANCH   3   4
ATOM      4  C   UNL     1       6.875   6.912   1.144  1.00  0.00     0.230 C 
ATOM      5  C   UNL     1       7.301   8.166   0.398  1.00  0.00     0.049 C 
ENDBRANCH   3   4
ENDBRANCH   1   3
BRANCH   1   6
ATOM      6  C   UNL     1       4.277   4.593   0.219  1.00  0.00     0.064 A 
ATOM      7  C   UNL     1       4.785   3.302  -0.005  1.00  0.00     0.065 A 
ATOM      8  C   UNL     1       3.199   5.047  -0.562  1.00  0.00     0.020 A 
ATOM      9  C   UNL     1       4.229   2.476  -0.989  1.00  0.00     0.158 A 
ATOM     10  C   UNL     1       2.643   4.225  -1.545  1.00  0.00     0.051 A 
ATOM     11  C   UNL     1       3.152   2.938  -1.763  1.00  0.00     0.157 A 
BRANCH   9  12
ATOM     12  O   UNL     1       4.760   1.201  -1.182  1.00  0.00    -0.504 OA
ATOM     13  H   UNL     1       4.754   0.500  -0.450  1.00  0.00     0.293 HD
ENDBRANCH   9  12
BRANCH  11  14
ATOM     14  O   UNL     1       2.594   2.121  -2.745  1.00  0.00    -0.504 OA
ATOM     15  H   UNL     1       1.970   1.359  -2.509  1.00  0.00     0.293 HD
ENDBRANCH  11  14
ENDBRANCH   1   6
TORSDOF 5
ENDMDL
