MODEL 1
REMARK VINA RESULT:    41.928      0.000      0.000
REMARK INTER + INTRA:          45.422
REMARK INTER:                  45.604
REMARK INTRA:                  -0.182
REMARK UNBOUND:                -0.182
REMARK SMILES CC(C)c1cc2c(cc1O)[C@@]1(C)CCCC(C)(C)[C@H]1CC2=O
REMARK SMILES IDX 4 1 9 2 8 3 7 4 6 5 5 6 21 7 22 8 20 9 19 10 11 11 13 12
REMARK SMILES IDX 14 13 15 14 16 15 17 16 18 17 12 18 2 19 1 20 3 21 10 22
REMARK H PARENT 10 23
REMARK Flexibility Score: inf
ROOT
ATOM      1  C   UNL     1      35.567  15.345  43.543  1.00  0.00    -0.003 A 
ATOM      2  C   UNL     1      36.164  14.114  43.884  1.00  0.00     0.119 A 
ATOM      3  C   UNL     1      36.102  13.035  42.995  1.00  0.00     0.051 A 
ATOM      4  C   UNL     1      35.425  13.133  41.761  1.00  0.00    -0.027 A 
ATOM      5  C   UNL     1      34.886  14.388  41.392  1.00  0.00     0.022 A 
ATOM      6  C   UNL     1      34.944  15.468  42.291  1.00  0.00     0.020 A 
ATOM      7  C   UNL     1      34.269  14.579  40.061  1.00  0.00     0.163 C 
ATOM      8  O   UNL     1      33.759  15.687  39.742  1.00  0.00    -0.294 OA
ATOM      9  C   UNL     1      34.299  13.479  39.052  1.00  0.00     0.086 C 
ATOM     10  C   UNL     1      34.215  12.088  39.725  1.00  0.00     0.013 C 
ATOM     11  C   UNL     1      35.369  11.929  40.797  1.00  0.00    -0.003 C 
ATOM     12  C   UNL     1      35.133  10.586  41.543  1.00  0.00     0.012 C 
ATOM     13  C   UNL     1      33.824  10.558  42.347  1.00  0.00     0.001 C 
ATOM     14  C   UNL     1      32.741  11.502  41.797  1.00  0.00     0.007 C 
ATOM     15  C   UNL     1      32.761  11.655  40.251  1.00  0.00    -0.031 C 
ATOM     16  C   UNL     1      32.355  10.299  39.611  1.00  0.00     0.011 C 
ATOM     17  C   UNL     1      31.632  12.654  39.885  1.00  0.00     0.011 C 
ATOM     18  C   UNL     1      36.748  11.835  40.098  1.00  0.00     0.017 C 
ENDROOT
BRANCH   1  19
ATOM     19  C   UNL     1      35.594  16.550  44.475  1.00  0.00     0.017 C 
ATOM     20  C   UNL     1      34.676  16.353  45.688  1.00  0.00     0.012 C 
ATOM     21  C   UNL     1      35.273  17.854  43.731  1.00  0.00     0.012 C 
ENDBRANCH   1  19
BRANCH   2  22
ATOM     22  O   UNL     1      36.825  13.957  45.101  1.00  0.00    -0.508 OA
ATOM     23  H   UNL     1      36.816  13.078  45.606  1.00  0.00     0.293 HD
ENDBRANCH   2  22
TORSDOF 2
ENDMDL
MODEL 2
REMARK VINA RESULT:    44.536      3.084      6.372
REMARK INTER + INTRA:          48.260
REMARK INTER:                  47.422
REMARK INTRA:                   0.838
REMARK UNBOUND:                -0.182
REMARK SMILES CC(C)c1cc2c(cc1O)[C@@]1(C)CCCC(C)(C)[C@H]1CC2=O
REMARK SMILES IDX 4 1 9 2 8 3 7 4 6 5 5 6 21 7 22 8 20 9 19 10 11 11 13 12
REMARK SMILES IDX 14 13 15 14 16 15 17 16 18 17 12 18 2 19 1 20 3 21 10 22
REMARK H PARENT 10 23
REMARK Flexibility Score: inf
ROOT
ATOM      1  C   UNL     1      34.048   7.938  40.458  1.00  0.00    -0.003 A 
ATOM      2  C   UNL     1      32.724   8.411  40.563  1.00  0.00     0.119 A 
ATOM      3  C   UNL     1      32.466   9.785  40.527  1.00  0.00     0.051 A 
ATOM      4  C   UNL     1      33.507  10.730  40.417  1.00  0.00    -0.027 A 
ATOM      5  C   UNL     1      34.828  10.252  40.244  1.00  0.00     0.022 A 
ATOM      6  C   UNL     1      35.084   8.870  40.287  1.00  0.00     0.020 A 
ATOM      7  C   UNL     1      35.942  11.195  40.006  1.00  0.00     0.163 C 
ATOM      8  O   UNL     1      37.125  10.774  39.884  1.00  0.00    -0.294 OA
ATOM      9  C   UNL     1      35.674  12.655  39.845  1.00  0.00     0.086 C 
ATOM     10  C   UNL     1      34.477  13.112  40.713  1.00  0.00     0.013 C 
ATOM     11  C   UNL     1      33.198  12.242  40.381  1.00  0.00    -0.003 C 
ATOM     12  C   UNL     1      32.086  12.641  41.391  1.00  0.00     0.012 C 
ATOM     13  C   UNL     1      32.439  12.306  42.849  1.00  0.00     0.001 C 
ATOM     14  C   UNL     1      33.951  12.261  43.123  1.00  0.00     0.007 C 
ATOM     15  C   UNL     1      34.777  13.274  42.282  1.00  0.00    -0.031 C 
ATOM     16  C   UNL     1      34.414  14.714  42.738  1.00  0.00     0.011 C 
ATOM     17  C   UNL     1      36.266  13.069  42.667  1.00  0.00     0.011 C 
ATOM     18  C   UNL     1      32.673  12.570  38.961  1.00  0.00     0.017 C 
ENDROOT
BRANCH   1  19
ATOM     19  C   UNL     1      34.392   6.454  40.501  1.00  0.00     0.017 C 
ATOM     20  C   UNL     1      33.182   5.602  40.904  1.00  0.00     0.012 C 
ATOM     21  C   UNL     1      35.604   6.174  41.400  1.00  0.00     0.012 C 
ENDBRANCH   1  19
BRANCH   2  22
ATOM     22  O   UNL     1      31.660   7.520  40.696  1.00  0.00    -0.508 OA
ATOM     23  H   UNL     1      31.771   6.525  40.535  1.00  0.00     0.293 HD
ENDBRANCH   2  22
TORSDOF 2
ENDMDL
