MODEL 1
REMARK VINA RESULT:    -6.569      0.000      0.000
REMARK INTER + INTRA:          -7.987
REMARK INTER:                  -7.722
REMARK INTRA:                  -0.265
REMARK UNBOUND:                -0.265
REMARK SMILES O=c1cc(-c2ccc(O)c(O)c2)oc2cc(O)cc(O)c12
REMARK SMILES IDX 4 1 3 2 2 3 1 4 21 5 19 6 18 7 16 8 15 9 14 10 13 11 5 12
REMARK SMILES IDX 6 13 7 14 8 15 12 16 10 17 9 18 11 20 20 22 17 24
REMARK H PARENT 9 19 11 21 20 23 17 25
REMARK Flexibility Score: inf
ROOT
ATOM      1  C   UNL     1      12.156 -10.991 -44.003  1.00  0.00     0.138 A 
ATOM      2  C   UNL     1      11.537 -12.167 -44.447  1.00  0.00     0.100 A 
ATOM      3  C   UNL     1      12.320 -13.246 -44.857  1.00  0.00     0.197 A 
ATOM      4  O   UNL     1      11.737 -14.311 -45.191  1.00  0.00    -0.289 OA
ATOM      5  C   UNL     1      13.731 -13.134 -44.852  1.00  0.00     0.107 A 
ATOM      6  C   UNL     1      14.630 -14.154 -45.288  1.00  0.00     0.134 A 
ATOM      7  C   UNL     1      16.009 -13.973 -45.127  1.00  0.00     0.093 A 
ATOM      8  C   UNL     1      16.525 -12.788 -44.605  1.00  0.00     0.123 A 
ATOM      9  C   UNL     1      15.658 -11.761 -44.227  1.00  0.00     0.094 A 
ATOM     10  C   UNL     1      14.275 -11.925 -44.341  1.00  0.00     0.146 A 
ATOM     11  O   UNL     1      13.484 -10.930 -43.956  1.00  0.00    -0.456 OA
ENDROOT
BRANCH   1  12
ATOM     12  C   UNL     1      11.372  -9.811 -43.556  1.00  0.00     0.021 A 
ATOM     13  C   UNL     1      10.885  -8.902 -44.511  1.00  0.00     0.016 A 
ATOM     14  C   UNL     1      10.139  -7.788 -44.116  1.00  0.00     0.051 A 
ATOM     15  C   UNL     1       9.860  -7.570 -42.761  1.00  0.00     0.157 A 
ATOM     16  C   UNL     1      11.076  -9.592 -42.196  1.00  0.00     0.062 A 
ATOM     17  C   UNL     1      10.326  -8.475 -41.800  1.00  0.00     0.158 A 
BRANCH  15  18
ATOM     18  O   UNL     1       9.117  -6.460 -42.364  1.00  0.00    -0.504 OA
ATOM     19  H   UNL     1       8.793  -5.772 -43.033  1.00  0.00     0.293 HD
ENDBRANCH  15  18
BRANCH  17  20
ATOM     20  O   UNL     1      10.037  -8.261 -40.453  1.00  0.00    -0.504 OA
ATOM     21  H   UNL     1      10.305  -8.929 -39.740  1.00  0.00     0.293 HD
ENDBRANCH  17  20
ENDBRANCH   1  12
BRANCH   6  22
ATOM     22  O   UNL     1      14.223 -15.343 -45.902  1.00  0.00    -0.507 OA
ATOM     23  H   UNL     1      13.317 -15.496 -46.318  1.00  0.00     0.293 HD
ENDBRANCH   6  22
BRANCH   8  24
ATOM     24  O   UNL     1      17.904 -12.637 -44.475  1.00  0.00    -0.508 OA
ATOM     25  H   UNL     1      18.391 -11.846 -44.880  1.00  0.00     0.293 HD
ENDBRANCH   8  24
TORSDOF 5
ENDMDL
MODEL 2
REMARK VINA RESULT:    -6.444      2.702      6.679
REMARK INTER + INTRA:          -7.839
REMARK INTER:                  -7.554
REMARK INTRA:                  -0.285
REMARK UNBOUND:                -0.265
REMARK SMILES O=c1cc(-c2ccc(O)c(O)c2)oc2cc(O)cc(O)c12
REMARK SMILES IDX 4 1 3 2 2 3 1 4 21 5 19 6 18 7 16 8 15 9 14 10 13 11 5 12
REMARK SMILES IDX 6 13 7 14 8 15 12 16 10 17 9 18 11 20 20 22 17 24
REMARK H PARENT 9 19 11 21 20 23 17 25
REMARK Flexibility Score: inf
ROOT
ATOM      1  C   UNL     1      12.244 -11.882 -44.752  1.00  0.00     0.138 A 
ATOM      2  C   UNL     1      11.655 -10.667 -44.374  1.00  0.00     0.100 A 
ATOM      3  C   UNL     1      10.315 -10.426 -44.676  1.00  0.00     0.197 A 
ATOM      4  O   UNL     1       9.798  -9.353 -44.270  1.00  0.00    -0.289 OA
ATOM      5  C   UNL     1       9.569 -11.396 -45.388  1.00  0.00     0.107 A 
ATOM      6  C   UNL     1       8.207 -11.241 -45.788  1.00  0.00     0.134 A 
ATOM      7  C   UNL     1       7.538 -12.316 -46.387  1.00  0.00     0.093 A 
ATOM      8  C   UNL     1       8.196 -13.515 -46.657  1.00  0.00     0.123 A 
ATOM      9  C   UNL     1       9.543 -13.657 -46.320  1.00  0.00     0.094 A 
ATOM     10  C   UNL     1      10.229 -12.617 -45.689  1.00  0.00     0.146 A 
ATOM     11  O   UNL     1      11.506 -12.798 -45.373  1.00  0.00    -0.456 OA
ENDROOT
BRANCH   1  12
ATOM     12  C   UNL     1      13.666 -12.191 -44.458  1.00  0.00     0.021 A 
ATOM     13  C   UNL     1      14.406 -12.972 -45.362  1.00  0.00     0.016 A 
ATOM     14  C   UNL     1      15.747 -13.271 -45.110  1.00  0.00     0.051 A 
ATOM     15  C   UNL     1      16.375 -12.785 -43.956  1.00  0.00     0.157 A 
ATOM     16  C   UNL     1      14.307 -11.694 -43.305  1.00  0.00     0.062 A 
ATOM     17  C   UNL     1      15.654 -11.994 -43.054  1.00  0.00     0.158 A 
BRANCH  15  18
ATOM     18  O   UNL     1      17.712 -13.082 -43.702  1.00  0.00    -0.504 OA
ATOM     19  H   UNL     1      17.982 -13.899 -43.166  1.00  0.00     0.293 HD
ENDBRANCH  15  18
BRANCH  17  20
ATOM     20  O   UNL     1      16.285 -11.503 -41.911  1.00  0.00    -0.504 OA
ATOM     21  H   UNL     1      16.781 -10.619 -41.918  1.00  0.00     0.293 HD
ENDBRANCH  17  20
ENDBRANCH   1  12
BRANCH   6  22
ATOM     22  O   UNL     1       7.480 -10.055 -45.642  1.00  0.00    -0.507 OA
ATOM     23  H   UNL     1       6.473  -9.994 -45.634  1.00  0.00     0.293 HD
ENDBRANCH   6  22
BRANCH   8  24
ATOM     24  O   UNL     1       7.502 -14.557 -47.268  1.00  0.00    -0.508 OA
ATOM     25  H   UNL     1       7.560 -15.507 -46.920  1.00  0.00     0.293 HD
ENDBRANCH   8  24
TORSDOF 5
ENDMDL
MODEL 3
REMARK VINA RESULT:    -6.385     12.005     14.508
REMARK INTER + INTRA:          -7.771
REMARK INTER:                  -7.468
REMARK INTRA:                  -0.303
REMARK UNBOUND:                -0.265
REMARK SMILES O=c1cc(-c2ccc(O)c(O)c2)oc2cc(O)cc(O)c12
REMARK SMILES IDX 4 1 3 2 2 3 1 4 21 5 19 6 18 7 16 8 15 9 14 10 13 11 5 12
REMARK SMILES IDX 6 13 7 14 8 15 12 16 10 17 9 18 11 20 20 22 17 24
REMARK H PARENT 9 19 11 21 20 23 17 25
REMARK Flexibility Score: inf
ROOT
ATOM      1  C   UNL     1       6.771 -19.594 -36.545  1.00  0.00     0.138 A 
ATOM      2  C   UNL     1       6.560 -18.984 -37.789  1.00  0.00     0.100 A 
ATOM      3  C   UNL     1       5.950 -17.731 -37.848  1.00  0.00     0.197 A 
ATOM      4  O   UNL     1       5.831 -17.181 -38.974  1.00  0.00    -0.289 OA
ATOM      5  C   UNL     1       5.521 -17.100 -36.656  1.00  0.00     0.107 A 
ATOM      6  C   UNL     1       4.850 -15.841 -36.598  1.00  0.00     0.134 A 
ATOM      7  C   UNL     1       4.576 -15.262 -35.353  1.00  0.00     0.093 A 
ATOM      8  C   UNL     1       4.892 -15.921 -34.166  1.00  0.00     0.123 A 
ATOM      9  C   UNL     1       5.499 -17.177 -34.211  1.00  0.00     0.094 A 
ATOM     10  C   UNL     1       5.817 -17.766 -35.437  1.00  0.00     0.146 A 
ATOM     11  O   UNL     1       6.407 -18.956 -35.436  1.00  0.00    -0.456 OA
ENDROOT
BRANCH   1  12
ATOM     12  C   UNL     1       7.415 -20.927 -36.423  1.00  0.00     0.021 A 
ATOM     13  C   UNL     1       7.210 -21.889 -37.427  1.00  0.00     0.016 A 
ATOM     14  C   UNL     1       7.809 -23.147 -37.338  1.00  0.00     0.051 A 
ATOM     15  C   UNL     1       8.632 -23.462 -36.249  1.00  0.00     0.157 A 
ATOM     16  C   UNL     1       8.254 -21.246 -35.337  1.00  0.00     0.062 A 
ATOM     17  C   UNL     1       8.857 -22.509 -35.249  1.00  0.00     0.158 A 
BRANCH  15  18
ATOM     18  O   UNL     1       9.231 -24.717 -36.157  1.00  0.00    -0.504 OA
ATOM     19  H   UNL     1       8.835 -25.529 -36.616  1.00  0.00     0.293 HD
ENDBRANCH  15  18
BRANCH  17  20
ATOM     20  O   UNL     1       9.686 -22.822 -34.172  1.00  0.00    -0.504 OA
ATOM     21  H   UNL     1       9.372 -23.422 -33.418  1.00  0.00     0.293 HD
ENDBRANCH  17  20
ENDBRANCH   1  12
BRANCH   6  22
ATOM     22  O   UNL     1       4.412 -15.137 -37.725  1.00  0.00    -0.507 OA
ATOM     23  H   UNL     1       4.995 -14.881 -38.506  1.00  0.00     0.293 HD
ENDBRANCH   6  22
BRANCH   8  24
ATOM     24  O   UNL     1       4.591 -15.320 -32.945  1.00  0.00    -0.508 OA
ATOM     25  H   UNL     1       3.688 -15.445 -32.503  1.00  0.00     0.293 HD
ENDBRANCH   8  24
TORSDOF 5
ENDMDL
MODEL 4
REMARK VINA RESULT:    -6.362     11.957     14.558
REMARK INTER + INTRA:          -7.744
REMARK INTER:                  -7.460
REMARK INTRA:                  -0.284
REMARK UNBOUND:                -0.265
REMARK SMILES O=c1cc(-c2ccc(O)c(O)c2)oc2cc(O)cc(O)c12
REMARK SMILES IDX 4 1 3 2 2 3 1 4 21 5 19 6 18 7 16 8 15 9 14 10 13 11 5 12
REMARK SMILES IDX 6 13 7 14 8 15 12 16 10 17 9 18 11 20 20 22 17 24
REMARK H PARENT 9 19 11 21 20 23 17 25
REMARK Flexibility Score: inf
ROOT
ATOM      1  C   UNL     1       6.370 -18.832 -36.106  1.00  0.00     0.138 A 
ATOM      2  C   UNL     1       6.031 -18.134 -37.273  1.00  0.00     0.100 A 
ATOM      3  C   UNL     1       5.395 -16.896 -37.177  1.00  0.00     0.197 A 
ATOM      4  O   UNL     1       5.159 -16.265 -38.240  1.00  0.00    -0.289 OA
ATOM      5  C   UNL     1       5.071 -16.369 -35.903  1.00  0.00     0.107 A 
ATOM      6  C   UNL     1       4.387 -15.135 -35.685  1.00  0.00     0.134 A 
ATOM      7  C   UNL     1       4.224 -14.660 -34.378  1.00  0.00     0.093 A 
ATOM      8  C   UNL     1       4.664 -15.398 -33.281  1.00  0.00     0.123 A 
ATOM      9  C   UNL     1       5.286 -16.632 -33.481  1.00  0.00     0.094 A 
ATOM     10  C   UNL     1       5.495 -17.118 -34.774  1.00  0.00     0.146 A 
ATOM     11  O   UNL     1       6.103 -18.290 -34.921  1.00  0.00    -0.456 OA
ENDROOT
BRANCH   1  12
ATOM     12  C   UNL     1       7.046 -20.154 -36.149  1.00  0.00     0.021 A 
ATOM     13  C   UNL     1       6.477 -21.197 -36.899  1.00  0.00     0.016 A 
ATOM     14  C   UNL     1       7.096 -22.448 -36.961  1.00  0.00     0.051 A 
ATOM     15  C   UNL     1       8.301 -22.674 -36.282  1.00  0.00     0.157 A 
ATOM     16  C   UNL     1       8.264 -20.384 -35.480  1.00  0.00     0.062 A 
ATOM     17  C   UNL     1       8.887 -21.639 -35.544  1.00  0.00     0.158 A 
BRANCH  15  18
ATOM     18  O   UNL     1       8.921 -23.920 -36.342  1.00  0.00    -0.504 OA
ATOM     19  H   UNL     1       9.183 -24.422 -35.502  1.00  0.00     0.293 HD
ENDBRANCH  15  18
BRANCH  17  20
ATOM     20  O   UNL     1      10.091 -21.864 -34.878  1.00  0.00    -0.504 OA
ATOM     21  H   UNL     1      10.546 -21.133 -34.343  1.00  0.00     0.293 HD
ENDBRANCH  17  20
ENDBRANCH   1  12
BRANCH   6  22
ATOM     22  O   UNL     1       3.831 -14.359 -36.706  1.00  0.00    -0.507 OA
ATOM     23  H   UNL     1       2.884 -14.443 -37.044  1.00  0.00     0.293 HD
ENDBRANCH   6  22
BRANCH   8  24
ATOM     24  O   UNL     1       4.470 -14.900 -31.994  1.00  0.00    -0.508 OA
ATOM     25  H   UNL     1       5.252 -14.705 -31.379  1.00  0.00     0.293 HD
ENDBRANCH   8  24
TORSDOF 5
ENDMDL
MODEL 5
REMARK VINA RESULT:    -6.259      4.075      6.808
REMARK INTER + INTRA:          -7.622
REMARK INTER:                  -7.312
REMARK INTRA:                  -0.310
REMARK UNBOUND:                -0.265
REMARK SMILES O=c1cc(-c2ccc(O)c(O)c2)oc2cc(O)cc(O)c12
REMARK SMILES IDX 4 1 3 2 2 3 1 4 21 5 19 6 18 7 16 8 15 9 14 10 13 11 5 12
REMARK SMILES IDX 6 13 7 14 8 15 12 16 10 17 9 18 11 20 20 22 17 24
REMARK H PARENT 9 19 11 21 20 23 17 25
REMARK Flexibility Score: inf
ROOT
ATOM      1  C   UNL     1       9.166 -13.175 -45.421  1.00  0.00     0.138 A 
ATOM      2  C   UNL     1      10.472 -13.662 -45.286  1.00  0.00     0.100 A 
ATOM      3  C   UNL     1      11.501 -12.790 -44.927  1.00  0.00     0.197 A 
ATOM      4  O   UNL     1      12.652 -13.269 -44.753  1.00  0.00    -0.289 OA
ATOM      5  C   UNL     1      11.222 -11.416 -44.733  1.00  0.00     0.107 A 
ATOM      6  C   UNL     1      12.198 -10.427 -44.406  1.00  0.00     0.134 A 
ATOM      7  C   UNL     1      11.786  -9.119 -44.124  1.00  0.00     0.093 A 
ATOM      8  C   UNL     1      10.446  -8.749 -44.216  1.00  0.00     0.123 A 
ATOM      9  C   UNL     1       9.489  -9.695 -44.589  1.00  0.00     0.094 A 
ATOM     10  C   UNL     1       9.863 -11.017 -44.842  1.00  0.00     0.146 A 
ATOM     11  O   UNL     1       8.921 -11.890 -45.180  1.00  0.00    -0.456 OA
ENDROOT
BRANCH   1  12
ATOM     12  C   UNL     1       8.033 -14.057 -45.802  1.00  0.00     0.021 A 
ATOM     13  C   UNL     1       8.290 -15.247 -46.506  1.00  0.00     0.016 A 
ATOM     14  C   UNL     1       7.242 -16.097 -46.870  1.00  0.00     0.051 A 
ATOM     15  C   UNL     1       5.922 -15.777 -46.528  1.00  0.00     0.157 A 
ATOM     16  C   UNL     1       6.704 -13.748 -45.450  1.00  0.00     0.062 A 
ATOM     17  C   UNL     1       5.653 -14.603 -45.814  1.00  0.00     0.158 A 
BRANCH  15  18
ATOM     18  O   UNL     1       4.875 -16.622 -46.890  1.00  0.00    -0.504 OA
ATOM     19  H   UNL     1       3.908 -16.334 -46.806  1.00  0.00     0.293 HD
ENDBRANCH  15  18
BRANCH  17  20
ATOM     20  O   UNL     1       4.339 -14.293 -45.466  1.00  0.00    -0.504 OA
ATOM     21  H   UNL     1       3.710 -13.841 -46.118  1.00  0.00     0.293 HD
ENDBRANCH  17  20
ENDBRANCH   1  12
BRANCH   6  22
ATOM     22  O   UNL     1      13.575 -10.670 -44.369  1.00  0.00    -0.507 OA
ATOM     23  H   UNL     1      14.032 -11.461 -44.796  1.00  0.00     0.293 HD
ENDBRANCH   6  22
BRANCH   8  24
ATOM     24  O   UNL     1      10.075  -7.433 -43.943  1.00  0.00    -0.508 OA
ATOM     25  H   UNL     1       9.848  -6.783 -44.686  1.00  0.00     0.293 HD
ENDBRANCH   8  24
TORSDOF 5
ENDMDL
MODEL 6
REMARK VINA RESULT:    -6.196     10.273     13.045
REMARK INTER + INTRA:          -7.548
REMARK INTER:                  -7.284
REMARK INTRA:                  -0.264
REMARK UNBOUND:                -0.265
REMARK SMILES O=c1cc(-c2ccc(O)c(O)c2)oc2cc(O)cc(O)c12
REMARK SMILES IDX 4 1 3 2 2 3 1 4 21 5 19 6 18 7 16 8 15 9 14 10 13 11 5 12
REMARK SMILES IDX 6 13 7 14 8 15 12 16 10 17 9 18 11 20 20 22 17 24
REMARK H PARENT 9 19 11 21 20 23 17 25
REMARK Flexibility Score: inf
ROOT
ATOM      1  C   UNL     1      14.267 -21.015 -39.566  1.00  0.00     0.138 A 
ATOM      2  C   UNL     1      13.686 -19.897 -38.951  1.00  0.00     0.100 A 
ATOM      3  C   UNL     1      12.614 -20.071 -38.075  1.00  0.00     0.197 A 
ATOM      4  O   UNL     1      12.155 -19.056 -37.490  1.00  0.00    -0.289 OA
ATOM      5  C   UNL     1      12.102 -21.369 -37.839  1.00  0.00     0.107 A 
ATOM      6  C   UNL     1      10.986 -21.662 -36.999  1.00  0.00     0.134 A 
ATOM      7  C   UNL     1      10.641 -22.996 -36.750  1.00  0.00     0.093 A 
ATOM      8  C   UNL     1      11.330 -24.044 -37.357  1.00  0.00     0.123 A 
ATOM      9  C   UNL     1      12.389 -23.768 -38.224  1.00  0.00     0.094 A 
ATOM     10  C   UNL     1      12.780 -22.449 -38.466  1.00  0.00     0.146 A 
ATOM     11  O   UNL     1      13.801 -22.229 -39.286  1.00  0.00    -0.456 OA
ENDROOT
BRANCH   1  12
ATOM     12  C   UNL     1      15.409 -20.889 -40.508  1.00  0.00     0.021 A 
ATOM     13  C   UNL     1      15.158 -20.667 -41.873  1.00  0.00     0.016 A 
ATOM     14  C   UNL     1      16.216 -20.539 -42.777  1.00  0.00     0.051 A 
ATOM     15  C   UNL     1      17.541 -20.619 -42.330  1.00  0.00     0.157 A 
ATOM     16  C   UNL     1      16.744 -20.956 -40.063  1.00  0.00     0.062 A 
ATOM     17  C   UNL     1      17.805 -20.825 -40.972  1.00  0.00     0.158 A 
BRANCH  15  18
ATOM     18  O   UNL     1      18.597 -20.492 -43.230  1.00  0.00    -0.504 OA
ATOM     19  H   UNL     1      19.040 -21.303 -43.647  1.00  0.00     0.293 HD
ENDBRANCH  15  18
BRANCH  17  20
ATOM     20  O   UNL     1      19.125 -20.894 -40.528  1.00  0.00    -0.504 OA
ATOM     21  H   UNL     1      19.896 -21.012 -41.175  1.00  0.00     0.293 HD
ENDBRANCH  17  20
ENDBRANCH   1  12
BRANCH   6  22
ATOM     22  O   UNL     1      10.174 -20.687 -36.409  1.00  0.00    -0.507 OA
ATOM     23  H   UNL     1       9.384 -20.878 -35.813  1.00  0.00     0.293 HD
ENDBRANCH   6  22
BRANCH   8  24
ATOM     24  O   UNL     1      10.949 -25.359 -37.098  1.00  0.00    -0.508 OA
ATOM     25  H   UNL     1      11.612 -26.044 -36.752  1.00  0.00     0.293 HD
ENDBRANCH   8  24
TORSDOF 5
ENDMDL
MODEL 7
REMARK VINA RESULT:    -6.088     12.224     13.109
REMARK INTER + INTRA:          -7.421
REMARK INTER:                  -7.110
REMARK INTRA:                  -0.311
REMARK UNBOUND:                -0.265
REMARK SMILES O=c1cc(-c2ccc(O)c(O)c2)oc2cc(O)cc(O)c12
REMARK SMILES IDX 4 1 3 2 2 3 1 4 21 5 19 6 18 7 16 8 15 9 14 10 13 11 5 12
REMARK SMILES IDX 6 13 7 14 8 15 12 16 10 17 9 18 11 20 20 22 17 24
REMARK H PARENT 9 19 11 21 20 23 17 25
REMARK Flexibility Score: inf
ROOT
ATOM      1  C   UNL     1       6.205 -19.247 -36.516  1.00  0.00     0.138 A 
ATOM      2  C   UNL     1       5.767 -19.970 -37.634  1.00  0.00     0.100 A 
ATOM      3  C   UNL     1       6.294 -21.237 -37.887  1.00  0.00     0.197 A 
ATOM      4  O   UNL     1       5.837 -21.887 -38.862  1.00  0.00    -0.289 OA
ATOM      5  C   UNL     1       7.289 -21.768 -37.030  1.00  0.00     0.107 A 
ATOM      6  C   UNL     1       7.928 -23.032 -37.213  1.00  0.00     0.134 A 
ATOM      7  C   UNL     1       8.813 -23.504 -36.237  1.00  0.00     0.093 A 
ATOM      8  C   UNL     1       9.130 -22.736 -35.118  1.00  0.00     0.123 A 
ATOM      9  C   UNL     1       8.552 -21.475 -34.956  1.00  0.00     0.094 A 
ATOM     10  C   UNL     1       7.638 -20.990 -35.895  1.00  0.00     0.146 A 
ATOM     11  O   UNL     1       7.100 -19.792 -35.697  1.00  0.00    -0.456 OA
ENDROOT
BRANCH   1  12
ATOM     12  C   UNL     1       5.679 -17.895 -36.200  1.00  0.00     0.021 A 
ATOM     13  C   UNL     1       5.100 -17.122 -37.221  1.00  0.00     0.016 A 
ATOM     14  C   UNL     1       4.593 -15.849 -36.948  1.00  0.00     0.051 A 
ATOM     15  C   UNL     1       4.647 -15.332 -35.647  1.00  0.00     0.157 A 
ATOM     16  C   UNL     1       5.718 -17.373 -34.891  1.00  0.00     0.062 A 
ATOM     17  C   UNL     1       5.207 -16.096 -34.618  1.00  0.00     0.158 A 
BRANCH  15  18
ATOM     18  O   UNL     1       4.142 -14.063 -35.371  1.00  0.00    -0.504 OA
ATOM     19  H   UNL     1       4.468 -13.523 -34.578  1.00  0.00     0.293 HD
ENDBRANCH  15  18
BRANCH  17  20
ATOM     20  O   UNL     1       5.249 -15.583 -33.322  1.00  0.00    -0.504 OA
ATOM     21  H   UNL     1       5.912 -14.864 -33.057  1.00  0.00     0.293 HD
ENDBRANCH  17  20
ENDBRANCH   1  12
BRANCH   6  22
ATOM     22  O   UNL     1       7.748 -23.843 -38.338  1.00  0.00    -0.507 OA
ATOM     23  H   UNL     1       7.973 -23.575 -39.284  1.00  0.00     0.293 HD
ENDBRANCH   6  22
BRANCH   8  24
ATOM     24  O   UNL     1      10.027 -23.232 -34.174  1.00  0.00    -0.508 OA
ATOM     25  H   UNL     1       9.972 -24.188 -33.843  1.00  0.00     0.293 HD
ENDBRANCH   8  24
TORSDOF 5
ENDMDL
MODEL 8
REMARK VINA RESULT:    -6.076      3.177      4.096
REMARK INTER + INTRA:          -7.406
REMARK INTER:                  -7.127
REMARK INTRA:                  -0.280
REMARK UNBOUND:                -0.265
REMARK SMILES O=c1cc(-c2ccc(O)c(O)c2)oc2cc(O)cc(O)c12
REMARK SMILES IDX 4 1 3 2 2 3 1 4 21 5 19 6 18 7 16 8 15 9 14 10 13 11 5 12
REMARK SMILES IDX 6 13 7 14 8 15 12 16 10 17 9 18 11 20 20 22 17 24
REMARK H PARENT 9 19 11 21 20 23 17 25
REMARK Flexibility Score: inf
ROOT
ATOM      1  C   UNL     1      11.581 -13.232 -45.544  1.00  0.00     0.138 A 
ATOM      2  C   UNL     1      12.272 -14.051 -46.448  1.00  0.00     0.100 A 
ATOM      3  C   UNL     1      13.655 -14.190 -46.334  1.00  0.00     0.197 A 
ATOM      4  O   UNL     1      14.239 -14.981 -47.121  1.00  0.00    -0.289 OA
ATOM      5  C   UNL     1      14.354 -13.480 -45.329  1.00  0.00     0.107 A 
ATOM      6  C   UNL     1      15.769 -13.512 -45.145  1.00  0.00     0.134 A 
ATOM      7  C   UNL     1      16.336 -12.859 -44.044  1.00  0.00     0.093 A 
ATOM      8  C   UNL     1      15.551 -12.126 -43.156  1.00  0.00     0.123 A 
ATOM      9  C   UNL     1      14.172 -12.043 -43.358  1.00  0.00     0.094 A 
ATOM     10  C   UNL     1      13.571 -12.712 -44.427  1.00  0.00     0.146 A 
ATOM     11  O   UNL     1      12.254 -12.618 -44.575  1.00  0.00    -0.456 OA
ENDROOT
BRANCH   1  12
ATOM     12  C   UNL     1      10.109 -13.046 -45.619  1.00  0.00     0.021 A 
ATOM     13  C   UNL     1       9.266 -14.167 -45.536  1.00  0.00     0.016 A 
ATOM     14  C   UNL     1       7.878 -14.018 -45.597  1.00  0.00     0.051 A 
ATOM     15  C   UNL     1       7.310 -12.745 -45.732  1.00  0.00     0.157 A 
ATOM     16  C   UNL     1       9.531 -11.767 -45.741  1.00  0.00     0.062 A 
ATOM     17  C   UNL     1       8.138 -11.618 -45.801  1.00  0.00     0.158 A 
BRANCH  15  18
ATOM     18  O   UNL     1       5.926 -12.593 -45.794  1.00  0.00    -0.504 OA
ATOM     19  H   UNL     1       5.433 -12.582 -46.679  1.00  0.00     0.293 HD
ENDBRANCH  15  18
BRANCH  17  20
ATOM     20  O   UNL     1       7.569 -10.351 -45.924  1.00  0.00    -0.504 OA
ATOM     21  H   UNL     1       6.785 -10.063 -45.349  1.00  0.00     0.293 HD
ENDBRANCH  17  20
ENDBRANCH   1  12
BRANCH   6  22
ATOM     22  O   UNL     1      16.657 -14.145 -46.021  1.00  0.00    -0.507 OA
ATOM     23  H   UNL     1      16.586 -14.124 -47.027  1.00  0.00     0.293 HD
ENDBRANCH   6  22
BRANCH   8  24
ATOM     24  O   UNL     1      16.152 -11.477 -42.080  1.00  0.00    -0.508 OA
ATOM     25  H   UNL     1      16.025 -11.801 -41.128  1.00  0.00     0.293 HD
ENDBRANCH   8  24
TORSDOF 5
ENDMDL
MODEL 9
REMARK VINA RESULT:    -6.034      3.022      6.446
REMARK INTER + INTRA:          -7.358
REMARK INTER:                  -7.086
REMARK INTRA:                  -0.272
REMARK UNBOUND:                -0.265
REMARK SMILES O=c1cc(-c2ccc(O)c(O)c2)oc2cc(O)cc(O)c12
REMARK SMILES IDX 4 1 3 2 2 3 1 4 21 5 19 6 18 7 16 8 15 9 14 10 13 11 5 12
REMARK SMILES IDX 6 13 7 14 8 15 12 16 10 17 9 18 11 20 20 22 17 24
REMARK H PARENT 9 19 11 21 20 23 17 25
REMARK Flexibility Score: inf
ROOT
ATOM      1  C   UNL     1      12.426 -13.232 -44.820  1.00  0.00     0.138 A 
ATOM      2  C   UNL     1      11.880 -14.520 -44.901  1.00  0.00     0.100 A 
ATOM      3  C   UNL     1      10.518 -14.677 -45.157  1.00  0.00     0.197 A 
ATOM      4  O   UNL     1      10.068 -15.846 -45.286  1.00  0.00    -0.289 OA
ATOM      5  C   UNL     1       9.693 -13.536 -45.302  1.00  0.00     0.107 A 
ATOM      6  C   UNL     1       8.284 -13.574 -45.523  1.00  0.00     0.134 A 
ATOM      7  C   UNL     1       7.591 -12.382 -45.766  1.00  0.00     0.093 A 
ATOM      8  C   UNL     1       8.242 -11.150 -45.735  1.00  0.00     0.123 A 
ATOM      9  C   UNL     1       9.611 -11.096 -45.465  1.00  0.00     0.094 A 
ATOM     10  C   UNL     1      10.337 -12.271 -45.253  1.00  0.00     0.146 A 
ATOM     11  O   UNL     1      11.640 -12.177 -45.013  1.00  0.00    -0.456 OA
ENDROOT
BRANCH   1  12
ATOM     12  C   UNL     1      13.869 -13.007 -44.548  1.00  0.00     0.021 A 
ATOM     13  C   UNL     1      14.823 -13.411 -45.498  1.00  0.00     0.016 A 
ATOM     14  C   UNL     1      16.186 -13.204 -45.268  1.00  0.00     0.051 A 
ATOM     15  C   UNL     1      16.617 -12.580 -44.091  1.00  0.00     0.157 A 
ATOM     16  C   UNL     1      14.309 -12.368 -43.372  1.00  0.00     0.062 A 
ATOM     17  C   UNL     1      15.677 -12.159 -43.143  1.00  0.00     0.158 A 
BRANCH  15  18
ATOM     18  O   UNL     1      17.975 -12.373 -43.859  1.00  0.00    -0.504 OA
ATOM     19  H   UNL     1      18.684 -12.796 -44.446  1.00  0.00     0.293 HD
ENDBRANCH  15  18
BRANCH  17  20
ATOM     20  O   UNL     1      16.109 -11.528 -41.977  1.00  0.00    -0.504 OA
ATOM     21  H   UNL     1      16.465 -10.579 -41.988  1.00  0.00     0.293 HD
ENDBRANCH  17  20
ENDBRANCH   1  12
BRANCH   6  22
ATOM     22  O   UNL     1       7.519 -14.745 -45.491  1.00  0.00    -0.507 OA
ATOM     23  H   UNL     1       7.864 -15.665 -45.718  1.00  0.00     0.293 HD
ENDBRANCH   6  22
BRANCH   8  24
ATOM     24  O   UNL     1       7.518  -9.983 -45.966  1.00  0.00    -0.508 OA
ATOM     25  H   UNL     1       7.980  -9.102 -46.160  1.00  0.00     0.293 HD
ENDBRANCH   8  24
TORSDOF 5
ENDMDL
