MODEL 1
REMARK VINA RESULT:    -3.898      0.000      0.000
REMARK INTER + INTRA:          -5.316
REMARK INTER:                  -5.152
REMARK INTRA:                  -0.165
REMARK UNBOUND:                -0.165
REMARK SMILES CC[C@@H](C=C[C@H](C)[C@H]1CC[C@H]2[C@@H]3CC=C4C[C@H](O)CC[C@@]4(C)[C@@H]3CC[C@]12C)C(C)C
REMARK SMILES IDX 6 1 7 2 5 3 4 4 3 5 2 6 1 7 28 8 29 9 30 10 8 11 9 12 26 13
REMARK SMILES IDX 10 14 11 15 25 16 27 17 12 18 24 19 23 20 13 21 21 22 14 23
REMARK SMILES IDX 15 24 20 25 22 26 16 27 19 28 17 29 18 30
REMARK H PARENT 18 31
REMARK Flexibility Score: inf
ROOT
ATOM      1  C   UNL     1      75.831  40.640  22.666  1.00  0.00     0.012 C 
ATOM      2  C   UNL     1      76.865  41.767  22.804  1.00  0.00     0.012 C 
ENDROOT
BRANCH   1   3
ATOM      3  C   UNL     1      75.280  40.327  24.038  1.00  0.00    -0.028 C 
ATOM      4  C   UNL     1      76.056  39.895  25.048  1.00  0.00    -0.027 C 
BRANCH   4   5
ATOM      5  C   UNL     1      75.453  39.443  26.367  1.00  0.00     0.014 C 
BRANCH   5   6
ATOM      6  C   UNL     1      75.511  40.614  27.389  1.00  0.00     0.004 C 
ATOM      7  C   UNL     1      74.539  40.476  28.559  1.00  0.00     0.004 C 
ENDBRANCH   5   6
BRANCH   5   8
ATOM      8  C   UNL     1      76.120  38.102  26.830  1.00  0.00    -0.011 C 
ATOM      9  C   UNL     1      76.276  38.003  28.357  1.00  0.00     0.008 C 
ATOM     10  C   UNL     1      77.452  37.800  26.122  1.00  0.00     0.008 C 
ENDBRANCH   5   8
ENDBRANCH   4   5
ENDBRANCH   1   3
BRANCH   1  11
ATOM     11  C   UNL     1      74.663  41.053  21.718  1.00  0.00     0.002 C 
ATOM     12  C   UNL     1      75.130  41.564  20.334  1.00  0.00     0.005 C 
ATOM     13  C   UNL     1      73.622  39.948  21.373  1.00  0.00    -0.026 C 
ATOM     14  C   UNL     1      74.022  41.196  19.331  1.00  0.00     0.005 C 
ATOM     15  C   UNL     1      72.903  40.618  20.192  1.00  0.00    -0.001 C 
ATOM     16  C   UNL     1      72.580  39.662  22.500  1.00  0.00     0.007 C 
ATOM     17  C   UNL     1      74.356  38.626  20.964  1.00  0.00     0.012 C 
ATOM     18  C   UNL     1      71.863  39.696  19.500  1.00  0.00     0.000 C 
ATOM     19  C   UNL     1      71.130  39.470  21.987  1.00  0.00     0.005 C 
ATOM     20  C   UNL     1      71.034  38.864  20.553  1.00  0.00     0.003 C 
ATOM     21  C   UNL     1      70.949  40.510  18.579  1.00  0.00     0.031 C 
ATOM     22  C   UNL     1      69.543  38.492  20.113  1.00  0.00    -0.008 C 
ATOM     23  C   UNL     1      69.970  39.597  17.912  1.00  0.00    -0.027 C 
ATOM     24  C   UNL     1      69.352  38.614  18.596  1.00  0.00    -0.065 C 
ATOM     25  C   UNL     1      69.261  37.020  20.557  1.00  0.00     0.014 C 
ATOM     26  C   UNL     1      68.492  39.426  20.772  1.00  0.00     0.016 C 
ATOM     27  C   UNL     1      68.212  37.884  17.910  1.00  0.00     0.063 C 
ATOM     28  C   UNL     1      67.992  36.414  19.946  1.00  0.00     0.033 C 
ATOM     29  C   UNL     1      68.071  36.445  18.416  1.00  0.00     0.118 C 
BRANCH  29  30
ATOM     30  O   UNL     1      66.904  35.881  17.875  1.00  0.00    -0.393 OA
ATOM     31  H   UNL     1      66.339  36.631  17.547  1.00  0.00     0.210 HD
ENDBRANCH  29  30
ENDBRANCH   1  11
TORSDOF 6
ENDMDL
MODEL 2
REMARK VINA RESULT:    -3.160      4.076      8.717
REMARK INTER + INTRA:          -4.341
REMARK INTER:                  -4.148
REMARK INTRA:                  -0.193
REMARK UNBOUND:                -0.165
REMARK SMILES CC[C@@H](C=C[C@H](C)[C@H]1CC[C@H]2[C@@H]3CC=C4C[C@H](O)CC[C@@]4(C)[C@@H]3CC[C@]12C)C(C)C
REMARK SMILES IDX 6 1 7 2 5 3 4 4 3 5 2 6 1 7 28 8 29 9 30 10 8 11 9 12 26 13
REMARK SMILES IDX 10 14 11 15 25 16 27 17 12 18 24 19 23 20 13 21 21 22 14 23
REMARK SMILES IDX 15 24 20 25 22 26 16 27 19 28 17 29 18 30
REMARK H PARENT 18 31
REMARK Flexibility Score: inf
ROOT
ATOM      1  C   UNL     1      67.849  36.567  19.260  1.00  0.00     0.012 C 
ATOM      2  C   UNL     1      67.127  35.985  20.485  1.00  0.00     0.012 C 
ENDROOT
BRANCH   1   3
ATOM      3  C   UNL     1      67.636  38.063  19.246  1.00  0.00    -0.028 C 
ATOM      4  C   UNL     1      66.458  38.629  19.562  1.00  0.00    -0.027 C 
BRANCH   4   5
ATOM      5  C   UNL     1      66.230  40.121  19.390  1.00  0.00     0.014 C 
BRANCH   5   6
ATOM      6  C   UNL     1      65.527  40.382  18.027  1.00  0.00     0.004 C 
ATOM      7  C   UNL     1      64.189  41.110  18.139  1.00  0.00     0.004 C 
ENDBRANCH   5   6
BRANCH   5   8
ATOM      8  C   UNL     1      67.571  40.899  19.624  1.00  0.00    -0.011 C 
ATOM      9  C   UNL     1      67.617  41.627  20.979  1.00  0.00     0.008 C 
ATOM     10  C   UNL     1      67.936  41.856  18.476  1.00  0.00     0.008 C 
ENDBRANCH   5   8
ENDBRANCH   4   5
ENDBRANCH   1   3
BRANCH   1  11
ATOM     11  C   UNL     1      69.378  36.259  19.302  1.00  0.00     0.002 C 
ATOM     12  C   UNL     1      69.842  35.244  18.230  1.00  0.00     0.005 C 
ATOM     13  C   UNL     1      70.337  37.469  19.105  1.00  0.00    -0.026 C 
ATOM     14  C   UNL     1      71.294  35.610  17.875  1.00  0.00     0.005 C 
ATOM     15  C   UNL     1      71.657  36.726  18.850  1.00  0.00    -0.001 C 
ATOM     16  C   UNL     1      70.506  38.376  20.365  1.00  0.00     0.007 C 
ATOM     17  C   UNL     1      69.878  38.327  17.877  1.00  0.00     0.012 C 
ATOM     18  C   UNL     1      72.831  37.666  18.467  1.00  0.00     0.000 C 
ATOM     19  C   UNL     1      71.964  38.831  20.626  1.00  0.00     0.005 C 
ATOM     20  C   UNL     1      72.828  38.982  19.337  1.00  0.00     0.003 C 
ATOM     21  C   UNL     1      74.169  36.928  18.567  1.00  0.00     0.031 C 
ATOM     22  C   UNL     1      74.263  39.634  19.600  1.00  0.00    -0.008 C 
ATOM     23  C   UNL     1      75.280  37.850  18.176  1.00  0.00    -0.027 C 
ATOM     24  C   UNL     1      75.308  39.129  18.597  1.00  0.00    -0.065 C 
ATOM     25  C   UNL     1      74.121  41.185  19.467  1.00  0.00     0.014 C 
ATOM     26  C   UNL     1      74.804  39.299  21.016  1.00  0.00     0.016 C 
ATOM     27  C   UNL     1      76.574  39.927  18.347  1.00  0.00     0.063 C 
ATOM     28  C   UNL     1      75.458  41.932  19.391  1.00  0.00     0.033 C 
ATOM     29  C   UNL     1      76.285  41.425  18.205  1.00  0.00     0.118 C 
BRANCH  29  30
ATOM     30  O   UNL     1      77.501  42.123  18.148  1.00  0.00    -0.393 OA
ATOM     31  H   UNL     1      77.283  43.093  18.103  1.00  0.00     0.210 HD
ENDBRANCH  29  30
ENDBRANCH   1  11
TORSDOF 6
ENDMDL
MODEL 3
REMARK VINA RESULT:    -1.768      1.245      2.357
REMARK INTER + INTRA:          -2.501
REMARK INTER:                  -2.673
REMARK INTRA:                   0.172
REMARK UNBOUND:                -0.165
REMARK SMILES CC[C@@H](C=C[C@H](C)[C@H]1CC[C@H]2[C@@H]3CC=C4C[C@H](O)CC[C@@]4(C)[C@@H]3CC[C@]12C)C(C)C
REMARK SMILES IDX 6 1 7 2 5 3 4 4 3 5 2 6 1 7 28 8 29 9 30 10 8 11 9 12 26 13
REMARK SMILES IDX 10 14 11 15 25 16 27 17 12 18 24 19 23 20 13 21 21 22 14 23
REMARK SMILES IDX 15 24 20 25 22 26 16 27 19 28 17 29 18 30
REMARK H PARENT 18 31
REMARK Flexibility Score: inf
ROOT
ATOM      1  C   UNL     1      75.160  41.140  22.372  1.00  0.00     0.012 C 
ATOM      2  C   UNL     1      74.110  42.124  22.909  1.00  0.00     0.012 C 
ENDROOT
BRANCH   1   3
ATOM      3  C   UNL     1      75.543  40.195  23.488  1.00  0.00    -0.028 C 
ATOM      4  C   UNL     1      75.659  40.595  24.767  1.00  0.00    -0.027 C 
BRANCH   4   5
ATOM      5  C   UNL     1      76.193  39.660  25.839  1.00  0.00     0.014 C 
BRANCH   5   6
ATOM      6  C   UNL     1      76.704  38.351  25.172  1.00  0.00     0.004 C 
ATOM      7  C   UNL     1      78.076  37.889  25.662  1.00  0.00     0.004 C 
ENDBRANCH   5   6
BRANCH   5   8
ATOM      8  C   UNL     1      75.125  39.475  26.971  1.00  0.00    -0.011 C 
ATOM      9  C   UNL     1      75.151  40.606  28.014  1.00  0.00     0.008 C 
ATOM     10  C   UNL     1      75.184  38.098  27.654  1.00  0.00     0.008 C 
ENDBRANCH   5   8
ENDBRANCH   4   5
ENDBRANCH   1   3
BRANCH   1  11
ATOM     11  C   UNL     1      74.608  40.322  21.164  1.00  0.00     0.002 C 
ATOM     12  C   UNL     1      75.272  38.934  20.992  1.00  0.00     0.005 C 
ATOM     13  C   UNL     1      73.084  40.005  21.176  1.00  0.00    -0.026 C 
ATOM     14  C   UNL     1      74.209  38.011  20.371  1.00  0.00     0.005 C 
ATOM     15  C   UNL     1      73.026  38.930  20.079  1.00  0.00    -0.001 C 
ATOM     16  C   UNL     1      72.168  41.199  20.759  1.00  0.00     0.007 C 
ATOM     17  C   UNL     1      72.658  39.459  22.581  1.00  0.00     0.012 C 
ATOM     18  C   UNL     1      71.626  38.279  19.927  1.00  0.00     0.000 C 
ATOM     19  C   UNL     1      70.998  40.802  19.824  1.00  0.00     0.005 C 
ATOM     20  C   UNL     1      70.473  39.350  20.037  1.00  0.00     0.003 C 
ATOM     21  C   UNL     1      71.537  37.488  18.618  1.00  0.00     0.031 C 
ATOM     22  C   UNL     1      69.148  39.019  19.207  1.00  0.00    -0.008 C 
ATOM     23  C   UNL     1      70.186  36.857  18.505  1.00  0.00    -0.027 C 
ATOM     24  C   UNL     1      69.068  37.534  18.833  1.00  0.00    -0.065 C 
ATOM     25  C   UNL     1      67.916  39.400  20.090  1.00  0.00     0.014 C 
ATOM     26  C   UNL     1      69.079  39.819  17.878  1.00  0.00     0.016 C 
ATOM     27  C   UNL     1      67.733  36.907  18.476  1.00  0.00     0.063 C 
ATOM     28  C   UNL     1      66.578  38.867  19.563  1.00  0.00     0.033 C 
ATOM     29  C   UNL     1      66.625  37.340  19.441  1.00  0.00     0.118 C 
BRANCH  29  30
ATOM     30  O   UNL     1      65.391  36.870  18.964  1.00  0.00    -0.393 OA
ATOM     31  H   UNL     1      64.686  37.470  19.327  1.00  0.00     0.210 HD
ENDBRANCH  29  30
ENDBRANCH   1  11
TORSDOF 6
ENDMDL
MODEL 4
REMARK VINA RESULT:    -1.570      3.331      8.772
REMARK INTER + INTRA:          -2.239
REMARK INTER:                  -3.948
REMARK INTRA:                   1.709
REMARK UNBOUND:                -0.165
REMARK SMILES CC[C@@H](C=C[C@H](C)[C@H]1CC[C@H]2[C@@H]3CC=C4C[C@H](O)CC[C@@]4(C)[C@@H]3CC[C@]12C)C(C)C
REMARK SMILES IDX 6 1 7 2 5 3 4 4 3 5 2 6 1 7 28 8 29 9 30 10 8 11 9 12 26 13
REMARK SMILES IDX 10 14 11 15 25 16 27 17 12 18 24 19 23 20 13 21 21 22 14 23
REMARK SMILES IDX 15 24 20 25 22 26 16 27 19 28 17 29 18 30
REMARK H PARENT 18 31
REMARK Flexibility Score: inf
ROOT
ATOM      1  C   UNL     1      67.553  36.981  19.875  1.00  0.00     0.012 C 
ATOM      2  C   UNL     1      67.816  36.498  21.308  1.00  0.00     0.012 C 
ENDROOT
BRANCH   1   3
ATOM      3  C   UNL     1      66.595  38.150  19.932  1.00  0.00    -0.028 C 
ATOM      4  C   UNL     1      66.640  39.165  19.052  1.00  0.00    -0.027 C 
BRANCH   4   5
ATOM      5  C   UNL     1      65.769  40.398  19.226  1.00  0.00     0.014 C 
BRANCH   5   6
ATOM      6  C   UNL     1      64.611  40.361  18.187  1.00  0.00     0.004 C 
ATOM      7  C   UNL     1      63.898  41.698  17.993  1.00  0.00     0.004 C 
ENDBRANCH   5   6
BRANCH   5   8
ATOM      8  C   UNL     1      66.656  41.690  19.210  1.00  0.00    -0.011 C 
ATOM      9  C   UNL     1      67.437  41.868  17.896  1.00  0.00     0.008 C 
ATOM     10  C   UNL     1      67.593  41.808  20.425  1.00  0.00     0.008 C 
ENDBRANCH   5   8
ENDBRANCH   4   5
ENDBRANCH   1   3
BRANCH   1  11
ATOM     11  C   UNL     1      68.873  37.426  19.173  1.00  0.00     0.002 C 
ATOM     12  C   UNL     1      68.661  38.441  18.024  1.00  0.00     0.005 C 
ATOM     13  C   UNL     1      69.946  38.105  20.074  1.00  0.00    -0.026 C 
ATOM     14  C   UNL     1      69.922  39.320  17.974  1.00  0.00     0.005 C 
ATOM     15  C   UNL     1      70.868  38.693  18.995  1.00  0.00    -0.001 C 
ATOM     16  C   UNL     1      70.772  37.119  20.958  1.00  0.00     0.007 C 
ATOM     17  C   UNL     1      69.280  39.207  20.967  1.00  0.00     0.012 C 
ATOM     18  C   UNL     1      72.002  39.583  19.570  1.00  0.00     0.000 C 
ATOM     19  C   UNL     1      72.286  37.440  21.019  1.00  0.00     0.005 C 
ATOM     20  C   UNL     1      72.625  38.955  20.877  1.00  0.00     0.003 C 
ATOM     21  C   UNL     1      73.072  39.848  18.507  1.00  0.00     0.031 C 
ATOM     22  C   UNL     1      74.165  39.295  21.134  1.00  0.00    -0.008 C 
ATOM     23  C   UNL     1      74.142  40.721  19.081  1.00  0.00    -0.027 C 
ATOM     24  C   UNL     1      74.620  40.516  20.324  1.00  0.00    -0.065 C 
ATOM     25  C   UNL     1      74.349  39.584  22.659  1.00  0.00     0.014 C 
ATOM     26  C   UNL     1      75.096  38.120  20.730  1.00  0.00     0.016 C 
ATOM     27  C   UNL     1      75.854  41.294  20.744  1.00  0.00     0.063 C 
ATOM     28  C   UNL     1      75.698  40.218  23.019  1.00  0.00     0.033 C 
ATOM     29  C   UNL     1      75.888  41.534  22.257  1.00  0.00     0.118 C 
BRANCH  29  30
ATOM     30  O   UNL     1      77.125  42.101  22.603  1.00  0.00    -0.393 OA
ATOM     31  H   UNL     1      77.826  41.617  22.090  1.00  0.00     0.210 HD
ENDBRANCH  29  30
ENDBRANCH   1  11
TORSDOF 6
ENDMDL
