MODEL 1
REMARK VINA RESULT:    -5.776      0.000      0.000
REMARK INTER + INTRA:          -6.936
REMARK INTER:                  -6.789
REMARK INTRA:                  -0.147
REMARK UNBOUND:                -0.147
REMARK SMILES O=c1c(O)c(-c2ccc(O)cc2)oc2cc(O)cc(O)c12
REMARK SMILES IDX 5 1 3 2 2 3 1 4 21 5 19 6 18 7 16 8 15 9 14 10 13 11 6 12
REMARK SMILES IDX 7 13 8 14 9 15 12 16 11 17 10 18 4 20 20 22 17 24
REMARK H PARENT 10 19 4 21 20 23 17 25
REMARK Flexibility Score: inf
ROOT
ATOM      1  C   UNL     1     -33.574   9.880 -39.068  1.00  0.00     0.180 A 
ATOM      2  C   UNL     1     -32.630   9.386 -39.986  1.00  0.00     0.208 A 
ATOM      3  C   UNL     1     -32.993   9.266 -41.338  1.00  0.00     0.238 A 
ATOM      4  O   UNL     1     -32.127   8.875 -42.163  1.00  0.00    -0.285 OA
ATOM      5  C   UNL     1     -34.298   9.624 -41.752  1.00  0.00     0.111 A 
ATOM      6  C   UNL     1     -34.786   9.506 -43.087  1.00  0.00     0.134 A 
ATOM      7  C   UNL     1     -36.052  10.013 -43.409  1.00  0.00     0.093 A 
ATOM      8  C   UNL     1     -36.872  10.575 -42.431  1.00  0.00     0.123 A 
ATOM      9  C   UNL     1     -36.428  10.642 -41.109  1.00  0.00     0.094 A 
ATOM     10  C   UNL     1     -35.156  10.177 -40.765  1.00  0.00     0.146 A 
ATOM     11  O   UNL     1     -34.768  10.270 -39.499  1.00  0.00    -0.452 OA
ENDROOT
BRANCH   1  12
ATOM     12  C   UNL     1     -33.275  10.011 -37.624  1.00  0.00     0.021 A 
ATOM     13  C   UNL     1     -32.986   8.887 -36.830  1.00  0.00     0.016 A 
ATOM     14  C   UNL     1     -32.730   9.034 -35.463  1.00  0.00     0.047 A 
ATOM     15  C   UNL     1     -32.771  10.299 -34.871  1.00  0.00     0.115 A 
ATOM     16  C   UNL     1     -33.335  11.278 -37.018  1.00  0.00     0.016 A 
ATOM     17  C   UNL     1     -33.078  11.422 -35.651  1.00  0.00     0.047 A 
BRANCH  15  18
ATOM     18  O   UNL     1     -32.513  10.430 -33.509  1.00  0.00    -0.508 OA
ATOM     19  H   UNL     1     -31.854  11.116 -33.158  1.00  0.00     0.293 HD
ENDBRANCH  15  18
ENDBRANCH   1  12
BRANCH   2  20
ATOM     20  O   UNL     1     -31.340   9.059 -39.561  1.00  0.00    -0.502 OA
ATOM     21  H   UNL     1     -30.801   9.658 -38.947  1.00  0.00     0.293 HD
ENDBRANCH   2  20
BRANCH   6  22
ATOM     22  O   UNL     1     -34.086   8.878 -44.121  1.00  0.00    -0.507 OA
ATOM     23  H   UNL     1     -33.646   7.972 -44.051  1.00  0.00     0.293 HD
ENDBRANCH   6  22
BRANCH   8  24
ATOM     24  O   UNL     1     -38.130  11.055 -42.783  1.00  0.00    -0.508 OA
ATOM     25  H   UNL     1     -38.269  12.016 -43.074  1.00  0.00     0.293 HD
ENDBRANCH   8  24
TORSDOF 5
ENDMDL
MODEL 2
REMARK VINA RESULT:    -5.021      1.565      6.633
REMARK INTER + INTRA:          -6.048
REMARK INTER:                  -6.093
REMARK INTRA:                   0.044
REMARK UNBOUND:                -0.147
REMARK SMILES O=c1c(O)c(-c2ccc(O)cc2)oc2cc(O)cc(O)c12
REMARK SMILES IDX 5 1 3 2 2 3 1 4 21 5 19 6 18 7 16 8 15 9 14 10 13 11 6 12
REMARK SMILES IDX 7 13 8 14 9 15 12 16 11 17 10 18 4 20 20 22 17 24
REMARK H PARENT 10 19 4 21 20 23 17 25
REMARK Flexibility Score: inf
ROOT
ATOM      1  C   UNL     1     -33.873  10.338 -39.251  1.00  0.00     0.180 A 
ATOM      2  C   UNL     1     -32.636   9.677 -39.155  1.00  0.00     0.208 A 
ATOM      3  C   UNL     1     -31.917   9.750 -37.950  1.00  0.00     0.238 A 
ATOM      4  O   UNL     1     -30.837   9.111 -37.852  1.00  0.00    -0.285 OA
ATOM      5  C   UNL     1     -32.434  10.496 -36.864  1.00  0.00     0.111 A 
ATOM      6  C   UNL     1     -31.772  10.671 -35.613  1.00  0.00     0.134 A 
ATOM      7  C   UNL     1     -32.436  11.320 -34.564  1.00  0.00     0.093 A 
ATOM      8  C   UNL     1     -33.711  11.857 -34.742  1.00  0.00     0.123 A 
ATOM      9  C   UNL     1     -34.344  11.744 -35.980  1.00  0.00     0.094 A 
ATOM     10  C   UNL     1     -33.721  11.070 -37.035  1.00  0.00     0.146 A 
ATOM     11  O   UNL     1     -34.362  10.975 -38.193  1.00  0.00    -0.452 OA
ENDROOT
BRANCH   1  12
ATOM     12  C   UNL     1     -34.677  10.329 -40.494  1.00  0.00     0.021 A 
ATOM     13  C   UNL     1     -35.175  11.519 -41.054  1.00  0.00     0.016 A 
ATOM     14  C   UNL     1     -35.952  11.483 -42.216  1.00  0.00     0.047 A 
ATOM     15  C   UNL     1     -36.252  10.261 -42.825  1.00  0.00     0.115 A 
ATOM     16  C   UNL     1     -34.999   9.102 -41.100  1.00  0.00     0.016 A 
ATOM     17  C   UNL     1     -35.776   9.069 -42.262  1.00  0.00     0.047 A 
BRANCH  15  18
ATOM     18  O   UNL     1     -37.026  10.240 -43.982  1.00  0.00    -0.508 OA
ATOM     19  H   UNL     1     -36.697  10.653 -44.848  1.00  0.00     0.293 HD
ENDBRANCH  15  18
ENDBRANCH   1  12
BRANCH   2  20
ATOM     20  O   UNL     1     -32.154   8.927 -40.231  1.00  0.00    -0.502 OA
ATOM     21  H   UNL     1     -31.174   8.910 -40.486  1.00  0.00     0.293 HD
ENDBRANCH   2  20
BRANCH   6  22
ATOM     22  O   UNL     1     -30.462  10.255 -35.357  1.00  0.00    -0.507 OA
ATOM     23  H   UNL     1     -30.187   9.299 -35.182  1.00  0.00     0.293 HD
ENDBRANCH   6  22
BRANCH   8  24
ATOM     24  O   UNL     1     -34.335  12.509 -33.682  1.00  0.00    -0.508 OA
ATOM     25  H   UNL     1     -35.148  12.116 -33.222  1.00  0.00     0.293 HD
ENDBRANCH   8  24
TORSDOF 5
ENDMDL
MODEL 3
REMARK VINA RESULT:    -4.230      2.228      3.558
REMARK INTER + INTRA:          -5.119
REMARK INTER:                  -5.645
REMARK INTRA:                   0.526
REMARK UNBOUND:                -0.147
REMARK SMILES O=c1c(O)c(-c2ccc(O)cc2)oc2cc(O)cc(O)c12
REMARK SMILES IDX 5 1 3 2 2 3 1 4 21 5 19 6 18 7 16 8 15 9 14 10 13 11 6 12
REMARK SMILES IDX 7 13 8 14 9 15 12 16 11 17 10 18 4 20 20 22 17 24
REMARK H PARENT 10 19 4 21 20 23 17 25
REMARK Flexibility Score: inf
ROOT
ATOM      1  C   UNL     1     -32.824  11.345 -36.232  1.00  0.00     0.180 A 
ATOM      2  C   UNL     1     -31.846  10.426 -36.651  1.00  0.00     0.208 A 
ATOM      3  C   UNL     1     -31.886   9.942 -37.969  1.00  0.00     0.238 A 
ATOM      4  O   UNL     1     -30.977   9.162 -38.355  1.00  0.00    -0.285 OA
ATOM      5  C   UNL     1     -32.912  10.370 -38.846  1.00  0.00     0.111 A 
ATOM      6  C   UNL     1     -33.073   9.914 -40.189  1.00  0.00     0.134 A 
ATOM      7  C   UNL     1     -34.046  10.503 -41.007  1.00  0.00     0.093 A 
ATOM      8  C   UNL     1     -34.905  11.483 -40.512  1.00  0.00     0.123 A 
ATOM      9  C   UNL     1     -34.796  11.894 -39.183  1.00  0.00     0.094 A 
ATOM     10  C   UNL     1     -33.811  11.351 -38.353  1.00  0.00     0.146 A 
ATOM     11  O   UNL     1     -33.734  11.777 -37.098  1.00  0.00    -0.452 OA
ENDROOT
BRANCH   1  12
ATOM     12  C   UNL     1     -32.863  11.880 -34.853  1.00  0.00     0.021 A 
ATOM     13  C   UNL     1     -33.982  12.583 -34.370  1.00  0.00     0.016 A 
ATOM     14  C   UNL     1     -33.985  13.100 -33.071  1.00  0.00     0.047 A 
ATOM     15  C   UNL     1     -32.871  12.933 -32.243  1.00  0.00     0.115 A 
ATOM     16  C   UNL     1     -31.738  11.734 -34.022  1.00  0.00     0.016 A 
ATOM     17  C   UNL     1     -31.745  12.251 -32.723  1.00  0.00     0.047 A 
BRANCH  15  18
ATOM     18  O   UNL     1     -32.890  13.452 -30.951  1.00  0.00    -0.508 OA
ATOM     19  H   UNL     1     -33.554  14.168 -30.677  1.00  0.00     0.293 HD
ENDBRANCH  15  18
ENDBRANCH   1  12
BRANCH   2  20
ATOM     20  O   UNL     1     -30.829  10.034 -35.777  1.00  0.00    -0.502 OA
ATOM     21  H   UNL     1     -30.018   9.512 -36.085  1.00  0.00     0.293 HD
ENDBRANCH   2  20
BRANCH   6  22
ATOM     22  O   UNL     1     -32.328   8.875 -40.755  1.00  0.00    -0.507 OA
ATOM     23  H   UNL     1     -32.468   8.510 -41.686  1.00  0.00     0.293 HD
ENDBRANCH   6  22
BRANCH   8  24
ATOM     24  O   UNL     1     -35.871  12.036 -41.349  1.00  0.00    -0.508 OA
ATOM     25  H   UNL     1     -36.130  13.014 -41.286  1.00  0.00     0.293 HD
ENDBRANCH   8  24
TORSDOF 5
ENDMDL
MODEL 4
REMARK VINA RESULT:    -4.076      2.236      3.430
REMARK INTER + INTRA:          -4.939
REMARK INTER:                  -5.380
REMARK INTRA:                   0.442
REMARK UNBOUND:                -0.147
REMARK SMILES O=c1c(O)c(-c2ccc(O)cc2)oc2cc(O)cc(O)c12
REMARK SMILES IDX 5 1 3 2 2 3 1 4 21 5 19 6 18 7 16 8 15 9 14 10 13 11 6 12
REMARK SMILES IDX 7 13 8 14 9 15 12 16 11 17 10 18 4 20 20 22 17 24
REMARK H PARENT 10 19 4 21 20 23 17 25
REMARK Flexibility Score: inf
ROOT
ATOM      1  C   UNL     1     -32.872  11.411 -36.291  1.00  0.00     0.180 A 
ATOM      2  C   UNL     1     -31.989  10.402 -36.715  1.00  0.00     0.208 A 
ATOM      3  C   UNL     1     -32.091   9.916 -38.029  1.00  0.00     0.238 A 
ATOM      4  O   UNL     1     -31.262   9.052 -38.419  1.00  0.00    -0.285 OA
ATOM      5  C   UNL     1     -33.084  10.430 -38.896  1.00  0.00     0.111 A 
ATOM      6  C   UNL     1     -33.305   9.982 -40.233  1.00  0.00     0.134 A 
ATOM      7  C   UNL     1     -34.230  10.652 -41.043  1.00  0.00     0.093 A 
ATOM      8  C   UNL     1     -34.989  11.711 -40.545  1.00  0.00     0.123 A 
ATOM      9  C   UNL     1     -34.824  12.119 -39.221  1.00  0.00     0.094 A 
ATOM     10  C   UNL     1     -33.883  11.493 -38.399  1.00  0.00     0.146 A 
ATOM     11  O   UNL     1     -33.750  11.918 -37.149  1.00  0.00    -0.452 OA
ENDROOT
BRANCH   1  12
ATOM     12  C   UNL     1     -32.843  11.956 -34.916  1.00  0.00     0.021 A 
ATOM     13  C   UNL     1     -31.735  11.759 -34.071  1.00  0.00     0.016 A 
ATOM     14  C   UNL     1     -31.740  12.263 -32.768  1.00  0.00     0.047 A 
ATOM     15  C   UNL     1     -32.854  12.958 -32.286  1.00  0.00     0.115 A 
ATOM     16  C   UNL     1     -33.967  12.638 -34.418  1.00  0.00     0.016 A 
ATOM     17  C   UNL     1     -33.969  13.142 -33.114  1.00  0.00     0.047 A 
BRANCH  15  18
ATOM     18  O   UNL     1     -32.844  13.456 -30.986  1.00  0.00    -0.508 OA
ATOM     19  H   UNL     1     -33.002  14.439 -30.793  1.00  0.00     0.293 HD
ENDBRANCH  15  18
ENDBRANCH   1  12
BRANCH   2  20
ATOM     20  O   UNL     1     -31.001   9.924 -35.851  1.00  0.00    -0.502 OA
ATOM     21  H   UNL     1     -30.049  10.271 -35.867  1.00  0.00     0.293 HD
ENDBRANCH   2  20
BRANCH   6  22
ATOM     22  O   UNL     1     -32.667   8.875 -40.800  1.00  0.00    -0.507 OA
ATOM     23  H   UNL     1     -32.593   8.700 -41.792  1.00  0.00     0.293 HD
ENDBRANCH   6  22
BRANCH   8  24
ATOM     24  O   UNL     1     -35.911  12.345 -41.374  1.00  0.00    -0.508 OA
ATOM     25  H   UNL     1     -35.657  13.155 -41.927  1.00  0.00     0.293 HD
ENDBRANCH   8  24
TORSDOF 5
ENDMDL
