MODEL 1
REMARK VINA RESULT:    -7.761      0.000      0.000
REMARK INTER + INTRA:          -9.485
REMARK INTER:                  -9.349
REMARK INTRA:                  -0.137
REMARK UNBOUND:                -0.137
REMARK SMILES O=c1c(O)c(-c2ccc(O)cc2O)oc2cc(O)cc(O)c12
REMARK SMILES IDX 5 1 3 2 2 3 1 4 22 5 20 6 19 7 17 8 16 9 15 10 14 11 6 12
REMARK SMILES IDX 8 13 7 14 9 15 11 16 12 17 10 18 13 20 4 22 21 24 18 26
REMARK H PARENT 10 19 13 21 4 23 21 25 18 27
REMARK Flexibility Score: inf
ROOT
ATOM      1  C   UNL     1     168.722 146.090 152.210  1.00  0.00     0.184 A 
ATOM      2  C   UNL     1     169.570 145.101 151.676  1.00  0.00     0.208 A 
ATOM      3  C   UNL     1     170.623 144.612 152.464  1.00  0.00     0.238 A 
ATOM      4  O   UNL     1     171.384 143.721 151.999  1.00  0.00    -0.285 OA
ATOM      5  C   UNL     1     170.819 145.129 153.762  1.00  0.00     0.111 A 
ATOM      6  C   UNL     1     171.859 144.693 154.620  1.00  0.00     0.134 A 
ATOM      7  C   UNL     1     171.992 145.262 155.895  1.00  0.00     0.093 A 
ATOM      8  C   UNL     1     171.110 146.254 156.329  1.00  0.00     0.123 A 
ATOM      9  C   UNL     1     170.082 146.688 155.486  1.00  0.00     0.094 A 
ATOM     10  C   UNL     1     169.931 146.134 154.213  1.00  0.00     0.146 A 
ATOM     11  O   UNL     1     168.943 146.561 153.434  1.00  0.00    -0.451 OA
ENDROOT
BRANCH   1  12
ATOM     12  C   UNL     1     167.580 146.637 151.441  1.00  0.00     0.063 A 
ATOM     13  C   UNL     1     166.655 147.490 149.357  1.00  0.00     0.047 A 
ATOM     14  C   UNL     1     167.738 147.000 150.091  1.00  0.00     0.020 A 
ATOM     15  C   UNL     1     165.397 147.614 149.957  1.00  0.00     0.119 A 
ATOM     16  C   UNL     1     165.226 147.242 151.293  1.00  0.00     0.093 A 
ATOM     17  C   UNL     1     166.309 146.752 152.039  1.00  0.00     0.130 A 
BRANCH  15  18
ATOM     18  O   UNL     1     164.310 148.101 149.234  1.00  0.00    -0.508 OA
ATOM     19  H   UNL     1     164.418 148.455 148.291  1.00  0.00     0.293 HD
ENDBRANCH  15  18
BRANCH  17  20
ATOM     20  O   UNL     1     166.125 146.390 153.373  1.00  0.00    -0.507 OA
ATOM     21  H   UNL     1     166.164 145.423 153.673  1.00  0.00     0.293 HD
ENDBRANCH  17  20
ENDBRANCH   1  12
BRANCH   2  22
ATOM     22  O   UNL     1     169.377 144.638 150.373  1.00  0.00    -0.502 OA
ATOM     23  H   UNL     1     168.498 144.240 150.062  1.00  0.00     0.293 HD
ENDBRANCH   2  22
BRANCH   6  24
ATOM     24  O   UNL     1     172.756 143.704 154.215  1.00  0.00    -0.507 OA
ATOM     25  H   UNL     1     173.590 143.490 154.750  1.00  0.00     0.293 HD
ENDBRANCH   6  24
BRANCH   8  26
ATOM     26  O   UNL     1     171.266 146.803 157.600  1.00  0.00    -0.508 OA
ATOM     27  H   UNL     1     170.469 146.975 158.204  1.00  0.00     0.293 HD
ENDBRANCH   8  26
TORSDOF 6
ENDMDL
MODEL 2
REMARK VINA RESULT:    -7.681      2.073      6.388
REMARK INTER + INTRA:          -9.389
REMARK INTER:                  -9.077
REMARK INTRA:                  -0.312
REMARK UNBOUND:                -0.137
REMARK SMILES O=c1c(O)c(-c2ccc(O)cc2O)oc2cc(O)cc(O)c12
REMARK SMILES IDX 5 1 3 2 2 3 1 4 22 5 20 6 19 7 17 8 16 9 15 10 14 11 6 12
REMARK SMILES IDX 8 13 7 14 9 15 11 16 12 17 10 18 13 20 4 22 21 24 18 26
REMARK H PARENT 10 19 13 21 4 23 21 25 18 27
REMARK Flexibility Score: inf
ROOT
ATOM      1  C   UNL     1     168.651 145.586 153.600  1.00  0.00     0.184 A 
ATOM      2  C   UNL     1     169.636 145.701 152.601  1.00  0.00     0.208 A 
ATOM      3  C   UNL     1     169.286 146.264 151.364  1.00  0.00     0.238 A 
ATOM      4  O   UNL     1     170.162 146.378 150.465  1.00  0.00    -0.285 OA
ATOM      5  C   UNL     1     167.959 146.687 151.143  1.00  0.00     0.111 A 
ATOM      6  C   UNL     1     167.523 147.261 149.924  1.00  0.00     0.134 A 
ATOM      7  C   UNL     1     166.183 147.650 149.778  1.00  0.00     0.093 A 
ATOM      8  C   UNL     1     165.274 147.478 150.823  1.00  0.00     0.123 A 
ATOM      9  C   UNL     1     165.698 146.911 152.030  1.00  0.00     0.094 A 
ATOM     10  C   UNL     1     167.029 146.518 152.195  1.00  0.00     0.146 A 
ATOM     11  O   UNL     1     167.408 145.986 153.353  1.00  0.00    -0.451 OA
ENDROOT
BRANCH   1  12
ATOM     12  C   UNL     1     168.956 145.019 154.935  1.00  0.00     0.063 A 
ATOM     13  C   UNL     1     170.268 145.034 156.984  1.00  0.00     0.047 A 
ATOM     14  C   UNL     1     169.999 145.550 155.714  1.00  0.00     0.020 A 
ATOM     15  C   UNL     1     169.493 143.988 157.497  1.00  0.00     0.119 A 
ATOM     16  C   UNL     1     168.445 143.463 156.736  1.00  0.00     0.093 A 
ATOM     17  C   UNL     1     168.169 143.974 155.459  1.00  0.00     0.130 A 
BRANCH  15  18
ATOM     18  O   UNL     1     169.753 143.466 158.763  1.00  0.00    -0.508 OA
ATOM     19  H   UNL     1     170.477 143.852 159.357  1.00  0.00     0.293 HD
ENDBRANCH  15  18
BRANCH  17  20
ATOM     20  O   UNL     1     167.124 143.436 154.708  1.00  0.00    -0.507 OA
ATOM     21  H   UNL     1     167.061 142.442 154.518  1.00  0.00     0.293 HD
ENDBRANCH  17  20
ENDBRANCH   1  12
BRANCH   2  22
ATOM     22  O   UNL     1     170.933 145.235 152.834  1.00  0.00    -0.502 OA
ATOM     23  H   UNL     1     171.466 144.739 152.131  1.00  0.00     0.293 HD
ENDBRANCH   2  22
BRANCH   6  24
ATOM     24  O   UNL     1     168.408 147.447 148.860  1.00  0.00    -0.507 OA
ATOM     25  H   UNL     1     169.345 147.804 149.004  1.00  0.00     0.293 HD
ENDBRANCH   6  24
BRANCH   8  26
ATOM     26  O   UNL     1     163.949 147.872 150.653  1.00  0.00    -0.508 OA
ATOM     27  H   UNL     1     163.537 147.963 149.731  1.00  0.00     0.293 HD
ENDBRANCH   8  26
TORSDOF 6
ENDMDL
MODEL 3
REMARK VINA RESULT:    -7.649      1.143      1.535
REMARK INTER + INTRA:          -9.350
REMARK INTER:                  -8.941
REMARK INTRA:                  -0.409
REMARK UNBOUND:                -0.137
REMARK SMILES O=c1c(O)c(-c2ccc(O)cc2O)oc2cc(O)cc(O)c12
REMARK SMILES IDX 5 1 3 2 2 3 1 4 22 5 20 6 19 7 17 8 16 9 15 10 14 11 6 12
REMARK SMILES IDX 8 13 7 14 9 15 11 16 12 17 10 18 13 20 4 22 21 24 18 26
REMARK H PARENT 10 19 13 21 4 23 21 25 18 27
REMARK Flexibility Score: inf
ROOT
ATOM      1  C   UNL     1     169.622 146.116 153.195  1.00  0.00     0.184 A 
ATOM      2  C   UNL     1     170.429 144.975 153.031  1.00  0.00     0.208 A 
ATOM      3  C   UNL     1     171.332 144.631 154.049  1.00  0.00     0.238 A 
ATOM      4  O   UNL     1     172.055 143.607 153.917  1.00  0.00    -0.285 OA
ATOM      5  C   UNL     1     171.423 145.440 155.201  1.00  0.00     0.111 A 
ATOM      6  C   UNL     1     172.310 145.166 156.272  1.00  0.00     0.134 A 
ATOM      7  C   UNL     1     172.347 146.024 157.381  1.00  0.00     0.093 A 
ATOM      8  C   UNL     1     171.518 147.146 157.442  1.00  0.00     0.123 A 
ATOM      9  C   UNL     1     170.640 147.421 156.388  1.00  0.00     0.094 A 
ATOM     10  C   UNL     1     170.588 146.579 155.275  1.00  0.00     0.146 A 
ATOM     11  O   UNL     1     169.741 146.861 154.289  1.00  0.00    -0.451 OA
ENDROOT
BRANCH   1  12
ATOM     12  C   UNL     1     168.634 146.526 152.169  1.00  0.00     0.063 A 
ATOM     13  C   UNL     1     168.132 147.343 149.932  1.00  0.00     0.047 A 
ATOM     14  C   UNL     1     169.063 146.982 150.909  1.00  0.00     0.020 A 
ATOM     15  C   UNL     1     166.761 147.241 150.195  1.00  0.00     0.119 A 
ATOM     16  C   UNL     1     166.325 146.774 151.438  1.00  0.00     0.093 A 
ATOM     17  C   UNL     1     167.253 146.413 152.426  1.00  0.00     0.130 A 
BRANCH  15  18
ATOM     18  O   UNL     1     165.824 147.598 149.227  1.00  0.00    -0.508 OA
ATOM     19  H   UNL     1     164.860 147.794 149.470  1.00  0.00     0.293 HD
ENDBRANCH  15  18
BRANCH  17  20
ATOM     20  O   UNL     1     166.804 145.955 153.665  1.00  0.00    -0.507 OA
ATOM     21  H   UNL     1     167.447 145.747 154.421  1.00  0.00     0.293 HD
ENDBRANCH  17  20
ENDBRANCH   1  12
BRANCH   2  22
ATOM     22  O   UNL     1     170.347 144.215 151.862  1.00  0.00    -0.502 OA
ATOM     23  H   UNL     1     171.095 143.602 151.558  1.00  0.00     0.293 HD
ENDBRANCH   2  22
BRANCH   6  24
ATOM     24  O   UNL     1     173.151 144.053 156.240  1.00  0.00    -0.507 OA
ATOM     25  H   UNL     1     173.588 143.691 157.080  1.00  0.00     0.293 HD
ENDBRANCH   6  24
BRANCH   8  26
ATOM     26  O   UNL     1     171.574 147.982 158.555  1.00  0.00    -0.508 OA
ATOM     27  H   UNL     1     170.813 148.027 159.223  1.00  0.00     0.293 HD
ENDBRANCH   8  26
TORSDOF 6
ENDMDL
MODEL 4
REMARK VINA RESULT:    -7.507      1.046      1.215
REMARK INTER + INTRA:          -9.179
REMARK INTER:                  -9.219
REMARK INTRA:                   0.040
REMARK UNBOUND:                -0.137
REMARK SMILES O=c1c(O)c(-c2ccc(O)cc2O)oc2cc(O)cc(O)c12
REMARK SMILES IDX 5 1 3 2 2 3 1 4 22 5 20 6 19 7 17 8 16 9 15 10 14 11 6 12
REMARK SMILES IDX 8 13 7 14 9 15 11 16 12 17 10 18 13 20 4 22 21 24 18 26
REMARK H PARENT 10 19 13 21 4 23 21 25 18 27
REMARK Flexibility Score: inf
ROOT
ATOM      1  C   UNL     1     169.003 145.769 151.749  1.00  0.00     0.184 A 
ATOM      2  C   UNL     1     169.782 145.013 150.853  1.00  0.00     0.208 A 
ATOM      3  C   UNL     1     170.934 144.369 151.331  1.00  0.00     0.238 A 
ATOM      4  O   UNL     1     171.635 143.683 150.539  1.00  0.00    -0.285 OA
ATOM      5  C   UNL     1     171.295 144.506 152.687  1.00  0.00     0.111 A 
ATOM      6  C   UNL     1     172.443 143.894 153.249  1.00  0.00     0.134 A 
ATOM      7  C   UNL     1     172.738 144.084 154.607  1.00  0.00     0.093 A 
ATOM      8  C   UNL     1     171.913 144.870 155.412  1.00  0.00     0.123 A 
ATOM      9  C   UNL     1     170.778 145.477 154.864  1.00  0.00     0.094 A 
ATOM     10  C   UNL     1     170.466 145.300 153.514  1.00  0.00     0.146 A 
ATOM     11  O   UNL     1     169.379 145.884 153.019  1.00  0.00    -0.451 OA
ENDROOT
BRANCH   1  12
ATOM     12  C   UNL     1     167.765 146.458 151.316  1.00  0.00     0.063 A 
ATOM     13  C   UNL     1     166.492 147.635 149.607  1.00  0.00     0.047 A 
ATOM     14  C   UNL     1     167.669 147.009 150.026  1.00  0.00     0.020 A 
ATOM     15  C   UNL     1     165.391 147.709 150.468  1.00  0.00     0.119 A 
ATOM     16  C   UNL     1     165.471 147.151 151.747  1.00  0.00     0.093 A 
ATOM     17  C   UNL     1     166.650 146.523 152.176  1.00  0.00     0.130 A 
BRANCH  15  18
ATOM     18  O   UNL     1     164.212 148.331 150.061  1.00  0.00    -0.508 OA
ATOM     19  H   UNL     1     164.222 149.224 149.584  1.00  0.00     0.293 HD
ENDBRANCH  15  18
BRANCH  17  20
ATOM     20  O   UNL     1     166.718 145.977 153.457  1.00  0.00    -0.507 OA
ATOM     21  H   UNL     1     167.357 146.336 154.157  1.00  0.00     0.293 HD
ENDBRANCH  17  20
ENDBRANCH   1  12
BRANCH   2  22
ATOM     22  O   UNL     1     169.423 144.928 149.505  1.00  0.00    -0.502 OA
ATOM     23  H   UNL     1     169.724 144.167 148.909  1.00  0.00     0.293 HD
ENDBRANCH   2  22
BRANCH   6  24
ATOM     24  O   UNL     1     173.288 143.102 152.469  1.00  0.00    -0.507 OA
ATOM     25  H   UNL     1     174.290 143.250 152.452  1.00  0.00     0.293 HD
ENDBRANCH   6  24
BRANCH   8  26
ATOM     26  O   UNL     1     172.230 145.044 156.758  1.00  0.00    -0.508 OA
ATOM     27  H   UNL     1     172.009 144.336 157.449  1.00  0.00     0.293 HD
ENDBRANCH   8  26
TORSDOF 6
ENDMDL
MODEL 5
REMARK VINA RESULT:    -7.485      2.041      3.077
REMARK INTER + INTRA:          -9.153
REMARK INTER:                  -8.826
REMARK INTRA:                  -0.327
REMARK UNBOUND:                -0.137
REMARK SMILES O=c1c(O)c(-c2ccc(O)cc2O)oc2cc(O)cc(O)c12
REMARK SMILES IDX 5 1 3 2 2 3 1 4 22 5 20 6 19 7 17 8 16 9 15 10 14 11 6 12
REMARK SMILES IDX 8 13 7 14 9 15 11 16 12 17 10 18 13 20 4 22 21 24 18 26
REMARK H PARENT 10 19 13 21 4 23 21 25 18 27
REMARK Flexibility Score: inf
ROOT
ATOM      1  C   UNL     1     168.740 145.679 154.202  1.00  0.00     0.184 A 
ATOM      2  C   UNL     1     168.299 144.553 154.921  1.00  0.00     0.208 A 
ATOM      3  C   UNL     1     168.969 144.198 156.102  1.00  0.00     0.238 A 
ATOM      4  O   UNL     1     168.578 143.195 156.759  1.00  0.00    -0.285 OA
ATOM      5  C   UNL     1     170.074 144.961 156.533  1.00  0.00     0.111 A 
ATOM      6  C   UNL     1     170.807 144.669 157.709  1.00  0.00     0.134 A 
ATOM      7  C   UNL     1     171.899 145.473 158.066  1.00  0.00     0.093 A 
ATOM      8  C   UNL     1     172.272 146.560 157.275  1.00  0.00     0.123 A 
ATOM      9  C   UNL     1     171.553 146.854 156.112  1.00  0.00     0.094 A 
ATOM     10  C   UNL     1     170.461 146.066 155.739  1.00  0.00     0.146 A 
ATOM     11  O   UNL     1     169.792 146.370 154.632  1.00  0.00    -0.451 OA
ENDROOT
BRANCH   1  12
ATOM     12  C   UNL     1     168.068 146.122 152.958  1.00  0.00     0.063 A 
ATOM     13  C   UNL     1     166.061 146.850 151.788  1.00  0.00     0.047 A 
ATOM     14  C   UNL     1     166.690 146.405 152.954  1.00  0.00     0.020 A 
ATOM     15  C   UNL     1     166.802 147.029 150.614  1.00  0.00     0.119 A 
ATOM     16  C   UNL     1     168.174 146.765 150.612  1.00  0.00     0.093 A 
ATOM     17  C   UNL     1     168.813 146.315 151.777  1.00  0.00     0.130 A 
BRANCH  15  18
ATOM     18  O   UNL     1     166.184 147.472 149.446  1.00  0.00    -0.508 OA
ATOM     19  H   UNL     1     165.869 146.823 148.734  1.00  0.00     0.293 HD
ENDBRANCH  15  18
BRANCH  17  20
ATOM     20  O   UNL     1     170.182 146.050 151.759  1.00  0.00    -0.507 OA
ATOM     21  H   UNL     1     170.789 146.327 152.522  1.00  0.00     0.293 HD
ENDBRANCH  17  20
ENDBRANCH   1  12
BRANCH   2  22
ATOM     22  O   UNL     1     167.228 143.791 154.450  1.00  0.00    -0.502 OA
ATOM     23  H   UNL     1     166.721 144.030 153.605  1.00  0.00     0.293 HD
ENDBRANCH   2  22
BRANCH   6  24
ATOM     24  O   UNL     1     170.458 143.588 158.522  1.00  0.00    -0.507 OA
ATOM     25  H   UNL     1     171.062 142.780 158.622  1.00  0.00     0.293 HD
ENDBRANCH   6  24
BRANCH   8  26
ATOM     26  O   UNL     1     173.362 147.343 157.652  1.00  0.00    -0.508 OA
ATOM     27  H   UNL     1     173.238 148.221 158.143  1.00  0.00     0.293 HD
ENDBRANCH   8  26
TORSDOF 6
ENDMDL
MODEL 6
REMARK VINA RESULT:    -7.439      1.846      3.708
REMARK INTER + INTRA:          -9.098
REMARK INTER:                  -8.928
REMARK INTRA:                  -0.170
REMARK UNBOUND:                -0.137
REMARK SMILES O=c1c(O)c(-c2ccc(O)cc2O)oc2cc(O)cc(O)c12
REMARK SMILES IDX 5 1 3 2 2 3 1 4 22 5 20 6 19 7 17 8 16 9 15 10 14 11 6 12
REMARK SMILES IDX 8 13 7 14 9 15 11 16 12 17 10 18 13 20 4 22 21 24 18 26
REMARK H PARENT 10 19 13 21 4 23 21 25 18 27
REMARK Flexibility Score: inf
ROOT
ATOM      1  C   UNL     1     169.326 145.438 151.926  1.00  0.00     0.184 A 
ATOM      2  C   UNL     1     170.120 145.744 153.047  1.00  0.00     0.208 A 
ATOM      3  C   UNL     1     171.290 145.001 153.273  1.00  0.00     0.238 A 
ATOM      4  O   UNL     1     172.013 145.272 154.270  1.00  0.00    -0.285 OA
ATOM      5  C   UNL     1     171.635 143.960 152.387  1.00  0.00     0.111 A 
ATOM      6  C   UNL     1     172.794 143.161 152.545  1.00  0.00     0.134 A 
ATOM      7  C   UNL     1     173.065 142.138 151.625  1.00  0.00     0.093 A 
ATOM      8  C   UNL     1     172.203 141.898 150.552  1.00  0.00     0.123 A 
ATOM      9  C   UNL     1     171.057 142.683 150.391  1.00  0.00     0.094 A 
ATOM     10  C   UNL     1     170.770 143.708 151.297  1.00  0.00     0.146 A 
ATOM     11  O   UNL     1     169.677 144.442 151.118  1.00  0.00    -0.451 OA
ENDROOT
BRANCH   1  12
ATOM     12  C   UNL     1     168.089 146.192 151.617  1.00  0.00     0.063 A 
ATOM     13  C   UNL     1     166.785 147.574 150.096  1.00  0.00     0.047 A 
ATOM     14  C   UNL     1     167.962 146.885 150.400  1.00  0.00     0.020 A 
ATOM     15  C   UNL     1     165.715 147.571 150.998  1.00  0.00     0.119 A 
ATOM     16  C   UNL     1     165.826 146.873 152.204  1.00  0.00     0.093 A 
ATOM     17  C   UNL     1     167.006 146.181 152.519  1.00  0.00     0.130 A 
BRANCH  15  18
ATOM     18  O   UNL     1     164.537 148.255 150.705  1.00  0.00    -0.508 OA
ATOM     19  H   UNL     1     163.990 148.038 149.880  1.00  0.00     0.293 HD
ENDBRANCH  15  18
BRANCH  17  20
ATOM     20  O   UNL     1     167.105 145.495 153.728  1.00  0.00    -0.507 OA
ATOM     21  H   UNL     1     167.424 144.533 153.771  1.00  0.00     0.293 HD
ENDBRANCH  17  20
ENDBRANCH   1  12
BRANCH   2  22
ATOM     22  O   UNL     1     169.732 146.754 153.931  1.00  0.00    -0.502 OA
ATOM     23  H   UNL     1     170.368 147.481 154.237  1.00  0.00     0.293 HD
ENDBRANCH   2  22
BRANCH   6  24
ATOM     24  O   UNL     1     173.675 143.376 153.607  1.00  0.00    -0.507 OA
ATOM     25  H   UNL     1     173.576 144.170 154.228  1.00  0.00     0.293 HD
ENDBRANCH   6  24
BRANCH   8  26
ATOM     26  O   UNL     1     172.495 140.875 149.653  1.00  0.00    -0.508 OA
ATOM     27  H   UNL     1     171.850 140.109 149.494  1.00  0.00     0.293 HD
ENDBRANCH   8  26
TORSDOF 6
ENDMDL
MODEL 7
REMARK VINA RESULT:    -7.367      1.954      4.032
REMARK INTER + INTRA:          -9.011
REMARK INTER:                  -8.673
REMARK INTRA:                  -0.337
REMARK UNBOUND:                -0.137
REMARK SMILES O=c1c(O)c(-c2ccc(O)cc2O)oc2cc(O)cc(O)c12
REMARK SMILES IDX 5 1 3 2 2 3 1 4 22 5 20 6 19 7 17 8 16 9 15 10 14 11 6 12
REMARK SMILES IDX 8 13 7 14 9 15 11 16 12 17 10 18 13 20 4 22 21 24 18 26
REMARK H PARENT 10 19 13 21 4 23 21 25 18 27
REMARK Flexibility Score: inf
ROOT
ATOM      1  C   UNL     1     169.422 145.355 151.821  1.00  0.00     0.184 A 
ATOM      2  C   UNL     1     170.167 145.626 152.984  1.00  0.00     0.208 A 
ATOM      3  C   UNL     1     171.328 144.879 153.235  1.00  0.00     0.238 A 
ATOM      4  O   UNL     1     172.007 145.118 154.270  1.00  0.00    -0.285 OA
ATOM      5  C   UNL     1     171.714 143.867 152.332  1.00  0.00     0.111 A 
ATOM      6  C   UNL     1     172.868 143.066 152.513  1.00  0.00     0.134 A 
ATOM      7  C   UNL     1     173.181 142.074 151.572  1.00  0.00     0.093 A 
ATOM      8  C   UNL     1     172.367 141.867 150.457  1.00  0.00     0.123 A 
ATOM      9  C   UNL     1     171.226 142.655 150.273  1.00  0.00     0.094 A 
ATOM     10  C   UNL     1     170.897 143.649 151.198  1.00  0.00     0.146 A 
ATOM     11  O   UNL     1     169.810 144.387 150.997  1.00  0.00    -0.451 OA
ENDROOT
BRANCH   1  12
ATOM     12  C   UNL     1     168.196 146.117 151.484  1.00  0.00     0.063 A 
ATOM     13  C   UNL     1     165.959 146.879 152.066  1.00  0.00     0.047 A 
ATOM     14  C   UNL     1     167.104 146.138 152.370  1.00  0.00     0.020 A 
ATOM     15  C   UNL     1     165.895 147.618 150.879  1.00  0.00     0.119 A 
ATOM     16  C   UNL     1     166.981 147.616 150.000  1.00  0.00     0.093 A 
ATOM     17  C   UNL     1     168.133 146.872 150.296  1.00  0.00     0.130 A 
BRANCH  15  18
ATOM     18  O   UNL     1     164.757 148.361 150.566  1.00  0.00    -0.508 OA
ATOM     19  H   UNL     1     164.025 147.985 149.976  1.00  0.00     0.293 HD
ENDBRANCH  15  18
BRANCH  17  20
ATOM     20  O   UNL     1     169.207 146.874 149.406  1.00  0.00    -0.507 OA
ATOM     21  H   UNL     1     169.133 147.285 148.483  1.00  0.00     0.293 HD
ENDBRANCH  17  20
ENDBRANCH   1  12
BRANCH   2  22
ATOM     22  O   UNL     1     169.738 146.606 153.883  1.00  0.00    -0.502 OA
ATOM     23  H   UNL     1     168.837 146.563 154.345  1.00  0.00     0.293 HD
ENDBRANCH   2  22
BRANCH   6  24
ATOM     24  O   UNL     1     173.702 143.248 153.617  1.00  0.00    -0.507 OA
ATOM     25  H   UNL     1     174.289 144.069 153.712  1.00  0.00     0.293 HD
ENDBRANCH   6  24
BRANCH   8  26
ATOM     26  O   UNL     1     172.699 140.875 149.538  1.00  0.00    -0.508 OA
ATOM     27  H   UNL     1     172.678 139.893 149.788  1.00  0.00     0.293 HD
ENDBRANCH   8  26
TORSDOF 6
ENDMDL
MODEL 8
REMARK VINA RESULT:    -7.078      1.510      3.301
REMARK INTER + INTRA:          -8.663
REMARK INTER:                  -8.647
REMARK INTRA:                  -0.015
REMARK UNBOUND:                -0.137
REMARK SMILES O=c1c(O)c(-c2ccc(O)cc2O)oc2cc(O)cc(O)c12
REMARK SMILES IDX 5 1 3 2 2 3 1 4 22 5 20 6 19 7 17 8 16 9 15 10 14 11 6 12
REMARK SMILES IDX 8 13 7 14 9 15 11 16 12 17 10 18 13 20 4 22 21 24 18 26
REMARK H PARENT 10 19 13 21 4 23 21 25 18 27
REMARK Flexibility Score: inf
ROOT
ATOM      1  C   UNL     1     168.698 145.798 152.885  1.00  0.00     0.184 A 
ATOM      2  C   UNL     1     168.779 145.868 154.288  1.00  0.00     0.208 A 
ATOM      3  C   UNL     1     169.873 145.272 154.936  1.00  0.00     0.238 A 
ATOM      4  O   UNL     1     169.960 145.335 156.192  1.00  0.00    -0.285 OA
ATOM      5  C   UNL     1     170.853 144.604 154.173  1.00  0.00     0.111 A 
ATOM      6  C   UNL     1     171.984 143.974 154.747  1.00  0.00     0.134 A 
ATOM      7  C   UNL     1     172.912 143.323 153.921  1.00  0.00     0.093 A 
ATOM      8  C   UNL     1     172.734 143.291 152.537  1.00  0.00     0.123 A 
ATOM      9  C   UNL     1     171.619 143.912 151.964  1.00  0.00     0.094 A 
ATOM     10  C   UNL     1     170.684 144.566 152.769  1.00  0.00     0.146 A 
ATOM     11  O   UNL     1     169.636 145.152 152.199  1.00  0.00    -0.451 OA
ENDROOT
BRANCH   1  12
ATOM     12  C   UNL     1     167.582 146.422 152.136  1.00  0.00     0.063 A 
ATOM     13  C   UNL     1     165.226 147.005 151.960  1.00  0.00     0.047 A 
ATOM     14  C   UNL     1     166.274 146.393 152.652  1.00  0.00     0.020 A 
ATOM     15  C   UNL     1     165.472 147.663 150.749  1.00  0.00     0.119 A 
ATOM     16  C   UNL     1     166.771 147.710 150.237  1.00  0.00     0.093 A 
ATOM     17  C   UNL     1     167.829 147.096 150.923  1.00  0.00     0.130 A 
BRANCH  15  18
ATOM     18  O   UNL     1     164.433 148.277 150.051  1.00  0.00    -0.508 OA
ATOM     19  H   UNL     1     163.485 148.279 150.406  1.00  0.00     0.293 HD
ENDBRANCH  15  18
BRANCH  17  20
ATOM     20  O   UNL     1     169.119 147.145 150.397  1.00  0.00    -0.507 OA
ATOM     21  H   UNL     1     169.838 147.733 150.803  1.00  0.00     0.293 HD
ENDBRANCH  17  20
ENDBRANCH   1  12
BRANCH   2  22
ATOM     22  O   UNL     1     167.772 146.500 155.021  1.00  0.00    -0.502 OA
ATOM     23  H   UNL     1     167.882 147.431 155.406  1.00  0.00     0.293 HD
ENDBRANCH   2  22
BRANCH   6  24
ATOM     24  O   UNL     1     172.190 143.988 156.128  1.00  0.00    -0.507 OA
ATOM     25  H   UNL     1     172.879 143.390 156.570  1.00  0.00     0.293 HD
ENDBRANCH   6  24
BRANCH   8  26
ATOM     26  O   UNL     1     173.670 142.638 151.738  1.00  0.00    -0.508 OA
ATOM     27  H   UNL     1     174.409 143.146 151.264  1.00  0.00     0.293 HD
ENDBRANCH   8  26
TORSDOF 6
ENDMDL
MODEL 9
REMARK VINA RESULT:    -7.048      2.089      6.695
REMARK INTER + INTRA:          -8.626
REMARK INTER:                  -8.413
REMARK INTRA:                  -0.213
REMARK UNBOUND:                -0.137
REMARK SMILES O=c1c(O)c(-c2ccc(O)cc2O)oc2cc(O)cc(O)c12
REMARK SMILES IDX 5 1 3 2 2 3 1 4 22 5 20 6 19 7 17 8 16 9 15 10 14 11 6 12
REMARK SMILES IDX 8 13 7 14 9 15 11 16 12 17 10 18 13 20 4 22 21 24 18 26
REMARK H PARENT 10 19 13 21 4 23 21 25 18 27
REMARK Flexibility Score: inf
ROOT
ATOM      1  C   UNL     1     169.585 145.358 153.716  1.00  0.00     0.184 A 
ATOM      2  C   UNL     1     168.302 145.865 153.434  1.00  0.00     0.208 A 
ATOM      3  C   UNL     1     167.956 146.130 152.100  1.00  0.00     0.238 A 
ATOM      4  O   UNL     1     166.808 146.578 151.835  1.00  0.00    -0.285 OA
ATOM      5  C   UNL     1     168.899 145.900 151.077  1.00  0.00     0.111 A 
ATOM      6  C   UNL     1     168.632 146.145 149.708  1.00  0.00     0.134 A 
ATOM      7  C   UNL     1     169.626 145.898 148.750  1.00  0.00     0.093 A 
ATOM      8  C   UNL     1     170.878 145.412 149.131  1.00  0.00     0.123 A 
ATOM      9  C   UNL     1     171.148 145.168 150.482  1.00  0.00     0.094 A 
ATOM     10  C   UNL     1     170.171 145.407 151.452  1.00  0.00     0.146 A 
ATOM     11  O   UNL     1     170.452 145.163 152.728  1.00  0.00    -0.451 OA
ENDROOT
BRANCH   1  12
ATOM     12  C   UNL     1     170.010 145.038 155.099  1.00  0.00     0.063 A 
ATOM     13  C   UNL     1     169.593 143.950 157.236  1.00  0.00     0.047 A 
ATOM     14  C   UNL     1     169.181 144.276 155.942  1.00  0.00     0.020 A 
ATOM     15  C   UNL     1     170.844 144.371 157.703  1.00  0.00     0.119 A 
ATOM     16  C   UNL     1     171.681 145.116 156.868  1.00  0.00     0.093 A 
ATOM     17  C   UNL     1     171.274 145.450 155.567  1.00  0.00     0.130 A 
BRANCH  15  18
ATOM     18  O   UNL     1     171.265 144.052 158.992  1.00  0.00    -0.508 OA
ATOM     19  H   UNL     1     172.117 144.438 159.382  1.00  0.00     0.293 HD
ENDBRANCH  15  18
BRANCH  17  20
ATOM     20  O   UNL     1     172.117 146.199 154.747  1.00  0.00    -0.507 OA
ATOM     21  H   UNL     1     172.745 146.899 155.126  1.00  0.00     0.293 HD
ENDBRANCH  17  20
ENDBRANCH   1  12
BRANCH   2  22
ATOM     22  O   UNL     1     167.403 146.122 154.471  1.00  0.00    -0.502 OA
ATOM     23  H   UNL     1     166.501 146.557 154.313  1.00  0.00     0.293 HD
ENDBRANCH   2  22
BRANCH   6  24
ATOM     24  O   UNL     1     167.390 146.631 149.295  1.00  0.00    -0.507 OA
ATOM     25  H   UNL     1     167.300 147.258 148.503  1.00  0.00     0.293 HD
ENDBRANCH   6  24
BRANCH   8  26
ATOM     26  O   UNL     1     171.848 145.175 148.160  1.00  0.00    -0.508 OA
ATOM     27  H   UNL     1     171.738 145.508 147.209  1.00  0.00     0.293 HD
ENDBRANCH   8  26
TORSDOF 6
ENDMDL
