MODEL 1
REMARK VINA RESULT:    -4.440      0.000      0.000
REMARK INTER + INTRA:          -4.720
REMARK INTER:                  -5.479
REMARK INTRA:                   0.759
REMARK UNBOUND:                 0.759
REMARK SMILES CC1=CC=CC(C)(C)CC1=O
REMARK SMILES IDX 1 1 2 2 3 3 10 4 11 5 9 6 4 8 5 9 6 10 7 11 8 12
REMARK H PARENT
REMARK Flexibility Score: 80.00
ROOT
ATOM      1  C   UNL     1      -5.299  -4.722   6.878  1.00  0.00     0.048 C 
ATOM      2  C   UNL     1      -6.154  -3.608   7.432  1.00  0.00    -0.008 C 
ATOM      3  C   UNL     1      -6.899  -2.896   6.559  1.00  0.00     0.007 C 
ENDROOT
BRANCH   2   4
ATOM      4  C   UNL     1      -6.050  -3.336   8.887  1.00  0.00     0.159 C 
ATOM      5  O   UNL     1      -5.126  -3.888   9.545  1.00  0.00    -0.295 OA
BRANCH   4   6
ATOM      6  C   UNL     1      -6.997  -2.444   9.632  1.00  0.00     0.091 CG0
ATOM      7  G   UNL     1      -7.023  -0.997   9.090  1.00  0.00     0.000 G0
ENDBRANCH   4   6
ENDBRANCH   2   4
BRANCH   3   8
ATOM      8  C   UNL     1      -7.804  -1.746   6.795  1.00  0.00    -0.003 C 
ATOM      9  C   UNL     1      -7.866  -0.925   7.850  1.00  0.00    -0.020 C 
BRANCH   9  10
ATOM     10  C   UNL     1      -7.020  -1.001   9.098  1.00  0.00    -0.010 CG0
ATOM     11  C   UNL     1      -5.602  -0.456   8.809  1.00  0.00     0.016 C 
ATOM     12  C   UNL     1      -7.665  -0.102  10.178  1.00  0.00     0.016 C 
ATOM     13  G   UNL     1      -7.003  -2.452   9.629  1.00  0.00     0.000 G0
ENDBRANCH   9  10
ENDBRANCH   3   8
TORSDOF 0
ENDMDL
MODEL 2
REMARK VINA RESULT:    -4.371      1.632      2.562
REMARK INTER + INTRA:          -4.634
REMARK INTER:                  -5.393
REMARK INTRA:                   0.758
REMARK UNBOUND:                 0.759
REMARK SMILES CC1=CC=CC(C)(C)CC1=O
REMARK SMILES IDX 1 1 2 2 3 3 10 4 11 5 9 6 4 8 5 9 6 10 7 11 8 12
REMARK H PARENT
REMARK Flexibility Score: 80.00
ROOT
ATOM      1  C   UNL     1      -5.986  -4.747   6.494  1.00  0.00     0.048 C 
ATOM      2  C   UNL     1      -5.748  -3.635   7.488  1.00  0.00    -0.008 C 
ATOM      3  C   UNL     1      -4.842  -3.851   8.465  1.00  0.00     0.007 C 
ENDROOT
BRANCH   2   4
ATOM      4  C   UNL     1      -6.587  -2.418   7.353  1.00  0.00     0.159 C 
ATOM      5  O   UNL     1      -7.563  -2.437   6.554  1.00  0.00    -0.295 OA
BRANCH   4   6
ATOM      6  C   UNL     1      -6.331  -1.149   8.109  1.00  0.00     0.091 CG0
ATOM      7  G   UNL     1      -6.351  -1.340   9.642  1.00  0.00     0.000 G0
ENDBRANCH   4   6
ENDBRANCH   2   4
BRANCH   3   8
ATOM      8  C   UNL     1      -4.418  -2.974   9.582  1.00  0.00    -0.003 C 
ATOM      9  C   UNL     1      -5.043  -1.912  10.104  1.00  0.00    -0.020 C 
BRANCH   9  10
ATOM     10  C   UNL     1      -6.356  -1.327   9.643  1.00  0.00    -0.010 CG0
ATOM     11  C   UNL     1      -7.529  -2.211  10.128  1.00  0.00     0.016 C 
ATOM     12  C   UNL     1      -6.517   0.071  10.283  1.00  0.00     0.016 C 
ATOM     13  G   UNL     1      -6.338  -1.152   8.107  1.00  0.00     0.000 G0
ENDBRANCH   9  10
ENDBRANCH   3   8
TORSDOF 0
ENDMDL
MODEL 3
REMARK VINA RESULT:    -4.277      1.869      3.544
REMARK INTER + INTRA:          -4.518
REMARK INTER:                  -5.269
REMARK INTRA:                   0.751
REMARK UNBOUND:                 0.759
REMARK SMILES CC1=CC=CC(C)(C)CC1=O
REMARK SMILES IDX 1 1 2 2 3 3 10 4 11 5 9 6 4 8 5 9 6 10 7 11 8 12
REMARK H PARENT
REMARK Flexibility Score: 80.00
ROOT
ATOM      1  C   UNL     1      -8.433  -0.493   9.292  1.00  0.00     0.048 C 
ATOM      2  C   UNL     1      -7.293  -1.383   8.860  1.00  0.00    -0.008 C 
ATOM      3  C   UNL     1      -7.543  -2.298   7.899  1.00  0.00     0.007 C 
ENDROOT
BRANCH   2   4
ATOM      4  C   UNL     1      -6.006  -1.230   9.582  1.00  0.00     0.159 C 
ATOM      5  O   UNL     1      -5.971  -0.512  10.619  1.00  0.00    -0.295 OA
BRANCH   4   6
ATOM      6  C   UNL     1      -4.727  -1.875   9.139  1.00  0.00     0.091 CG0
ATOM      7  G   UNL     1      -4.819  -3.416   9.059  1.00  0.00     0.000 G0
ENDBRANCH   4   6
ENDBRANCH   2   4
BRANCH   3   8
ATOM      8  C   UNL     1      -6.647  -3.314   7.295  1.00  0.00    -0.003 C 
ATOM      9  C   UNL     1      -5.498  -3.811   7.766  1.00  0.00    -0.020 C 
BRANCH   9  10
ATOM     10  C   UNL     1      -4.810  -3.419   9.052  1.00  0.00    -0.010 CG0
ATOM     11  C   UNL     1      -5.538  -4.059  10.258  1.00  0.00     0.016 C 
ATOM     12  C   UNL     1      -3.367  -3.972   9.020  1.00  0.00     0.016 C 
ATOM     13  G   UNL     1      -4.732  -1.879   9.153  1.00  0.00     0.000 G0
ENDBRANCH   9  10
ENDBRANCH   3   8
TORSDOF 0
ENDMDL
MODEL 4
REMARK VINA RESULT:    -4.158      1.671      3.079
REMARK INTER + INTRA:          -4.372
REMARK INTER:                  -5.401
REMARK INTRA:                   1.029
REMARK UNBOUND:                 0.759
REMARK SMILES CC1=CC=CC(C)(C)CC1=O
REMARK SMILES IDX 1 1 2 2 3 3 10 4 11 5 9 6 4 8 5 9 6 10 7 11 8 12
REMARK H PARENT
REMARK Flexibility Score: 80.00
ROOT
ATOM      1  C   UNL     1      -8.508  -1.175   6.842  1.00  0.00     0.048 C 
ATOM      2  C   UNL     1      -7.491  -2.121   7.433  1.00  0.00    -0.008 C 
ATOM      3  C   UNL     1      -6.844  -2.953   6.588  1.00  0.00     0.007 C 
ENDROOT
BRANCH   2   4
ATOM      4  C   UNL     1      -7.337  -2.112   8.909  1.00  0.00     0.159 C 
ATOM      5  O   UNL     1      -7.800  -1.137   9.563  1.00  0.00    -0.295 OA
BRANCH   4   6
ATOM      6  C   UNL     1      -6.645  -3.197   9.675  1.00  0.00     0.091 CG0
ATOM      7  G   UNL     1      -5.170  -3.391   9.258  1.00  0.00     0.000 G0
ENDBRANCH   4   6
ENDBRANCH   2   4
BRANCH   3   8
ATOM      8  C   UNL     1      -5.827  -3.994   6.869  1.00  0.00    -0.003 C 
ATOM      9  C   UNL     1      -5.123  -4.204   7.988  1.00  0.00    -0.020 C 
BRANCH   9  10
ATOM     10  C   UNL     1      -5.184  -3.384   9.255  1.00  0.00    -0.010 CG0
ATOM     11  C   UNL     1      -4.343  -4.060  10.363  1.00  0.00     0.016 C 
ATOM     12  C   UNL     1      -4.566  -1.997   8.967  1.00  0.00     0.016 C 
ATOM     13  G   UNL     1      -6.658  -3.176   9.670  1.00  0.00     0.000 G0
ENDBRANCH   9  10
ENDBRANCH   3   8
TORSDOF 0
ENDMDL
MODEL 5
REMARK VINA RESULT:    -4.135      1.634      2.943
REMARK INTER + INTRA:          -4.342
REMARK INTER:                  -5.097
REMARK INTRA:                   0.755
REMARK UNBOUND:                 0.759
REMARK SMILES CC1=CC=CC(C)(C)CC1=O
REMARK SMILES IDX 1 1 2 2 3 3 10 4 11 5 9 6 4 8 5 9 6 10 7 11 8 12
REMARK H PARENT
REMARK Flexibility Score: 80.00
ROOT
ATOM      1  C   UNL     1      -8.396  -1.426   6.058  1.00  0.00     0.048 C 
ATOM      2  C   UNL     1      -7.758  -1.874   7.351  1.00  0.00    -0.008 C 
ATOM      3  C   UNL     1      -8.071  -1.190   8.473  1.00  0.00     0.007 C 
ENDROOT
BRANCH   2   4
ATOM      4  C   UNL     1      -6.778  -2.985   7.272  1.00  0.00     0.159 C 
ATOM      5  O   UNL     1      -6.385  -3.369   6.137  1.00  0.00    -0.295 OA
BRANCH   4   6
ATOM      6  C   UNL     1      -6.234  -3.695   8.474  1.00  0.00     0.091 CG0
ATOM      7  G   UNL     1      -5.508  -2.753   9.460  1.00  0.00     0.000 G0
ENDBRANCH   4   6
ENDBRANCH   2   4
BRANCH   3   8
ATOM      8  C   UNL     1      -7.594  -1.374   9.865  1.00  0.00    -0.003 C 
ATOM      9  C   UNL     1      -6.508  -2.020  10.305  1.00  0.00    -0.020 C 
BRANCH   9  10
ATOM     10  C   UNL     1      -5.499  -2.760   9.459  1.00  0.00    -0.010 CG0
ATOM     11  C   UNL     1      -4.562  -1.753   8.753  1.00  0.00     0.016 C 
ATOM     12  C   UNL     1      -4.635  -3.640  10.392  1.00  0.00     0.016 C 
ATOM     13  G   UNL     1      -6.232  -3.689   8.466  1.00  0.00     0.000 G0
ENDBRANCH   9  10
ENDBRANCH   3   8
TORSDOF 0
ENDMDL
MODEL 6
REMARK VINA RESULT:    -4.041      1.460      2.431
REMARK INTER + INTRA:          -4.227
REMARK INTER:                  -4.969
REMARK INTRA:                   0.741
REMARK UNBOUND:                 0.759
REMARK SMILES CC1=CC=CC(C)(C)CC1=O
REMARK SMILES IDX 1 1 2 2 3 3 10 4 11 5 9 6 4 8 5 9 6 10 7 11 8 12
REMARK H PARENT
REMARK Flexibility Score: 80.00
ROOT
ATOM      1  C   UNL     1      -3.881  -4.259   8.624  1.00  0.00     0.048 C 
ATOM      2  C   UNL     1      -4.782  -3.058   8.465  1.00  0.00    -0.008 C 
ATOM      3  C   UNL     1      -4.437  -1.926   9.115  1.00  0.00     0.007 C 
ENDROOT
BRANCH   2   4
ATOM      4  C   UNL     1      -6.018  -3.242   7.665  1.00  0.00     0.159 C 
ATOM      5  O   UNL     1      -6.354  -4.408   7.323  1.00  0.00    -0.295 OA
BRANCH   4   6
ATOM      6  C   UNL     1      -6.893  -2.108   7.222  1.00  0.00     0.091 CG0
ATOM      7  G   UNL     1      -7.463  -1.284   8.399  1.00  0.00     0.000 G0
ENDBRANCH   4   6
ENDBRANCH   2   4
BRANCH   3   8
ATOM      8  C   UNL     1      -5.123  -0.613   9.172  1.00  0.00    -0.003 C 
ATOM      9  C   UNL     1      -6.396  -0.314   8.886  1.00  0.00    -0.020 C 
BRANCH   9  10
ATOM     10  C   UNL     1      -7.455  -1.272   8.394  1.00  0.00    -0.010 CG0
ATOM     11  C   UNL     1      -7.977  -2.131   9.570  1.00  0.00     0.016 C 
ATOM     12  C   UNL     1      -8.640  -0.446   7.844  1.00  0.00     0.016 C 
ATOM     13  G   UNL     1      -6.888  -2.128   7.238  1.00  0.00     0.000 G0
ENDBRANCH   9  10
ENDBRANCH   3   8
TORSDOF 0
ENDMDL
MODEL 7
REMARK VINA RESULT:    -3.379      1.685      3.605
REMARK INTER + INTRA:          -3.411
REMARK INTER:                  -4.161
REMARK INTRA:                   0.751
REMARK UNBOUND:                 0.759
REMARK SMILES CC1=CC=CC(C)(C)CC1=O
REMARK SMILES IDX 1 1 2 2 3 3 10 4 11 5 9 6 4 8 5 9 6 10 7 11 8 12
REMARK H PARENT
REMARK Flexibility Score: 80.00
ROOT
ATOM      1  C   UNL     1      -8.896  -0.280   9.956  1.00  0.00     0.048 C 
ATOM      2  C   UNL     1      -7.507  -0.836   9.755  1.00  0.00    -0.008 C 
ATOM      3  C   UNL     1      -6.558   0.004   9.289  1.00  0.00     0.007 C 
ENDROOT
BRANCH   2   4
ATOM      4  C   UNL     1      -7.315  -2.284  10.016  1.00  0.00     0.159 C 
ATOM      5  O   UNL     1      -8.329  -3.006  10.217  1.00  0.00    -0.295 OA
BRANCH   4   6
ATOM      6  C   UNL     1      -5.970  -2.943  10.068  1.00  0.00     0.091 CG0
ATOM      7  G   UNL     1      -5.155  -2.768   8.766  1.00  0.00     0.000 G0
ENDBRANCH   4   6
ENDBRANCH   2   4
BRANCH   3   8
ATOM      8  C   UNL     1      -5.133  -0.251   8.971  1.00  0.00    -0.003 C 
ATOM      9  C   UNL     1      -4.517  -1.417   8.739  1.00  0.00    -0.020 C 
BRANCH   9  10
ATOM     10  C   UNL     1      -5.147  -2.789   8.776  1.00  0.00    -0.010 CG0
ATOM     11  C   UNL     1      -5.974  -3.025   7.491  1.00  0.00     0.016 C 
ATOM     12  C   UNL     1      -4.016  -3.842   8.815  1.00  0.00     0.016 C 
ATOM     13  G   UNL     1      -5.989  -2.941  10.063  1.00  0.00     0.000 G0
ENDBRANCH   9  10
ENDBRANCH   3   8
TORSDOF 0
ENDMDL
MODEL 8
REMARK VINA RESULT:    -3.276      1.729      2.593
REMARK INTER + INTRA:          -3.283
REMARK INTER:                  -4.355
REMARK INTRA:                   1.072
REMARK UNBOUND:                 0.759
REMARK SMILES CC1=CC=CC(C)(C)CC1=O
REMARK SMILES IDX 1 1 2 2 3 3 10 4 11 5 9 6 4 8 5 9 6 10 7 11 8 12
REMARK H PARENT
REMARK Flexibility Score: 80.00
ROOT
ATOM      1  C   UNL     1      -4.315  -2.663   9.505  1.00  0.00     0.048 C 
ATOM      2  C   UNL     1      -5.481  -2.208   8.661  1.00  0.00    -0.008 C 
ATOM      3  C   UNL     1      -5.950  -3.063   7.727  1.00  0.00     0.007 C 
ENDROOT
BRANCH   2   4
ATOM      4  C   UNL     1      -5.971  -0.824   8.876  1.00  0.00     0.159 C 
ATOM      5  O   UNL     1      -5.631  -0.214   9.926  1.00  0.00    -0.295 OA
BRANCH   4   6
ATOM      6  C   UNL     1      -6.869  -0.105   7.914  1.00  0.00     0.091 CG0
ATOM      7  G   UNL     1      -8.218  -0.824   7.689  1.00  0.00     0.000 G0
ENDBRANCH   4   6
ENDBRANCH   2   4
BRANCH   3   8
ATOM      8  C   UNL     1      -7.048  -2.894   6.746  1.00  0.00    -0.003 C 
ATOM      9  C   UNL     1      -7.998  -1.952   6.698  1.00  0.00    -0.020 C 
BRANCH   9  10
ATOM     10  C   UNL     1      -8.194  -0.823   7.682  1.00  0.00    -0.010 CG0
ATOM     11  C   UNL     1      -9.310   0.124   7.184  1.00  0.00     0.016 C 
ATOM     12  C   UNL     1      -8.648  -1.428   9.030  1.00  0.00     0.016 C 
ATOM     13  G   UNL     1      -6.851  -0.093   7.911  1.00  0.00     0.000 G0
ENDBRANCH   9  10
ENDBRANCH   3   8
TORSDOF 0
ENDMDL
MODEL 9
REMARK VINA RESULT:    -2.947      1.895      3.735
REMARK INTER + INTRA:          -2.877
REMARK INTER:                  -3.906
REMARK INTRA:                   1.029
REMARK UNBOUND:                 0.759
REMARK SMILES CC1=CC=CC(C)(C)CC1=O
REMARK SMILES IDX 1 1 2 2 3 3 10 4 11 5 9 6 4 8 5 9 6 10 7 11 8 12
REMARK H PARENT
REMARK Flexibility Score: 80.00
ROOT
ATOM      1  C   UNL     1      -9.553  -0.204   8.539  1.00  0.00     0.048 C 
ATOM      2  C   UNL     1      -8.306  -1.011   8.812  1.00  0.00    -0.008 C 
ATOM      3  C   UNL     1      -8.279  -1.761   9.935  1.00  0.00     0.007 C 
ENDROOT
BRANCH   2   4
ATOM      4  C   UNL     1      -7.180  -0.856   7.859  1.00  0.00     0.159 C 
ATOM      5  O   UNL     1      -7.405  -0.344   6.729  1.00  0.00    -0.295 OA
BRANCH   4   6
ATOM      6  C   UNL     1      -5.777  -1.289   8.160  1.00  0.00     0.091 CG0
ATOM      7  G   UNL     1      -5.658  -2.801   8.457  1.00  0.00     0.000 G0
ENDBRANCH   4   6
ENDBRANCH   2   4
BRANCH   3   8
ATOM      8  C   UNL     1      -7.204  -2.626  10.476  1.00  0.00    -0.003 C 
ATOM      9  C   UNL     1      -6.092  -3.064   9.875  1.00  0.00    -0.020 C 
BRANCH   9  10
ATOM     10  C   UNL     1      -5.675  -2.792   8.449  1.00  0.00    -0.010 CG0
ATOM     11  C   UNL     1      -4.247  -3.334   8.204  1.00  0.00     0.016 C 
ATOM     12  C   UNL     1      -6.640  -3.549   7.508  1.00  0.00     0.016 C 
ATOM     13  G   UNL     1      -5.798  -1.281   8.149  1.00  0.00     0.000 G0
ENDBRANCH   9  10
ENDBRANCH   3   8
TORSDOF 0
ENDMDL
