MODEL 1
REMARK VINA RESULT:    -4.297      0.000      0.000
REMARK INTER + INTRA:          -4.895
REMARK INTER:                  -5.302
REMARK INTRA:                   0.407
REMARK UNBOUND:                 0.407
REMARK SMILES O=c1c(O)c(-c2cc(O)c(O)c(O)c2)oc2cc(O)cc(O)c12
REMARK SMILES IDX 5 1 3 2 2 3 1 4 23 5 21 6 20 7 18 8 17 9 16 10 15 11 6 12
REMARK SMILES IDX 7 13 8 14 14 15 10 16 12 17 9 18 11 20 13 22 4 24 22 26
REMARK SMILES IDX 19 28
REMARK H PARENT 9 19 11 21 13 23 4 25 22 27 19 29
REMARK Flexibility Score: inf
ROOT
ATOM      1  C   UNL     1      33.318  25.156  37.374  1.00  0.00     0.180 A 
ATOM      2  C   UNL     1      34.568  24.559  37.126  1.00  0.00     0.208 A 
ATOM      3  C   UNL     1      34.889  23.359  37.780  1.00  0.00     0.238 A 
ATOM      4  O   UNL     1      36.001  22.808  37.557  1.00  0.00    -0.285 OA
ATOM      5  C   UNL     1      33.967  22.789  38.682  1.00  0.00     0.111 A 
ATOM      6  C   UNL     1      34.215  21.585  39.385  1.00  0.00     0.134 A 
ATOM      7  C   UNL     1      33.249  21.087  40.273  1.00  0.00     0.093 A 
ATOM      8  C   UNL     1      32.046  21.768  40.474  1.00  0.00     0.123 A 
ATOM      9  C   UNL     1      31.797  22.958  39.782  1.00  0.00     0.094 A 
ATOM     10  C   UNL     1      32.744  23.469  38.891  1.00  0.00     0.146 A 
ATOM     11  O   UNL     1      32.481  24.598  38.243  1.00  0.00    -0.452 OA
ENDROOT
BRANCH   1  12
ATOM     12  C   UNL     1      32.900  26.411  36.709  1.00  0.00     0.029 A 
ATOM     13  C   UNL     1      33.873  27.260  36.164  1.00  0.00     0.062 A 
ATOM     14  C   UNL     1      33.515  28.465  35.546  1.00  0.00     0.162 A 
ATOM     15  C   UNL     1      31.552  26.799  36.662  1.00  0.00     0.062 A 
ATOM     16  C   UNL     1      32.152  28.838  35.482  1.00  0.00     0.200 A 
ATOM     17  C   UNL     1      31.180  28.002  36.047  1.00  0.00     0.162 A 
BRANCH  14  18
ATOM     18  O   UNL     1      34.539  29.252  35.015  1.00  0.00    -0.504 OA
ATOM     19  H   UNL     1      34.463  30.246  34.853  1.00  0.00     0.293 HD
ENDBRANCH  14  18
BRANCH  16  20
ATOM     20  O   UNL     1      31.726  30.022  34.875  1.00  0.00    -0.502 OA
ATOM     21  H   UNL     1      32.287  30.859  34.809  1.00  0.00     0.293 HD
ENDBRANCH  16  20
BRANCH  17  22
ATOM     22  O   UNL     1      29.838  28.376  35.999  1.00  0.00    -0.504 OA
ATOM     23  H   UNL     1      29.455  28.882  35.209  1.00  0.00     0.293 HD
ENDBRANCH  17  22
ENDBRANCH   1  12
BRANCH   2  24
ATOM     24  O   UNL     1      35.484  25.169  36.265  1.00  0.00    -0.502 OA
ATOM     25  H   UNL     1      36.376  25.527  36.587  1.00  0.00     0.293 HD
ENDBRANCH   2  24
BRANCH   6  26
ATOM     26  O   UNL     1      35.407  20.882  39.208  1.00  0.00    -0.507 OA
ATOM     27  H   UNL     1      36.310  21.319  39.353  1.00  0.00     0.293 HD
ENDBRANCH   6  26
BRANCH   8  28
ATOM     28  O   UNL     1      31.105  21.253  41.362  1.00  0.00    -0.508 OA
ATOM     29  H   UNL     1      30.332  21.814  41.699  1.00  0.00     0.293 HD
ENDBRANCH   8  28
TORSDOF 7
ENDMDL
MODEL 2
REMARK VINA RESULT:    -4.112      0.421      1.808
REMARK INTER + INTRA:          -4.666
REMARK INTER:                  -5.062
REMARK INTRA:                   0.397
REMARK UNBOUND:                 0.407
REMARK SMILES O=c1c(O)c(-c2cc(O)c(O)c(O)c2)oc2cc(O)cc(O)c12
REMARK SMILES IDX 5 1 3 2 2 3 1 4 23 5 21 6 20 7 18 8 17 9 16 10 15 11 6 12
REMARK SMILES IDX 7 13 8 14 14 15 10 16 12 17 9 18 11 20 13 22 4 24 22 26
REMARK SMILES IDX 19 28
REMARK H PARENT 9 19 11 21 13 23 4 25 22 27 19 29
REMARK Flexibility Score: inf
ROOT
ATOM      1  C   UNL     1      33.460  25.165  37.664  1.00  0.00     0.180 A 
ATOM      2  C   UNL     1      34.737  24.576  37.614  1.00  0.00     0.208 A 
ATOM      3  C   UNL     1      34.954  23.369  38.297  1.00  0.00     0.238 A 
ATOM      4  O   UNL     1      36.091  22.825  38.251  1.00  0.00    -0.285 OA
ATOM      5  C   UNL     1      33.902  22.783  39.030  1.00  0.00     0.111 A 
ATOM      6  C   UNL     1      34.039  21.571  39.749  1.00  0.00     0.134 A 
ATOM      7  C   UNL     1      32.946  21.058  40.462  1.00  0.00     0.093 A 
ATOM      8  C   UNL     1      31.722  21.731  40.474  1.00  0.00     0.123 A 
ATOM      9  C   UNL     1      31.581  22.930  39.765  1.00  0.00     0.094 A 
ATOM     10  C   UNL     1      32.658  23.456  39.046  1.00  0.00     0.146 A 
ATOM     11  O   UNL     1      32.496  24.592  38.379  1.00  0.00    -0.452 OA
ENDROOT
BRANCH   1  12
ATOM     12  C   UNL     1      33.148  26.427  36.955  1.00  0.00     0.029 A 
ATOM     13  C   UNL     1      31.809  26.794  36.755  1.00  0.00     0.062 A 
ATOM     14  C   UNL     1      31.478  27.969  36.071  1.00  0.00     0.162 A 
ATOM     15  C   UNL     1      34.164  27.239  36.427  1.00  0.00     0.062 A 
ATOM     16  C   UNL     1      32.508  28.794  35.562  1.00  0.00     0.200 A 
ATOM     17  C   UNL     1      33.846  28.418  35.740  1.00  0.00     0.162 A 
BRANCH  14  18
ATOM     18  O   UNL     1      30.123  28.274  35.922  1.00  0.00    -0.504 OA
ATOM     19  H   UNL     1      29.375  27.765  36.371  1.00  0.00     0.293 HD
ENDBRANCH  14  18
BRANCH  16  20
ATOM     20  O   UNL     1      32.247  29.983  34.875  1.00  0.00    -0.502 OA
ATOM     21  H   UNL     1      31.338  30.419  34.823  1.00  0.00     0.293 HD
ENDBRANCH  16  20
BRANCH  17  22
ATOM     22  O   UNL     1      34.862  29.222  35.225  1.00  0.00    -0.504 OA
ATOM     23  H   UNL     1      35.190  30.044  35.718  1.00  0.00     0.293 HD
ENDBRANCH  17  22
ENDBRANCH   1  12
BRANCH   2  24
ATOM     24  O   UNL     1      35.777  25.201  36.922  1.00  0.00    -0.502 OA
ATOM     25  H   UNL     1      36.739  24.891  36.991  1.00  0.00     0.293 HD
ENDBRANCH   2  24
BRANCH   6  26
ATOM     26  O   UNL     1      35.249  20.875  39.759  1.00  0.00    -0.507 OA
ATOM     27  H   UNL     1      35.861  20.858  38.952  1.00  0.00     0.293 HD
ENDBRANCH   6  26
BRANCH   8  28
ATOM     28  O   UNL     1      30.652  21.201  41.191  1.00  0.00    -0.508 OA
ATOM     29  H   UNL     1      29.694  21.341  40.894  1.00  0.00     0.293 HD
ENDBRANCH   8  28
TORSDOF 7
ENDMDL
MODEL 3
REMARK VINA RESULT:    -2.296      1.257      7.473
REMARK INTER + INTRA:          -2.426
REMARK INTER:                  -2.833
REMARK INTRA:                   0.407
REMARK UNBOUND:                 0.407
REMARK SMILES O=c1c(O)c(-c2cc(O)c(O)c(O)c2)oc2cc(O)cc(O)c12
REMARK SMILES IDX 5 1 3 2 2 3 1 4 23 5 21 6 20 7 18 8 17 9 16 10 15 11 6 12
REMARK SMILES IDX 7 13 8 14 14 15 10 16 12 17 9 18 11 20 13 22 4 24 22 26
REMARK SMILES IDX 19 28
REMARK H PARENT 9 19 11 21 13 23 4 25 22 27 19 29
REMARK Flexibility Score: inf
ROOT
ATOM      1  C   UNL     1      32.678  25.594  37.690  1.00  0.00     0.180 A 
ATOM      2  C   UNL     1      31.408  26.135  37.417  1.00  0.00     0.208 A 
ATOM      3  C   UNL     1      31.321  27.301  36.640  1.00  0.00     0.238 A 
ATOM      4  O   UNL     1      30.188  27.790  36.379  1.00  0.00    -0.285 OA
ATOM      5  C   UNL     1      32.500  27.915  36.169  1.00  0.00     0.111 A 
ATOM      6  C   UNL     1      32.499  29.093  35.384  1.00  0.00     0.134 A 
ATOM      7  C   UNL     1      33.716  29.648  34.961  1.00  0.00     0.093 A 
ATOM      8  C   UNL     1      34.931  29.051  35.307  1.00  0.00     0.123 A 
ATOM      9  C   UNL     1      34.937  27.886  36.082  1.00  0.00     0.094 A 
ATOM     10  C   UNL     1      33.735  27.316  36.512  1.00  0.00     0.146 A 
ATOM     11  O   UNL     1      33.769  26.208  37.242  1.00  0.00    -0.452 OA
ENDROOT
BRANCH   1  12
ATOM     12  C   UNL     1      32.851  24.356  38.486  1.00  0.00     0.029 A 
ATOM     13  C   UNL     1      31.824  23.938  39.344  1.00  0.00     0.062 A 
ATOM     14  C   UNL     1      31.962  22.786  40.126  1.00  0.00     0.162 A 
ATOM     15  C   UNL     1      34.047  23.623  38.444  1.00  0.00     0.062 A 
ATOM     16  C   UNL     1      33.161  22.038  40.061  1.00  0.00     0.200 A 
ATOM     17  C   UNL     1      34.198  22.467  39.222  1.00  0.00     0.162 A 
BRANCH  14  18
ATOM     18  O   UNL     1      30.891  22.425  40.946  1.00  0.00    -0.504 OA
ATOM     19  H   UNL     1      30.868  21.589  41.512  1.00  0.00     0.293 HD
ENDBRANCH  14  18
BRANCH  16  20
ATOM     20  O   UNL     1      33.362  20.875  40.810  1.00  0.00    -0.502 OA
ATOM     21  H   UNL     1      34.187  20.692  41.361  1.00  0.00     0.293 HD
ENDBRANCH  16  20
BRANCH  17  22
ATOM     22  O   UNL     1      35.386  21.740  39.169  1.00  0.00    -0.504 OA
ATOM     23  H   UNL     1      36.275  22.152  39.426  1.00  0.00     0.293 HD
ENDBRANCH  17  22
ENDBRANCH   1  12
BRANCH   2  24
ATOM     24  O   UNL     1      30.258  25.536  37.937  1.00  0.00    -0.502 OA
ATOM     25  H   UNL     1      30.006  24.576  37.733  1.00  0.00     0.293 HD
ENDBRANCH   2  24
BRANCH   6  26
ATOM     26  O   UNL     1      31.303  29.715  35.023  1.00  0.00    -0.507 OA
ATOM     27  H   UNL     1      30.402  29.314  35.256  1.00  0.00     0.293 HD
ENDBRANCH   6  26
BRANCH   8  28
ATOM     28  O   UNL     1      36.125  29.622  34.875  1.00  0.00    -0.508 OA
ATOM     29  H   UNL     1      37.021  29.307  35.228  1.00  0.00     0.293 HD
ENDBRANCH   8  28
TORSDOF 7
ENDMDL
MODEL 4
REMARK VINA RESULT:    -1.502      1.272      3.397
REMARK INTER + INTRA:          -1.446
REMARK INTER:                  -1.827
REMARK INTRA:                   0.381
REMARK UNBOUND:                 0.407
REMARK SMILES O=c1c(O)c(-c2cc(O)c(O)c(O)c2)oc2cc(O)cc(O)c12
REMARK SMILES IDX 5 1 3 2 2 3 1 4 23 5 21 6 20 7 18 8 17 9 16 10 15 11 6 12
REMARK SMILES IDX 7 13 8 14 14 15 10 16 12 17 9 18 11 20 13 22 4 24 22 26
REMARK SMILES IDX 19 28
REMARK H PARENT 9 19 11 21 13 23 4 25 22 27 19 29
REMARK Flexibility Score: inf
ROOT
ATOM      1  C   UNL     1      32.111  25.338  37.775  1.00  0.00     0.180 A 
ATOM      2  C   UNL     1      31.284  24.894  38.824  1.00  0.00     0.208 A 
ATOM      3  C   UNL     1      31.608  23.699  39.484  1.00  0.00     0.238 A 
ATOM      4  O   UNL     1      30.881  23.297  40.434  1.00  0.00    -0.285 OA
ATOM      5  C   UNL     1      32.737  22.961  39.075  1.00  0.00     0.111 A 
ATOM      6  C   UNL     1      33.130  21.745  39.685  1.00  0.00     0.134 A 
ATOM      7  C   UNL     1      34.262  21.064  39.214  1.00  0.00     0.093 A 
ATOM      8  C   UNL     1      35.006  21.571  38.145  1.00  0.00     0.123 A 
ATOM      9  C   UNL     1      34.622  22.772  37.539  1.00  0.00     0.094 A 
ATOM     10  C   UNL     1      33.499  23.467  37.996  1.00  0.00     0.146 A 
ATOM     11  O   UNL     1      33.159  24.607  37.406  1.00  0.00    -0.452 OA
ENDROOT
BRANCH   1  12
ATOM     12  C   UNL     1      31.846  26.597  37.042  1.00  0.00     0.029 A 
ATOM     13  C   UNL     1      30.547  27.125  37.025  1.00  0.00     0.062 A 
ATOM     14  C   UNL     1      30.256  28.302  36.325  1.00  0.00     0.162 A 
ATOM     15  C   UNL     1      32.856  27.246  36.315  1.00  0.00     0.062 A 
ATOM     16  C   UNL     1      31.284  28.963  35.613  1.00  0.00     0.200 A 
ATOM     17  C   UNL     1      32.578  28.424  35.610  1.00  0.00     0.162 A 
BRANCH  14  18
ATOM     18  O   UNL     1      28.942  28.773  36.364  1.00  0.00    -0.504 OA
ATOM     19  H   UNL     1      28.161  28.244  36.726  1.00  0.00     0.293 HD
ENDBRANCH  14  18
BRANCH  16  20
ATOM     20  O   UNL     1      31.064  30.144  34.900  1.00  0.00    -0.502 OA
ATOM     21  H   UNL     1      30.160  30.443  34.566  1.00  0.00     0.293 HD
ENDBRANCH  16  20
BRANCH  17  22
ATOM     22  O   UNL     1      33.589  29.066  34.897  1.00  0.00    -0.504 OA
ATOM     23  H   UNL     1      33.434  29.427  33.963  1.00  0.00     0.293 HD
ENDBRANCH  17  22
ENDBRANCH   1  12
BRANCH   2  24
ATOM     24  O   UNL     1      30.143  25.619  39.178  1.00  0.00    -0.502 OA
ATOM     25  H   UNL     1      29.284  25.169  39.472  1.00  0.00     0.293 HD
ENDBRANCH   2  24
BRANCH   6  26
ATOM     26  O   UNL     1      32.407  21.210  40.753  1.00  0.00    -0.507 OA
ATOM     27  H   UNL     1      32.581  20.273  41.098  1.00  0.00     0.293 HD
ENDBRANCH   6  26
BRANCH   8  28
ATOM     28  O   UNL     1      36.125  20.875  37.696  1.00  0.00    -0.508 OA
ATOM     29  H   UNL     1      36.200  20.556  36.737  1.00  0.00     0.293 HD
ENDBRANCH   8  28
TORSDOF 7
ENDMDL
