MODEL 1
REMARK VINA RESULT:    -4.333      0.000      0.000
REMARK INTER + INTRA:          -5.766
REMARK INTER:                  -5.599
REMARK INTRA:                  -0.167
REMARK UNBOUND:                -0.167
REMARK SMILES CCCCCCC(=O)[O-]
REMARK SMILES IDX 5 1 6 2 7 3 8 4 9 5 4 6 3 7 2 8 1 9
REMARK H PARENT
REMARK Flexibility Score: inf
ROOT
ATOM      1  C   UNL     1     -10.785 -16.841  28.818  1.00  0.00     0.006 C 
ENDROOT
BRANCH   1   2
ATOM      2  C   UNL     1     -11.046 -18.326  29.101  1.00  0.00     0.053 C 
BRANCH   2   3
ATOM      3  C   UNL     1     -10.762 -18.641  30.535  1.00  0.00     0.041 C 
ATOM      4  O   UNL     1      -9.600 -18.965  30.895  1.00  0.00    -0.550 OA
ATOM      5  O   UNL     1     -11.792 -18.625  31.467  1.00  0.00    -0.550 OA
ENDBRANCH   2   3
ENDBRANCH   1   2
BRANCH   1   6
ATOM      6  C   UNL     1     -11.836 -16.224  27.881  1.00  0.00     0.000 C 
BRANCH   6   7
ATOM      7  C   UNL     1     -11.212 -15.597  26.624  1.00  0.00    -0.000 C 
BRANCH   7   8
ATOM      8  C   UNL     1      -9.733 -15.267  26.854  1.00  0.00    -0.003 C 
ATOM      9  C   UNL     1      -9.303 -14.058  26.028  1.00  0.00     0.004 C 
ENDBRANCH   7   8
ENDBRANCH   6   7
ENDBRANCH   1   6
TORSDOF 5
ENDMDL
MODEL 2
REMARK VINA RESULT:    -4.319      1.511      2.343
REMARK INTER + INTRA:          -5.749
REMARK INTER:                  -5.435
REMARK INTRA:                  -0.314
REMARK UNBOUND:                -0.167
REMARK SMILES CCCCCCC(=O)[O-]
REMARK SMILES IDX 5 1 6 2 7 3 8 4 9 5 4 6 3 7 2 8 1 9
REMARK H PARENT
REMARK Flexibility Score: inf
ROOT
ATOM      1  C   UNL     1     -12.795 -17.760  30.829  1.00  0.00     0.006 C 
ENDROOT
BRANCH   1   2
ATOM      2  C   UNL     1     -11.312 -17.388  30.953  1.00  0.00     0.053 C 
BRANCH   2   3
ATOM      3  C   UNL     1     -10.450 -18.538  30.540  1.00  0.00     0.041 C 
ATOM      4  O   UNL     1      -9.679 -19.084  31.372  1.00  0.00    -0.550 OA
ATOM      5  O   UNL     1     -10.461 -18.977  29.222  1.00  0.00    -0.550 OA
ENDBRANCH   2   3
ENDBRANCH   1   2
BRANCH   1   6
ATOM      6  C   UNL     1     -13.463 -17.126  29.598  1.00  0.00     0.000 C 
BRANCH   6   7
ATOM      7  C   UNL     1     -12.587 -16.051  28.938  1.00  0.00    -0.000 C 
BRANCH   7   8
ATOM      8  C   UNL     1     -12.312 -16.395  27.470  1.00  0.00    -0.003 C 
ATOM      9  C   UNL     1     -11.055 -15.693  26.965  1.00  0.00     0.004 C 
ENDBRANCH   7   8
ENDBRANCH   6   7
ENDBRANCH   1   6
TORSDOF 5
ENDMDL
MODEL 3
REMARK VINA RESULT:    -4.271      1.549      2.191
REMARK INTER + INTRA:          -5.686
REMARK INTER:                  -5.517
REMARK INTRA:                  -0.169
REMARK UNBOUND:                -0.167
REMARK SMILES CCCCCCC(=O)[O-]
REMARK SMILES IDX 5 1 6 2 7 3 8 4 9 5 4 6 3 7 2 8 1 9
REMARK H PARENT
REMARK Flexibility Score: inf
ROOT
ATOM      1  C   UNL     1     -11.036 -16.381  27.911  1.00  0.00     0.006 C 
ENDROOT
BRANCH   1   2
ATOM      2  C   UNL     1     -12.399 -16.665  28.555  1.00  0.00     0.053 C 
BRANCH   2   3
ATOM      3  C   UNL     1     -12.395 -18.008  29.212  1.00  0.00     0.041 C 
ATOM      4  O   UNL     1     -13.234 -18.277  30.111  1.00  0.00    -0.550 OA
ATOM      5  O   UNL     1     -11.432 -18.948  28.866  1.00  0.00    -0.550 OA
ENDBRANCH   2   3
ENDBRANCH   1   2
BRANCH   1   6
ATOM      6  C   UNL     1     -11.154 -15.563  26.614  1.00  0.00     0.000 C 
BRANCH   6   7
ATOM      7  C   UNL     1      -9.837 -14.876  26.226  1.00  0.00    -0.000 C 
BRANCH   7   8
ATOM      8  C   UNL     1      -8.728 -15.213  27.229  1.00  0.00    -0.003 C 
ATOM      9  C   UNL     1      -7.351 -14.875  26.664  1.00  0.00     0.004 C 
ENDBRANCH   7   8
ENDBRANCH   6   7
ENDBRANCH   1   6
TORSDOF 5
ENDMDL
MODEL 4
REMARK VINA RESULT:    -4.265      3.063      4.779
REMARK INTER + INTRA:          -5.679
REMARK INTER:                  -5.420
REMARK INTRA:                  -0.259
REMARK UNBOUND:                -0.167
REMARK SMILES CCCCCCC(=O)[O-]
REMARK SMILES IDX 5 1 6 2 7 3 8 4 9 5 4 6 3 7 2 8 1 9
REMARK H PARENT
REMARK Flexibility Score: inf
ROOT
ATOM      1  C   UNL     1     -11.404 -16.650  27.793  1.00  0.00     0.006 C 
ENDROOT
BRANCH   1   2
ATOM      2  C   UNL     1     -11.411 -15.585  26.690  1.00  0.00     0.053 C 
BRANCH   2   3
ATOM      3  C   UNL     1     -10.036 -15.032  26.490  1.00  0.00     0.041 C 
ATOM      4  O   UNL     1      -9.817 -14.192  25.578  1.00  0.00    -0.550 OA
ATOM      5  O   UNL     1      -8.986 -15.480  27.281  1.00  0.00    -0.550 OA
ENDBRANCH   2   3
ENDBRANCH   1   2
BRANCH   1   6
ATOM      6  C   UNL     1     -12.297 -16.270  28.987  1.00  0.00     0.000 C 
BRANCH   6   7
ATOM      7  C   UNL     1     -11.634 -16.571  30.340  1.00  0.00    -0.000 C 
BRANCH   7   8
ATOM      8  C   UNL     1     -10.243 -17.184  30.144  1.00  0.00    -0.003 C 
ATOM      9  C   UNL     1     -10.186 -18.607  30.693  1.00  0.00     0.004 C 
ENDBRANCH   7   8
ENDBRANCH   6   7
ENDBRANCH   1   6
TORSDOF 5
ENDMDL
MODEL 5
REMARK VINA RESULT:    -4.214      3.444      5.092
REMARK INTER + INTRA:          -5.613
REMARK INTER:                  -5.415
REMARK INTRA:                  -0.198
REMARK UNBOUND:                -0.167
REMARK SMILES CCCCCCC(=O)[O-]
REMARK SMILES IDX 5 1 6 2 7 3 8 4 9 5 4 6 3 7 2 8 1 9
REMARK H PARENT
REMARK Flexibility Score: inf
ROOT
ATOM      1  C   UNL     1     -11.330 -15.524  26.577  1.00  0.00     0.006 C 
ENDROOT
BRANCH   1   2
ATOM      2  C   UNL     1      -9.842 -15.524  26.948  1.00  0.00     0.053 C 
BRANCH   2   3
ATOM      3  C   UNL     1      -9.125 -14.427  26.227  1.00  0.00     0.041 C 
ATOM      4  O   UNL     1      -7.951 -14.114  26.556  1.00  0.00    -0.550 OA
ATOM      5  O   UNL     1      -9.772 -13.716  25.224  1.00  0.00    -0.550 OA
ENDBRANCH   2   3
ENDBRANCH   1   2
BRANCH   1   6
ATOM      6  C   UNL     1     -12.183 -16.351  27.554  1.00  0.00     0.000 C 
BRANCH   6   7
ATOM      7  C   UNL     1     -11.392 -16.807  28.789  1.00  0.00    -0.000 C 
BRANCH   7   8
ATOM      8  C   UNL     1     -11.434 -18.333  28.932  1.00  0.00    -0.003 C 
ATOM      9  C   UNL     1     -10.287 -18.837  29.802  1.00  0.00     0.004 C 
ENDBRANCH   7   8
ENDBRANCH   6   7
ENDBRANCH   1   6
TORSDOF 5
ENDMDL
MODEL 6
REMARK VINA RESULT:    -4.206      3.347      5.031
REMARK INTER + INTRA:          -5.603
REMARK INTER:                  -5.437
REMARK INTRA:                  -0.166
REMARK UNBOUND:                -0.167
REMARK SMILES CCCCCCC(=O)[O-]
REMARK SMILES IDX 5 1 6 2 7 3 8 4 9 5 4 6 3 7 2 8 1 9
REMARK H PARENT
REMARK Flexibility Score: inf
ROOT
ATOM      1  C   UNL     1      -9.161 -14.405  26.233  1.00  0.00     0.006 C 
ENDROOT
BRANCH   1   2
ATOM      2  C   UNL     1      -7.958 -15.293  26.575  1.00  0.00     0.053 C 
BRANCH   2   3
ATOM      3  C   UNL     1      -7.027 -14.575  27.500  1.00  0.00     0.041 C 
ATOM      4  O   UNL     1      -7.414 -14.233  28.648  1.00  0.00    -0.550 OA
ATOM      5  O   UNL     1      -5.747 -14.241  27.077  1.00  0.00    -0.550 OA
ENDBRANCH   2   3
ENDBRANCH   1   2
BRANCH   1   6
ATOM      6  C   UNL     1     -10.492 -15.176  26.262  1.00  0.00     0.000 C 
BRANCH   6   7
ATOM      7  C   UNL     1     -10.694 -15.958  27.568  1.00  0.00    -0.000 C 
BRANCH   7   8
ATOM      8  C   UNL     1     -12.150 -16.417  27.711  1.00  0.00    -0.003 C 
ATOM      9  C   UNL     1     -12.633 -16.279  29.152  1.00  0.00     0.004 C 
ENDBRANCH   7   8
ENDBRANCH   6   7
ENDBRANCH   1   6
TORSDOF 5
ENDMDL
MODEL 7
REMARK VINA RESULT:    -4.143      1.843      2.454
REMARK INTER + INTRA:          -5.521
REMARK INTER:                  -5.381
REMARK INTRA:                  -0.140
REMARK UNBOUND:                -0.167
REMARK SMILES CCCCCCC(=O)[O-]
REMARK SMILES IDX 5 1 6 2 7 3 8 4 9 5 4 6 3 7 2 8 1 9
REMARK H PARENT
REMARK Flexibility Score: inf
ROOT
ATOM      1  C   UNL     1     -10.794 -16.002  27.478  1.00  0.00     0.006 C 
ENDROOT
BRANCH   1   2
ATOM      2  C   UNL     1     -12.265 -16.391  27.668  1.00  0.00     0.053 C 
BRANCH   2   3
ATOM      3  C   UNL     1     -12.409 -17.346  28.811  1.00  0.00     0.041 C 
ATOM      4  O   UNL     1     -11.621 -18.321  28.925  1.00  0.00    -0.550 OA
ATOM      5  O   UNL     1     -13.443 -17.186  29.724  1.00  0.00    -0.550 OA
ENDBRANCH   2   3
ENDBRANCH   1   2
BRANCH   1   6
ATOM      6  C   UNL     1     -10.582 -15.058  26.283  1.00  0.00     0.000 C 
BRANCH   6   7
ATOM      7  C   UNL     1      -9.098 -14.868  25.936  1.00  0.00    -0.000 C 
BRANCH   7   8
ATOM      8  C   UNL     1      -8.244 -14.790  27.207  1.00  0.00    -0.003 C 
ATOM      9  C   UNL     1      -6.778 -14.534  26.871  1.00  0.00     0.004 C 
ENDBRANCH   7   8
ENDBRANCH   6   7
ENDBRANCH   1   6
TORSDOF 5
ENDMDL
MODEL 8
REMARK VINA RESULT:    -4.112      1.999      2.687
REMARK INTER + INTRA:          -5.482
REMARK INTER:                  -5.158
REMARK INTRA:                  -0.324
REMARK UNBOUND:                -0.167
REMARK SMILES CCCCCCC(=O)[O-]
REMARK SMILES IDX 5 1 6 2 7 3 8 4 9 5 4 6 3 7 2 8 1 9
REMARK H PARENT
REMARK Flexibility Score: inf
ROOT
ATOM      1  C   UNL     1     -10.504 -18.145  29.522  1.00  0.00     0.006 C 
ENDROOT
BRANCH   1   2
ATOM      2  C   UNL     1     -10.407 -17.222  30.743  1.00  0.00     0.053 C 
BRANCH   2   3
ATOM      3  C   UNL     1      -9.101 -16.492  30.743  1.00  0.00     0.041 C 
ATOM      4  O   UNL     1      -8.836 -15.668  29.829  1.00  0.00    -0.550 OA
ATOM      5  O   UNL     1      -8.156 -16.758  31.726  1.00  0.00    -0.550 OA
ENDBRANCH   2   3
ENDBRANCH   1   2
BRANCH   1   6
ATOM      6  C   UNL     1     -11.799 -17.931  28.721  1.00  0.00     0.000 C 
BRANCH   6   7
ATOM      7  C   UNL     1     -12.208 -16.453  28.641  1.00  0.00    -0.000 C 
BRANCH   7   8
ATOM      8  C   UNL     1     -12.260 -15.977  27.184  1.00  0.00    -0.003 C 
ATOM      9  C   UNL     1     -10.875 -15.576  26.685  1.00  0.00     0.004 C 
ENDBRANCH   7   8
ENDBRANCH   6   7
ENDBRANCH   1   6
TORSDOF 5
ENDMDL
MODEL 9
REMARK VINA RESULT:    -4.098      3.153      4.866
REMARK INTER + INTRA:          -5.463
REMARK INTER:                  -5.230
REMARK INTRA:                  -0.232
REMARK UNBOUND:                -0.167
REMARK SMILES CCCCCCC(=O)[O-]
REMARK SMILES IDX 5 1 6 2 7 3 8 4 9 5 4 6 3 7 2 8 1 9
REMARK H PARENT
REMARK Flexibility Score: inf
ROOT
ATOM      1  C   UNL     1     -13.229 -16.745  29.065  1.00  0.00     0.006 C 
ENDROOT
BRANCH   1   2
ATOM      2  C   UNL     1     -11.812 -16.593  28.497  1.00  0.00     0.053 C 
BRANCH   2   3
ATOM      3  C   UNL     1     -11.857 -15.946  27.149  1.00  0.00     0.041 C 
ATOM      4  O   UNL     1     -10.795 -15.559  26.596  1.00  0.00    -0.550 OA
ATOM      5  O   UNL     1     -13.079 -15.726  26.525  1.00  0.00    -0.550 OA
ENDBRANCH   2   3
ENDBRANCH   1   2
BRANCH   1   6
ATOM      6  C   UNL     1     -13.252 -17.506  30.401  1.00  0.00     0.000 C 
BRANCH   6   7
ATOM      7  C   UNL     1     -11.945 -17.349  31.193  1.00  0.00    -0.000 C 
BRANCH   7   8
ATOM      8  C   UNL     1     -11.315 -18.716  31.486  1.00  0.00    -0.003 C 
ATOM      9  C   UNL     1      -9.897 -18.800  30.930  1.00  0.00     0.004 C 
ENDBRANCH   7   8
ENDBRANCH   6   7
ENDBRANCH   1   6
TORSDOF 5
ENDMDL
