MODEL 1
REMARK VINA RESULT:    -3.777      0.000      0.000
REMARK INTER + INTRA:          -4.413
REMARK INTER:                  -4.329
REMARK INTRA:                  -0.084
REMARK UNBOUND:                -0.084
REMARK SMILES COc1cc(C(=O)[O-])ccc1O
REMARK SMILES IDX 5 1 9 2 4 3 10 4 3 5 11 6 6 7 7 8 8 9 2 10 1 11 12 12
REMARK H PARENT 12 13
REMARK Flexibility Score: inf
ROOT
ATOM      1  C   UNL     1      14.028   7.914   6.210  1.00  0.00     0.001 A 
ATOM      2  C   UNL     1      13.468   7.329   7.356  1.00  0.00     0.014 A 
ATOM      3  C   UNL     1      14.583   9.204   6.302  1.00  0.00     0.060 A 
ATOM      4  C   UNL     1      13.462   8.017   8.571  1.00  0.00     0.051 A 
ATOM      5  C   UNL     1      14.579   9.903   7.525  1.00  0.00     0.161 A 
ATOM      6  C   UNL     1      14.013   9.298   8.661  1.00  0.00     0.157 A 
ENDROOT
BRANCH   1   7
ATOM      7  C   UNL     1      14.037   7.187   4.921  1.00  0.00     0.072 C 
ATOM      8  O   UNL     1      15.125   6.866   4.373  1.00  0.00    -0.545 OA
ATOM      9  O   UNL     1      12.842   6.845   4.295  1.00  0.00    -0.545 OA
ENDBRANCH   1   7
BRANCH   5  10
ATOM     10  O   UNL     1      15.125  11.191   7.647  1.00  0.00    -0.493 OA
ATOM     11  C   UNL     1      14.807  12.288   6.797  1.00  0.00     0.278 C 
ENDBRANCH   5  10
BRANCH   6  12
ATOM     12  O   UNL     1      13.988   9.955   9.891  1.00  0.00    -0.504 OA
ATOM     13  H   UNL     1      14.830  10.141  10.423  1.00  0.00     0.293 HD
ENDBRANCH   6  12
TORSDOF 3
ENDMDL
MODEL 2
REMARK VINA RESULT:    -3.751     10.267     12.291
REMARK INTER + INTRA:          -4.384
REMARK INTER:                  -4.302
REMARK INTRA:                  -0.082
REMARK UNBOUND:                -0.084
REMARK SMILES COc1cc(C(=O)[O-])ccc1O
REMARK SMILES IDX 5 1 9 2 4 3 10 4 3 5 11 6 6 7 7 8 8 9 2 10 1 11 12 12
REMARK H PARENT 12 13
REMARK Flexibility Score: inf
ROOT
ATOM      1  C   UNL     1      13.376  -1.753   5.990  1.00  0.00     0.001 A 
ATOM      2  C   UNL     1      14.611  -1.796   6.656  1.00  0.00     0.014 A 
ATOM      3  C   UNL     1      12.511  -2.859   6.082  1.00  0.00     0.060 A 
ATOM      4  C   UNL     1      14.976  -2.920   7.398  1.00  0.00     0.051 A 
ATOM      5  C   UNL     1      12.874  -3.996   6.830  1.00  0.00     0.161 A 
ATOM      6  C   UNL     1      14.116  -4.018   7.489  1.00  0.00     0.157 A 
ENDROOT
BRANCH   1   7
ATOM      7  C   UNL     1      12.986  -0.562   5.202  1.00  0.00     0.072 C 
ATOM      8  O   UNL     1      13.564  -0.296   4.115  1.00  0.00    -0.545 OA
ATOM      9  O   UNL     1      11.975   0.281   5.651  1.00  0.00    -0.545 OA
ENDBRANCH   1   7
BRANCH   5  10
ATOM     10  O   UNL     1      12.031  -5.114   6.939  1.00  0.00    -0.493 OA
ATOM     11  C   UNL     1      10.651  -5.057   7.282  1.00  0.00     0.278 C 
ENDBRANCH   5  10
BRANCH   6  12
ATOM     12  O   UNL     1      14.515  -5.124   8.239  1.00  0.00    -0.504 OA
ATOM     13  H   UNL     1      15.335  -5.670   8.005  1.00  0.00     0.293 HD
ENDBRANCH   6  12
TORSDOF 3
ENDMDL
MODEL 3
REMARK VINA RESULT:    -3.748      8.413     10.913
REMARK INTER + INTRA:          -4.381
REMARK INTER:                  -4.281
REMARK INTRA:                  -0.100
REMARK UNBOUND:                -0.084
REMARK SMILES COc1cc(C(=O)[O-])ccc1O
REMARK SMILES IDX 5 1 9 2 4 3 10 4 3 5 11 6 6 7 7 8 8 9 2 10 1 11 12 12
REMARK H PARENT 12 13
REMARK Flexibility Score: inf
ROOT
ATOM      1  C   UNL     1      13.801   0.180   4.740  1.00  0.00     0.001 A 
ATOM      2  C   UNL     1      12.597   0.203   5.461  1.00  0.00     0.014 A 
ATOM      3  C   UNL     1      14.227  -1.028   4.158  1.00  0.00     0.060 A 
ATOM      4  C   UNL     1      11.832  -0.957   5.599  1.00  0.00     0.051 A 
ATOM      5  C   UNL     1      13.459  -2.202   4.294  1.00  0.00     0.161 A 
ATOM      6  C   UNL     1      12.256  -2.156   5.021  1.00  0.00     0.157 A 
ENDROOT
BRANCH   1   7
ATOM      7  C   UNL     1      14.613   1.408   4.592  1.00  0.00     0.072 C 
ATOM      8  O   UNL     1      15.125   1.708   3.481  1.00  0.00    -0.545 OA
ATOM      9  O   UNL     1      14.823   2.251   5.679  1.00  0.00    -0.545 OA
ENDBRANCH   1   7
BRANCH   5  10
ATOM     10  O   UNL     1      13.859  -3.422   3.724  1.00  0.00    -0.493 OA
ATOM     11  C   UNL     1      14.794  -4.321   4.311  1.00  0.00     0.278 C 
ENDBRANCH   5  10
BRANCH   6  12
ATOM     12  O   UNL     1      11.466  -3.296   5.180  1.00  0.00    -0.504 OA
ATOM     13  H   UNL     1      10.751  -3.363   5.893  1.00  0.00     0.293 HD
ENDBRANCH   6  12
TORSDOF 3
ENDMDL
MODEL 4
REMARK VINA RESULT:    -3.747      8.916     11.455
REMARK INTER + INTRA:          -4.379
REMARK INTER:                  -4.353
REMARK INTRA:                  -0.026
REMARK UNBOUND:                -0.084
REMARK SMILES COc1cc(C(=O)[O-])ccc1O
REMARK SMILES IDX 5 1 9 2 4 3 10 4 3 5 11 6 6 7 7 8 8 9 2 10 1 11 12 12
REMARK H PARENT 12 13
REMARK Flexibility Score: inf
ROOT
ATOM      1  C   UNL     1      13.780  -0.350   4.591  1.00  0.00     0.001 A 
ATOM      2  C   UNL     1      14.812  -1.016   3.911  1.00  0.00     0.014 A 
ATOM      3  C   UNL     1      12.716  -1.102   5.123  1.00  0.00     0.060 A 
ATOM      4  C   UNL     1      14.784  -2.404   3.765  1.00  0.00     0.051 A 
ATOM      5  C   UNL     1      12.682  -2.503   4.978  1.00  0.00     0.161 A 
ATOM      6  C   UNL     1      13.727  -3.149   4.294  1.00  0.00     0.157 A 
ENDROOT
BRANCH   1   7
ATOM      7  C   UNL     1      13.808   1.121   4.747  1.00  0.00     0.072 C 
ATOM      8  O   UNL     1      13.993   1.642   5.879  1.00  0.00    -0.545 OA
ATOM      9  O   UNL     1      13.630   1.951   3.645  1.00  0.00    -0.545 OA
ENDBRANCH   1   7
BRANCH   5  10
ATOM     10  O   UNL     1      11.633  -3.279   5.499  1.00  0.00    -0.493 OA
ATOM     11  C   UNL     1      11.699  -4.016   6.715  1.00  0.00     0.278 C 
ENDBRANCH   5  10
BRANCH   6  12
ATOM     12  O   UNL     1      13.732  -4.534   4.128  1.00  0.00    -0.504 OA
ATOM     13  H   UNL     1      13.914  -4.972   3.233  1.00  0.00     0.293 HD
ENDBRANCH   6  12
TORSDOF 3
ENDMDL
MODEL 5
REMARK VINA RESULT:    -3.347      9.726     12.020
REMARK INTER + INTRA:          -3.920
REMARK INTER:                  -3.843
REMARK INTRA:                  -0.077
REMARK UNBOUND:                -0.084
REMARK SMILES COc1cc(C(=O)[O-])ccc1O
REMARK SMILES IDX 5 1 9 2 4 3 10 4 3 5 11 6 6 7 7 8 8 9 2 10 1 11 12 12
REMARK H PARENT 12 13
REMARK Flexibility Score: inf
ROOT
ATOM      1  C   UNL     1      11.965  -2.429   5.424  1.00  0.00     0.001 A 
ATOM      2  C   UNL     1      11.964  -1.029   5.536  1.00  0.00     0.014 A 
ATOM      3  C   UNL     1      13.019  -3.058   4.736  1.00  0.00     0.060 A 
ATOM      4  C   UNL     1      12.993  -0.273   4.974  1.00  0.00     0.051 A 
ATOM      5  C   UNL     1      14.061  -2.300   4.166  1.00  0.00     0.161 A 
ATOM      6  C   UNL     1      14.039  -0.899   4.291  1.00  0.00     0.157 A 
ENDROOT
BRANCH   1   7
ATOM      7  C   UNL     1      10.875  -3.233   6.019  1.00  0.00     0.072 C 
ATOM      8  O   UNL     1       9.676  -2.860   5.920  1.00  0.00    -0.545 OA
ATOM      9  O   UNL     1      11.158  -4.414   6.698  1.00  0.00    -0.545 OA
ENDBRANCH   1   7
BRANCH   5  10
ATOM     10  O   UNL     1      15.125  -2.901   3.474  1.00  0.00    -0.493 OA
ATOM     11  C   UNL     1      15.125  -4.242   2.997  1.00  0.00     0.278 C 
ENDBRANCH   5  10
BRANCH   6  12
ATOM     12  O   UNL     1      15.051  -0.111   3.741  1.00  0.00    -0.504 OA
ATOM     13  H   UNL     1      15.042   0.900   3.801  1.00  0.00     0.293 HD
ENDBRANCH   6  12
TORSDOF 3
ENDMDL
MODEL 6
REMARK VINA RESULT:    -3.334      9.313     11.439
REMARK INTER + INTRA:          -3.906
REMARK INTER:                  -3.862
REMARK INTRA:                  -0.044
REMARK UNBOUND:                -0.084
REMARK SMILES COc1cc(C(=O)[O-])ccc1O
REMARK SMILES IDX 5 1 9 2 4 3 10 4 3 5 11 6 6 7 7 8 8 9 2 10 1 11 12 12
REMARK H PARENT 12 13
REMARK Flexibility Score: inf
ROOT
ATOM      1  C   UNL     1      13.544  -0.692   5.511  1.00  0.00     0.001 A 
ATOM      2  C   UNL     1      12.324  -1.093   4.943  1.00  0.00     0.014 A 
ATOM      3  C   UNL     1      14.214  -1.570   6.383  1.00  0.00     0.060 A 
ATOM      4  C   UNL     1      11.784  -2.346   5.239  1.00  0.00     0.051 A 
ATOM      5  C   UNL     1      13.673  -2.836   6.685  1.00  0.00     0.161 A 
ATOM      6  C   UNL     1      12.450  -3.217   6.105  1.00  0.00     0.157 A 
ENDROOT
BRANCH   1   7
ATOM      7  C   UNL     1      14.119   0.635   5.199  1.00  0.00     0.072 C 
ATOM      8  O   UNL     1      14.987   1.151   5.953  1.00  0.00    -0.545 OA
ATOM      9  O   UNL     1      13.711   1.333   4.067  1.00  0.00    -0.545 OA
ENDBRANCH   1   7
BRANCH   5  10
ATOM     10  O   UNL     1      14.319  -3.733   7.551  1.00  0.00    -0.493 OA
ATOM     11  C   UNL     1      15.125  -4.827   7.129  1.00  0.00     0.278 C 
ENDBRANCH   5  10
BRANCH   6  12
ATOM     12  O   UNL     1      11.880  -4.461   6.378  1.00  0.00    -0.504 OA
ATOM     13  H   UNL     1      12.370  -5.179   6.897  1.00  0.00     0.293 HD
ENDBRANCH   6  12
TORSDOF 3
ENDMDL
MODEL 7
REMARK VINA RESULT:    -3.325      9.518     11.634
REMARK INTER + INTRA:          -3.895
REMARK INTER:                  -3.821
REMARK INTRA:                  -0.074
REMARK UNBOUND:                -0.084
REMARK SMILES COc1cc(C(=O)[O-])ccc1O
REMARK SMILES IDX 5 1 9 2 4 3 10 4 3 5 11 6 6 7 7 8 8 9 2 10 1 11 12 12
REMARK H PARENT 12 13
REMARK Flexibility Score: inf
ROOT
ATOM      1  C   UNL     1      14.061  -2.664   4.165  1.00  0.00     0.001 A 
ATOM      2  C   UNL     1      14.698  -1.413   4.146  1.00  0.00     0.014 A 
ATOM      3  C   UNL     1      12.755  -2.758   4.679  1.00  0.00     0.060 A 
ATOM      4  C   UNL     1      14.044  -0.279   4.631  1.00  0.00     0.051 A 
ATOM      5  C   UNL     1      12.090  -1.616   5.170  1.00  0.00     0.161 A 
ATOM      6  C   UNL     1      12.747  -0.373   5.141  1.00  0.00     0.157 A 
ENDROOT
BRANCH   1   7
ATOM      7  C   UNL     1      14.751  -3.868   3.652  1.00  0.00     0.072 C 
ATOM      8  O   UNL     1      15.011  -4.834   4.419  1.00  0.00    -0.545 OA
ATOM      9  O   UNL     1      15.123  -3.952   2.314  1.00  0.00    -0.545 OA
ENDBRANCH   1   7
BRANCH   5  10
ATOM     10  O   UNL     1      10.786  -1.681   5.688  1.00  0.00    -0.493 OA
ATOM     11  C   UNL     1      10.098  -2.887   5.999  1.00  0.00     0.278 C 
ENDBRANCH   5  10
BRANCH   6  12
ATOM     12  O   UNL     1      12.125   0.781   5.617  1.00  0.00    -0.504 OA
ATOM     13  H   UNL     1      11.118   0.871   5.670  1.00  0.00     0.293 HD
ENDBRANCH   6  12
TORSDOF 3
ENDMDL
