MODEL 1
REMARK VINA RESULT:    -3.625      0.000      0.000
REMARK INTER + INTRA:          -6.563
REMARK INTER:                  -5.532
REMARK INTRA:                  -1.030
REMARK UNBOUND:                -1.030
REMARK SMILES O=C([O-])CCCCCCCCC(=O)[O-]
REMARK SMILES IDX 7 1 6 2 5 3 4 4 2 5 1 6 3 7 8 8 9 9 10 10 11 11 12 12 13 13
REMARK SMILES IDX 14 14
REMARK H PARENT
REMARK Flexibility Score: inf
ROOT
ATOM      1  C   UNL     1     156.983 173.761 166.046  1.00  0.00     0.000 C 
ENDROOT
BRANCH   1   2
ATOM      2  C   UNL     1     155.943 174.587 165.271  1.00  0.00     0.000 C 
BRANCH   2   3
ATOM      3  C   UNL     1     155.943 174.275 163.764  1.00  0.00     0.006 C 
BRANCH   3   4
ATOM      4  C   UNL     1     156.897 173.126 163.410  1.00  0.00     0.053 C 
BRANCH   4   5
ATOM      5  C   UNL     1     157.957 173.560 162.443  1.00  0.00     0.041 C 
ATOM      6  O   UNL     1     157.644 173.898 161.271  1.00  0.00    -0.550 OA
ATOM      7  O   UNL     1     159.285 173.619 162.845  1.00  0.00    -0.550 OA
ENDBRANCH   4   5
ENDBRANCH   3   4
ENDBRANCH   2   3
ENDBRANCH   1   2
BRANCH   1   8
ATOM      8  C   UNL     1     156.343 172.812 167.070  1.00  0.00     0.000 C 
BRANCH   8   9
ATOM      9  C   UNL     1     154.884 173.202 167.343  1.00  0.00     0.000 C 
BRANCH   9  10
ATOM     10  C   UNL     1     153.887 172.069 167.035  1.00  0.00     0.006 C 
BRANCH  10  11
ATOM     11  C   UNL     1     154.424 171.017 166.049  1.00  0.00     0.053 C 
BRANCH  11  12
ATOM     12  C   UNL     1     153.951 171.243 164.645  1.00  0.00     0.041 C 
ATOM     13  O   UNL     1     153.114 172.150 164.394  1.00  0.00    -0.550 OA
ATOM     14  O   UNL     1     154.408 170.428 163.617  1.00  0.00    -0.550 OA
ENDBRANCH  11  12
ENDBRANCH  10  11
ENDBRANCH   9  10
ENDBRANCH   8   9
ENDBRANCH   1   8
TORSDOF 9
ENDMDL
MODEL 2
REMARK VINA RESULT:    -3.555      2.405      3.361
REMARK INTER + INTRA:          -6.455
REMARK INTER:                  -5.825
REMARK INTRA:                  -0.630
REMARK UNBOUND:                -1.030
REMARK SMILES O=C([O-])CCCCCCCCC(=O)[O-]
REMARK SMILES IDX 7 1 6 2 5 3 4 4 2 5 1 6 3 7 8 8 9 9 10 10 11 11 12 12 13 13
REMARK SMILES IDX 14 14
REMARK H PARENT
REMARK Flexibility Score: inf
ROOT
ATOM      1  C   UNL     1     157.873 172.814 163.035  1.00  0.00     0.000 C 
ENDROOT
BRANCH   1   2
ATOM      2  C   UNL     1     158.614 174.020 162.437  1.00  0.00     0.000 C 
BRANCH   2   3
ATOM      3  C   UNL     1     157.672 175.195 162.119  1.00  0.00     0.006 C 
BRANCH   3   4
ATOM      4  C   UNL     1     157.586 175.477 160.613  1.00  0.00     0.053 C 
BRANCH   4   5
ATOM      5  C   UNL     1     156.689 174.502 159.913  1.00  0.00     0.041 C 
ATOM      6  O   UNL     1     157.070 173.938 158.854  1.00  0.00    -0.550 OA
ATOM      7  O   UNL     1     155.444 174.195 160.447  1.00  0.00    -0.550 OA
ENDBRANCH   4   5
ENDBRANCH   3   4
ENDBRANCH   2   3
ENDBRANCH   1   2
BRANCH   1   8
ATOM      8  C   UNL     1     156.559 173.207 163.727  1.00  0.00     0.000 C 
BRANCH   8   9
ATOM      9  C   UNL     1     155.543 172.058 163.667  1.00  0.00     0.000 C 
BRANCH   9  10
ATOM     10  C   UNL     1     154.400 172.206 164.689  1.00  0.00     0.006 C 
BRANCH  10  11
ATOM     11  C   UNL     1     154.543 171.294 165.920  1.00  0.00     0.053 C 
BRANCH  11  12
ATOM     12  C   UNL     1     155.285 171.950 167.045  1.00  0.00     0.041 C 
ATOM     13  O   UNL     1     155.191 173.193 167.230  1.00  0.00    -0.550 OA
ATOM     14  O   UNL     1     156.107 171.194 167.871  1.00  0.00    -0.550 OA
ENDBRANCH  11  12
ENDBRANCH  10  11
ENDBRANCH   9  10
ENDBRANCH   8   9
ENDBRANCH   1   8
TORSDOF 9
ENDMDL
MODEL 3
REMARK VINA RESULT:    -3.552      1.974      4.544
REMARK INTER + INTRA:          -6.451
REMARK INTER:                  -5.500
REMARK INTRA:                  -0.951
REMARK UNBOUND:                -1.030
REMARK SMILES O=C([O-])CCCCCCCCC(=O)[O-]
REMARK SMILES IDX 7 1 6 2 5 3 4 4 2 5 1 6 3 7 8 8 9 9 10 10 11 11 12 12 13 13
REMARK SMILES IDX 14 14
REMARK H PARENT
REMARK Flexibility Score: inf
ROOT
ATOM      1  C   UNL     1     158.242 174.638 164.813  1.00  0.00     0.000 C 
ENDROOT
BRANCH   1   2
ATOM      2  C   UNL     1     157.480 173.954 165.959  1.00  0.00     0.000 C 
BRANCH   2   3
ATOM      3  C   UNL     1     155.965 173.877 165.700  1.00  0.00     0.006 C 
BRANCH   3   4
ATOM      4  C   UNL     1     155.455 172.430 165.675  1.00  0.00     0.053 C 
BRANCH   4   5
ATOM      5  C   UNL     1     154.464 172.207 164.572  1.00  0.00     0.041 C 
ATOM      6  O   UNL     1     154.678 171.327 163.698  1.00  0.00    -0.550 OA
ATOM      7  O   UNL     1     153.293 172.951 164.528  1.00  0.00    -0.550 OA
ENDBRANCH   4   5
ENDBRANCH   3   4
ENDBRANCH   2   3
ENDBRANCH   1   2
BRANCH   1   8
ATOM      8  C   UNL     1     159.114 173.659 164.012  1.00  0.00     0.000 C 
BRANCH   8   9
ATOM      9  C   UNL     1     158.427 173.260 162.699  1.00  0.00     0.000 C 
BRANCH   9  10
ATOM     10  C   UNL     1     157.776 174.450 161.970  1.00  0.00     0.006 C 
BRANCH  10  11
ATOM     11  C   UNL     1     156.564 174.064 161.105  1.00  0.00     0.053 C 
BRANCH  11  12
ATOM     12  C   UNL     1     155.258 174.447 161.733  1.00  0.00     0.041 C 
ATOM     13  O   UNL     1     155.214 175.346 162.614  1.00  0.00    -0.550 OA
ATOM     14  O   UNL     1     154.091 173.787 161.369  1.00  0.00    -0.550 OA
ENDBRANCH  11  12
ENDBRANCH  10  11
ENDBRANCH   9  10
ENDBRANCH   8   9
ENDBRANCH   1   8
TORSDOF 9
ENDMDL
MODEL 4
REMARK VINA RESULT:    -3.509      2.067      3.158
REMARK INTER + INTRA:          -6.385
REMARK INTER:                  -5.490
REMARK INTRA:                  -0.895
REMARK UNBOUND:                -1.030
REMARK SMILES O=C([O-])CCCCCCCCC(=O)[O-]
REMARK SMILES IDX 7 1 6 2 5 3 4 4 2 5 1 6 3 7 8 8 9 9 10 10 11 11 12 12 13 13
REMARK SMILES IDX 14 14
REMARK H PARENT
REMARK Flexibility Score: inf
ROOT
ATOM      1  C   UNL     1     154.876 171.914 163.654  1.00  0.00     0.000 C 
ENDROOT
BRANCH   1   2
ATOM      2  C   UNL     1     154.113 173.024 162.914  1.00  0.00     0.000 C 
BRANCH   2   3
ATOM      3  C   UNL     1     155.050 173.997 162.177  1.00  0.00     0.006 C 
BRANCH   3   4
ATOM      4  C   UNL     1     156.523 173.582 162.292  1.00  0.00     0.053 C 
BRANCH   4   5
ATOM      5  C   UNL     1     157.447 174.681 161.864  1.00  0.00     0.041 C 
ATOM      6  O   UNL     1     157.847 174.744 160.672  1.00  0.00    -0.550 OA
ATOM      7  O   UNL     1     157.842 175.653 162.774  1.00  0.00    -0.550 OA
ENDBRANCH   4   5
ENDBRANCH   3   4
ENDBRANCH   2   3
ENDBRANCH   1   2
BRANCH   1   8
ATOM      8  C   UNL     1     154.010 171.188 164.694  1.00  0.00     0.000 C 
BRANCH   8   9
ATOM      9  C   UNL     1     154.722 171.123 166.052  1.00  0.00     0.000 C 
BRANCH   9  10
ATOM     10  C   UNL     1     154.875 172.501 166.722  1.00  0.00     0.006 C 
BRANCH  10  11
ATOM     11  C   UNL     1     156.336 172.922 166.956  1.00  0.00     0.053 C 
BRANCH  11  12
ATOM     12  C   UNL     1     156.816 173.931 165.957  1.00  0.00     0.041 C 
ATOM     13  O   UNL     1     158.023 173.944 165.595  1.00  0.00    -0.550 OA
ATOM     14  O   UNL     1     155.938 174.879 165.448  1.00  0.00    -0.550 OA
ENDBRANCH  11  12
ENDBRANCH  10  11
ENDBRANCH   9  10
ENDBRANCH   8   9
ENDBRANCH   1   8
TORSDOF 9
ENDMDL
MODEL 5
REMARK VINA RESULT:    -3.454      2.277      5.456
REMARK INTER + INTRA:          -6.301
REMARK INTER:                  -5.452
REMARK INTRA:                  -0.849
REMARK UNBOUND:                -1.030
REMARK SMILES O=C([O-])CCCCCCCCC(=O)[O-]
REMARK SMILES IDX 7 1 6 2 5 3 4 4 2 5 1 6 3 7 8 8 9 9 10 10 11 11 12 12 13 13
REMARK SMILES IDX 14 14
REMARK H PARENT
REMARK Flexibility Score: inf
ROOT
ATOM      1  C   UNL     1     155.349 172.626 163.288  1.00  0.00     0.000 C 
ENDROOT
BRANCH   1   2
ATOM      2  C   UNL     1     154.949 171.247 163.835  1.00  0.00     0.000 C 
BRANCH   2   3
ATOM      3  C   UNL     1     154.118 171.340 165.126  1.00  0.00     0.006 C 
BRANCH   3   4
ATOM      4  C   UNL     1     154.940 171.876 166.307  1.00  0.00     0.053 C 
BRANCH   4   5
ATOM      5  C   UNL     1     154.340 173.121 166.885  1.00  0.00     0.041 C 
ATOM      6  O   UNL     1     154.376 174.201 166.238  1.00  0.00    -0.550 OA
ATOM      7  O   UNL     1     153.714 173.082 168.124  1.00  0.00    -0.550 OA
ENDBRANCH   4   5
ENDBRANCH   3   4
ENDBRANCH   2   3
ENDBRANCH   1   2
BRANCH   1   8
ATOM      8  C   UNL     1     156.870 172.840 163.271  1.00  0.00     0.000 C 
BRANCH   8   9
ATOM      9  C   UNL     1     157.214 174.336 163.256  1.00  0.00     0.000 C 
BRANCH   9  10
ATOM     10  C   UNL     1     157.385 174.932 164.666  1.00  0.00     0.006 C 
BRANCH  10  11
ATOM     11  C   UNL     1     157.951 173.940 165.698  1.00  0.00     0.053 C 
BRANCH  11  12
ATOM     12  C   UNL     1     159.388 174.207 166.032  1.00  0.00     0.041 C 
ATOM     13  O   UNL     1     159.793 174.113 167.221  1.00  0.00    -0.550 OA
ATOM     14  O   UNL     1     160.274 174.593 165.034  1.00  0.00    -0.550 OA
ENDBRANCH  11  12
ENDBRANCH  10  11
ENDBRANCH   9  10
ENDBRANCH   8   9
ENDBRANCH   1   8
TORSDOF 9
ENDMDL
MODEL 6
REMARK VINA RESULT:    -3.433      2.320      5.252
REMARK INTER + INTRA:          -6.269
REMARK INTER:                  -5.494
REMARK INTRA:                  -0.776
REMARK UNBOUND:                -1.030
REMARK SMILES O=C([O-])CCCCCCCCC(=O)[O-]
REMARK SMILES IDX 7 1 6 2 5 3 4 4 2 5 1 6 3 7 8 8 9 9 10 10 11 11 12 12 13 13
REMARK SMILES IDX 14 14
REMARK H PARENT
REMARK Flexibility Score: inf
ROOT
ATOM      1  C   UNL     1     158.465 174.370 164.124  1.00  0.00     0.000 C 
ENDROOT
BRANCH   1   2
ATOM      2  C   UNL     1     157.811 174.601 165.495  1.00  0.00     0.000 C 
BRANCH   2   3
ATOM      3  C   UNL     1     156.878 173.448 165.908  1.00  0.00     0.006 C 
BRANCH   3   4
ATOM      4  C   UNL     1     155.446 173.930 166.176  1.00  0.00     0.053 C 
BRANCH   4   5
ATOM      5  C   UNL     1     154.644 174.022 164.914  1.00  0.00     0.041 C 
ATOM      6  O   UNL     1     154.445 175.141 164.370  1.00  0.00    -0.550 OA
ATOM      7  O   UNL     1     154.141 172.871 164.322  1.00  0.00    -0.550 OA
ENDBRANCH   4   5
ENDBRANCH   3   4
ENDBRANCH   2   3
ENDBRANCH   1   2
BRANCH   1   8
ATOM      8  C   UNL     1     157.902 173.139 163.397  1.00  0.00     0.000 C 
BRANCH   8   9
ATOM      9  C   UNL     1     157.150 173.551 162.123  1.00  0.00     0.000 C 
BRANCH   9  10
ATOM     10  C   UNL     1     157.901 174.608 161.292  1.00  0.00     0.006 C 
BRANCH  10  11
ATOM     11  C   UNL     1     156.985 175.479 160.415  1.00  0.00     0.053 C 
BRANCH  11  12
ATOM     12  C   UNL     1     156.325 174.702 159.316  1.00  0.00     0.041 C 
ATOM     13  O   UNL     1     155.076 174.752 159.163  1.00  0.00    -0.550 OA
ATOM     14  O   UNL     1     157.086 173.896 158.480  1.00  0.00    -0.550 OA
ENDBRANCH  11  12
ENDBRANCH  10  11
ENDBRANCH   9  10
ENDBRANCH   8   9
ENDBRANCH   1   8
TORSDOF 9
ENDMDL
MODEL 7
REMARK VINA RESULT:    -3.411      3.004      4.717
REMARK INTER + INTRA:          -6.235
REMARK INTER:                  -5.387
REMARK INTRA:                  -0.849
REMARK UNBOUND:                -1.030
REMARK SMILES O=C([O-])CCCCCCCCC(=O)[O-]
REMARK SMILES IDX 7 1 6 2 5 3 4 4 2 5 1 6 3 7 8 8 9 9 10 10 11 11 12 12 13 13
REMARK SMILES IDX 14 14
REMARK H PARENT
REMARK Flexibility Score: inf
ROOT
ATOM      1  C   UNL     1     157.688 174.712 161.703  1.00  0.00     0.000 C 
ENDROOT
BRANCH   1   2
ATOM      2  C   UNL     1     158.231 173.495 162.469  1.00  0.00     0.000 C 
BRANCH   2   3
ATOM      3  C   UNL     1     157.488 173.249 163.794  1.00  0.00     0.006 C 
BRANCH   3   4
ATOM      4  C   UNL     1     157.422 174.512 164.664  1.00  0.00     0.053 C 
BRANCH   4   5
ATOM      5  C   UNL     1     158.709 174.755 165.393  1.00  0.00     0.041 C 
ATOM      6  O   UNL     1     159.434 175.738 165.087  1.00  0.00    -0.550 OA
ATOM      7  O   UNL     1     159.092 173.913 166.428  1.00  0.00    -0.550 OA
ENDBRANCH   4   5
ENDBRANCH   3   4
ENDBRANCH   2   3
ENDBRANCH   1   2
BRANCH   1   8
ATOM      8  C   UNL     1     157.102 174.338 160.333  1.00  0.00     0.000 C 
BRANCH   8   9
ATOM      9  C   UNL     1     155.918 175.248 159.976  1.00  0.00     0.000 C 
BRANCH   9  10
ATOM     10  C   UNL     1     154.571 174.724 160.506  1.00  0.00     0.006 C 
BRANCH  10  11
ATOM     11  C   UNL     1     154.103 175.405 161.804  1.00  0.00     0.053 C 
BRANCH  11  12
ATOM     12  C   UNL     1     154.062 174.465 162.971  1.00  0.00     0.041 C 
ATOM     13  O   UNL     1     154.015 174.912 164.147  1.00  0.00    -0.550 OA
ATOM     14  O   UNL     1     154.109 173.093 162.760  1.00  0.00    -0.550 OA
ENDBRANCH  11  12
ENDBRANCH  10  11
ENDBRANCH   9  10
ENDBRANCH   8   9
ENDBRANCH   1   8
TORSDOF 9
ENDMDL
MODEL 8
REMARK VINA RESULT:    -3.388      2.497      3.653
REMARK INTER + INTRA:          -6.201
REMARK INTER:                  -5.413
REMARK INTRA:                  -0.789
REMARK UNBOUND:                -1.030
REMARK SMILES O=C([O-])CCCCCCCCC(=O)[O-]
REMARK SMILES IDX 7 1 6 2 5 3 4 4 2 5 1 6 3 7 8 8 9 9 10 10 11 11 12 12 13 13
REMARK SMILES IDX 14 14
REMARK H PARENT
REMARK Flexibility Score: inf
ROOT
ATOM      1  C   UNL     1     158.263 173.525 162.792  1.00  0.00     0.000 C 
ENDROOT
BRANCH   1   2
ATOM      2  C   UNL     1     158.098 174.616 161.722  1.00  0.00     0.000 C 
BRANCH   2   3
ATOM      3  C   UNL     1     157.041 174.253 160.664  1.00  0.00     0.006 C 
BRANCH   3   4
ATOM      4  C   UNL     1     155.661 174.836 161.000  1.00  0.00     0.053 C 
BRANCH   4   5
ATOM      5  C   UNL     1     154.741 174.808 159.817  1.00  0.00     0.041 C 
ATOM      6  O   UNL     1     153.507 174.620 159.980  1.00  0.00    -0.550 OA
ATOM      7  O   UNL     1     155.243 175.019 158.540  1.00  0.00    -0.550 OA
ENDBRANCH   4   5
ENDBRANCH   3   4
ENDBRANCH   2   3
ENDBRANCH   1   2
BRANCH   1   8
ATOM      8  C   UNL     1     157.790 173.979 164.181  1.00  0.00     0.000 C 
BRANCH   8   9
ATOM      9  C   UNL     1     156.380 173.449 164.481  1.00  0.00     0.000 C 
BRANCH   9  10
ATOM     10  C   UNL     1     156.004 172.218 163.635  1.00  0.00     0.006 C 
BRANCH  10  11
ATOM     11  C   UNL     1     154.514 171.842 163.711  1.00  0.00     0.053 C 
BRANCH  11  12
ATOM     12  C   UNL     1     154.006 171.766 165.120  1.00  0.00     0.041 C 
ATOM     13  O   UNL     1     154.439 170.882 165.906  1.00  0.00    -0.550 OA
ATOM     14  O   UNL     1     153.028 172.651 165.555  1.00  0.00    -0.550 OA
ENDBRANCH  11  12
ENDBRANCH  10  11
ENDBRANCH   9  10
ENDBRANCH   8   9
ENDBRANCH   1   8
TORSDOF 9
ENDMDL
MODEL 9
REMARK VINA RESULT:    -3.371      3.009      4.061
REMARK INTER + INTRA:          -6.175
REMARK INTER:                  -5.601
REMARK INTRA:                  -0.574
REMARK UNBOUND:                -1.030
REMARK SMILES O=C([O-])CCCCCCCCC(=O)[O-]
REMARK SMILES IDX 7 1 6 2 5 3 4 4 2 5 1 6 3 7 8 8 9 9 10 10 11 11 12 12 13 13
REMARK SMILES IDX 14 14
REMARK H PARENT
REMARK Flexibility Score: inf
ROOT
ATOM      1  C   UNL     1     158.367 173.277 162.952  1.00  0.00     0.000 C 
ENDROOT
BRANCH   1   2
ATOM      2  C   UNL     1     158.231 174.227 161.751  1.00  0.00     0.000 C 
BRANCH   2   3
ATOM      3  C   UNL     1     156.808 174.242 161.166  1.00  0.00     0.006 C 
BRANCH   3   4
ATOM      4  C   UNL     1     156.812 174.300 159.632  1.00  0.00     0.053 C 
BRANCH   4   5
ATOM      5  C   UNL     1     155.719 175.179 159.105  1.00  0.00     0.041 C 
ATOM      6  O   UNL     1     155.315 175.045 157.920  1.00  0.00    -0.550 OA
ATOM      7  O   UNL     1     155.126 176.125 159.931  1.00  0.00    -0.550 OA
ENDBRANCH   4   5
ENDBRANCH   3   4
ENDBRANCH   2   3
ENDBRANCH   1   2
BRANCH   1   8
ATOM      8  C   UNL     1     159.188 173.885 164.099  1.00  0.00     0.000 C 
BRANCH   8   9
ATOM      9  C   UNL     1     158.321 174.082 165.350  1.00  0.00     0.000 C 
BRANCH   9  10
ATOM     10  C   UNL     1     156.833 173.761 165.113  1.00  0.00     0.006 C 
BRANCH  10  11
ATOM     11  C   UNL     1     155.920 175.000 165.117  1.00  0.00     0.053 C 
BRANCH  11  12
ATOM     12  C   UNL     1     154.493 174.669 164.801  1.00  0.00     0.041 C 
ATOM     13  O   UNL     1     154.055 174.795 163.626  1.00  0.00    -0.550 OA
ATOM     14  O   UNL     1     153.635 174.251 165.810  1.00  0.00    -0.550 OA
ENDBRANCH  11  12
ENDBRANCH  10  11
ENDBRANCH   9  10
ENDBRANCH   8   9
ENDBRANCH   1   8
TORSDOF 9
ENDMDL
