MODEL 1
REMARK VINA RESULT:    -5.655      0.000      0.000
REMARK INTER + INTRA:          -5.821
REMARK INTER:                  -5.821
REMARK INTRA:                   0.000
REMARK UNBOUND:                 0.000
REMARK SMILES Cc1ccccc1O
REMARK SMILES IDX 1 1 2 2 3 3 4 4 5 5 6 6 7 7 8 8
REMARK H PARENT 8 9
REMARK Flexibility Score: inf
ROOT
ATOM      1  C   UNL     1     -35.568  -9.993  27.512  1.00  0.00     0.048 C 
ATOM      2  C   UNL     1     -36.547  -9.120  26.777  1.00  0.00    -0.009 A 
ATOM      3  C   UNL     1     -36.122  -8.399  25.647  1.00  0.00     0.007 A 
ATOM      4  C   UNL     1     -37.016  -7.582  24.949  1.00  0.00     0.001 A 
ATOM      5  C   UNL     1     -38.342  -7.476  25.372  1.00  0.00     0.004 A 
ATOM      6  C   UNL     1     -38.777  -8.187  26.493  1.00  0.00     0.046 A 
ATOM      7  C   UNL     1     -37.893  -9.009  27.201  1.00  0.00     0.118 A 
ENDROOT
BRANCH   7   8
ATOM      8  O   UNL     1     -38.377  -9.698  28.315  1.00  0.00    -0.508 OA
ATOM      9  H   UNL     1     -38.562 -10.693  28.310  1.00  0.00     0.293 HD
ENDBRANCH   7   8
TORSDOF 1
ENDMDL
MODEL 2
REMARK VINA RESULT:    -5.643      1.635      2.859
REMARK INTER + INTRA:          -5.808
REMARK INTER:                  -5.808
REMARK INTRA:                   0.000
REMARK UNBOUND:                 0.000
REMARK SMILES Cc1ccccc1O
REMARK SMILES IDX 1 1 2 2 3 3 4 4 5 5 6 6 7 7 8 8
REMARK H PARENT 8 9
REMARK Flexibility Score: inf
ROOT
ATOM      1  C   UNL     1     -36.704  -6.504  24.500  1.00  0.00     0.048 C 
ATOM      2  C   UNL     1     -37.135  -7.591  25.444  1.00  0.00    -0.009 A 
ATOM      3  C   UNL     1     -36.170  -8.443  26.010  1.00  0.00     0.007 A 
ATOM      4  C   UNL     1     -36.549  -9.460  26.890  1.00  0.00     0.001 A 
ATOM      5  C   UNL     1     -37.895  -9.638  27.214  1.00  0.00     0.004 A 
ATOM      6  C   UNL     1     -38.865  -8.799  26.659  1.00  0.00     0.046 A 
ATOM      7  C   UNL     1     -38.499  -7.777  25.776  1.00  0.00     0.118 A 
ENDROOT
BRANCH   7   8
ATOM      8  O   UNL     1     -39.505  -6.966  25.248  1.00  0.00    -0.508 OA
ATOM      9  H   UNL     1     -40.490  -7.134  25.408  1.00  0.00     0.293 HD
ENDBRANCH   7   8
TORSDOF 1
ENDMDL
MODEL 3
REMARK VINA RESULT:    -5.399      1.281      1.656
REMARK INTER + INTRA:          -5.557
REMARK INTER:                  -5.557
REMARK INTRA:                   0.000
REMARK UNBOUND:                 0.000
REMARK SMILES Cc1ccccc1O
REMARK SMILES IDX 1 1 2 2 3 3 4 4 5 5 6 6 7 7 8 8
REMARK H PARENT 8 9
REMARK Flexibility Score: inf
ROOT
ATOM      1  C   UNL     1     -37.549  -9.755  27.901  1.00  0.00     0.048 C 
ATOM      2  C   UNL     1     -37.320  -8.827  26.741  1.00  0.00    -0.009 A 
ATOM      3  C   UNL     1     -36.115  -8.899  26.021  1.00  0.00     0.007 A 
ATOM      4  C   UNL     1     -35.882  -8.045  24.939  1.00  0.00     0.001 A 
ATOM      5  C   UNL     1     -36.849  -7.111  24.565  1.00  0.00     0.004 A 
ATOM      6  C   UNL     1     -38.051  -7.028  25.273  1.00  0.00     0.046 A 
ATOM      7  C   UNL     1     -38.297  -7.877  26.358  1.00  0.00     0.118 A 
ENDROOT
BRANCH   7   8
ATOM      8  O   UNL     1     -39.514  -7.755  27.032  1.00  0.00    -0.508 OA
ATOM      9  H   UNL     1     -39.908  -6.862  27.302  1.00  0.00     0.293 HD
ENDBRANCH   7   8
TORSDOF 1
ENDMDL
MODEL 4
REMARK VINA RESULT:    -5.346      1.818      2.907
REMARK INTER + INTRA:          -5.502
REMARK INTER:                  -5.502
REMARK INTRA:                   0.000
REMARK UNBOUND:                 0.000
REMARK SMILES Cc1ccccc1O
REMARK SMILES IDX 1 1 2 2 3 3 4 4 5 5 6 6 7 7 8 8
REMARK H PARENT 8 9
REMARK Flexibility Score: inf
ROOT
ATOM      1  C   UNL     1     -39.333  -8.531  27.293  1.00  0.00     0.048 C 
ATOM      2  C   UNL     1     -38.105  -8.341  26.446  1.00  0.00    -0.009 A 
ATOM      3  C   UNL     1     -36.929  -9.044  26.761  1.00  0.00     0.007 A 
ATOM      4  C   UNL     1     -35.776  -8.881  25.986  1.00  0.00     0.001 A 
ATOM      5  C   UNL     1     -35.787  -8.016  24.891  1.00  0.00     0.004 A 
ATOM      6  C   UNL     1     -36.949  -7.311  24.568  1.00  0.00     0.046 A 
ATOM      7  C   UNL     1     -38.110  -7.465  25.334  1.00  0.00     0.118 A 
ENDROOT
BRANCH   7   8
ATOM      8  O   UNL     1     -39.245  -6.738  24.970  1.00  0.00    -0.508 OA
ATOM      9  H   UNL     1     -39.621  -6.736  24.031  1.00  0.00     0.293 HD
ENDBRANCH   7   8
TORSDOF 1
ENDMDL
MODEL 5
REMARK VINA RESULT:    -5.329      0.983      2.658
REMARK INTER + INTRA:          -5.485
REMARK INTER:                  -5.485
REMARK INTRA:                   0.000
REMARK UNBOUND:                 0.000
REMARK SMILES Cc1ccccc1O
REMARK SMILES IDX 1 1 2 2 3 3 4 4 5 5 6 6 7 7 8 8
REMARK H PARENT 8 9
REMARK Flexibility Score: inf
ROOT
ATOM      1  C   UNL     1     -38.476  -7.019  25.234  1.00  0.00     0.048 C 
ATOM      2  C   UNL     1     -37.657  -8.007  26.016  1.00  0.00    -0.009 A 
ATOM      3  C   UNL     1     -36.311  -8.222  25.670  1.00  0.00     0.007 A 
ATOM      4  C   UNL     1     -35.532  -9.136  26.384  1.00  0.00     0.001 A 
ATOM      5  C   UNL     1     -36.088  -9.847  27.449  1.00  0.00     0.004 A 
ATOM      6  C   UNL     1     -37.424  -9.644  27.803  1.00  0.00     0.046 A 
ATOM      7  C   UNL     1     -38.216  -8.731  27.097  1.00  0.00     0.118 A 
ENDROOT
BRANCH   7   8
ATOM      8  O   UNL     1     -39.545  -8.564  27.489  1.00  0.00    -0.508 OA
ATOM      9  H   UNL     1     -39.866  -7.771  28.030  1.00  0.00     0.293 HD
ENDBRANCH   7   8
TORSDOF 1
ENDMDL
MODEL 6
REMARK VINA RESULT:    -5.299      1.921      3.422
REMARK INTER + INTRA:          -5.454
REMARK INTER:                  -5.454
REMARK INTRA:                   0.000
REMARK UNBOUND:                 0.000
REMARK SMILES Cc1ccccc1O
REMARK SMILES IDX 1 1 2 2 3 3 4 4 5 5 6 6 7 7 8 8
REMARK H PARENT 8 9
REMARK Flexibility Score: inf
ROOT
ATOM      1  C   UNL     1     -37.248  -6.377  24.506  1.00  0.00     0.048 C 
ATOM      2  C   UNL     1     -37.259  -7.526  25.474  1.00  0.00    -0.009 A 
ATOM      3  C   UNL     1     -38.408  -7.773  26.246  1.00  0.00     0.007 A 
ATOM      4  C   UNL     1     -38.439  -8.837  27.153  1.00  0.00     0.001 A 
ATOM      5  C   UNL     1     -37.324  -9.663  27.298  1.00  0.00     0.004 A 
ATOM      6  C   UNL     1     -36.175  -9.429  26.538  1.00  0.00     0.046 A 
ATOM      7  C   UNL     1     -36.131  -8.368  25.626  1.00  0.00     0.118 A 
ENDROOT
BRANCH   7   8
ATOM      8  O   UNL     1     -34.960  -8.175  24.890  1.00  0.00    -0.508 OA
ATOM      9  H   UNL     1     -34.060  -8.534  25.182  1.00  0.00     0.293 HD
ENDBRANCH   7   8
TORSDOF 1
ENDMDL
MODEL 7
REMARK VINA RESULT:    -5.252      1.763      2.445
REMARK INTER + INTRA:          -5.406
REMARK INTER:                  -5.406
REMARK INTRA:                   0.000
REMARK UNBOUND:                 0.000
REMARK SMILES Cc1ccccc1O
REMARK SMILES IDX 1 1 2 2 3 3 4 4 5 5 6 6 7 7 8 8
REMARK H PARENT 8 9
REMARK Flexibility Score: inf
ROOT
ATOM      1  C   UNL     1     -35.392  -9.864  27.353  1.00  0.00     0.048 C 
ATOM      2  C   UNL     1     -36.569  -9.117  26.791  1.00  0.00    -0.009 A 
ATOM      3  C   UNL     1     -37.832  -9.256  27.394  1.00  0.00     0.007 A 
ATOM      4  C   UNL     1     -38.939  -8.570  26.887  1.00  0.00     0.001 A 
ATOM      5  C   UNL     1     -38.798  -7.740  25.774  1.00  0.00     0.004 A 
ATOM      6  C   UNL     1     -37.549  -7.594  25.165  1.00  0.00     0.046 A 
ATOM      7  C   UNL     1     -36.432  -8.274  25.662  1.00  0.00     0.118 A 
ENDROOT
BRANCH   7   8
ATOM      8  O   UNL     1     -35.206  -8.095  25.019  1.00  0.00    -0.508 OA
ATOM      9  H   UNL     1     -34.521  -8.834  24.921  1.00  0.00     0.293 HD
ENDBRANCH   7   8
TORSDOF 1
ENDMDL
MODEL 8
REMARK VINA RESULT:    -4.807     10.007     11.496
REMARK INTER + INTRA:          -4.947
REMARK INTER:                  -4.947
REMARK INTRA:                   0.000
REMARK UNBOUND:                 0.000
REMARK SMILES Cc1ccccc1O
REMARK SMILES IDX 1 1 2 2 3 3 4 4 5 5 6 6 7 7 8 8
REMARK H PARENT 8 9
REMARK Flexibility Score: inf
ROOT
ATOM      1  C   UNL     1     -24.021 -11.114  28.405  1.00  0.00     0.048 C 
ATOM      2  C   UNL     1     -25.430 -10.626  28.211  1.00  0.00    -0.009 A 
ATOM      3  C   UNL     1     -26.042  -9.854  29.214  1.00  0.00     0.007 A 
ATOM      4  C   UNL     1     -27.352  -9.391  29.054  1.00  0.00     0.001 A 
ATOM      5  C   UNL     1     -28.063  -9.695  27.892  1.00  0.00     0.004 A 
ATOM      6  C   UNL     1     -27.467 -10.462  26.888  1.00  0.00     0.046 A 
ATOM      7  C   UNL     1     -26.157 -10.931  27.035  1.00  0.00     0.118 A 
ENDROOT
BRANCH   7   8
ATOM      8  O   UNL     1     -25.606 -11.694  26.003  1.00  0.00    -0.508 OA
ATOM      9  H   UNL     1     -25.329 -11.300  25.113  1.00  0.00     0.293 HD
ENDBRANCH   7   8
TORSDOF 1
ENDMDL
MODEL 9
REMARK VINA RESULT:    -4.692      1.754      2.520
REMARK INTER + INTRA:          -4.829
REMARK INTER:                  -4.829
REMARK INTRA:                   0.000
REMARK UNBOUND:                 0.000
REMARK SMILES Cc1ccccc1O
REMARK SMILES IDX 1 1 2 2 3 3 4 4 5 5 6 6 7 7 8 8
REMARK H PARENT 8 9
REMARK Flexibility Score: inf
ROOT
ATOM      1  C   UNL     1     -39.520 -11.105  25.335  1.00  0.00     0.048 C 
ATOM      2  C   UNL     1     -38.276 -10.275  25.485  1.00  0.00    -0.009 A 
ATOM      3  C   UNL     1     -37.536  -9.920  24.343  1.00  0.00     0.007 A 
ATOM      4  C   UNL     1     -36.376  -9.149  24.461  1.00  0.00     0.001 A 
ATOM      5  C   UNL     1     -35.942  -8.726  25.719  1.00  0.00     0.004 A 
ATOM      6  C   UNL     1     -36.667  -9.073  26.861  1.00  0.00     0.046 A 
ATOM      7  C   UNL     1     -37.831  -9.844  26.758  1.00  0.00     0.118 A 
ENDROOT
BRANCH   7   8
ATOM      8  O   UNL     1     -38.520 -10.164  27.929  1.00  0.00    -0.508 OA
ATOM      9  H   UNL     1     -38.931  -9.466  28.536  1.00  0.00     0.293 HD
ENDBRANCH   7   8
TORSDOF 1
ENDMDL
