MODEL 1
REMARK VINA RESULT:    -3.662      0.000      0.000
REMARK INTER + INTRA:          -6.579
REMARK INTER:                  -5.589
REMARK INTRA:                  -0.991
REMARK UNBOUND:                -0.991
REMARK SMILES C=CCCCCCCCCCC
REMARK SMILES IDX 7 1 8 2 9 3 10 4 11 5 12 6 6 7 5 8 4 9 3 10 2 11 1 12
REMARK H PARENT
REMARK Flexibility Score: inf
ROOT
ATOM      1  C   UNL     1       9.241  19.632  23.062  1.00  0.00     0.000 C 
ENDROOT
BRANCH   1   2
ATOM      2  C   UNL     1       8.466  18.584  22.241  1.00  0.00    -0.000 C 
BRANCH   2   3
ATOM      3  C   UNL     1       7.164  18.105  22.917  1.00  0.00    -0.000 C 
BRANCH   3   4
ATOM      4  C   UNL     1       6.050  19.164  22.859  1.00  0.00    -0.000 C 
BRANCH   4   5
ATOM      5  C   UNL     1       5.003  18.861  21.775  1.00  0.00    -0.003 C 
ATOM      6  C   UNL     1       4.201  20.095  21.363  1.00  0.00     0.004 C 
ENDBRANCH   4   5
ENDBRANCH   3   4
ENDBRANCH   2   3
ENDBRANCH   1   2
BRANCH   1   7
ATOM      7  C   UNL     1      10.708  19.269  23.357  1.00  0.00     0.000 C 
BRANCH   7   8
ATOM      8  C   UNL     1      11.052  19.106  24.851  1.00  0.00     0.000 C 
BRANCH   8   9
ATOM      9  C   UNL     1      10.234  19.983  25.818  1.00  0.00     0.004 C 
BRANCH   9  10
ATOM     10  C   UNL     1       9.567  19.197  26.961  1.00  0.00     0.027 C 
BRANCH  10  11
ATOM     11  C   UNL     1       8.113  18.924  26.682  1.00  0.00    -0.035 C 
ATOM     12  C   UNL     1       7.264  19.899  26.343  1.00  0.00     0.004 C 
ENDBRANCH  10  11
ENDBRANCH   9  10
ENDBRANCH   8   9
ENDBRANCH   7   8
ENDBRANCH   1   7
TORSDOF 9
ENDMDL
MODEL 2
REMARK VINA RESULT:    -3.639     12.960     14.919
REMARK INTER + INTRA:          -6.545
REMARK INTER:                  -5.299
REMARK INTRA:                  -1.246
REMARK UNBOUND:                -0.991
REMARK SMILES C=CCCCCCCCCCC
REMARK SMILES IDX 7 1 8 2 9 3 10 4 11 5 12 6 6 7 5 8 4 9 3 10 2 11 1 12
REMARK H PARENT
REMARK Flexibility Score: inf
ROOT
ATOM      1  C   UNL     1      13.296  13.973  37.560  1.00  0.00     0.000 C 
ENDROOT
BRANCH   1   2
ATOM      2  C   UNL     1      11.903  13.562  37.048  1.00  0.00    -0.000 C 
BRANCH   2   3
ATOM      3  C   UNL     1      10.762  13.868  38.042  1.00  0.00    -0.000 C 
BRANCH   3   4
ATOM      4  C   UNL     1      11.260  14.606  39.296  1.00  0.00    -0.000 C 
BRANCH   4   5
ATOM      5  C   UNL     1      10.380  15.814  39.658  1.00  0.00    -0.003 C 
ATOM      6  C   UNL     1       9.321  16.116  38.599  1.00  0.00     0.004 C 
ENDBRANCH   4   5
ENDBRANCH   3   4
ENDBRANCH   2   3
ENDBRANCH   1   2
BRANCH   1   7
ATOM      7  C   UNL     1      14.474  13.497  36.689  1.00  0.00     0.000 C 
BRANCH   7   8
ATOM      8  C   UNL     1      15.317  14.623  36.058  1.00  0.00     0.000 C 
BRANCH   8   9
ATOM      9  C   UNL     1      14.961  16.051  36.517  1.00  0.00     0.004 C 
BRANCH   9  10
ATOM     10  C   UNL     1      14.356  16.930  35.408  1.00  0.00     0.027 C 
BRANCH  10  11
ATOM     11  C   UNL     1      12.854  16.994  35.495  1.00  0.00    -0.035 C 
ATOM     12  C   UNL     1      12.229  17.389  36.608  1.00  0.00     0.004 C 
ENDBRANCH  10  11
ENDBRANCH   9  10
ENDBRANCH   8   9
ENDBRANCH   7   8
ENDBRANCH   1   7
TORSDOF 9
ENDMDL
MODEL 3
REMARK VINA RESULT:    -3.574      1.140      4.564
REMARK INTER + INTRA:          -6.446
REMARK INTER:                  -5.290
REMARK INTRA:                  -1.156
REMARK UNBOUND:                -0.991
REMARK SMILES C=CCCCCCCCCCC
REMARK SMILES IDX 7 1 8 2 9 3 10 4 11 5 12 6 6 7 5 8 4 9 3 10 2 11 1 12
REMARK H PARENT
REMARK Flexibility Score: inf
ROOT
ATOM      1  C   UNL     1       9.361  19.601  22.756  1.00  0.00     0.000 C 
ENDROOT
BRANCH   1   2
ATOM      2  C   UNL     1      10.713  19.124  23.317  1.00  0.00    -0.000 C 
BRANCH   2   3
ATOM      3  C   UNL     1      10.851  19.308  24.843  1.00  0.00    -0.000 C 
BRANCH   3   4
ATOM      4  C   UNL     1       9.617  19.983  25.466  1.00  0.00    -0.000 C 
BRANCH   4   5
ATOM      5  C   UNL     1       9.116  19.254  26.723  1.00  0.00    -0.003 C 
ATOM      6  C   UNL     1       7.602  19.050  26.727  1.00  0.00     0.004 C 
ENDBRANCH   4   5
ENDBRANCH   3   4
ENDBRANCH   2   3
ENDBRANCH   1   2
BRANCH   1   7
ATOM      7  C   UNL     1       8.465  18.486  22.183  1.00  0.00     0.000 C 
BRANCH   7   8
ATOM      8  C   UNL     1       7.192  18.188  22.999  1.00  0.00     0.000 C 
BRANCH   8   9
ATOM      9  C   UNL     1       5.869  18.629  22.343  1.00  0.00     0.004 C 
BRANCH   9  10
ATOM     10  C   UNL     1       5.557  20.126  22.514  1.00  0.00     0.027 C 
BRANCH  10  11
ATOM     11  C   UNL     1       6.014  20.648  23.850  1.00  0.00    -0.035 C 
ATOM     12  C   UNL     1       5.396  21.664  24.459  1.00  0.00     0.004 C 
ENDBRANCH  10  11
ENDBRANCH   9  10
ENDBRANCH   8   9
ENDBRANCH   7   8
ENDBRANCH   1   7
TORSDOF 9
ENDMDL
MODEL 4
REMARK VINA RESULT:    -3.560      1.069      5.283
REMARK INTER + INTRA:          -6.424
REMARK INTER:                  -5.384
REMARK INTRA:                  -1.040
REMARK UNBOUND:                -0.991
REMARK SMILES C=CCCCCCCCCCC
REMARK SMILES IDX 7 1 8 2 9 3 10 4 11 5 12 6 6 7 5 8 4 9 3 10 2 11 1 12
REMARK H PARENT
REMARK Flexibility Score: inf
ROOT
ATOM      1  C   UNL     1       8.813  19.954  26.740  1.00  0.00     0.000 C 
ENDROOT
BRANCH   1   2
ATOM      2  C   UNL     1       9.907  18.927  27.085  1.00  0.00    -0.000 C 
BRANCH   2   3
ATOM      3  C   UNL     1      11.166  19.040  26.199  1.00  0.00    -0.000 C 
BRANCH   3   4
ATOM      4  C   UNL     1      11.236  20.381  25.450  1.00  0.00    -0.000 C 
BRANCH   4   5
ATOM      5  C   UNL     1      11.199  20.208  23.923  1.00  0.00    -0.003 C 
ATOM      6  C   UNL     1      11.565  18.793  23.478  1.00  0.00     0.004 C 
ENDBRANCH   4   5
ENDBRANCH   3   4
ENDBRANCH   2   3
ENDBRANCH   1   2
BRANCH   1   7
ATOM      7  C   UNL     1       7.518  19.352  26.162  1.00  0.00     0.000 C 
BRANCH   7   8
ATOM      8  C   UNL     1       7.204  19.755  24.707  1.00  0.00     0.000 C 
BRANCH   8   9
ATOM      9  C   UNL     1       7.828  18.854  23.623  1.00  0.00     0.004 C 
BRANCH   9  10
ATOM     10  C   UNL     1       7.118  18.936  22.260  1.00  0.00     0.027 C 
BRANCH  10  11
ATOM     11  C   UNL     1       5.667  18.545  22.356  1.00  0.00    -0.035 C 
ATOM     12  C   UNL     1       4.725  19.147  21.625  1.00  0.00     0.004 C 
ENDBRANCH  10  11
ENDBRANCH   9  10
ENDBRANCH   8   9
ENDBRANCH   7   8
ENDBRANCH   1   7
TORSDOF 9
ENDMDL
MODEL 5
REMARK VINA RESULT:    -3.533     14.045     15.221
REMARK INTER + INTRA:          -6.382
REMARK INTER:                  -5.276
REMARK INTRA:                  -1.106
REMARK UNBOUND:                -0.991
REMARK SMILES C=CCCCCCCCCCC
REMARK SMILES IDX 7 1 8 2 9 3 10 4 11 5 12 6 6 7 5 8 4 9 3 10 2 11 1 12
REMARK H PARENT
REMARK Flexibility Score: inf
ROOT
ATOM      1  C   UNL     1      15.539  13.861  36.366  1.00  0.00     0.000 C 
ENDROOT
BRANCH   1   2
ATOM      2  C   UNL     1      14.212  13.166  36.722  1.00  0.00    -0.000 C 
BRANCH   2   3
ATOM      3  C   UNL     1      13.134  14.129  37.266  1.00  0.00    -0.000 C 
BRANCH   3   4
ATOM      4  C   UNL     1      11.717  13.539  37.161  1.00  0.00    -0.000 C 
BRANCH   4   5
ATOM      5  C   UNL     1      10.794  14.017  38.293  1.00  0.00    -0.003 C 
ATOM      6  C   UNL     1      11.558  14.642  39.459  1.00  0.00     0.004 C 
ENDBRANCH   4   5
ENDBRANCH   3   4
ENDBRANCH   2   3
ENDBRANCH   1   2
BRANCH   1   7
ATOM      7  C   UNL     1      15.443  15.388  36.184  1.00  0.00     0.000 C 
BRANCH   7   8
ATOM      8  C   UNL     1      16.124  16.221  37.288  1.00  0.00     0.000 C 
BRANCH   8   9
ATOM      9  C   UNL     1      15.418  17.543  37.648  1.00  0.00     0.004 C 
BRANCH   9  10
ATOM     10  C   UNL     1      13.984  17.361  38.176  1.00  0.00     0.027 C 
BRANCH  10  11
ATOM     11  C   UNL     1      12.967  18.016  37.279  1.00  0.00    -0.035 C 
ATOM     12  C   UNL     1      11.724  17.540  37.158  1.00  0.00     0.004 C 
ENDBRANCH  10  11
ENDBRANCH   9  10
ENDBRANCH   8   9
ENDBRANCH   7   8
ENDBRANCH   1   7
TORSDOF 9
ENDMDL
MODEL 6
REMARK VINA RESULT:    -3.532      1.001      2.946
REMARK INTER + INTRA:          -6.381
REMARK INTER:                  -5.228
REMARK INTRA:                  -1.153
REMARK UNBOUND:                -0.991
REMARK SMILES C=CCCCCCCCCCC
REMARK SMILES IDX 7 1 8 2 9 3 10 4 11 5 12 6 6 7 5 8 4 9 3 10 2 11 1 12
REMARK H PARENT
REMARK Flexibility Score: inf
ROOT
ATOM      1  C   UNL     1       7.343  20.143  26.017  1.00  0.00     0.000 C 
ENDROOT
BRANCH   1   2
ATOM      2  C   UNL     1       7.389  20.165  24.478  1.00  0.00    -0.000 C 
BRANCH   2   3
ATOM      3  C   UNL     1       7.707  18.792  23.847  1.00  0.00    -0.000 C 
BRANCH   3   4
ATOM      4  C   UNL     1       7.134  18.654  22.426  1.00  0.00    -0.000 C 
BRANCH   4   5
ATOM      5  C   UNL     1       5.606  18.484  22.420  1.00  0.00    -0.003 C 
ATOM      6  C   UNL     1       4.895  19.542  21.579  1.00  0.00     0.004 C 
ENDBRANCH   4   5
ENDBRANCH   3   4
ENDBRANCH   2   3
ENDBRANCH   1   2
BRANCH   1   7
ATOM      7  C   UNL     1       8.130  18.993  26.673  1.00  0.00     0.000 C 
BRANCH   7   8
ATOM      8  C   UNL     1       9.532  19.372  27.190  1.00  0.00     0.000 C 
BRANCH   8   9
ATOM      9  C   UNL     1      10.702  19.013  26.254  1.00  0.00     0.004 C 
BRANCH   9  10
ATOM     10  C   UNL     1      11.261  20.211  25.466  1.00  0.00     0.027 C 
BRANCH  10  11
ATOM     11  C   UNL     1      11.180  19.994  23.978  1.00  0.00    -0.035 C 
ATOM     12  C   UNL     1      11.414  18.800  23.426  1.00  0.00     0.004 C 
ENDBRANCH  10  11
ENDBRANCH   9  10
ENDBRANCH   8   9
ENDBRANCH   7   8
ENDBRANCH   1   7
TORSDOF 9
ENDMDL
MODEL 7
REMARK VINA RESULT:    -3.526      1.104      5.212
REMARK INTER + INTRA:          -6.372
REMARK INTER:                  -4.944
REMARK INTRA:                  -1.428
REMARK UNBOUND:                -0.991
REMARK SMILES C=CCCCCCCCCCC
REMARK SMILES IDX 7 1 8 2 9 3 10 4 11 5 12 6 6 7 5 8 4 9 3 10 2 11 1 12
REMARK H PARENT
REMARK Flexibility Score: inf
ROOT
ATOM      1  C   UNL     1       6.881  21.483  24.312  1.00  0.00     0.000 C 
ENDROOT
BRANCH   1   2
ATOM      2  C   UNL     1       7.738  21.148  25.547  1.00  0.00    -0.000 C 
BRANCH   2   3
ATOM      3  C   UNL     1       7.190  19.971  26.382  1.00  0.00    -0.000 C 
BRANCH   3   4
ATOM      4  C   UNL     1       8.280  18.944  26.732  1.00  0.00    -0.000 C 
BRANCH   4   5
ATOM      5  C   UNL     1       9.687  19.563  26.759  1.00  0.00    -0.003 C 
ATOM      6  C   UNL     1      10.747  18.602  27.295  1.00  0.00     0.004 C 
ENDBRANCH   4   5
ENDBRANCH   3   4
ENDBRANCH   2   3
ENDBRANCH   1   2
BRANCH   1   7
ATOM      7  C   UNL     1       5.888  20.383  23.894  1.00  0.00     0.000 C 
BRANCH   7   8
ATOM      8  C   UNL     1       6.314  19.550  22.668  1.00  0.00     0.000 C 
BRANCH   8   9
ATOM      9  C   UNL     1       7.253  18.365  22.968  1.00  0.00     0.004 C 
BRANCH   9  10
ATOM     10  C   UNL     1       8.616  18.455  22.261  1.00  0.00     0.027 C 
BRANCH  10  11
ATOM     11  C   UNL     1       9.591  19.315  23.022  1.00  0.00    -0.035 C 
ATOM     12  C   UNL     1      10.846  18.920  23.256  1.00  0.00     0.004 C 
ENDBRANCH  10  11
ENDBRANCH   9  10
ENDBRANCH   8   9
ENDBRANCH   7   8
ENDBRANCH   1   7
TORSDOF 9
ENDMDL
MODEL 8
REMARK VINA RESULT:    -3.513      1.161      5.158
REMARK INTER + INTRA:          -6.352
REMARK INTER:                  -5.210
REMARK INTRA:                  -1.143
REMARK UNBOUND:                -0.991
REMARK SMILES C=CCCCCCCCCCC
REMARK SMILES IDX 7 1 8 2 9 3 10 4 11 5 12 6 6 7 5 8 4 9 3 10 2 11 1 12
REMARK H PARENT
REMARK Flexibility Score: inf
ROOT
ATOM      1  C   UNL     1       8.225  20.869  25.046  1.00  0.00     0.000 C 
ENDROOT
BRANCH   1   2
ATOM      2  C   UNL     1       7.559  19.578  25.558  1.00  0.00    -0.000 C 
BRANCH   2   3
ATOM      3  C   UNL     1       8.188  19.028  26.856  1.00  0.00    -0.000 C 
BRANCH   3   4
ATOM      4  C   UNL     1       9.531  19.701  27.187  1.00  0.00    -0.000 C 
BRANCH   4   5
ATOM      5  C   UNL     1      10.723  18.740  27.049  1.00  0.00    -0.003 C 
ATOM      6  C   UNL     1      12.048  19.467  26.824  1.00  0.00     0.004 C 
ENDBRANCH   4   5
ENDBRANCH   3   4
ENDBRANCH   2   3
ENDBRANCH   1   2
BRANCH   1   7
ATOM      7  C   UNL     1       9.093  20.695  23.785  1.00  0.00     0.000 C 
BRANCH   7   8
ATOM      8  C   UNL     1       9.301  19.236  23.332  1.00  0.00     0.000 C 
BRANCH   8   9
ATOM      9  C   UNL     1       8.428  18.782  22.145  1.00  0.00     0.004 C 
BRANCH   9  10
ATOM     10  C   UNL     1       7.312  17.796  22.532  1.00  0.00     0.027 C 
BRANCH  10  11
ATOM     11  C   UNL     1       5.949  18.433  22.463  1.00  0.00    -0.035 C 
ATOM     12  C   UNL     1       5.772  19.668  21.984  1.00  0.00     0.004 C 
ENDBRANCH  10  11
ENDBRANCH   9  10
ENDBRANCH   8   9
ENDBRANCH   7   8
ENDBRANCH   1   7
TORSDOF 9
ENDMDL
MODEL 9
REMARK VINA RESULT:    -3.476      1.087      5.409
REMARK INTER + INTRA:          -6.296
REMARK INTER:                  -5.508
REMARK INTRA:                  -0.788
REMARK UNBOUND:                -0.991
REMARK SMILES C=CCCCCCCCCCC
REMARK SMILES IDX 7 1 8 2 9 3 10 4 11 5 12 6 6 7 5 8 4 9 3 10 2 11 1 12
REMARK H PARENT
REMARK Flexibility Score: inf
ROOT
ATOM      1  C   UNL     1      10.666  19.152  23.388  1.00  0.00     0.000 C 
ENDROOT
BRANCH   1   2
ATOM      2  C   UNL     1      10.891  19.680  24.817  1.00  0.00    -0.000 C 
BRANCH   2   3
ATOM      3  C   UNL     1       9.628  19.627  25.703  1.00  0.00    -0.000 C 
BRANCH   3   4
ATOM      4  C   UNL     1       9.878  18.901  27.036  1.00  0.00    -0.000 C 
BRANCH   4   5
ATOM      5  C   UNL     1      11.366  18.873  27.423  1.00  0.00    -0.003 C 
ATOM      6  C   UNL     1      11.749  19.996  28.386  1.00  0.00     0.004 C 
ENDBRANCH   4   5
ENDBRANCH   3   4
ENDBRANCH   2   3
ENDBRANCH   1   2
BRANCH   1   7
ATOM      7  C   UNL     1       9.349  19.604  22.729  1.00  0.00     0.000 C 
BRANCH   7   8
ATOM      8  C   UNL     1       8.501  18.470  22.121  1.00  0.00     0.000 C 
BRANCH   8   9
ATOM      9  C   UNL     1       7.211  18.124  22.890  1.00  0.00     0.004 C 
BRANCH   9  10
ATOM     10  C   UNL     1       6.572  19.326  23.609  1.00  0.00     0.027 C 
BRANCH  10  11
ATOM     11  C   UNL     1       5.384  19.865  22.857  1.00  0.00    -0.035 C 
ATOM     12  C   UNL     1       4.894  19.249  21.777  1.00  0.00     0.004 C 
ENDBRANCH  10  11
ENDBRANCH   9  10
ENDBRANCH   8   9
ENDBRANCH   7   8
ENDBRANCH   1   7
TORSDOF 9
ENDMDL
