MODEL 1
REMARK VINA RESULT:    -4.118      0.000      0.000
REMARK INTER + INTRA:          -7.285
REMARK INTER:                  -6.284
REMARK INTRA:                  -1.001
REMARK UNBOUND:                -1.001
REMARK SMILES CCCCCCCCCCC(=O)[O-]
REMARK SMILES IDX 7 1 8 2 9 3 10 4 11 5 12 6 13 7 6 8 5 9 4 10 3 11 2 12 1 13
REMARK H PARENT
REMARK Flexibility Score: inf
ROOT
ATOM      1  C   UNL     1      -4.038  59.067  45.795  1.00  0.00     0.000 C 
ENDROOT
BRANCH   1   2
ATOM      2  C   UNL     1      -3.564  57.669  45.359  1.00  0.00     0.000 C 
BRANCH   2   3
ATOM      3  C   UNL     1      -3.556  56.661  46.527  1.00  0.00     0.006 C 
BRANCH   3   4
ATOM      4  C   UNL     1      -2.274  56.713  47.374  1.00  0.00     0.053 C 
BRANCH   4   5
ATOM      5  C   UNL     1      -2.529  57.204  48.764  1.00  0.00     0.041 C 
ATOM      6  O   UNL     1      -2.588  58.440  48.999  1.00  0.00    -0.550 OA
ATOM      7  O   UNL     1      -2.674  56.297  49.806  1.00  0.00    -0.550 OA
ENDBRANCH   4   5
ENDBRANCH   3   4
ENDBRANCH   2   3
ENDBRANCH   1   2
BRANCH   1   8
ATOM      8  C   UNL     1      -3.084  60.182  45.338  1.00  0.00     0.000 C 
BRANCH   8   9
ATOM      9  C   UNL     1      -1.737  60.150  46.079  1.00  0.00    -0.000 C 
BRANCH   9  10
ATOM     10  C   UNL     1      -0.603  60.819  45.282  1.00  0.00    -0.000 C 
BRANCH  10  11
ATOM     11  C   UNL     1       0.412  59.845  44.650  1.00  0.00    -0.000 C 
BRANCH  11  12
ATOM     12  C   UNL     1      -0.026  58.370  44.636  1.00  0.00    -0.003 C 
ATOM     13  C   UNL     1       0.205  57.693  43.285  1.00  0.00     0.004 C 
ENDBRANCH  11  12
ENDBRANCH  10  11
ENDBRANCH   9  10
ENDBRANCH   8   9
ENDBRANCH   1   8
TORSDOF 9
ENDMDL
MODEL 2
REMARK VINA RESULT:    -4.104      1.736      2.345
REMARK INTER + INTRA:          -7.264
REMARK INTER:                  -6.270
REMARK INTRA:                  -0.994
REMARK UNBOUND:                -1.001
REMARK SMILES CCCCCCCCCCC(=O)[O-]
REMARK SMILES IDX 7 1 8 2 9 3 10 4 11 5 12 6 13 7 6 8 5 9 4 10 3 11 2 12 1 13
REMARK H PARENT
REMARK Flexibility Score: inf
ROOT
ATOM      1  C   UNL     1      -4.056  59.831  47.476  1.00  0.00     0.000 C 
ENDROOT
BRANCH   1   2
ATOM      2  C   UNL     1      -3.364  59.777  48.850  1.00  0.00     0.000 C 
BRANCH   2   3
ATOM      3  C   UNL     1      -2.188  58.779  48.877  1.00  0.00     0.006 C 
BRANCH   3   4
ATOM      4  C   UNL     1      -2.631  57.309  48.950  1.00  0.00     0.053 C 
BRANCH   4   5
ATOM      5  C   UNL     1      -2.347  56.565  47.684  1.00  0.00     0.041 C 
ATOM      6  O   UNL     1      -1.174  56.195  47.415  1.00  0.00    -0.550 OA
ATOM      7  O   UNL     1      -3.374  56.302  46.786  1.00  0.00    -0.550 OA
ENDBRANCH   4   5
ENDBRANCH   3   4
ENDBRANCH   2   3
ENDBRANCH   1   2
BRANCH   1   8
ATOM      8  C   UNL     1      -3.795  61.154  46.737  1.00  0.00     0.000 C 
BRANCH   8   9
ATOM      9  C   UNL     1      -2.851  60.983  45.534  1.00  0.00    -0.000 C 
BRANCH   9  10
ATOM     10  C   UNL     1      -2.597  59.507  45.182  1.00  0.00    -0.000 C 
BRANCH  10  11
ATOM     11  C   UNL     1      -1.120  59.067  45.240  1.00  0.00    -0.000 C 
BRANCH  11  12
ATOM     12  C   UNL     1      -0.766  57.863  44.349  1.00  0.00    -0.003 C 
ATOM     13  C   UNL     1       0.480  58.100  43.496  1.00  0.00     0.004 C 
ENDBRANCH  11  12
ENDBRANCH  10  11
ENDBRANCH   9  10
ENDBRANCH   8   9
ENDBRANCH   1   8
TORSDOF 9
ENDMDL
MODEL 3
REMARK VINA RESULT:    -4.087      2.959      4.900
REMARK INTER + INTRA:          -7.237
REMARK INTER:                  -6.417
REMARK INTRA:                  -0.820
REMARK UNBOUND:                -1.001
REMARK SMILES CCCCCCCCCCC(=O)[O-]
REMARK SMILES IDX 7 1 8 2 9 3 10 4 11 5 12 6 13 7 6 8 5 9 4 10 3 11 2 12 1 13
REMARK H PARENT
REMARK Flexibility Score: inf
ROOT
ATOM      1  C   UNL     1      -3.428  56.636  46.617  1.00  0.00     0.000 C 
ENDROOT
BRANCH   1   2
ATOM      2  C   UNL     1      -3.018  57.431  45.364  1.00  0.00     0.000 C 
BRANCH   2   3
ATOM      3  C   UNL     1      -1.523  57.812  45.373  1.00  0.00     0.006 C 
BRANCH   3   4
ATOM      4  C   UNL     1      -0.886  57.833  43.974  1.00  0.00     0.053 C 
BRANCH   4   5
ATOM      5  C   UNL     1       0.548  58.256  44.007  1.00  0.00     0.041 C 
ATOM      6  O   UNL     1       0.865  59.385  44.464  1.00  0.00    -0.550 OA
ATOM      7  O   UNL     1       1.533  57.413  43.508  1.00  0.00    -0.550 OA
ENDBRANCH   4   5
ENDBRANCH   3   4
ENDBRANCH   2   3
ENDBRANCH   1   2
BRANCH   1   8
ATOM      8  C   UNL     1      -2.308  56.575  47.669  1.00  0.00     0.000 C 
BRANCH   8   9
ATOM      9  C   UNL     1      -2.665  57.332  48.959  1.00  0.00    -0.000 C 
BRANCH   9  10
ATOM     10  C   UNL     1      -2.161  58.786  48.953  1.00  0.00    -0.000 C 
BRANCH  10  11
ATOM     11  C   UNL     1      -3.267  59.859  48.899  1.00  0.00    -0.000 C 
BRANCH  11  12
ATOM     12  C   UNL     1      -3.865  60.105  47.502  1.00  0.00    -0.003 C 
ATOM     13  C   UNL     1      -3.721  61.554  47.038  1.00  0.00     0.004 C 
ENDBRANCH  11  12
ENDBRANCH  10  11
ENDBRANCH   9  10
ENDBRANCH   8   9
ENDBRANCH   1   8
TORSDOF 9
ENDMDL
MODEL 4
REMARK VINA RESULT:    -4.070      2.761      4.601
REMARK INTER + INTRA:          -7.212
REMARK INTER:                  -6.016
REMARK INTRA:                  -1.196
REMARK UNBOUND:                -1.001
REMARK SMILES CCCCCCCCCCC(=O)[O-]
REMARK SMILES IDX 7 1 8 2 9 3 10 4 11 5 12 6 13 7 6 8 5 9 4 10 3 11 2 12 1 13
REMARK H PARENT
REMARK Flexibility Score: inf
ROOT
ATOM      1  C   UNL     1      -4.125  60.214  46.394  1.00  0.00     0.000 C 
ENDROOT
BRANCH   1   2
ATOM      2  C   UNL     1      -3.226  60.303  45.147  1.00  0.00     0.000 C 
BRANCH   2   3
ATOM      3  C   UNL     1      -1.726  60.344  45.506  1.00  0.00     0.006 C 
BRANCH   3   4
ATOM      4  C   UNL     1      -0.979  59.042  45.171  1.00  0.00     0.053 C 
BRANCH   4   5
ATOM      5  C   UNL     1       0.397  59.296  44.644  1.00  0.00     0.041 C 
ATOM      6  O   UNL     1       0.933  58.477  43.851  1.00  0.00    -0.550 OA
ATOM      7  O   UNL     1       1.101  60.423  45.049  1.00  0.00    -0.550 OA
ENDBRANCH   4   5
ENDBRANCH   3   4
ENDBRANCH   2   3
ENDBRANCH   1   2
BRANCH   1   8
ATOM      8  C   UNL     1      -3.416  60.702  47.668  1.00  0.00     0.000 C 
BRANCH   8   9
ATOM      9  C   UNL     1      -3.510  59.690  48.822  1.00  0.00    -0.000 C 
BRANCH   9  10
ATOM     10  C   UNL     1      -2.243  58.827  48.961  1.00  0.00    -0.000 C 
BRANCH  10  11
ATOM     11  C   UNL     1      -2.488  57.305  48.947  1.00  0.00    -0.000 C 
BRANCH  11  12
ATOM     12  C   UNL     1      -2.242  56.620  47.590  1.00  0.00    -0.003 C 
ATOM     13  C   UNL     1      -3.500  56.542  46.726  1.00  0.00     0.004 C 
ENDBRANCH  11  12
ENDBRANCH  10  11
ENDBRANCH   9  10
ENDBRANCH   8   9
ENDBRANCH   1   8
TORSDOF 9
ENDMDL
MODEL 5
REMARK VINA RESULT:    -3.983      3.416      5.665
REMARK INTER + INTRA:          -7.079
REMARK INTER:                  -6.189
REMARK INTRA:                  -0.890
REMARK UNBOUND:                -1.001
REMARK SMILES CCCCCCCCCCC(=O)[O-]
REMARK SMILES IDX 7 1 8 2 9 3 10 4 11 5 12 6 13 7 6 8 5 9 4 10 3 11 2 12 1 13
REMARK H PARENT
REMARK Flexibility Score: inf
ROOT
ATOM      1  C   UNL     1      -0.778  59.270  45.100  1.00  0.00     0.000 C 
ENDROOT
BRANCH   1   2
ATOM      2  C   UNL     1      -0.293  57.899  44.592  1.00  0.00     0.000 C 
BRANCH   2   3
ATOM      3  C   UNL     1       0.411  57.996  43.223  1.00  0.00     0.006 C 
BRANCH   3   4
ATOM      4  C   UNL     1       1.786  57.308  43.190  1.00  0.00     0.053 C 
BRANCH   4   5
ATOM      5  C   UNL     1       2.913  58.279  43.353  1.00  0.00     0.041 C 
ATOM      6  O   UNL     1       4.104  57.873  43.357  1.00  0.00    -0.550 OA
ATOM      7  O   UNL     1       2.646  59.631  43.527  1.00  0.00    -0.550 OA
ENDBRANCH   4   5
ENDBRANCH   3   4
ENDBRANCH   2   3
ENDBRANCH   1   2
BRANCH   1   8
ATOM      8  C   UNL     1      -2.302  59.320  45.295  1.00  0.00     0.000 C 
BRANCH   8   9
ATOM      9  C   UNL     1      -2.988  57.990  44.938  1.00  0.00    -0.000 C 
BRANCH   9  10
ATOM     10  C   UNL     1      -3.782  57.396  46.115  1.00  0.00    -0.000 C 
BRANCH  10  11
ATOM     11  C   UNL     1      -3.117  56.189  46.806  1.00  0.00    -0.000 C 
BRANCH  11  12
ATOM     12  C   UNL     1      -1.974  56.543  47.774  1.00  0.00    -0.003 C 
ATOM     13  C   UNL     1      -2.376  57.589  48.814  1.00  0.00     0.004 C 
ENDBRANCH  11  12
ENDBRANCH  10  11
ENDBRANCH   9  10
ENDBRANCH   8   9
ENDBRANCH   1   8
TORSDOF 9
ENDMDL
MODEL 6
REMARK VINA RESULT:    -3.954     14.932     16.319
REMARK INTER + INTRA:          -7.035
REMARK INTER:                  -5.882
REMARK INTRA:                  -1.153
REMARK UNBOUND:                -1.001
REMARK SMILES CCCCCCCCCCC(=O)[O-]
REMARK SMILES IDX 7 1 8 2 9 3 10 4 11 5 12 6 13 7 6 8 5 9 4 10 3 11 2 12 1 13
REMARK H PARENT
REMARK Flexibility Score: inf
ROOT
ATOM      1  C   UNL     1       5.772  61.803  60.065  1.00  0.00     0.000 C 
ENDROOT
BRANCH   1   2
ATOM      2  C   UNL     1       7.311  61.822  60.115  1.00  0.00     0.000 C 
BRANCH   2   3
ATOM      3  C   UNL     1       7.933  62.423  58.837  1.00  0.00     0.006 C 
BRANCH   3   4
ATOM      4  C   UNL     1       9.457  62.240  58.752  1.00  0.00     0.053 C 
BRANCH   4   5
ATOM      5  C   UNL     1      10.166  62.804  59.941  1.00  0.00     0.041 C 
ATOM      6  O   UNL     1      10.213  64.050  60.119  1.00  0.00    -0.550 OA
ATOM      7  O   UNL     1      10.800  61.956  60.841  1.00  0.00    -0.550 OA
ENDBRANCH   4   5
ENDBRANCH   3   4
ENDBRANCH   2   3
ENDBRANCH   1   2
BRANCH   1   8
ATOM      8  C   UNL     1       5.218  62.391  58.758  1.00  0.00     0.000 C 
BRANCH   8   9
ATOM      9  C   UNL     1       4.476  61.346  57.907  1.00  0.00    -0.000 C 
BRANCH   9  10
ATOM     10  C   UNL     1       5.375  60.706  56.835  1.00  0.00    -0.000 C 
BRANCH  10  11
ATOM     11  C   UNL     1       6.022  59.366  57.241  1.00  0.00    -0.000 C 
BRANCH  11  12
ATOM     12  C   UNL     1       7.440  59.137  56.691  1.00  0.00    -0.003 C 
ATOM     13  C   UNL     1       7.891  60.235  55.728  1.00  0.00     0.004 C 
ENDBRANCH  11  12
ENDBRANCH  10  11
ENDBRANCH   9  10
ENDBRANCH   8   9
ENDBRANCH   1   8
TORSDOF 9
ENDMDL
MODEL 7
REMARK VINA RESULT:    -3.949      1.215      3.083
REMARK INTER + INTRA:          -7.027
REMARK INTER:                  -6.075
REMARK INTRA:                  -0.953
REMARK UNBOUND:                -1.001
REMARK SMILES CCCCCCCCCCC(=O)[O-]
REMARK SMILES IDX 7 1 8 2 9 3 10 4 11 5 12 6 13 7 6 8 5 9 4 10 3 11 2 12 1 13
REMARK H PARENT
REMARK Flexibility Score: inf
ROOT
ATOM      1  C   UNL     1      -1.212  57.821  45.172  1.00  0.00     0.000 C 
ENDROOT
BRANCH   1   2
ATOM      2  C   UNL     1      -2.748  57.880  45.086  1.00  0.00     0.000 C 
BRANCH   2   3
ATOM      3  C   UNL     1      -3.430  57.156  46.265  1.00  0.00     0.006 C 
BRANCH   3   4
ATOM      4  C   UNL     1      -2.440  56.613  47.308  1.00  0.00     0.053 C 
BRANCH   4   5
ATOM      5  C   UNL     1      -2.611  57.258  48.647  1.00  0.00     0.041 C 
ATOM      6  O   UNL     1      -2.680  56.551  49.686  1.00  0.00    -0.550 OA
ATOM      7  O   UNL     1      -2.723  58.639  48.744  1.00  0.00    -0.550 OA
ENDBRANCH   4   5
ENDBRANCH   3   4
ENDBRANCH   2   3
ENDBRANCH   1   2
BRANCH   1   8
ATOM      8  C   UNL     1      -0.550  59.160  44.807  1.00  0.00     0.000 C 
BRANCH   8   9
ATOM      9  C   UNL     1      -0.949  60.297  45.763  1.00  0.00    -0.000 C 
BRANCH   9  10
ATOM     10  C   UNL     1      -1.440  61.553  45.021  1.00  0.00    -0.000 C 
BRANCH  10  11
ATOM     11  C   UNL     1      -2.954  61.587  44.730  1.00  0.00    -0.000 C 
BRANCH  11  12
ATOM     12  C   UNL     1      -3.855  61.306  45.945  1.00  0.00    -0.003 C 
ATOM     13  C   UNL     1      -3.857  62.447  46.963  1.00  0.00     0.004 C 
ENDBRANCH  11  12
ENDBRANCH  10  11
ENDBRANCH   9  10
ENDBRANCH   8   9
ENDBRANCH   1   8
TORSDOF 9
ENDMDL
MODEL 8
REMARK VINA RESULT:    -3.901      2.873      5.200
REMARK INTER + INTRA:          -6.954
REMARK INTER:                  -5.843
REMARK INTRA:                  -1.112
REMARK UNBOUND:                -1.001
REMARK SMILES CCCCCCCCCCC(=O)[O-]
REMARK SMILES IDX 7 1 8 2 9 3 10 4 11 5 12 6 13 7 6 8 5 9 4 10 3 11 2 12 1 13
REMARK H PARENT
REMARK Flexibility Score: inf
ROOT
ATOM      1  C   UNL     1      -1.791  58.187  45.298  1.00  0.00     0.000 C 
ENDROOT
BRANCH   1   2
ATOM      2  C   UNL     1      -1.693  59.723  45.292  1.00  0.00     0.000 C 
BRANCH   2   3
ATOM      3  C   UNL     1      -3.070  60.400  45.453  1.00  0.00     0.006 C 
BRANCH   3   4
ATOM      4  C   UNL     1      -3.147  61.794  44.807  1.00  0.00     0.053 C 
BRANCH   4   5
ATOM      5  C   UNL     1      -2.718  62.880  45.742  1.00  0.00     0.041 C 
ATOM      6  O   UNL     1      -1.649  63.511  45.532  1.00  0.00    -0.550 OA
ATOM      7  O   UNL     1      -3.485  63.177  46.862  1.00  0.00    -0.550 OA
ENDBRANCH   4   5
ENDBRANCH   3   4
ENDBRANCH   2   3
ENDBRANCH   1   2
BRANCH   1   8
ATOM      8  C   UNL     1      -3.245  57.689  45.338  1.00  0.00     0.000 C 
BRANCH   8   9
ATOM      9  C   UNL     1      -3.504  56.711  46.496  1.00  0.00    -0.000 C 
BRANCH   9  10
ATOM     10  C   UNL     1      -2.334  56.648  47.494  1.00  0.00    -0.000 C 
BRANCH  10  11
ATOM     11  C   UNL     1      -2.593  57.344  48.846  1.00  0.00    -0.000 C 
BRANCH  11  12
ATOM     12  C   UNL     1      -2.177  58.824  48.904  1.00  0.00    -0.003 C 
ATOM     13  C   UNL     1      -3.370  59.774  49.014  1.00  0.00     0.004 C 
ENDBRANCH  11  12
ENDBRANCH  10  11
ENDBRANCH   9  10
ENDBRANCH   8   9
ENDBRANCH   1   8
TORSDOF 9
ENDMDL
MODEL 9
REMARK VINA RESULT:    -3.899      1.693      3.400
REMARK INTER + INTRA:          -6.951
REMARK INTER:                  -6.146
REMARK INTRA:                  -0.805
REMARK UNBOUND:                -1.001
REMARK SMILES CCCCCCCCCCC(=O)[O-]
REMARK SMILES IDX 7 1 8 2 9 3 10 4 11 5 12 6 13 7 6 8 5 9 4 10 3 11 2 12 1 13
REMARK H PARENT
REMARK Flexibility Score: inf
ROOT
ATOM      1  C   UNL     1      -1.963  58.325  45.235  1.00  0.00     0.000 C 
ENDROOT
BRANCH   1   2
ATOM      2  C   UNL     1      -3.369  57.705  45.133  1.00  0.00     0.000 C 
BRANCH   2   3
ATOM      3  C   UNL     1      -3.765  56.933  46.409  1.00  0.00     0.006 C 
BRANCH   3   4
ATOM      4  C   UNL     1      -2.562  56.516  47.271  1.00  0.00     0.053 C 
BRANCH   4   5
ATOM      5  C   UNL     1      -2.613  57.108  48.644  1.00  0.00     0.041 C 
ATOM      6  O   UNL     1      -2.610  56.361  49.657  1.00  0.00    -0.550 OA
ATOM      7  O   UNL     1      -2.692  58.486  48.805  1.00  0.00    -0.550 OA
ENDBRANCH   4   5
ENDBRANCH   3   4
ENDBRANCH   2   3
ENDBRANCH   1   2
BRANCH   1   8
ATOM      8  C   UNL     1      -2.003  59.818  45.600  1.00  0.00     0.000 C 
BRANCH   8   9
ATOM      9  C   UNL     1      -3.388  60.446  45.370  1.00  0.00    -0.000 C 
BRANCH   9  10
ATOM     10  C   UNL     1      -4.019  60.984  46.666  1.00  0.00    -0.000 C 
BRANCH  10  11
ATOM     11  C   UNL     1      -3.776  62.482  46.937  1.00  0.00    -0.000 C 
BRANCH  11  12
ATOM     12  C   UNL     1      -3.537  63.339  45.681  1.00  0.00    -0.003 C 
ATOM     13  C   UNL     1      -2.093  63.824  45.557  1.00  0.00     0.004 C 
ENDBRANCH  11  12
ENDBRANCH  10  11
ENDBRANCH   9  10
ENDBRANCH   8   9
ENDBRANCH   1   8
TORSDOF 9
ENDMDL
