MODEL 1
REMARK VINA RESULT:    -3.320      0.000      0.000
REMARK INTER + INTRA:          -5.968
REMARK INTER:                  -5.067
REMARK INTRA:                  -0.901
REMARK UNBOUND:                -0.901
REMARK SMILES O=C([O-])CCCCCCCCC(=O)[O-]
REMARK SMILES IDX 7 1 6 2 5 3 4 4 2 5 1 6 3 7 8 8 9 9 10 10 11 11 12 12 13 13
REMARK SMILES IDX 14 14
REMARK H PARENT
REMARK Flexibility Score: inf
ROOT
ATOM      1  C   UNL     1       7.307 -35.007  14.141  1.00  0.00     0.000 C 
ENDROOT
BRANCH   1   2
ATOM      2  C   UNL     1       6.863 -33.726  13.415  1.00  0.00     0.000 C 
BRANCH   2   3
ATOM      3  C   UNL     1       8.045 -32.806  13.072  1.00  0.00     0.006 C 
BRANCH   3   4
ATOM      4  C   UNL     1       9.127 -32.878  14.153  1.00  0.00     0.053 C 
BRANCH   4   5
ATOM      5  C   UNL     1      10.478 -33.043  13.533  1.00  0.00     0.041 C 
ATOM      6  O   UNL     1      11.334 -32.124  13.625  1.00  0.00    -0.550 OA
ATOM      7  O   UNL     1      10.810 -34.231  12.894  1.00  0.00    -0.550 OA
ENDBRANCH   4   5
ENDBRANCH   3   4
ENDBRANCH   2   3
ENDBRANCH   1   2
BRANCH   1   8
ATOM      8  C   UNL     1       6.119 -35.806  14.706  1.00  0.00     0.000 C 
BRANCH   8   9
ATOM      9  C   UNL     1       6.223 -35.996  16.235  1.00  0.00     0.000 C 
BRANCH   9  10
ATOM     10  C   UNL     1       7.558 -35.511  16.826  1.00  0.00     0.006 C 
BRANCH  10  11
ATOM     11  C   UNL     1       7.375 -34.509  17.972  1.00  0.00     0.053 C 
BRANCH  11  12
ATOM     12  C   UNL     1       7.586 -33.111  17.483  1.00  0.00     0.041 C 
ATOM     13  O   UNL     1       8.614 -32.468  17.827  1.00  0.00    -0.550 OA
ATOM     14  O   UNL     1       6.625 -32.499  16.688  1.00  0.00    -0.550 OA
ENDBRANCH  11  12
ENDBRANCH  10  11
ENDBRANCH   9  10
ENDBRANCH   8   9
ENDBRANCH   1   8
TORSDOF 9
ENDMDL
MODEL 2
REMARK VINA RESULT:    -3.223      1.508      4.422
REMARK INTER + INTRA:          -5.820
REMARK INTER:                  -4.949
REMARK INTRA:                  -0.871
REMARK UNBOUND:                -0.901
REMARK SMILES O=C([O-])CCCCCCCCC(=O)[O-]
REMARK SMILES IDX 7 1 6 2 5 3 4 4 2 5 1 6 3 7 8 8 9 9 10 10 11 11 12 12 13 13
REMARK SMILES IDX 14 14
REMARK H PARENT
REMARK Flexibility Score: inf
ROOT
ATOM      1  C   UNL     1       7.970 -34.968  16.507  1.00  0.00     0.000 C 
ENDROOT
BRANCH   1   2
ATOM      2  C   UNL     1       6.992 -34.162  17.377  1.00  0.00     0.000 C 
BRANCH   2   3
ATOM      3  C   UNL     1       7.672 -32.978  18.084  1.00  0.00     0.006 C 
BRANCH   3   4
ATOM      4  C   UNL     1       8.873 -32.477  17.278  1.00  0.00     0.053 C 
BRANCH   4   5
ATOM      5  C   UNL     1       9.681 -31.512  18.087  1.00  0.00     0.041 C 
ATOM      6  O   UNL     1      10.437 -30.684  17.515  1.00  0.00    -0.550 OA
ATOM      7  O   UNL     1       9.562 -31.494  19.470  1.00  0.00    -0.550 OA
ENDBRANCH   4   5
ENDBRANCH   3   4
ENDBRANCH   2   3
ENDBRANCH   1   2
BRANCH   1   8
ATOM      8  C   UNL     1       7.320 -35.479  15.208  1.00  0.00     0.000 C 
BRANCH   8   9
ATOM      9  C   UNL     1       6.820 -34.323  14.316  1.00  0.00     0.000 C 
BRANCH   9  10
ATOM     10  C   UNL     1       7.786 -33.963  13.175  1.00  0.00     0.006 C 
BRANCH  10  11
ATOM     11  C   UNL     1       8.668 -32.752  13.498  1.00  0.00     0.053 C 
BRANCH  11  12
ATOM     12  C   UNL     1      10.096 -33.172  13.653  1.00  0.00     0.041 C 
ATOM     13  O   UNL     1      10.400 -34.394  13.659  1.00  0.00    -0.550 OA
ATOM     14  O   UNL     1      11.086 -32.215  13.840  1.00  0.00    -0.550 OA
ENDBRANCH  11  12
ENDBRANCH  10  11
ENDBRANCH   9  10
ENDBRANCH   8   9
ENDBRANCH   1   8
TORSDOF 9
ENDMDL
MODEL 3
REMARK VINA RESULT:    -3.196      1.466      4.288
REMARK INTER + INTRA:          -5.778
REMARK INTER:                  -4.823
REMARK INTRA:                  -0.955
REMARK UNBOUND:                -0.901
REMARK SMILES O=C([O-])CCCCCCCCC(=O)[O-]
REMARK SMILES IDX 7 1 6 2 5 3 4 4 2 5 1 6 3 7 8 8 9 9 10 10 11 11 12 12 13 13
REMARK SMILES IDX 14 14
REMARK H PARENT
REMARK Flexibility Score: inf
ROOT
ATOM      1  C   UNL     1       6.557 -35.329  16.123  1.00  0.00     0.000 C 
ENDROOT
BRANCH   1   2
ATOM      2  C   UNL     1       6.072 -34.018  15.483  1.00  0.00     0.000 C 
BRANCH   2   3
ATOM      3  C   UNL     1       6.493 -32.779  16.289  1.00  0.00     0.006 C 
BRANCH   3   4
ATOM      4  C   UNL     1       7.969 -32.862  16.688  1.00  0.00     0.053 C 
BRANCH   4   5
ATOM      5  C   UNL     1       8.129 -32.629  18.157  1.00  0.00     0.041 C 
ATOM      6  O   UNL     1       7.404 -33.249  18.978  1.00  0.00    -0.550 OA
ATOM      7  O   UNL     1       9.111 -31.764  18.621  1.00  0.00    -0.550 OA
ENDBRANCH   4   5
ENDBRANCH   3   4
ENDBRANCH   2   3
ENDBRANCH   1   2
BRANCH   1   8
ATOM      8  C   UNL     1       7.286 -36.241  15.119  1.00  0.00     0.000 C 
BRANCH   8   9
ATOM      9  C   UNL     1       7.373 -35.605  13.715  1.00  0.00     0.000 C 
BRANCH   9  10
ATOM     10  C   UNL     1       8.807 -35.522  13.164  1.00  0.00     0.006 C 
BRANCH  10  11
ATOM     11  C   UNL     1       9.753 -34.737  14.079  1.00  0.00     0.053 C 
BRANCH  11  12
ATOM     12  C   UNL     1      10.049 -33.391  13.495  1.00  0.00     0.041 C 
ATOM     13  O   UNL     1      11.232 -33.075  13.200  1.00  0.00    -0.550 OA
ATOM     14  O   UNL     1       9.025 -32.468  13.321  1.00  0.00    -0.550 OA
ENDBRANCH  11  12
ENDBRANCH  10  11
ENDBRANCH   9  10
ENDBRANCH   8   9
ENDBRANCH   1   8
TORSDOF 9
ENDMDL
MODEL 4
REMARK VINA RESULT:    -3.143      0.739      4.537
REMARK INTER + INTRA:          -5.698
REMARK INTER:                  -4.912
REMARK INTRA:                  -0.786
REMARK UNBOUND:                -0.901
REMARK SMILES O=C([O-])CCCCCCCCC(=O)[O-]
REMARK SMILES IDX 7 1 6 2 5 3 4 4 2 5 1 6 3 7 8 8 9 9 10 10 11 11 12 12 13 13
REMARK SMILES IDX 14 14
REMARK H PARENT
REMARK Flexibility Score: inf
ROOT
ATOM      1  C   UNL     1       6.756 -35.595  14.771  1.00  0.00     0.000 C 
ENDROOT
BRANCH   1   2
ATOM      2  C   UNL     1       6.295 -35.952  16.194  1.00  0.00     0.000 C 
BRANCH   2   3
ATOM      3  C   UNL     1       7.367 -35.652  17.253  1.00  0.00     0.006 C 
BRANCH   3   4
ATOM      4  C   UNL     1       8.167 -34.400  16.882  1.00  0.00     0.053 C 
BRANCH   4   5
ATOM      5  C   UNL     1       7.508 -33.175  17.433  1.00  0.00     0.041 C 
ATOM      6  O   UNL     1       7.786 -32.774  18.593  1.00  0.00    -0.550 OA
ATOM      7  O   UNL     1       6.623 -32.449  16.647  1.00  0.00    -0.550 OA
ENDBRANCH   4   5
ENDBRANCH   3   4
ENDBRANCH   2   3
ENDBRANCH   1   2
BRANCH   1   8
ATOM      8  C   UNL     1       5.875 -34.514  14.119  1.00  0.00     0.000 C 
BRANCH   8   9
ATOM      9  C   UNL     1       6.659 -33.670  13.091  1.00  0.00     0.000 C 
BRANCH   9  10
ATOM     10  C   UNL     1       8.171 -33.951  13.089  1.00  0.00     0.006 C 
BRANCH  10  11
ATOM     11  C   UNL     1       8.994 -32.796  13.669  1.00  0.00     0.053 C 
BRANCH  11  12
ATOM     12  C   UNL     1      10.458 -33.074  13.526  1.00  0.00     0.041 C 
ATOM     13  O   UNL     1      11.293 -32.136  13.626  1.00  0.00    -0.550 OA
ATOM     14  O   UNL     1      10.897 -34.358  13.231  1.00  0.00    -0.550 OA
ENDBRANCH  11  12
ENDBRANCH  10  11
ENDBRANCH   9  10
ENDBRANCH   8   9
ENDBRANCH   1   8
TORSDOF 9
ENDMDL
MODEL 5
REMARK VINA RESULT:    -3.128      1.618      2.179
REMARK INTER + INTRA:          -5.674
REMARK INTER:                  -4.959
REMARK INTRA:                  -0.715
REMARK UNBOUND:                -0.901
REMARK SMILES O=C([O-])CCCCCCCCC(=O)[O-]
REMARK SMILES IDX 7 1 6 2 5 3 4 4 2 5 1 6 3 7 8 8 9 9 10 10 11 11 12 12 13 13
REMARK SMILES IDX 14 14
REMARK H PARENT
REMARK Flexibility Score: inf
ROOT
ATOM      1  C   UNL     1       7.360 -35.849  15.369  1.00  0.00     0.000 C 
ENDROOT
BRANCH   1   2
ATOM      2  C   UNL     1       7.185 -35.344  13.927  1.00  0.00     0.000 C 
BRANCH   2   3
ATOM      3  C   UNL     1       8.505 -35.342  13.141  1.00  0.00     0.006 C 
BRANCH   3   4
ATOM      4  C   UNL     1       9.647 -34.778  13.990  1.00  0.00     0.053 C 
BRANCH   4   5
ATOM      5  C   UNL     1       9.964 -33.375  13.577  1.00  0.00     0.041 C 
ATOM      6  O   UNL     1       9.064 -32.494  13.587  1.00  0.00    -0.550 OA
ATOM      7  O   UNL     1      11.262 -33.029  13.228  1.00  0.00    -0.550 OA
ENDBRANCH   4   5
ENDBRANCH   3   4
ENDBRANCH   2   3
ENDBRANCH   1   2
BRANCH   1   8
ATOM      8  C   UNL     1       6.408 -35.153  16.358  1.00  0.00     0.000 C 
BRANCH   8   9
ATOM      9  C   UNL     1       6.634 -33.627  16.403  1.00  0.00     0.000 C 
BRANCH   9  10
ATOM     10  C   UNL     1       8.028 -33.226  16.915  1.00  0.00     0.006 C 
BRANCH  10  11
ATOM     11  C   UNL     1       7.983 -32.497  18.262  1.00  0.00     0.053 C 
BRANCH  11  12
ATOM     12  C   UNL     1       9.243 -31.720  18.479  1.00  0.00     0.041 C 
ATOM     13  O   UNL     1       9.624 -31.445  19.648  1.00  0.00    -0.550 OA
ATOM     14  O   UNL     1       9.972 -31.257  17.391  1.00  0.00    -0.550 OA
ENDBRANCH  11  12
ENDBRANCH  10  11
ENDBRANCH   9  10
ENDBRANCH   8   9
ENDBRANCH   1   8
TORSDOF 9
ENDMDL
MODEL 6
REMARK VINA RESULT:    -3.119      1.526      2.059
REMARK INTER + INTRA:          -5.661
REMARK INTER:                  -4.616
REMARK INTRA:                  -1.045
REMARK UNBOUND:                -0.901
REMARK SMILES O=C([O-])CCCCCCCCC(=O)[O-]
REMARK SMILES IDX 7 1 6 2 5 3 4 4 2 5 1 6 3 7 8 8 9 9 10 10 11 11 12 12 13 13
REMARK SMILES IDX 14 14
REMARK H PARENT
REMARK Flexibility Score: inf
ROOT
ATOM      1  C   UNL     1       6.636 -36.445  13.870  1.00  0.00     0.000 C 
ENDROOT
BRANCH   1   2
ATOM      2  C   UNL     1       8.108 -36.833  13.651  1.00  0.00     0.000 C 
BRANCH   2   3
ATOM      3  C   UNL     1       8.969 -35.640  13.208  1.00  0.00     0.006 C 
BRANCH   3   4
ATOM      4  C   UNL     1       9.480 -34.853  14.418  1.00  0.00     0.053 C 
BRANCH   4   5
ATOM      5  C   UNL     1       9.065 -33.419  14.325  1.00  0.00     0.041 C 
ATOM      6  O   UNL     1       9.733 -32.527  14.910  1.00  0.00    -0.550 OA
ATOM      7  O   UNL     1       7.968 -33.062  13.552  1.00  0.00    -0.550 OA
ENDBRANCH   4   5
ENDBRANCH   3   4
ENDBRANCH   2   3
ENDBRANCH   1   2
BRANCH   1   8
ATOM      8  C   UNL     1       5.966 -37.274  14.981  1.00  0.00     0.000 C 
BRANCH   8   9
ATOM      9  C   UNL     1       6.291 -36.727  16.388  1.00  0.00     0.000 C 
BRANCH   9  10
ATOM     10  C   UNL     1       6.295 -35.191  16.465  1.00  0.00     0.006 C 
BRANCH  10  11
ATOM     11  C   UNL     1       7.342 -34.645  17.443  1.00  0.00     0.053 C 
BRANCH  11  12
ATOM     12  C   UNL     1       7.324 -33.149  17.445  1.00  0.00     0.041 C 
ATOM     13  O   UNL     1       6.578 -32.523  16.646  1.00  0.00    -0.550 OA
ATOM     14  O   UNL     1       8.168 -32.444  18.295  1.00  0.00    -0.550 OA
ENDBRANCH  11  12
ENDBRANCH  10  11
ENDBRANCH   9  10
ENDBRANCH   8   9
ENDBRANCH   1   8
TORSDOF 9
ENDMDL
MODEL 7
REMARK VINA RESULT:    -2.977      2.485      4.160
REMARK INTER + INTRA:          -5.445
REMARK INTER:                  -4.627
REMARK INTRA:                  -0.818
REMARK UNBOUND:                -0.901
REMARK SMILES O=C([O-])CCCCCCCCC(=O)[O-]
REMARK SMILES IDX 7 1 6 2 5 3 4 4 2 5 1 6 3 7 8 8 9 9 10 10 11 11 12 12 13 13
REMARK SMILES IDX 14 14
REMARK H PARENT
REMARK Flexibility Score: inf
ROOT
ATOM      1  C   UNL     1       9.753 -34.058  13.748  1.00  0.00     0.000 C 
ENDROOT
BRANCH   1   2
ATOM      2  C   UNL     1       8.867 -32.874  14.170  1.00  0.00     0.000 C 
BRANCH   2   3
ATOM      3  C   UNL     1       9.087 -32.468  15.635  1.00  0.00     0.006 C 
BRANCH   3   4
ATOM      4  C   UNL     1       7.829 -32.725  16.470  1.00  0.00     0.053 C 
BRANCH   4   5
ATOM      5  C   UNL     1       8.130 -32.586  17.928  1.00  0.00     0.041 C 
ATOM      6  O   UNL     1       7.404 -33.159  18.782  1.00  0.00    -0.550 OA
ATOM      7  O   UNL     1       9.241 -31.863  18.343  1.00  0.00    -0.550 OA
ENDBRANCH   4   5
ENDBRANCH   3   4
ENDBRANCH   2   3
ENDBRANCH   1   2
BRANCH   1   8
ATOM      8  C   UNL     1       8.987 -35.393  13.735  1.00  0.00     0.000 C 
BRANCH   8   9
ATOM      9  C   UNL     1       7.576 -35.246  13.125  1.00  0.00     0.000 C 
BRANCH   9  10
ATOM     10  C   UNL     1       6.523 -36.153  13.784  1.00  0.00     0.006 C 
BRANCH  10  11
ATOM     11  C   UNL     1       6.063 -35.637  15.152  1.00  0.00     0.053 C 
BRANCH  11  12
ATOM     12  C   UNL     1       6.464 -36.591  16.233  1.00  0.00     0.041 C 
ATOM     13  O   UNL     1       6.175 -37.813  16.137  1.00  0.00    -0.550 OA
ATOM     14  O   UNL     1       7.113 -36.124  17.369  1.00  0.00    -0.550 OA
ENDBRANCH  11  12
ENDBRANCH  10  11
ENDBRANCH   9  10
ENDBRANCH   8   9
ENDBRANCH   1   8
TORSDOF 9
ENDMDL
MODEL 8
REMARK VINA RESULT:    -2.940      2.516      4.126
REMARK INTER + INTRA:          -5.387
REMARK INTER:                  -4.583
REMARK INTRA:                  -0.804
REMARK UNBOUND:                -0.901
REMARK SMILES O=C([O-])CCCCCCCCC(=O)[O-]
REMARK SMILES IDX 7 1 6 2 5 3 4 4 2 5 1 6 3 7 8 8 9 9 10 10 11 11 12 12 13 13
REMARK SMILES IDX 14 14
REMARK H PARENT
REMARK Flexibility Score: inf
ROOT
ATOM      1  C   UNL     1       9.255 -35.274  14.184  1.00  0.00     0.000 C 
ENDROOT
BRANCH   1   2
ATOM      2  C   UNL     1       8.317 -36.477  13.991  1.00  0.00     0.000 C 
BRANCH   2   3
ATOM      3  C   UNL     1       6.880 -36.053  13.649  1.00  0.00     0.006 C 
BRANCH   3   4
ATOM      4  C   UNL     1       6.126 -35.608  14.905  1.00  0.00     0.053 C 
BRANCH   4   5
ATOM      5  C   UNL     1       6.309 -36.604  16.006  1.00  0.00     0.041 C 
ATOM      6  O   UNL     1       5.875 -37.778  15.876  1.00  0.00    -0.550 OA
ATOM      7  O   UNL     1       7.000 -36.249  17.157  1.00  0.00    -0.550 OA
ENDBRANCH   4   5
ENDBRANCH   3   4
ENDBRANCH   2   3
ENDBRANCH   1   2
BRANCH   1   8
ATOM      8  C   UNL     1       8.900 -34.095  13.259  1.00  0.00     0.000 C 
BRANCH   8   9
ATOM      9  C   UNL     1       8.485 -32.839  14.055  1.00  0.00     0.000 C 
BRANCH   9  10
ATOM     10  C   UNL     1       8.839 -32.913  15.550  1.00  0.00     0.006 C 
BRANCH  10  11
ATOM     11  C   UNL     1       7.621 -32.729  16.462  1.00  0.00     0.053 C 
BRANCH  11  12
ATOM     12  C   UNL     1       8.048 -32.639  17.894  1.00  0.00     0.041 C 
ATOM     13  O   UNL     1       9.051 -31.948  18.213  1.00  0.00    -0.550 OA
ATOM     14  O   UNL     1       7.370 -33.359  18.869  1.00  0.00    -0.550 OA
ENDBRANCH  11  12
ENDBRANCH  10  11
ENDBRANCH   9  10
ENDBRANCH   8   9
ENDBRANCH   1   8
TORSDOF 9
ENDMDL
MODEL 9
REMARK VINA RESULT:    -2.622      1.826      5.114
REMARK INTER + INTRA:          -4.903
REMARK INTER:                  -4.271
REMARK INTRA:                  -0.631
REMARK UNBOUND:                -0.901
REMARK SMILES O=C([O-])CCCCCCCCC(=O)[O-]
REMARK SMILES IDX 7 1 6 2 5 3 4 4 2 5 1 6 3 7 8 8 9 9 10 10 11 11 12 12 13 13
REMARK SMILES IDX 14 14
REMARK H PARENT
REMARK Flexibility Score: inf
ROOT
ATOM      1  C   UNL     1       8.081 -33.294  17.645  1.00  0.00     0.000 C 
ENDROOT
BRANCH   1   2
ATOM      2  C   UNL     1       7.063 -34.411  17.926  1.00  0.00     0.000 C 
BRANCH   2   3
ATOM      3  C   UNL     1       7.564 -35.791  17.473  1.00  0.00     0.006 C 
BRANCH   3   4
ATOM      4  C   UNL     1       6.523 -36.491  16.595  1.00  0.00     0.053 C 
BRANCH   4   5
ATOM      5  C   UNL     1       6.673 -36.071  15.167  1.00  0.00     0.041 C 
ATOM      6  O   UNL     1       7.491 -36.664  14.416  1.00  0.00    -0.550 OA
ATOM      7  O   UNL     1       5.876 -35.058  14.653  1.00  0.00    -0.550 OA
ENDBRANCH   4   5
ENDBRANCH   3   4
ENDBRANCH   2   3
ENDBRANCH   1   2
BRANCH   1   8
ATOM      8  C   UNL     1       7.814 -32.574  16.311  1.00  0.00     0.000 C 
BRANCH   8   9
ATOM      9  C   UNL     1       9.026 -32.649  15.359  1.00  0.00     0.000 C 
BRANCH   9  10
ATOM     10  C   UNL     1       8.655 -33.047  13.920  1.00  0.00     0.006 C 
BRANCH  10  11
ATOM     11  C   UNL     1       9.624 -32.482  12.875  1.00  0.00     0.053 C 
BRANCH  11  12
ATOM     12  C   UNL     1      11.033 -32.854  13.214  1.00  0.00     0.041 C 
ATOM     13  O   UNL     1      11.802 -32.006  13.740  1.00  0.00    -0.550 OA
ATOM     14  O   UNL     1      11.513 -34.121  12.904  1.00  0.00    -0.550 OA
ENDBRANCH  11  12
ENDBRANCH  10  11
ENDBRANCH   9  10
ENDBRANCH   8   9
ENDBRANCH   1   8
TORSDOF 9
ENDMDL
