MODEL 1
REMARK VINA RESULT:     0.000      0.000      0.000
REMARK INTER + INTRA:          -3.132
REMARK INTER:                   0.000
REMARK INTRA:                  -3.132
REMARK UNBOUND:                -3.132
REMARK SMILES CCCCCCCCCCCCCCCC(=O)[O-]
REMARK SMILES IDX 9 1 10 2 11 3 12 4 13 5 14 6 15 7 16 8 17 9 18 10 8 11 7 12
REMARK SMILES IDX 6 13 5 14 4 15 3 16 2 17 1 18
REMARK H PARENT
REMARK Flexibility Score: inf
ROOT
ATOM      1  C   UNL     1     167.593 193.295 185.861  1.00  0.00     0.000 C 
ENDROOT
BRANCH   1   2
ATOM      2  C   UNL     1     166.521 194.387 185.712  1.00  0.00     0.000 C 
BRANCH   2   3
ATOM      3  C   UNL     1     165.285 193.900 184.941  1.00  0.00     0.000 C 
BRANCH   3   4
ATOM      4  C   UNL     1     164.743 195.004 184.021  1.00  0.00     0.000 C 
BRANCH   4   5
ATOM      5  C   UNL     1     165.529 196.319 184.146  1.00  0.00     0.000 C 
BRANCH   5   6
ATOM      6  C   UNL     1     165.544 197.125 182.839  1.00  0.00     0.006 C 
BRANCH   6   7
ATOM      7  C   UNL     1     166.738 198.083 182.800  1.00  0.00     0.053 C 
BRANCH   7   8
ATOM      8  C   UNL     1     167.390 198.056 181.454  1.00  0.00     0.041 C 
ATOM      9  O   UNL     1     168.584 198.430 181.319  1.00  0.00    -0.550 OA
ATOM     10  O   UNL     1     166.693 197.568 180.355  1.00  0.00    -0.550 OA
ENDBRANCH   7   8
ENDBRANCH   6   7
ENDBRANCH   5   6
ENDBRANCH   4   5
ENDBRANCH   3   4
ENDBRANCH   2   3
ENDBRANCH   1   2
BRANCH   1  11
ATOM     11  C   UNL     1     168.953 193.718 185.280  1.00  0.00     0.000 C 
BRANCH  11  12
ATOM     12  C   UNL     1     168.984 195.209 184.881  1.00  0.00    -0.000 C 
BRANCH  12  13
ATOM     13  C   UNL     1     169.267 195.445 183.385  1.00  0.00    -0.000 C 
BRANCH  13  14
ATOM     14  C   UNL     1     168.958 194.248 182.466  1.00  0.00    -0.000 C 
BRANCH  14  15
ATOM     15  C   UNL     1     167.649 194.366 181.663  1.00  0.00    -0.000 C 
BRANCH  15  16
ATOM     16  C   UNL     1     166.835 193.064 181.651  1.00  0.00    -0.000 C 
BRANCH  16  17
ATOM     17  C   UNL     1     167.602 191.931 182.342  1.00  0.00    -0.003 C 
ATOM     18  C   UNL     1     166.652 190.984 183.069  1.00  0.00     0.004 C 
ENDBRANCH  16  17
ENDBRANCH  15  16
ENDBRANCH  14  15
ENDBRANCH  13  14
ENDBRANCH  12  13
ENDBRANCH  11  12
ENDBRANCH   1  11
TORSDOF 14
ENDMDL
MODEL 2
REMARK VINA RESULT:     0.006      6.339      9.193
REMARK INTER + INTRA:          -3.121
REMARK INTER:                   0.000
REMARK INTRA:                  -3.121
REMARK UNBOUND:                -3.132
REMARK SMILES CCCCCCCCCCCCCCCC(=O)[O-]
REMARK SMILES IDX 9 1 10 2 11 3 12 4 13 5 14 6 15 7 16 8 17 9 18 10 8 11 7 12
REMARK SMILES IDX 6 13 5 14 4 15 3 16 2 17 1 18
REMARK H PARENT
REMARK Flexibility Score: inf
ROOT
ATOM      1  C   UNL     1     166.732 192.313 186.975  1.00  0.00     0.000 C 
ENDROOT
BRANCH   1   2
ATOM      2  C   UNL     1     166.780 190.858 186.480  1.00  0.00     0.000 C 
BRANCH   2   3
ATOM      3  C   UNL     1     168.137 190.188 186.750  1.00  0.00     0.000 C 
BRANCH   3   4
ATOM      4  C   UNL     1     167.947 188.742 187.232  1.00  0.00     0.000 C 
BRANCH   4   5
ATOM      5  C   UNL     1     166.485 188.275 187.143  1.00  0.00     0.000 C 
BRANCH   5   6
ATOM      6  C   UNL     1     166.194 187.069 188.049  1.00  0.00     0.006 C 
BRANCH   6   7
ATOM      7  C   UNL     1     164.799 187.177 188.672  1.00  0.00     0.053 C 
BRANCH   7   8
ATOM      8  C   UNL     1     163.748 187.174 187.607  1.00  0.00     0.041 C 
ATOM      9  O   UNL     1     163.605 186.172 186.859  1.00  0.00    -0.550 OA
ATOM     10  O   UNL     1     162.891 188.260 187.474  1.00  0.00    -0.550 OA
ENDBRANCH   7   8
ENDBRANCH   6   7
ENDBRANCH   5   6
ENDBRANCH   4   5
ENDBRANCH   3   4
ENDBRANCH   2   3
ENDBRANCH   1   2
BRANCH   1  11
ATOM     11  C   UNL     1     165.560 192.571 187.937  1.00  0.00     0.000 C 
BRANCH  11  12
ATOM     12  C   UNL     1     164.601 191.365 188.034  1.00  0.00    -0.000 C 
BRANCH  12  13
ATOM     13  C   UNL     1     164.481 190.779 189.454  1.00  0.00    -0.000 C 
BRANCH  13  14
ATOM     14  C   UNL     1     165.683 191.057 190.377  1.00  0.00    -0.000 C 
BRANCH  14  15
ATOM     15  C   UNL     1     166.685 189.894 190.506  1.00  0.00    -0.000 C 
BRANCH  15  16
ATOM     16  C   UNL     1     168.146 190.366 190.552  1.00  0.00    -0.000 C 
BRANCH  16  17
ATOM     17  C   UNL     1     168.237 191.887 190.385  1.00  0.00    -0.003 C 
ATOM     18  C   UNL     1     169.453 192.279 189.551  1.00  0.00     0.004 C 
ENDBRANCH  16  17
ENDBRANCH  15  16
ENDBRANCH  14  15
ENDBRANCH  13  14
ENDBRANCH  12  13
ENDBRANCH  11  12
ENDBRANCH   1  11
TORSDOF 14
ENDMDL
MODEL 3
REMARK VINA RESULT:     0.007      3.097      5.309
REMARK INTER + INTRA:          -3.120
REMARK INTER:                   0.000
REMARK INTRA:                  -3.120
REMARK UNBOUND:                -3.132
REMARK SMILES CCCCCCCCCCCCCCCC(=O)[O-]
REMARK SMILES IDX 9 1 10 2 11 3 12 4 13 5 14 6 15 7 16 8 17 9 18 10 8 11 7 12
REMARK SMILES IDX 6 13 5 14 4 15 3 16 2 17 1 18
REMARK H PARENT
REMARK Flexibility Score: inf
ROOT
ATOM      1  C   UNL     1     164.826 190.770 187.745  1.00  0.00     0.000 C 
ENDROOT
BRANCH   1   2
ATOM      2  C   UNL     1     165.476 190.769 186.352  1.00  0.00     0.000 C 
BRANCH   2   3
ATOM      3  C   UNL     1     164.782 191.733 185.377  1.00  0.00     0.000 C 
BRANCH   3   4
ATOM      4  C   UNL     1     165.816 192.555 184.592  1.00  0.00     0.000 C 
BRANCH   4   5
ATOM      5  C   UNL     1     167.187 191.866 184.516  1.00  0.00     0.000 C 
BRANCH   5   6
ATOM      6  C   UNL     1     168.354 192.849 184.702  1.00  0.00     0.006 C 
BRANCH   6   7
ATOM      7  C   UNL     1     167.915 194.283 184.396  1.00  0.00     0.053 C 
BRANCH   7   8
ATOM      8  C   UNL     1     168.720 195.259 185.194  1.00  0.00     0.041 C 
ATOM      9  O   UNL     1     169.670 194.859 185.916  1.00  0.00    -0.550 OA
ATOM     10  O   UNL     1     168.452 196.620 185.101  1.00  0.00    -0.550 OA
ENDBRANCH   7   8
ENDBRANCH   6   7
ENDBRANCH   5   6
ENDBRANCH   4   5
ENDBRANCH   3   4
ENDBRANCH   2   3
ENDBRANCH   1   2
BRANCH   1  11
ATOM     11  C   UNL     1     165.711 191.442 188.809  1.00  0.00     0.000 C 
BRANCH  11  12
ATOM     12  C   UNL     1     167.106 191.817 188.263  1.00  0.00    -0.000 C 
BRANCH  12  13
ATOM     13  C   UNL     1     167.362 193.335 188.202  1.00  0.00    -0.000 C 
BRANCH  13  14
ATOM     14  C   UNL     1     166.129 194.216 188.482  1.00  0.00    -0.000 C 
BRANCH  14  15
ATOM     15  C   UNL     1     165.703 195.127 187.316  1.00  0.00    -0.000 C 
BRANCH  15  16
ATOM     16  C   UNL     1     164.213 194.995 186.968  1.00  0.00    -0.000 C 
BRANCH  16  17
ATOM     17  C   UNL     1     163.445 194.295 188.095  1.00  0.00    -0.003 C 
ATOM     18  C   UNL     1     162.275 193.485 187.547  1.00  0.00     0.004 C 
ENDBRANCH  16  17
ENDBRANCH  15  16
ENDBRANCH  14  15
ENDBRANCH  13  14
ENDBRANCH  12  13
ENDBRANCH  11  12
ENDBRANCH   1  11
TORSDOF 14
ENDMDL
MODEL 4
REMARK VINA RESULT:     0.021      7.539      9.847
REMARK INTER + INTRA:          -3.095
REMARK INTER:                   0.000
REMARK INTRA:                  -3.095
REMARK UNBOUND:                -3.132
REMARK SMILES CCCCCCCCCCCCCCCC(=O)[O-]
REMARK SMILES IDX 9 1 10 2 11 3 12 4 13 5 14 6 15 7 16 8 17 9 18 10 8 11 7 12
REMARK SMILES IDX 6 13 5 14 4 15 3 16 2 17 1 18
REMARK H PARENT
REMARK Flexibility Score: inf
ROOT
ATOM      1  C   UNL     1     165.788 188.324 191.403  1.00  0.00     0.000 C 
ENDROOT
BRANCH   1   2
ATOM      2  C   UNL     1     165.264 186.897 191.175  1.00  0.00     0.000 C 
BRANCH   2   3
ATOM      3  C   UNL     1     164.857 186.644 189.715  1.00  0.00     0.000 C 
BRANCH   3   4
ATOM      4  C   UNL     1     165.710 185.529 189.094  1.00  0.00     0.000 C 
BRANCH   4   5
ATOM      5  C   UNL     1     166.139 185.844 187.652  1.00  0.00     0.000 C 
BRANCH   5   6
ATOM      6  C   UNL     1     165.593 187.191 187.153  1.00  0.00     0.006 C 
BRANCH   6   7
ATOM      7  C   UNL     1     166.488 187.772 186.055  1.00  0.00     0.053 C 
BRANCH   7   8
ATOM      8  C   UNL     1     166.412 189.265 186.051  1.00  0.00     0.041 C 
ATOM      9  O   UNL     1     165.308 189.846 186.223  1.00  0.00    -0.550 OA
ATOM     10  O   UNL     1     167.571 190.020 185.909  1.00  0.00    -0.550 OA
ENDBRANCH   7   8
ENDBRANCH   6   7
ENDBRANCH   5   6
ENDBRANCH   4   5
ENDBRANCH   3   4
ENDBRANCH   2   3
ENDBRANCH   1   2
BRANCH   1  11
ATOM     11  C   UNL     1     165.477 189.264 190.225  1.00  0.00     0.000 C 
BRANCH  11  12
ATOM     12  C   UNL     1     166.753 189.869 189.603  1.00  0.00    -0.000 C 
BRANCH  12  13
ATOM     13  C   UNL     1     168.053 189.170 190.046  1.00  0.00    -0.000 C 
BRANCH  13  14
ATOM     14  C   UNL     1     168.719 188.290 188.972  1.00  0.00    -0.000 C 
BRANCH  14  15
ATOM     15  C   UNL     1     169.195 186.911 189.466  1.00  0.00    -0.000 C 
BRANCH  15  16
ATOM     16  C   UNL     1     169.106 186.759 190.991  1.00  0.00    -0.000 C 
BRANCH  16  17
ATOM     17  C   UNL     1     168.668 185.341 191.377  1.00  0.00    -0.003 C 
ATOM     18  C   UNL     1     169.003 184.340 190.276  1.00  0.00     0.004 C 
ENDBRANCH  16  17
ENDBRANCH  15  16
ENDBRANCH  14  15
ENDBRANCH  13  14
ENDBRANCH  12  13
ENDBRANCH  11  12
ENDBRANCH   1  11
TORSDOF 14
ENDMDL
MODEL 5
REMARK VINA RESULT:     0.025      7.767     10.145
REMARK INTER + INTRA:          -3.086
REMARK INTER:                   0.000
REMARK INTRA:                  -3.086
REMARK UNBOUND:                -3.132
REMARK SMILES CCCCCCCCCCCCCCCC(=O)[O-]
REMARK SMILES IDX 9 1 10 2 11 3 12 4 13 5 14 6 15 7 16 8 17 9 18 10 8 11 7 12
REMARK SMILES IDX 6 13 5 14 4 15 3 16 2 17 1 18
REMARK H PARENT
REMARK Flexibility Score: inf
ROOT
ATOM      1  C   UNL     1     166.050 193.058 189.229  1.00  0.00     0.000 C 
ENDROOT
BRANCH   1   2
ATOM      2  C   UNL     1     165.364 191.727 188.883  1.00  0.00     0.000 C 
BRANCH   2   3
ATOM      3  C   UNL     1     164.097 191.919 188.035  1.00  0.00     0.000 C 
BRANCH   3   4
ATOM      4  C   UNL     1     162.977 190.977 188.502  1.00  0.00     0.000 C 
BRANCH   4   5
ATOM      5  C   UNL     1     163.462 189.946 189.534  1.00  0.00     0.000 C 
BRANCH   5   6
ATOM      6  C   UNL     1     162.428 189.686 190.640  1.00  0.00     0.006 C 
BRANCH   6   7
ATOM      7  C   UNL     1     161.012 190.000 190.150  1.00  0.00     0.053 C 
BRANCH   7   8
ATOM      8  C   UNL     1     160.099 190.251 191.308  1.00  0.00     0.041 C 
ATOM      9  O   UNL     1     159.309 191.231 191.293  1.00  0.00    -0.550 OA
ATOM     10  O   UNL     1     160.085 189.373 192.385  1.00  0.00    -0.550 OA
ENDBRANCH   7   8
ENDBRANCH   6   7
ENDBRANCH   5   6
ENDBRANCH   4   5
ENDBRANCH   3   4
ENDBRANCH   2   3
ENDBRANCH   1   2
BRANCH   1  11
ATOM     11  C   UNL     1     166.110 193.317 190.745  1.00  0.00     0.000 C 
BRANCH  11  12
ATOM     12  C   UNL     1     165.640 192.098 191.568  1.00  0.00    -0.000 C 
BRANCH  12  13
ATOM     13  C   UNL     1     164.378 192.367 192.411  1.00  0.00    -0.000 C 
BRANCH  13  14
ATOM     14  C   UNL     1     163.580 193.622 192.007  1.00  0.00    -0.000 C 
BRANCH  14  15
ATOM     15  C   UNL     1     162.212 193.342 191.360  1.00  0.00    -0.000 C 
BRANCH  15  16
ATOM     16  C   UNL     1     161.969 194.171 190.090  1.00  0.00    -0.000 C 
BRANCH  16  17
ATOM     17  C   UNL     1     163.039 195.257 189.932  1.00  0.00    -0.003 C 
ATOM     18  C   UNL     1     163.331 195.535 188.460  1.00  0.00     0.004 C 
ENDBRANCH  16  17
ENDBRANCH  15  16
ENDBRANCH  14  15
ENDBRANCH  13  14
ENDBRANCH  12  13
ENDBRANCH  11  12
ENDBRANCH   1  11
TORSDOF 14
ENDMDL
MODEL 6
REMARK VINA RESULT:     0.027      3.653      5.731
REMARK INTER + INTRA:          -3.084
REMARK INTER:                   0.000
REMARK INTRA:                  -3.084
REMARK UNBOUND:                -3.132
REMARK SMILES CCCCCCCCCCCCCCCC(=O)[O-]
REMARK SMILES IDX 9 1 10 2 11 3 12 4 13 5 14 6 15 7 16 8 17 9 18 10 8 11 7 12
REMARK SMILES IDX 6 13 5 14 4 15 3 16 2 17 1 18
REMARK H PARENT
REMARK Flexibility Score: inf
ROOT
ATOM      1  C   UNL     1     167.413 190.474 184.721  1.00  0.00     0.000 C 
ENDROOT
BRANCH   1   2
ATOM      2  C   UNL     1     168.738 190.839 184.031  1.00  0.00     0.000 C 
BRANCH   2   3
ATOM      3  C   UNL     1     168.924 190.113 182.690  1.00  0.00     0.000 C 
BRANCH   3   4
ATOM      4  C   UNL     1     167.598 189.510 182.205  1.00  0.00     0.000 C 
BRANCH   4   5
ATOM      5  C   UNL     1     167.056 190.206 180.946  1.00  0.00     0.000 C 
BRANCH   5   6
ATOM      6  C   UNL     1     165.531 190.394 180.984  1.00  0.00     0.006 C 
BRANCH   6   7
ATOM      7  C   UNL     1     164.911 189.605 182.140  1.00  0.00     0.053 C 
BRANCH   7   8
ATOM      8  C   UNL     1     163.851 190.414 182.818  1.00  0.00     0.041 C 
ATOM      9  O   UNL     1     163.267 191.342 182.199  1.00  0.00    -0.550 OA
ATOM     10  O   UNL     1     163.471 190.109 184.120  1.00  0.00    -0.550 OA
ENDBRANCH   7   8
ENDBRANCH   6   7
ENDBRANCH   5   6
ENDBRANCH   4   5
ENDBRANCH   3   4
ENDBRANCH   2   3
ENDBRANCH   1   2
BRANCH   1  11
ATOM     11  C   UNL     1     166.550 191.709 185.033  1.00  0.00     0.000 C 
BRANCH  11  12
ATOM     12  C   UNL     1     167.023 192.966 184.271  1.00  0.00    -0.000 C 
BRANCH  12  13
ATOM     13  C   UNL     1     166.070 193.403 183.142  1.00  0.00    -0.000 C 
BRANCH  13  14
ATOM     14  C   UNL     1     166.761 193.808 181.826  1.00  0.00    -0.000 C 
BRANCH  14  15
ATOM     15  C   UNL     1     168.292 193.946 181.912  1.00  0.00    -0.000 C 
BRANCH  15  16
ATOM     16  C   UNL     1     169.018 193.322 180.712  1.00  0.00    -0.000 C 
BRANCH  16  17
ATOM     17  C   UNL     1     170.491 193.053 181.039  1.00  0.00    -0.003 C 
ATOM     18  C   UNL     1     170.827 193.478 182.465  1.00  0.00     0.004 C 
ENDBRANCH  16  17
ENDBRANCH  15  16
ENDBRANCH  14  15
ENDBRANCH  13  14
ENDBRANCH  12  13
ENDBRANCH  11  12
ENDBRANCH   1  11
TORSDOF 14
ENDMDL
MODEL 7
REMARK VINA RESULT:     0.029      6.160      8.295
REMARK INTER + INTRA:          -3.079
REMARK INTER:                   0.000
REMARK INTRA:                  -3.079
REMARK UNBOUND:                -3.132
REMARK SMILES CCCCCCCCCCCCCCCC(=O)[O-]
REMARK SMILES IDX 9 1 10 2 11 3 12 4 13 5 14 6 15 7 16 8 17 9 18 10 8 11 7 12
REMARK SMILES IDX 6 13 5 14 4 15 3 16 2 17 1 18
REMARK H PARENT
REMARK Flexibility Score: inf
ROOT
ATOM      1  C   UNL     1     170.993 188.669 184.584  1.00  0.00     0.000 C 
ENDROOT
BRANCH   1   2
ATOM      2  C   UNL     1     169.698 189.282 185.142  1.00  0.00     0.000 C 
BRANCH   2   3
ATOM      3  C   UNL     1     169.779 190.810 185.279  1.00  0.00     0.000 C 
BRANCH   3   4
ATOM      4  C   UNL     1     169.134 191.277 186.593  1.00  0.00     0.000 C 
BRANCH   4   5
ATOM      5  C   UNL     1     168.337 190.163 187.290  1.00  0.00     0.000 C 
BRANCH   5   6
ATOM      6  C   UNL     1     168.524 190.168 188.815  1.00  0.00     0.006 C 
BRANCH   6   7
ATOM      7  C   UNL     1     168.864 191.573 189.320  1.00  0.00     0.053 C 
BRANCH   7   8
ATOM      8  C   UNL     1     167.645 192.241 189.871  1.00  0.00     0.041 C 
ATOM      9  O   UNL     1     167.467 192.310 191.116  1.00  0.00    -0.550 OA
ATOM     10  O   UNL     1     166.728 192.834 189.012  1.00  0.00    -0.550 OA
ENDBRANCH   7   8
ENDBRANCH   6   7
ENDBRANCH   5   6
ENDBRANCH   4   5
ENDBRANCH   3   4
ENDBRANCH   2   3
ENDBRANCH   1   2
BRANCH   1  11
ATOM     11  C   UNL     1     171.668 187.708 185.576  1.00  0.00     0.000 C 
BRANCH  11  12
ATOM     12  C   UNL     1     170.800 187.446 186.826  1.00  0.00    -0.000 C 
BRANCH  12  13
ATOM     13  C   UNL     1     171.437 187.939 188.139  1.00  0.00    -0.000 C 
BRANCH  13  14
ATOM     14  C   UNL     1     172.592 188.944 187.967  1.00  0.00    -0.000 C 
BRANCH  14  15
ATOM     15  C   UNL     1     172.282 190.377 188.437  1.00  0.00    -0.000 C 
BRANCH  15  16
ATOM     16  C   UNL     1     172.756 191.448 187.444  1.00  0.00    -0.000 C 
BRANCH  16  17
ATOM     17  C   UNL     1     173.589 190.823 186.318  1.00  0.00    -0.003 C 
ATOM     18  C   UNL     1     173.389 191.569 185.003  1.00  0.00     0.004 C 
ENDBRANCH  16  17
ENDBRANCH  15  16
ENDBRANCH  14  15
ENDBRANCH  13  14
ENDBRANCH  12  13
ENDBRANCH  11  12
ENDBRANCH   1  11
TORSDOF 14
ENDMDL
MODEL 8
REMARK VINA RESULT:     0.030      3.435      5.987
REMARK INTER + INTRA:          -3.077
REMARK INTER:                   0.000
REMARK INTRA:                  -3.077
REMARK UNBOUND:                -3.132
REMARK SMILES CCCCCCCCCCCCCCCC(=O)[O-]
REMARK SMILES IDX 9 1 10 2 11 3 12 4 13 5 14 6 15 7 16 8 17 9 18 10 8 11 7 12
REMARK SMILES IDX 6 13 5 14 4 15 3 16 2 17 1 18
REMARK H PARENT
REMARK Flexibility Score: inf
ROOT
ATOM      1  C   UNL     1     166.852 191.118 187.136  1.00  0.00     0.000 C 
ENDROOT
BRANCH   1   2
ATOM      2  C   UNL     1     168.328 190.848 186.801  1.00  0.00     0.000 C 
BRANCH   2   3
ATOM      3  C   UNL     1     169.184 192.123 186.837  1.00  0.00     0.000 C 
BRANCH   3   4
ATOM      4  C   UNL     1     170.147 192.170 185.642  1.00  0.00     0.000 C 
BRANCH   4   5
ATOM      5  C   UNL     1     170.373 190.789 185.008  1.00  0.00     0.000 C 
BRANCH   5   6
ATOM      6  C   UNL     1     170.376 190.836 183.472  1.00  0.00     0.006 C 
BRANCH   6   7
ATOM      7  C   UNL     1     169.769 189.559 182.884  1.00  0.00     0.053 C 
BRANCH   7   8
ATOM      8  C   UNL     1     168.900 189.882 181.711  1.00  0.00     0.041 C 
ATOM      9  O   UNL     1     167.876 189.191 181.470  1.00  0.00    -0.550 OA
ATOM     10  O   UNL     1     169.192 190.981 180.911  1.00  0.00    -0.550 OA
ENDBRANCH   7   8
ENDBRANCH   6   7
ENDBRANCH   5   6
ENDBRANCH   4   5
ENDBRANCH   3   4
ENDBRANCH   2   3
ENDBRANCH   1   2
BRANCH   1  11
ATOM     11  C   UNL     1     165.897 190.630 186.033  1.00  0.00     0.000 C 
BRANCH  11  12
ATOM     12  C   UNL     1     166.597 190.499 184.663  1.00  0.00    -0.000 C 
BRANCH  12  13
ATOM     13  C   UNL     1     166.182 191.580 183.647  1.00  0.00    -0.000 C 
BRANCH  13  14
ATOM     14  C   UNL     1     167.203 192.717 183.450  1.00  0.00    -0.000 C 
BRANCH  14  15
ATOM     15  C   UNL     1     167.000 193.938 184.365  1.00  0.00    -0.000 C 
BRANCH  15  16
ATOM     16  C   UNL     1     165.531 194.157 184.753  1.00  0.00    -0.000 C 
BRANCH  16  17
ATOM     17  C   UNL     1     165.392 194.406 186.259  1.00  0.00    -0.003 C 
ATOM     18  C   UNL     1     166.711 194.872 186.867  1.00  0.00     0.004 C 
ENDBRANCH  16  17
ENDBRANCH  15  16
ENDBRANCH  14  15
ENDBRANCH  13  14
ENDBRANCH  12  13
ENDBRANCH  11  12
ENDBRANCH   1  11
TORSDOF 14
ENDMDL
MODEL 9
REMARK VINA RESULT:     0.032      3.119      4.873
REMARK INTER + INTRA:          -3.075
REMARK INTER:                   0.000
REMARK INTRA:                  -3.075
REMARK UNBOUND:                -3.132
REMARK SMILES CCCCCCCCCCCCCCCC(=O)[O-]
REMARK SMILES IDX 9 1 10 2 11 3 12 4 13 5 14 6 15 7 16 8 17 9 18 10 8 11 7 12
REMARK SMILES IDX 6 13 5 14 4 15 3 16 2 17 1 18
REMARK H PARENT
REMARK Flexibility Score: inf
ROOT
ATOM      1  C   UNL     1     162.437 194.877 182.596  1.00  0.00     0.000 C 
ENDROOT
BRANCH   1   2
ATOM      2  C   UNL     1     162.125 195.514 183.960  1.00  0.00     0.000 C 
BRANCH   2   3
ATOM      3  C   UNL     1     162.207 194.505 185.115  1.00  0.00     0.000 C 
BRANCH   3   4
ATOM      4  C   UNL     1     162.854 195.142 186.354  1.00  0.00     0.000 C 
BRANCH   4   5
ATOM      5  C   UNL     1     163.182 196.630 186.153  1.00  0.00     0.000 C 
BRANCH   5   6
ATOM      6  C   UNL     1     164.323 197.113 187.062  1.00  0.00     0.006 C 
BRANCH   6   7
ATOM      7  C   UNL     1     165.102 195.927 187.638  1.00  0.00     0.053 C 
BRANCH   7   8
ATOM      8  C   UNL     1     166.575 196.155 187.508  1.00  0.00     0.041 C 
ATOM      9  O   UNL     1     167.374 195.184 187.560  1.00  0.00    -0.550 OA
ATOM     10  O   UNL     1     167.062 197.436 187.276  1.00  0.00    -0.550 OA
ENDBRANCH   7   8
ENDBRANCH   6   7
ENDBRANCH   5   6
ENDBRANCH   4   5
ENDBRANCH   3   4
ENDBRANCH   2   3
ENDBRANCH   1   2
BRANCH   1  11
ATOM     11  C   UNL     1     163.297 195.786 181.701  1.00  0.00     0.000 C 
BRANCH  11  12
ATOM     12  C   UNL     1     163.918 196.964 182.483  1.00  0.00    -0.000 C 
BRANCH  12  13
ATOM     13  C   UNL     1     165.458 196.936 182.527  1.00  0.00    -0.000 C 
BRANCH  13  14
ATOM     14  C   UNL     1     166.063 196.401 183.839  1.00  0.00    -0.000 C 
BRANCH  14  15
ATOM     15  C   UNL     1     166.640 194.976 183.754  1.00  0.00    -0.000 C 
BRANCH  15  16
ATOM     16  C   UNL     1     165.823 193.951 184.555  1.00  0.00    -0.000 C 
BRANCH  16  17
ATOM     17  C   UNL     1     165.308 192.829 183.647  1.00  0.00    -0.003 C 
ATOM     18  C   UNL     1     165.756 193.035 182.204  1.00  0.00     0.004 C 
ENDBRANCH  16  17
ENDBRANCH  15  16
ENDBRANCH  14  15
ENDBRANCH  13  14
ENDBRANCH  12  13
ENDBRANCH  11  12
ENDBRANCH   1  11
TORSDOF 14
ENDMDL
