MODEL 1
REMARK VINA RESULT:    -5.725      0.000      0.000
REMARK INTER + INTRA:          -8.356
REMARK INTER:                  -7.733
REMARK INTRA:                  -0.623
REMARK UNBOUND:                -0.623
REMARK SMILES CC(=O)CCC=C(C)CCC=C(C)C
REMARK SMILES IDX 7 1 6 2 8 3 9 4 10 5 11 6 13 7 12 8 14 9 5 10 4 11 2 12 3 13
REMARK SMILES IDX 1 14
REMARK H PARENT
REMARK Flexibility Score: inf
ROOT
ATOM      1  C   UNL     1      26.706  54.449  10.331  1.00  0.00    -0.077 C 
ATOM      2  C   UNL     1      26.725  53.100  10.225  1.00  0.00    -0.028 C 
ATOM      3  C   UNL     1      25.544  55.272   9.828  1.00  0.00     0.039 C 
ENDROOT
BRANCH   1   4
ATOM      4  C   UNL     1      27.879  55.148  10.983  1.00  0.00     0.034 C 
BRANCH   4   5
ATOM      5  C   UNL     1      27.772  56.667  10.811  1.00  0.00     0.032 C 
BRANCH   5   6
ATOM      6  C   UNL     1      27.667  57.351  12.151  1.00  0.00    -0.028 C 
ATOM      7  C   UNL     1      28.276  58.914  13.947  1.00  0.00     0.039 C 
ATOM      8  C   UNL     1      28.529  58.291  12.599  1.00  0.00    -0.080 C 
ATOM      9  C   UNL     1      29.739  58.712  11.798  1.00  0.00     0.039 C 
ENDBRANCH   5   6
ENDBRANCH   4   5
ENDBRANCH   1   4
BRANCH   2  10
ATOM     10  C   UNL     1      25.644  52.280   9.565  1.00  0.00     0.035 C 
BRANCH  10  11
ATOM     11  C   UNL     1      25.953  52.070   8.078  1.00  0.00     0.079 C 
BRANCH  11  12
ATOM     12  C   UNL     1      24.886  52.698   7.220  1.00  0.00     0.130 C 
ATOM     13  O   UNL     1      23.727  52.329   7.336  1.00  0.00    -0.300 OA
ATOM     14  C   UNL     1      25.213  53.777   6.231  1.00  0.00     0.087 C 
ENDBRANCH  11  12
ENDBRANCH  10  11
ENDBRANCH   2  10
TORSDOF 6
ENDMDL
MODEL 2
REMARK VINA RESULT:    -5.692      2.956      6.718
REMARK INTER + INTRA:          -8.311
REMARK INTER:                  -7.507
REMARK INTRA:                  -0.805
REMARK UNBOUND:                -0.623
REMARK SMILES CC(=O)CCC=C(C)CCC=C(C)C
REMARK SMILES IDX 7 1 6 2 8 3 9 4 10 5 11 6 13 7 12 8 14 9 5 10 4 11 2 12 3 13
REMARK SMILES IDX 1 14
REMARK H PARENT
REMARK Flexibility Score: inf
ROOT
ATOM      1  C   UNL     1      28.198  54.415  10.867  1.00  0.00    -0.077 C 
ATOM      2  C   UNL     1      27.451  55.539  10.769  1.00  0.00    -0.028 C 
ATOM      3  C   UNL     1      29.649  54.456  11.284  1.00  0.00     0.039 C 
ENDROOT
BRANCH   1   4
ATOM      4  C   UNL     1      27.556  53.080  10.558  1.00  0.00     0.034 C 
BRANCH   4   5
ATOM      5  C   UNL     1      26.066  53.251  10.243  1.00  0.00     0.032 C 
BRANCH   5   6
ATOM      6  C   UNL     1      25.788  52.946   8.792  1.00  0.00    -0.028 C 
ATOM      7  C   UNL     1      24.998  53.366   6.503  1.00  0.00     0.039 C 
ATOM      8  C   UNL     1      25.174  53.794   7.937  1.00  0.00    -0.080 C 
ATOM      9  C   UNL     1      24.649  55.139   8.384  1.00  0.00     0.039 C 
ENDBRANCH   5   6
ENDBRANCH   4   5
ENDBRANCH   1   4
BRANCH   2  10
ATOM     10  C   UNL     1      27.971  56.935  11.009  1.00  0.00     0.035 C 
BRANCH  10  11
ATOM     11  C   UNL     1      27.539  57.446  12.388  1.00  0.00     0.079 C 
BRANCH  11  12
ATOM     12  C   UNL     1      28.516  58.467  12.907  1.00  0.00     0.130 C 
ATOM     13  O   UNL     1      28.315  58.995  13.991  1.00  0.00    -0.300 OA
ATOM     14  C   UNL     1      29.742  58.844  12.128  1.00  0.00     0.087 C 
ENDBRANCH  11  12
ENDBRANCH  10  11
ENDBRANCH   2  10
TORSDOF 6
ENDMDL
MODEL 3
REMARK VINA RESULT:    -5.675      1.872      2.720
REMARK INTER + INTRA:          -8.288
REMARK INTER:                  -7.368
REMARK INTRA:                  -0.920
REMARK UNBOUND:                -0.623
REMARK SMILES CC(=O)CCC=C(C)CCC=C(C)C
REMARK SMILES IDX 7 1 6 2 8 3 9 4 10 5 11 6 13 7 12 8 14 9 5 10 4 11 2 12 3 13
REMARK SMILES IDX 1 14
REMARK H PARENT
REMARK Flexibility Score: inf
ROOT
ATOM      1  C   UNL     1      27.250  52.261   9.944  1.00  0.00    -0.077 C 
ATOM      2  C   UNL     1      27.085  51.935   8.641  1.00  0.00    -0.028 C 
ATOM      3  C   UNL     1      26.079  52.367  10.893  1.00  0.00     0.039 C 
ENDROOT
BRANCH   1   4
ATOM      4  C   UNL     1      28.647  52.517  10.464  1.00  0.00     0.034 C 
BRANCH   4   5
ATOM      5  C   UNL     1      28.641  53.625  11.523  1.00  0.00     0.032 C 
BRANCH   5   6
ATOM      6  C   UNL     1      29.657  54.689  11.190  1.00  0.00    -0.028 C 
ATOM      7  C   UNL     1      30.474  56.926  10.586  1.00  0.00     0.039 C 
ATOM      8  C   UNL     1      29.349  55.961  10.857  1.00  0.00    -0.080 C 
ATOM      9  C   UNL     1      27.918  56.431  10.732  1.00  0.00     0.039 C 
ENDBRANCH   5   6
ENDBRANCH   4   5
ENDBRANCH   1   4
BRANCH   2  10
ATOM     10  C   UNL     1      25.749  51.692   7.983  1.00  0.00     0.035 C 
BRANCH  10  11
ATOM     11  C   UNL     1      25.331  52.902   7.141  1.00  0.00     0.079 C 
BRANCH  11  12
ATOM     12  C   UNL     1      24.403  53.797   7.920  1.00  0.00     0.130 C 
ATOM     13  O   UNL     1      23.311  53.373   8.269  1.00  0.00    -0.300 OA
ATOM     14  C   UNL     1      24.794  55.197   8.289  1.00  0.00     0.087 C 
ENDBRANCH  11  12
ENDBRANCH  10  11
ENDBRANCH   2  10
TORSDOF 6
ENDMDL
MODEL 4
REMARK VINA RESULT:    -5.663      1.327      2.108
REMARK INTER + INTRA:          -8.272
REMARK INTER:                  -7.643
REMARK INTRA:                  -0.628
REMARK UNBOUND:                -0.623
REMARK SMILES CC(=O)CCC=C(C)CCC=C(C)C
REMARK SMILES IDX 7 1 6 2 8 3 9 4 10 5 11 6 13 7 12 8 14 9 5 10 4 11 2 12 3 13
REMARK SMILES IDX 1 14
REMARK H PARENT
REMARK Flexibility Score: inf
ROOT
ATOM      1  C   UNL     1      25.259  55.249   9.966  1.00  0.00    -0.077 C 
ATOM      2  C   UNL     1      24.905  55.295   8.661  1.00  0.00    -0.028 C 
ATOM      3  C   UNL     1      25.015  54.023  10.816  1.00  0.00     0.039 C 
ENDROOT
BRANCH   1   4
ATOM      4  C   UNL     1      25.926  56.457  10.588  1.00  0.00     0.034 C 
BRANCH   4   5
ATOM      5  C   UNL     1      27.398  56.167  10.899  1.00  0.00     0.032 C 
BRANCH   5   6
ATOM      6  C   UNL     1      28.045  57.351  11.574  1.00  0.00    -0.028 C 
ATOM      7  C   UNL     1      29.836  58.941  12.124  1.00  0.00     0.039 C 
ATOM      8  C   UNL     1      29.338  57.710  11.413  1.00  0.00    -0.080 C 
ATOM      9  C   UNL     1      30.291  56.903  10.563  1.00  0.00     0.039 C 
ENDBRANCH   5   6
ENDBRANCH   4   5
ENDBRANCH   1   4
BRANCH   2  10
ATOM     10  C   UNL     1      24.200  54.181   7.927  1.00  0.00     0.035 C 
BRANCH  10  11
ATOM     11  C   UNL     1      25.197  53.352   7.111  1.00  0.00     0.079 C 
BRANCH  11  12
ATOM     12  C   UNL     1      25.467  52.032   7.783  1.00  0.00     0.130 C 
ATOM     13  O   UNL     1      24.556  51.229   7.918  1.00  0.00    -0.300 OA
ATOM     14  C   UNL     1      26.836  51.674   8.283  1.00  0.00     0.087 C 
ENDBRANCH  11  12
ENDBRANCH  10  11
ENDBRANCH   2  10
TORSDOF 6
ENDMDL
MODEL 5
REMARK VINA RESULT:    -5.651      8.100      9.948
REMARK INTER + INTRA:          -8.256
REMARK INTER:                  -7.352
REMARK INTRA:                  -0.904
REMARK UNBOUND:                -0.623
REMARK SMILES CC(=O)CCC=C(C)CCC=C(C)C
REMARK SMILES IDX 7 1 6 2 8 3 9 4 10 5 11 6 13 7 12 8 14 9 5 10 4 11 2 12 3 13
REMARK SMILES IDX 1 14
REMARK H PARENT
REMARK Flexibility Score: inf
ROOT
ATOM      1  C   UNL     1      27.246  53.736  17.618  1.00  0.00    -0.077 C 
ATOM      2  C   UNL     1      27.143  54.197  18.886  1.00  0.00    -0.028 C 
ATOM      3  C   UNL     1      26.028  53.410  16.786  1.00  0.00     0.039 C 
ENDROOT
BRANCH   1   4
ATOM      4  C   UNL     1      28.622  53.551  17.015  1.00  0.00     0.034 C 
BRANCH   4   5
ATOM      5  C   UNL     1      28.619  52.417  15.985  1.00  0.00     0.032 C 
BRANCH   5   6
ATOM      6  C   UNL     1      29.692  51.405  16.301  1.00  0.00    -0.028 C 
ATOM      7  C   UNL     1      30.626  49.225  16.946  1.00  0.00     0.039 C 
ATOM      8  C   UNL     1      29.451  50.137  16.701  1.00  0.00    -0.080 C 
ATOM      9  C   UNL     1      28.049  49.621  16.926  1.00  0.00     0.039 C 
ENDBRANCH   5   6
ENDBRANCH   4   5
ENDBRANCH   1   4
BRANCH   2  10
ATOM     10  C   UNL     1      25.840  54.390  19.621  1.00  0.00     0.035 C 
BRANCH  10  11
ATOM     11  C   UNL     1      25.534  53.181  20.511  1.00  0.00     0.079 C 
BRANCH  11  12
ATOM     12  C   UNL     1      24.521  52.280  19.855  1.00  0.00     0.130 C 
ATOM     13  O   UNL     1      23.412  52.717  19.588  1.00  0.00    -0.300 OA
ATOM     14  C   UNL     1      24.847  50.857  19.510  1.00  0.00     0.087 C 
ENDBRANCH  11  12
ENDBRANCH  10  11
ENDBRANCH   2  10
TORSDOF 6
ENDMDL
MODEL 6
REMARK VINA RESULT:    -5.630      8.077      9.342
REMARK INTER + INTRA:          -8.227
REMARK INTER:                  -7.309
REMARK INTRA:                  -0.918
REMARK UNBOUND:                -0.623
REMARK SMILES CC(=O)CCC=C(C)CCC=C(C)C
REMARK SMILES IDX 7 1 6 2 8 3 9 4 10 5 11 6 13 7 12 8 14 9 5 10 4 11 2 12 3 13
REMARK SMILES IDX 1 14
REMARK H PARENT
REMARK Flexibility Score: inf
ROOT
ATOM      1  C   UNL     1      28.441  52.868  16.890  1.00  0.00    -0.077 C 
ATOM      2  C   UNL     1      27.662  51.771  16.749  1.00  0.00    -0.028 C 
ATOM      3  C   UNL     1      29.782  52.987  16.205  1.00  0.00     0.039 C 
ENDROOT
BRANCH   1   4
ATOM      4  C   UNL     1      27.949  54.011  17.751  1.00  0.00     0.034 C 
BRANCH   4   5
ATOM      5  C   UNL     1      26.429  53.939  17.935  1.00  0.00     0.032 C 
BRANCH   5   6
ATOM      6  C   UNL     1      26.072  53.847  19.398  1.00  0.00    -0.028 C 
ATOM      7  C   UNL     1      25.170  52.832  21.446  1.00  0.00     0.039 C 
ATOM      8  C   UNL     1      25.427  52.802  19.962  1.00  0.00    -0.080 C 
ATOM      9  C   UNL     1      24.945  51.625  19.146  1.00  0.00     0.039 C 
ENDBRANCH   5   6
ENDBRANCH   4   5
ENDBRANCH   1   4
BRANCH   2  10
ATOM     10  C   UNL     1      28.045  50.547  15.955  1.00  0.00     0.035 C 
BRANCH  10  11
ATOM     11  C   UNL     1      28.284  49.350  16.883  1.00  0.00     0.079 C 
BRANCH  11  12
ATOM     12  C   UNL     1      29.619  48.715  16.600  1.00  0.00     0.130 C 
ATOM     13  O   UNL     1      29.661  47.595  16.113  1.00  0.00    -0.300 OA
ATOM     14  C   UNL     1      30.904  49.433  16.891  1.00  0.00     0.087 C 
ENDBRANCH  11  12
ENDBRANCH  10  11
ENDBRANCH   2  10
TORSDOF 6
ENDMDL
MODEL 7
REMARK VINA RESULT:    -5.606      8.304     10.530
REMARK INTER + INTRA:          -8.196
REMARK INTER:                  -7.561
REMARK INTRA:                  -0.634
REMARK UNBOUND:                -0.623
REMARK SMILES CC(=O)CCC=C(C)CCC=C(C)C
REMARK SMILES IDX 7 1 6 2 8 3 9 4 10 5 11 6 13 7 12 8 14 9 5 10 4 11 2 12 3 13
REMARK SMILES IDX 1 14
REMARK H PARENT
REMARK Flexibility Score: inf
ROOT
ATOM      1  C   UNL     1      26.957  51.934  17.020  1.00  0.00    -0.077 C 
ATOM      2  C   UNL     1      27.260  53.128  17.580  1.00  0.00    -0.028 C 
ATOM      3  C   UNL     1      25.528  51.491  16.812  1.00  0.00     0.039 C 
ENDROOT
BRANCH   1   4
ATOM      4  C   UNL     1      28.083  51.024  16.581  1.00  0.00     0.034 C 
BRANCH   4   5
ATOM      5  C   UNL     1      27.740  49.557  16.862  1.00  0.00     0.032 C 
BRANCH   5   6
ATOM      6  C   UNL     1      27.661  48.770  15.577  1.00  0.00    -0.028 C 
ATOM      7  C   UNL     1      28.398  47.196  13.840  1.00  0.00     0.039 C 
ATOM      8  C   UNL     1      28.632  47.947  15.125  1.00  0.00    -0.080 C 
ATOM      9  C   UNL     1      29.942  47.776  15.859  1.00  0.00     0.039 C 
ENDBRANCH   5   6
ENDBRANCH   4   5
ENDBRANCH   1   4
BRANCH   2  10
ATOM     10  C   UNL     1      26.241  54.113  18.096  1.00  0.00     0.035 C 
BRANCH  10  11
ATOM     11  C   UNL     1      26.334  54.242  19.621  1.00  0.00     0.079 C 
BRANCH  11  12
ATOM     12  C   UNL     1      25.151  53.587  20.283  1.00  0.00     0.130 C 
ATOM     13  O   UNL     1      24.064  54.144  20.259  1.00  0.00    -0.300 OA
ATOM     14  C   UNL     1      25.275  52.257  20.965  1.00  0.00     0.087 C 
ENDBRANCH  11  12
ENDBRANCH  10  11
ENDBRANCH   2  10
TORSDOF 6
ENDMDL
MODEL 8
REMARK VINA RESULT:    -5.540      7.533      9.943
REMARK INTER + INTRA:          -8.106
REMARK INTER:                  -7.129
REMARK INTRA:                  -0.977
REMARK UNBOUND:                -0.623
REMARK SMILES CC(=O)CCC=C(C)CCC=C(C)C
REMARK SMILES IDX 7 1 6 2 8 3 9 4 10 5 11 6 13 7 12 8 14 9 5 10 4 11 2 12 3 13
REMARK SMILES IDX 1 14
REMARK H PARENT
REMARK Flexibility Score: inf
ROOT
ATOM      1  C   UNL     1      29.269  51.294  16.096  1.00  0.00    -0.077 C 
ATOM      2  C   UNL     1      28.263  51.711  16.899  1.00  0.00    -0.028 C 
ATOM      3  C   UNL     1      29.486  51.878  14.720  1.00  0.00     0.039 C 
ENDROOT
BRANCH   1   4
ATOM      4  C   UNL     1      30.208  50.218  16.598  1.00  0.00     0.034 C 
BRANCH   4   5
ATOM      5  C   UNL     1      29.447  48.919  16.884  1.00  0.00     0.032 C 
BRANCH   5   6
ATOM      6  C   UNL     1      29.402  48.045  15.656  1.00  0.00    -0.028 C 
ATOM      7  C   UNL     1      28.457  47.068  13.609  1.00  0.00     0.039 C 
ATOM      8  C   UNL     1      28.345  47.958  14.819  1.00  0.00    -0.080 C 
ATOM      9  C   UNL     1      27.058  48.709  15.074  1.00  0.00     0.039 C 
ENDBRANCH   5   6
ENDBRANCH   4   5
ENDBRANCH   1   4
BRANCH   2  10
ATOM     10  C   UNL     1      27.234  52.744  16.512  1.00  0.00     0.035 C 
BRANCH  10  11
ATOM     11  C   UNL     1      27.567  54.103  17.137  1.00  0.00     0.079 C 
BRANCH  11  12
ATOM     12  C   UNL     1      27.009  54.197  18.533  1.00  0.00     0.130 C 
ATOM     13  O   UNL     1      27.697  54.674  19.424  1.00  0.00    -0.300 OA
ATOM     14  C   UNL     1      25.621  53.729  18.854  1.00  0.00     0.087 C 
ENDBRANCH  11  12
ENDBRANCH  10  11
ENDBRANCH   2  10
TORSDOF 6
ENDMDL
MODEL 9
REMARK VINA RESULT:    -5.398      8.459     10.310
REMARK INTER + INTRA:          -7.914
REMARK INTER:                  -7.149
REMARK INTRA:                  -0.766
REMARK UNBOUND:                -0.623
REMARK SMILES CC(=O)CCC=C(C)CCC=C(C)C
REMARK SMILES IDX 7 1 6 2 8 3 9 4 10 5 11 6 13 7 12 8 14 9 5 10 4 11 2 12 3 13
REMARK SMILES IDX 1 14
REMARK H PARENT
REMARK Flexibility Score: inf
ROOT
ATOM      1  C   UNL     1      25.835  51.272  16.667  1.00  0.00    -0.077 C 
ATOM      2  C   UNL     1      25.277  50.736  17.777  1.00  0.00    -0.028 C 
ATOM      3  C   UNL     1      25.614  52.717  16.282  1.00  0.00     0.039 C 
ENDROOT
BRANCH   1   4
ATOM      4  C   UNL     1      26.710  50.401  15.793  1.00  0.00     0.034 C 
BRANCH   4   5
ATOM      5  C   UNL     1      27.303  49.241  16.599  1.00  0.00     0.032 C 
BRANCH   5   6
ATOM      6  C   UNL     1      28.745  49.514  16.948  1.00  0.00    -0.028 C 
ATOM      7  C   UNL     1      31.183  49.211  16.888  1.00  0.00     0.039 C 
ATOM      8  C   UNL     1      29.793  48.798  16.482  1.00  0.00    -0.080 C 
ATOM      9  C   UNL     1      29.604  47.594  15.588  1.00  0.00     0.039 C 
ENDBRANCH   5   6
ENDBRANCH   4   5
ENDBRANCH   1   4
BRANCH   2  10
ATOM     10  C   UNL     1      24.355  51.477  18.713  1.00  0.00     0.035 C 
BRANCH  10  11
ATOM     11  C   UNL     1      25.113  51.957  19.955  1.00  0.00     0.079 C 
BRANCH  11  12
ATOM     12  C   UNL     1      25.139  53.461  20.015  1.00  0.00     0.130 C 
ATOM     13  O   UNL     1      24.156  54.063  20.422  1.00  0.00    -0.300 OA
ATOM     14  C   UNL     1      26.351  54.240  19.597  1.00  0.00     0.087 C 
ENDBRANCH  11  12
ENDBRANCH  10  11
ENDBRANCH   2  10
TORSDOF 6
ENDMDL
