MODEL 1
REMARK VINA RESULT:    -7.518      0.000      0.000
REMARK INTER + INTRA:          -9.254
REMARK INTER:                  -9.056
REMARK INTRA:                  -0.198
REMARK UNBOUND:                -0.198
REMARK SMILES Oc1cc(O)c2cc(O)c(-c3ccc(O)c(O)c3)[o+]c2c1
REMARK SMILES IDX 10 1 19 2 20 3 21 4 2 5 3 6 4 7 6 8 7 9 8 10 11 11 12 12
REMARK SMILES IDX 13 13 14 14 18 15 16 16 15 17 17 19 9 21 1 23 5 25
REMARK H PARENT 15 18 17 20 9 22 1 24 5 26
REMARK Flexibility Score: inf
ROOT
ATOM      1  C   UNL     1      24.055  -4.496  24.063  1.00  0.00     0.402 A 
ATOM      2  O   UNL     1      22.923  -4.934  23.518  1.00  0.00    -0.202 OA
ATOM      3  C   UNL     1      22.454  -4.491  22.357  1.00  0.00     0.368 A 
ATOM      4  C   UNL     1      21.252  -5.010  21.866  1.00  0.00     0.162 A 
ATOM      5  C   UNL     1      20.733  -4.562  20.652  1.00  0.00     0.128 A 
ATOM      6  C   UNL     1      21.419  -3.587  19.919  1.00  0.00     0.093 A 
ATOM      7  C   UNL     1      22.624  -3.050  20.388  1.00  0.00     0.136 A 
ATOM      8  C   UNL     1      23.157  -3.506  21.623  1.00  0.00     0.125 A 
ATOM      9  C   UNL     1      24.364  -3.035  22.164  1.00  0.00     0.078 A 
ATOM     10  C   UNL     1      24.827  -3.535  23.384  1.00  0.00     0.223 A 
ENDROOT
BRANCH   1  11
ATOM     11  C   UNL     1      24.468  -5.060  25.368  1.00  0.00     0.087 A 
ATOM     12  C   UNL     1      24.556  -4.217  26.487  1.00  0.00     0.022 A 
ATOM     13  C   UNL     1      24.962  -4.722  27.725  1.00  0.00     0.051 A 
ATOM     14  C   UNL     1      25.303  -6.072  27.860  1.00  0.00     0.157 A 
ATOM     15  C   UNL     1      24.831  -6.412  25.502  1.00  0.00     0.068 A 
ATOM     16  C   UNL     1      25.241  -6.921  26.742  1.00  0.00     0.158 A 
BRANCH  14  17
ATOM     17  O   UNL     1      25.702  -6.548  29.108  1.00  0.00    -0.504 OA
ATOM     18  H   UNL     1      25.931  -5.925  29.874  1.00  0.00     0.293 HD
ENDBRANCH  14  17
BRANCH  16  19
ATOM     19  O   UNL     1      25.593  -8.265  26.868  1.00  0.00    -0.504 OA
ATOM     20  H   UNL     1      26.160  -8.732  26.170  1.00  0.00     0.293 HD
ENDBRANCH  16  19
ENDBRANCH   1  11
BRANCH  10  21
ATOM     21  O   UNL     1      26.051  -3.104  23.898  1.00  0.00    -0.500 OA
ATOM     22  H   UNL     1      26.596  -3.682  24.528  1.00  0.00     0.294 HD
ENDBRANCH  10  21
BRANCH   5  23
ATOM     23  O   UNL     1      19.535  -5.092  20.179  1.00  0.00    -0.507 OA
ATOM     24  H   UNL     1      19.518  -5.815  19.469  1.00  0.00     0.293 HD
ENDBRANCH   5  23
BRANCH   7  25
ATOM     25  O   UNL     1      23.247  -2.077  19.600  1.00  0.00    -0.507 OA
ATOM     26  H   UNL     1      23.334  -1.105  19.856  1.00  0.00     0.293 HD
ENDBRANCH   7  25
TORSDOF 6
ENDMDL
MODEL 2
REMARK VINA RESULT:    -7.314     10.309     12.886
REMARK INTER + INTRA:          -9.009
REMARK INTER:                  -8.899
REMARK INTRA:                  -0.110
REMARK UNBOUND:                -0.198
REMARK SMILES Oc1cc(O)c2cc(O)c(-c3ccc(O)c(O)c3)[o+]c2c1
REMARK SMILES IDX 10 1 19 2 20 3 21 4 2 5 3 6 4 7 6 8 7 9 8 10 11 11 12 12
REMARK SMILES IDX 13 13 14 14 18 15 16 16 15 17 17 19 9 21 1 23 5 25
REMARK H PARENT 15 18 17 20 9 22 1 24 5 26
REMARK Flexibility Score: inf
ROOT
ATOM      1  C   UNL     1      23.283   6.493  23.880  1.00  0.00     0.402 A 
ATOM      2  O   UNL     1      23.538   6.129  25.134  1.00  0.00    -0.202 OA
ATOM      3  C   UNL     1      24.506   6.667  25.867  1.00  0.00     0.368 A 
ATOM      4  C   UNL     1      24.698   6.215  27.177  1.00  0.00     0.162 A 
ATOM      5  C   UNL     1      25.709   6.759  27.969  1.00  0.00     0.128 A 
ATOM      6  C   UNL     1      26.536   7.762  27.451  1.00  0.00     0.093 A 
ATOM      7  C   UNL     1      26.365   8.231  26.144  1.00  0.00     0.136 A 
ATOM      8  C   UNL     1      25.335   7.683  25.335  1.00  0.00     0.125 A 
ATOM      9  C   UNL     1      25.082   8.100  24.018  1.00  0.00     0.078 A 
ATOM     10  C   UNL     1      24.046   7.514  23.284  1.00  0.00     0.223 A 
ENDROOT
BRANCH   1  11
ATOM     11  C   UNL     1      22.183   5.811  23.162  1.00  0.00     0.087 A 
ATOM     12  C   UNL     1      22.445   5.180  21.936  1.00  0.00     0.022 A 
ATOM     13  C   UNL     1      21.419   4.547  21.230  1.00  0.00     0.051 A 
ATOM     14  C   UNL     1      20.112   4.549  21.730  1.00  0.00     0.157 A 
ATOM     15  C   UNL     1      20.864   5.829  23.652  1.00  0.00     0.068 A 
ATOM     16  C   UNL     1      19.832   5.196  22.945  1.00  0.00     0.158 A 
BRANCH  14  17
ATOM     17  O   UNL     1      19.109   3.906  21.005  1.00  0.00    -0.504 OA
ATOM     18  H   UNL     1      18.608   4.368  20.255  1.00  0.00     0.293 HD
ENDBRANCH  14  17
BRANCH  16  19
ATOM     19  O   UNL     1      18.529   5.213  23.441  1.00  0.00    -0.504 OA
ATOM     20  H   UNL     1      18.322   5.543  24.377  1.00  0.00     0.293 HD
ENDBRANCH  16  19
ENDBRANCH   1  11
BRANCH  10  21
ATOM     21  O   UNL     1      23.762   7.963  21.994  1.00  0.00    -0.500 OA
ATOM     22  H   UNL     1      24.268   8.735  21.575  1.00  0.00     0.294 HD
ENDBRANCH  10  21
BRANCH   5  23
ATOM     23  O   UNL     1      25.884   6.297  29.272  1.00  0.00    -0.507 OA
ATOM     24  H   UNL     1      26.163   5.342  29.462  1.00  0.00     0.293 HD
ENDBRANCH   5  23
BRANCH   7  25
ATOM     25  O   UNL     1      27.234   9.233  25.699  1.00  0.00    -0.507 OA
ATOM     26  H   UNL     1      28.003   9.080  25.065  1.00  0.00     0.293 HD
ENDBRANCH   7  25
TORSDOF 6
ENDMDL
MODEL 3
REMARK VINA RESULT:    -7.276      4.048      6.105
REMARK INTER + INTRA:          -8.962
REMARK INTER:                  -8.626
REMARK INTRA:                  -0.336
REMARK UNBOUND:                -0.198
REMARK SMILES Oc1cc(O)c2cc(O)c(-c3ccc(O)c(O)c3)[o+]c2c1
REMARK SMILES IDX 10 1 19 2 20 3 21 4 2 5 3 6 4 7 6 8 7 9 8 10 11 11 12 12
REMARK SMILES IDX 13 13 14 14 18 15 16 16 15 17 17 19 9 21 1 23 5 25
REMARK H PARENT 15 18 17 20 9 22 1 24 5 26
REMARK Flexibility Score: inf
ROOT
ATOM      1  C   UNL     1      23.863  -4.455  20.291  1.00  0.00     0.402 A 
ATOM      2  O   UNL     1      23.408  -4.992  19.162  1.00  0.00    -0.202 OA
ATOM      3  C   UNL     1      22.316  -5.747  19.101  1.00  0.00     0.368 A 
ATOM      4  C   UNL     1      21.918  -6.270  17.868  1.00  0.00     0.162 A 
ATOM      5  C   UNL     1      20.778  -7.068  17.775  1.00  0.00     0.128 A 
ATOM      6  C   UNL     1      20.027  -7.346  18.922  1.00  0.00     0.093 A 
ATOM      7  C   UNL     1      20.404  -6.836  20.169  1.00  0.00     0.136 A 
ATOM      8  C   UNL     1      21.562  -6.021  20.268  1.00  0.00     0.125 A 
ATOM      9  C   UNL     1      22.008  -5.454  21.474  1.00  0.00     0.078 A 
ATOM     10  C   UNL     1      23.157  -4.659  21.491  1.00  0.00     0.223 A 
ENDROOT
BRANCH   1  11
ATOM     11  C   UNL     1      25.098  -3.641  20.231  1.00  0.00     0.087 A 
ATOM     12  C   UNL     1      26.325  -4.222  20.587  1.00  0.00     0.022 A 
ATOM     13  C   UNL     1      27.501  -3.468  20.558  1.00  0.00     0.051 A 
ATOM     14  C   UNL     1      27.467  -2.120  20.188  1.00  0.00     0.157 A 
ATOM     15  C   UNL     1      25.063  -2.280  19.879  1.00  0.00     0.068 A 
ATOM     16  C   UNL     1      26.242  -1.521  19.851  1.00  0.00     0.158 A 
BRANCH  14  17
ATOM     17  O   UNL     1      28.658  -1.394  20.165  1.00  0.00    -0.504 OA
ATOM     18  H   UNL     1      28.677  -0.398  19.977  1.00  0.00     0.293 HD
ENDBRANCH  14  17
BRANCH  16  19
ATOM     19  O   UNL     1      26.200  -0.173  19.495  1.00  0.00    -0.504 OA
ATOM     20  H   UNL     1      25.348   0.370  19.572  1.00  0.00     0.293 HD
ENDBRANCH  16  19
ENDBRANCH   1  11
BRANCH  10  21
ATOM     21  O   UNL     1      23.572  -4.055  22.679  1.00  0.00    -0.500 OA
ATOM     22  H   UNL     1      23.840  -3.078  22.714  1.00  0.00     0.294 HD
ENDBRANCH  10  21
BRANCH   5  23
ATOM     23  O   UNL     1      20.396  -7.579  16.536  1.00  0.00    -0.507 OA
ATOM     24  H   UNL     1      20.918  -8.322  16.085  1.00  0.00     0.293 HD
ENDBRANCH   5  23
BRANCH   7  25
ATOM     25  O   UNL     1      19.604  -7.162  21.269  1.00  0.00    -0.507 OA
ATOM     26  H   UNL     1      18.624  -7.392  21.213  1.00  0.00     0.293 HD
ENDBRANCH   7  25
TORSDOF 6
ENDMDL
MODEL 4
REMARK VINA RESULT:    -7.120      6.295      8.540
REMARK INTER + INTRA:          -8.774
REMARK INTER:                  -8.465
REMARK INTRA:                  -0.309
REMARK UNBOUND:                -0.198
REMARK SMILES Oc1cc(O)c2cc(O)c(-c3ccc(O)c(O)c3)[o+]c2c1
REMARK SMILES IDX 10 1 19 2 20 3 21 4 2 5 3 6 4 7 6 8 7 9 8 10 11 11 12 12
REMARK SMILES IDX 13 13 14 14 18 15 16 16 15 17 17 19 9 21 1 23 5 25
REMARK H PARENT 15 18 17 20 9 22 1 24 5 26
REMARK Flexibility Score: inf
ROOT
ATOM      1  C   UNL     1      23.039   2.336  22.648  1.00  0.00     0.402 A 
ATOM      2  O   UNL     1      23.783   2.321  21.546  1.00  0.00    -0.202 OA
ATOM      3  C   UNL     1      23.875   1.267  20.742  1.00  0.00     0.368 A 
ATOM      4  C   UNL     1      24.686   1.345  19.606  1.00  0.00     0.162 A 
ATOM      5  C   UNL     1      24.804   0.254  18.746  1.00  0.00     0.128 A 
ATOM      6  C   UNL     1      24.106  -0.927  19.021  1.00  0.00     0.093 A 
ATOM      7  C   UNL     1      23.287  -1.032  20.151  1.00  0.00     0.136 A 
ATOM      8  C   UNL     1      23.162   0.077  21.027  1.00  0.00     0.125 A 
ATOM      9  C   UNL     1      22.354   0.068  22.176  1.00  0.00     0.078 A 
ATOM     10  C   UNL     1      22.279   1.202  22.990  1.00  0.00     0.223 A 
ENDROOT
BRANCH   1  11
ATOM     11  C   UNL     1      23.028   3.569  23.468  1.00  0.00     0.087 A 
ATOM     12  C   UNL     1      22.356   4.706  22.995  1.00  0.00     0.022 A 
ATOM     13  C   UNL     1      22.348   5.887  23.743  1.00  0.00     0.051 A 
ATOM     14  C   UNL     1      23.024   5.954  24.965  1.00  0.00     0.157 A 
ATOM     15  C   UNL     1      23.724   3.644  24.688  1.00  0.00     0.068 A 
ATOM     16  C   UNL     1      23.719   4.829  25.439  1.00  0.00     0.158 A 
BRANCH  14  17
ATOM     17  O   UNL     1      22.996   7.144  25.691  1.00  0.00    -0.504 OA
ATOM     18  H   UNL     1      22.938   7.157  26.703  1.00  0.00     0.293 HD
ENDBRANCH  14  17
BRANCH  16  19
ATOM     19  O   UNL     1      24.407   4.894  26.651  1.00  0.00    -0.504 OA
ATOM     20  H   UNL     1      25.172   5.544  26.793  1.00  0.00     0.293 HD
ENDBRANCH  16  19
ENDBRANCH   1  11
BRANCH  10  21
ATOM     21  O   UNL     1      21.438   1.210  24.103  1.00  0.00    -0.500 OA
ATOM     22  H   UNL     1      20.694   0.531  24.214  1.00  0.00     0.294 HD
ENDBRANCH  10  21
BRANCH   5  23
ATOM     23  O   UNL     1      25.617   0.352  17.619  1.00  0.00    -0.507 OA
ATOM     24  H   UNL     1      26.163   1.184  17.430  1.00  0.00     0.293 HD
ENDBRANCH   5  23
BRANCH   7  25
ATOM     25  O   UNL     1      22.625  -2.247  20.358  1.00  0.00    -0.507 OA
ATOM     26  H   UNL     1      22.758  -3.072  19.793  1.00  0.00     0.293 HD
ENDBRANCH   7  25
TORSDOF 6
ENDMDL
MODEL 5
REMARK VINA RESULT:    -7.100      7.345      9.255
REMARK INTER + INTRA:          -8.750
REMARK INTER:                  -8.432
REMARK INTRA:                  -0.318
REMARK UNBOUND:                -0.198
REMARK SMILES Oc1cc(O)c2cc(O)c(-c3ccc(O)c(O)c3)[o+]c2c1
REMARK SMILES IDX 10 1 19 2 20 3 21 4 2 5 3 6 4 7 6 8 7 9 8 10 11 11 12 12
REMARK SMILES IDX 13 13 14 14 18 15 16 16 15 17 17 19 9 21 1 23 5 25
REMARK H PARENT 15 18 17 20 9 22 1 24 5 26
REMARK Flexibility Score: inf
ROOT
ATOM      1  C   UNL     1      22.535   3.544  21.214  1.00  0.00     0.402 A 
ATOM      2  O   UNL     1      23.441   3.050  20.374  1.00  0.00    -0.202 OA
ATOM      3  C   UNL     1      23.505   3.385  19.090  1.00  0.00     0.368 A 
ATOM      4  C   UNL     1      24.492   2.809  18.285  1.00  0.00     0.162 A 
ATOM      5  C   UNL     1      24.581   3.139  16.933  1.00  0.00     0.128 A 
ATOM      6  C   UNL     1      23.676   4.050  16.378  1.00  0.00     0.093 A 
ATOM      7  C   UNL     1      22.677   4.640  17.161  1.00  0.00     0.136 A 
ATOM      8  C   UNL     1      22.586   4.310  18.539  1.00  0.00     0.125 A 
ATOM      9  C   UNL     1      21.626   4.861  19.403  1.00  0.00     0.078 A 
ATOM     10  C   UNL     1      21.601   4.489  20.750  1.00  0.00     0.223 A 
ENDROOT
BRANCH   1  11
ATOM     11  C   UNL     1      22.560   3.085  22.621  1.00  0.00     0.087 A 
ATOM     12  C   UNL     1      21.937   1.875  22.963  1.00  0.00     0.022 A 
ATOM     13  C   UNL     1      21.931   1.431  24.288  1.00  0.00     0.051 A 
ATOM     14  C   UNL     1      22.531   2.197  25.293  1.00  0.00     0.157 A 
ATOM     15  C   UNL     1      23.145   3.863  23.636  1.00  0.00     0.068 A 
ATOM     16  C   UNL     1      23.138   3.421  24.967  1.00  0.00     0.158 A 
BRANCH  14  17
ATOM     17  O   UNL     1      22.512   1.727  26.606  1.00  0.00    -0.504 OA
ATOM     18  H   UNL     1      23.326   1.306  27.039  1.00  0.00     0.293 HD
ENDBRANCH  14  17
BRANCH  16  19
ATOM     19  O   UNL     1      23.727   4.195  25.966  1.00  0.00    -0.504 OA
ATOM     20  H   UNL     1      24.450   3.822  26.570  1.00  0.00     0.293 HD
ENDBRANCH  16  19
ENDBRANCH   1  11
BRANCH  10  21
ATOM     21  O   UNL     1      20.680   5.074  21.621  1.00  0.00    -0.500 OA
ATOM     22  H   UNL     1      20.914   5.892  22.171  1.00  0.00     0.294 HD
ENDBRANCH  10  21
BRANCH   5  23
ATOM     23  O   UNL     1      25.573   2.556  16.147  1.00  0.00    -0.507 OA
ATOM     24  H   UNL     1      25.397   2.281  15.188  1.00  0.00     0.293 HD
ENDBRANCH   5  23
BRANCH   7  25
ATOM     25  O   UNL     1      21.810   5.538  16.532  1.00  0.00    -0.507 OA
ATOM     26  H   UNL     1      22.107   6.362  16.031  1.00  0.00     0.293 HD
ENDBRANCH   7  25
TORSDOF 6
ENDMDL
MODEL 6
REMARK VINA RESULT:    -7.075      4.068      7.684
REMARK INTER + INTRA:          -8.720
REMARK INTER:                  -8.374
REMARK INTRA:                  -0.346
REMARK UNBOUND:                -0.198
REMARK SMILES Oc1cc(O)c2cc(O)c(-c3ccc(O)c(O)c3)[o+]c2c1
REMARK SMILES IDX 10 1 19 2 20 3 21 4 2 5 3 6 4 7 6 8 7 9 8 10 11 11 12 12
REMARK SMILES IDX 13 13 14 14 18 15 16 16 15 17 17 19 9 21 1 23 5 25
REMARK H PARENT 15 18 17 20 9 22 1 24 5 26
REMARK Flexibility Score: inf
ROOT
ATOM      1  C   UNL     1      24.491  -4.998  20.010  1.00  0.00     0.402 A 
ATOM      2  O   UNL     1      25.169  -3.867  19.835  1.00  0.00    -0.202 OA
ATOM      3  C   UNL     1      26.309  -3.594  20.460  1.00  0.00     0.368 A 
ATOM      4  C   UNL     1      26.946  -2.375  20.213  1.00  0.00     0.162 A 
ATOM      5  C   UNL     1      28.142  -2.060  20.857  1.00  0.00     0.128 A 
ATOM      6  C   UNL     1      28.708  -2.970  21.757  1.00  0.00     0.093 A 
ATOM      7  C   UNL     1      28.090  -4.197  22.024  1.00  0.00     0.136 A 
ATOM      8  C   UNL     1      26.874  -4.522  21.368  1.00  0.00     0.125 A 
ATOM      9  C   UNL     1      26.191  -5.734  21.562  1.00  0.00     0.078 A 
ATOM     10  C   UNL     1      24.999  -5.984  20.877  1.00  0.00     0.223 A 
ENDROOT
BRANCH   1  11
ATOM     11  C   UNL     1      23.226  -5.181  19.263  1.00  0.00     0.087 A 
ATOM     12  C   UNL     1      23.253  -5.796  18.002  1.00  0.00     0.022 A 
ATOM     13  C   UNL     1      22.074  -5.962  17.270  1.00  0.00     0.051 A 
ATOM     14  C   UNL     1      20.855  -5.501  17.778  1.00  0.00     0.157 A 
ATOM     15  C   UNL     1      22.003  -4.699  19.763  1.00  0.00     0.068 A 
ATOM     16  C   UNL     1      20.819  -4.862  19.029  1.00  0.00     0.158 A 
BRANCH  14  17
ATOM     17  O   UNL     1      19.695  -5.683  17.026  1.00  0.00    -0.504 OA
ATOM     18  H   UNL     1      18.816  -5.246  17.279  1.00  0.00     0.293 HD
ENDBRANCH  14  17
BRANCH  16  19
ATOM     19  O   UNL     1      19.609  -4.388  19.535  1.00  0.00    -0.504 OA
ATOM     20  H   UNL     1      19.322  -3.425  19.407  1.00  0.00     0.293 HD
ENDBRANCH  16  19
ENDBRANCH   1  11
BRANCH  10  21
ATOM     21  O   UNL     1      24.346  -7.208  21.032  1.00  0.00    -0.500 OA
ATOM     22  H   UNL     1      23.520  -7.442  20.493  1.00  0.00     0.294 HD
ENDBRANCH  10  21
BRANCH   5  23
ATOM     23  O   UNL     1      28.763  -0.840  20.596  1.00  0.00    -0.507 OA
ATOM     24  H   UNL     1      29.701  -0.642  20.924  1.00  0.00     0.293 HD
ENDBRANCH   5  23
BRANCH   7  25
ATOM     25  O   UNL     1      28.716  -5.050  22.938  1.00  0.00    -0.507 OA
ATOM     26  H   UNL     1      28.347  -5.280  23.849  1.00  0.00     0.293 HD
ENDBRANCH   7  25
TORSDOF 6
ENDMDL
MODEL 7
REMARK VINA RESULT:    -7.005      1.644      3.547
REMARK INTER + INTRA:          -8.636
REMARK INTER:                  -8.630
REMARK INTRA:                  -0.006
REMARK UNBOUND:                -0.198
REMARK SMILES Oc1cc(O)c2cc(O)c(-c3ccc(O)c(O)c3)[o+]c2c1
REMARK SMILES IDX 10 1 19 2 20 3 21 4 2 5 3 6 4 7 6 8 7 9 8 10 11 11 12 12
REMARK SMILES IDX 13 13 14 14 18 15 16 16 15 17 17 19 9 21 1 23 5 25
REMARK H PARENT 15 18 17 20 9 22 1 24 5 26
REMARK Flexibility Score: inf
ROOT
ATOM      1  C   UNL     1      22.637  -5.330  22.383  1.00  0.00     0.402 A 
ATOM      2  O   UNL     1      23.201  -4.437  21.573  1.00  0.00    -0.202 OA
ATOM      3  C   UNL     1      22.662  -4.055  20.420  1.00  0.00     0.368 A 
ATOM      4  C   UNL     1      23.332  -3.112  19.635  1.00  0.00     0.162 A 
ATOM      5  C   UNL     1      22.793  -2.695  18.419  1.00  0.00     0.128 A 
ATOM      6  C   UNL     1      21.573  -3.223  17.981  1.00  0.00     0.093 A 
ATOM      7  C   UNL     1      20.882  -4.169  18.747  1.00  0.00     0.136 A 
ATOM      8  C   UNL     1      21.427  -4.594  19.987  1.00  0.00     0.125 A 
ATOM      9  C   UNL     1      20.798  -5.527  20.828  1.00  0.00     0.078 A 
ATOM     10  C   UNL     1      21.395  -5.895  22.037  1.00  0.00     0.223 A 
ENDROOT
BRANCH   1  11
ATOM     11  C   UNL     1      23.341  -5.681  23.637  1.00  0.00     0.087 A 
ATOM     12  C   UNL     1      23.502  -7.032  23.981  1.00  0.00     0.022 A 
ATOM     13  C   UNL     1      24.146  -7.388  25.170  1.00  0.00     0.051 A 
ATOM     14  C   UNL     1      24.623  -6.401  26.039  1.00  0.00     0.157 A 
ATOM     15  C   UNL     1      23.803  -4.690  24.522  1.00  0.00     0.068 A 
ATOM     16  C   UNL     1      24.447  -5.045  25.716  1.00  0.00     0.158 A 
BRANCH  14  17
ATOM     17  O   UNL     1      25.264  -6.786  27.216  1.00  0.00    -0.504 OA
ATOM     18  H   UNL     1      26.206  -6.486  27.438  1.00  0.00     0.293 HD
ENDBRANCH  14  17
BRANCH  16  19
ATOM     19  O   UNL     1      24.908  -4.056  26.585  1.00  0.00    -0.504 OA
ATOM     20  H   UNL     1      25.415  -4.288  27.430  1.00  0.00     0.293 HD
ENDBRANCH  16  19
ENDBRANCH   1  11
BRANCH  10  21
ATOM     21  O   UNL     1      20.747  -6.783  22.896  1.00  0.00    -0.500 OA
ATOM     22  H   UNL     1      21.114  -7.710  23.078  1.00  0.00     0.294 HD
ENDBRANCH  10  21
BRANCH   5  23
ATOM     23  O   UNL     1      23.475  -1.754  17.651  1.00  0.00    -0.507 OA
ATOM     24  H   UNL     1      23.197  -0.780  17.637  1.00  0.00     0.293 HD
ENDBRANCH   5  23
BRANCH   7  25
ATOM     25  O   UNL     1      19.672  -4.652  18.239  1.00  0.00    -0.507 OA
ATOM     26  H   UNL     1      18.928  -5.033  18.803  1.00  0.00     0.293 HD
ENDBRANCH   7  25
TORSDOF 6
ENDMDL
MODEL 8
REMARK VINA RESULT:    -7.000      6.169      8.677
REMARK INTER + INTRA:          -8.630
REMARK INTER:                  -8.277
REMARK INTRA:                  -0.352
REMARK UNBOUND:                -0.198
REMARK SMILES Oc1cc(O)c2cc(O)c(-c3ccc(O)c(O)c3)[o+]c2c1
REMARK SMILES IDX 10 1 19 2 20 3 21 4 2 5 3 6 4 7 6 8 7 9 8 10 11 11 12 12
REMARK SMILES IDX 13 13 14 14 18 15 16 16 15 17 17 19 9 21 1 23 5 25
REMARK H PARENT 15 18 17 20 9 22 1 24 5 26
REMARK Flexibility Score: inf
ROOT
ATOM      1  C   UNL     1      23.400   1.762  22.076  1.00  0.00     0.402 A 
ATOM      2  O   UNL     1      23.843   2.293  23.213  1.00  0.00    -0.202 OA
ATOM      3  C   UNL     1      23.422   3.461  23.685  1.00  0.00     0.368 A 
ATOM      4  C   UNL     1      23.949   3.937  24.889  1.00  0.00     0.162 A 
ATOM      5  C   UNL     1      23.529   5.162  25.408  1.00  0.00     0.128 A 
ATOM      6  C   UNL     1      22.574   5.918  24.720  1.00  0.00     0.093 A 
ATOM      7  C   UNL     1      22.030   5.464  23.513  1.00  0.00     0.136 A 
ATOM      8  C   UNL     1      22.453   4.217  22.983  1.00  0.00     0.125 A 
ATOM      9  C   UNL     1      21.954   3.676  21.787  1.00  0.00     0.078 A 
ATOM     10  C   UNL     1      22.417   2.439  21.330  1.00  0.00     0.223 A 
ENDROOT
BRANCH   1  11
ATOM     11  C   UNL     1      23.954   0.458  21.648  1.00  0.00     0.087 A 
ATOM     12  C   UNL     1      23.402  -0.727  22.160  1.00  0.00     0.022 A 
ATOM     13  C   UNL     1      23.921  -1.970  21.787  1.00  0.00     0.051 A 
ATOM     14  C   UNL     1      25.008  -2.047  20.910  1.00  0.00     0.157 A 
ATOM     15  C   UNL     1      25.060   0.378  20.783  1.00  0.00     0.068 A 
ATOM     16  C   UNL     1      25.584  -0.868  20.409  1.00  0.00     0.158 A 
BRANCH  14  17
ATOM     17  O   UNL     1      25.503  -3.301  20.553  1.00  0.00    -0.504 OA
ATOM     18  H   UNL     1      24.968  -4.150  20.695  1.00  0.00     0.293 HD
ENDBRANCH  14  17
BRANCH  16  19
ATOM     19  O   UNL     1      26.677  -0.938  19.545  1.00  0.00    -0.504 OA
ATOM     20  H   UNL     1      27.204  -1.795  19.425  1.00  0.00     0.293 HD
ENDBRANCH  16  19
ENDBRANCH   1  11
BRANCH  10  21
ATOM     21  O   UNL     1      21.885   1.878  20.168  1.00  0.00    -0.500 OA
ATOM     22  H   UNL     1      21.217   1.117  20.202  1.00  0.00     0.294 HD
ENDBRANCH  10  21
BRANCH   5  23
ATOM     23  O   UNL     1      24.066   5.619  26.610  1.00  0.00    -0.507 OA
ATOM     24  H   UNL     1      24.358   6.582  26.727  1.00  0.00     0.293 HD
ENDBRANCH   5  23
BRANCH   7  25
ATOM     25  O   UNL     1      21.084   6.279  22.885  1.00  0.00    -0.507 OA
ATOM     26  H   UNL     1      20.169   6.483  23.258  1.00  0.00     0.293 HD
ENDBRANCH   7  25
TORSDOF 6
ENDMDL
MODEL 9
REMARK VINA RESULT:    -6.942      4.226      7.509
REMARK INTER + INTRA:          -8.560
REMARK INTER:                  -8.249
REMARK INTRA:                  -0.312
REMARK UNBOUND:                -0.198
REMARK SMILES Oc1cc(O)c2cc(O)c(-c3ccc(O)c(O)c3)[o+]c2c1
REMARK SMILES IDX 10 1 19 2 20 3 21 4 2 5 3 6 4 7 6 8 7 9 8 10 11 11 12 12
REMARK SMILES IDX 13 13 14 14 18 15 16 16 15 17 17 19 9 21 1 23 5 25
REMARK H PARENT 15 18 17 20 9 22 1 24 5 26
REMARK Flexibility Score: inf
ROOT
ATOM      1  C   UNL     1      24.463  -3.704  19.589  1.00  0.00     0.402 A 
ATOM      2  O   UNL     1      25.295  -4.352  20.400  1.00  0.00    -0.202 OA
ATOM      3  C   UNL     1      26.435  -3.834  20.843  1.00  0.00     0.368 A 
ATOM      4  C   UNL     1      27.245  -4.595  21.691  1.00  0.00     0.162 A 
ATOM      5  C   UNL     1      28.449  -4.078  22.168  1.00  0.00     0.128 A 
ATOM      6  C   UNL     1      28.849  -2.790  21.797  1.00  0.00     0.093 A 
ATOM      7  C   UNL     1      28.058  -2.008  20.948  1.00  0.00     0.136 A 
ATOM      8  C   UNL     1      26.830  -2.529  20.462  1.00  0.00     0.125 A 
ATOM      9  C   UNL     1      25.966  -1.812  19.619  1.00  0.00     0.078 A 
ATOM     10  C   UNL     1      24.771  -2.391  19.184  1.00  0.00     0.223 A 
ENDROOT
BRANCH   1  11
ATOM     11  C   UNL     1      23.227  -4.393  19.155  1.00  0.00     0.087 A 
ATOM     12  C   UNL     1      23.284  -5.310  18.094  1.00  0.00     0.022 A 
ATOM     13  C   UNL     1      22.126  -5.958  17.655  1.00  0.00     0.051 A 
ATOM     14  C   UNL     1      20.893  -5.688  18.257  1.00  0.00     0.157 A 
ATOM     15  C   UNL     1      21.983  -4.108  19.746  1.00  0.00     0.068 A 
ATOM     16  C   UNL     1      20.819  -4.755  19.306  1.00  0.00     0.158 A 
BRANCH  14  17
ATOM     17  O   UNL     1      19.755  -6.352  17.800  1.00  0.00    -0.504 OA
ATOM     18  H   UNL     1      19.810  -7.239  17.312  1.00  0.00     0.293 HD
ENDBRANCH  14  17
BRANCH  16  19
ATOM     19  O   UNL     1      19.591  -4.472  19.901  1.00  0.00    -0.504 OA
ATOM     20  H   UNL     1      18.955  -3.789  19.506  1.00  0.00     0.293 HD
ENDBRANCH  16  19
ENDBRANCH   1  11
BRANCH  10  21
ATOM     21  O   UNL     1      23.888  -1.662  18.387  1.00  0.00    -0.500 OA
ATOM     22  H   UNL     1      22.884  -1.726  18.508  1.00  0.00     0.294 HD
ENDBRANCH  10  21
BRANCH   5  23
ATOM     23  O   UNL     1      29.241  -4.852  23.013  1.00  0.00    -0.507 OA
ATOM     24  H   UNL     1      29.846  -5.580  22.653  1.00  0.00     0.293 HD
ENDBRANCH   5  23
BRANCH   7  25
ATOM     25  O   UNL     1      28.529  -0.732  20.620  1.00  0.00    -0.507 OA
ATOM     26  H   UNL     1      28.499  -0.334  19.694  1.00  0.00     0.293 HD
ENDBRANCH   7  25
TORSDOF 6
ENDMDL
