MODEL 1
REMARK VINA RESULT:    -4.981      0.000      0.000
REMARK INTER + INTRA:          -9.272
REMARK INTER:                  -8.475
REMARK INTRA:                  -0.796
REMARK UNBOUND:                -0.796
REMARK SMILES CCCCCCCCCCCCCC(=O)[O-]
REMARK SMILES IDX 8 1 9 2 10 3 11 4 12 5 13 6 14 7 15 8 16 9 7 10 6 11 5 12
REMARK SMILES IDX 4 13 3 14 2 15 1 16
REMARK H PARENT
REMARK Flexibility Score: inf
ROOT
ATOM      1  C   UNL     1       5.307  42.765  44.608  1.00  0.00     0.000 C 
ENDROOT
BRANCH   1   2
ATOM      2  C   UNL     1       6.360  43.034  43.519  1.00  0.00     0.000 C 
BRANCH   2   3
ATOM      3  C   UNL     1       7.014  44.425  43.668  1.00  0.00     0.000 C 
BRANCH   3   4
ATOM      4  C   UNL     1       7.322  45.110  42.326  1.00  0.00     0.000 C 
BRANCH   4   5
ATOM      5  C   UNL     1       7.994  44.166  41.316  1.00  0.00     0.006 C 
BRANCH   5   6
ATOM      6  C   UNL     1       9.452  43.863  41.687  1.00  0.00     0.053 C 
BRANCH   6   7
ATOM      7  C   UNL     1       9.677  42.396  41.897  1.00  0.00     0.041 C 
ATOM      8  O   UNL     1      10.015  41.963  43.030  1.00  0.00    -0.550 OA
ATOM      9  O   UNL     1       9.477  41.506  40.850  1.00  0.00    -0.550 OA
ENDBRANCH   6   7
ENDBRANCH   5   6
ENDBRANCH   4   5
ENDBRANCH   3   4
ENDBRANCH   2   3
ENDBRANCH   1   2
BRANCH   1  10
ATOM     10  C   UNL     1       5.871  41.992  45.814  1.00  0.00     0.000 C 
BRANCH  10  11
ATOM     11  C   UNL     1       5.118  42.205  47.141  1.00  0.00    -0.000 C 
BRANCH  11  12
ATOM     12  C   UNL     1       5.718  41.402  48.308  1.00  0.00    -0.000 C 
BRANCH  12  13
ATOM     13  C   UNL     1       6.011  39.942  47.929  1.00  0.00    -0.000 C 
BRANCH  13  14
ATOM     14  C   UNL     1       7.472  39.542  48.186  1.00  0.00    -0.000 C 
BRANCH  14  15
ATOM     15  C   UNL     1       8.270  40.722  48.751  1.00  0.00    -0.003 C 
ATOM     16  C   UNL     1       9.682  40.296  49.143  1.00  0.00     0.004 C 
ENDBRANCH  14  15
ENDBRANCH  13  14
ENDBRANCH  12  13
ENDBRANCH  11  12
ENDBRANCH  10  11
ENDBRANCH   1  10
TORSDOF 12
ENDMDL
MODEL 2
REMARK VINA RESULT:    -4.911      1.818      4.002
REMARK INTER + INTRA:          -9.153
REMARK INTER:                  -8.345
REMARK INTRA:                  -0.807
REMARK UNBOUND:                -0.796
REMARK SMILES CCCCCCCCCCCCCC(=O)[O-]
REMARK SMILES IDX 8 1 9 2 10 3 11 4 12 5 13 6 14 7 15 8 16 9 7 10 6 11 5 12
REMARK SMILES IDX 4 13 3 14 2 15 1 16
REMARK H PARENT
REMARK Flexibility Score: inf
ROOT
ATOM      1  C   UNL     1       6.450  41.459  49.097  1.00  0.00     0.000 C 
ENDROOT
BRANCH   1   2
ATOM      2  C   UNL     1       5.330  42.272  48.425  1.00  0.00     0.000 C 
BRANCH   2   3
ATOM      3  C   UNL     1       4.917  41.681  47.059  1.00  0.00     0.000 C 
BRANCH   3   4
ATOM      4  C   UNL     1       5.438  42.483  45.855  1.00  0.00     0.000 C 
BRANCH   4   5
ATOM      5  C   UNL     1       6.044  41.591  44.761  1.00  0.00     0.006 C 
BRANCH   5   6
ATOM      6  C   UNL     1       6.578  42.407  43.576  1.00  0.00     0.053 C 
BRANCH   6   7
ATOM      7  C   UNL     1       7.564  41.625  42.763  1.00  0.00     0.041 C 
ATOM      8  O   UNL     1       8.582  41.126  43.312  1.00  0.00    -0.550 OA
ATOM      9  O   UNL     1       7.340  41.417  41.409  1.00  0.00    -0.550 OA
ENDBRANCH   6   7
ENDBRANCH   5   6
ENDBRANCH   4   5
ENDBRANCH   3   4
ENDBRANCH   2   3
ENDBRANCH   1   2
BRANCH   1  10
ATOM     10  C   UNL     1       6.789  40.161  48.342  1.00  0.00     0.000 C 
BRANCH  10  11
ATOM     11  C   UNL     1       8.172  40.138  47.664  1.00  0.00    -0.000 C 
BRANCH  11  12
ATOM     12  C   UNL     1       9.253  39.467  48.528  1.00  0.00    -0.000 C 
BRANCH  12  13
ATOM     13  C   UNL     1      10.040  40.478  49.377  1.00  0.00    -0.000 C 
BRANCH  13  14
ATOM     14  C   UNL     1      11.560  40.355  49.190  1.00  0.00    -0.000 C 
BRANCH  14  15
ATOM     15  C   UNL     1      12.040  38.940  49.530  1.00  0.00    -0.003 C 
ATOM     16  C   UNL     1      13.134  38.482  48.568  1.00  0.00     0.004 C 
ENDBRANCH  14  15
ENDBRANCH  13  14
ENDBRANCH  12  13
ENDBRANCH  11  12
ENDBRANCH  10  11
ENDBRANCH   1  10
TORSDOF 12
ENDMDL
MODEL 3
REMARK VINA RESULT:    -4.849      2.000      3.540
REMARK INTER + INTRA:          -9.047
REMARK INTER:                  -8.320
REMARK INTRA:                  -0.727
REMARK UNBOUND:                -0.796
REMARK SMILES CCCCCCCCCCCCCC(=O)[O-]
REMARK SMILES IDX 8 1 9 2 10 3 11 4 12 5 13 6 14 7 15 8 16 9 7 10 6 11 5 12
REMARK SMILES IDX 4 13 3 14 2 15 1 16
REMARK H PARENT
REMARK Flexibility Score: inf
ROOT
ATOM      1  C   UNL     1       6.225  41.012  47.212  1.00  0.00     0.000 C 
ENDROOT
BRANCH   1   2
ATOM      2  C   UNL     1       5.194  42.128  46.968  1.00  0.00     0.000 C 
BRANCH   2   3
ATOM      3  C   UNL     1       5.078  42.501  45.474  1.00  0.00     0.000 C 
BRANCH   3   4
ATOM      4  C   UNL     1       6.297  42.081  44.636  1.00  0.00     0.000 C 
BRANCH   4   5
ATOM      5  C   UNL     1       6.398  42.844  43.306  1.00  0.00     0.006 C 
BRANCH   5   6
ATOM      6  C   UNL     1       7.028  44.233  43.480  1.00  0.00     0.053 C 
BRANCH   6   7
ATOM      7  C   UNL     1       7.437  44.825  42.167  1.00  0.00     0.041 C 
ATOM      8  O   UNL     1       7.551  46.073  42.043  1.00  0.00    -0.550 OA
ATOM      9  O   UNL     1       7.726  43.996  41.090  1.00  0.00    -0.550 OA
ENDBRANCH   6   7
ENDBRANCH   5   6
ENDBRANCH   4   5
ENDBRANCH   3   4
ENDBRANCH   2   3
ENDBRANCH   1   2
BRANCH   1  10
ATOM     10  C   UNL     1       6.755  40.987  48.657  1.00  0.00     0.000 C 
BRANCH  10  11
ATOM     11  C   UNL     1       8.246  40.629  48.804  1.00  0.00    -0.000 C 
BRANCH  11  12
ATOM     12  C   UNL     1       8.670  39.448  47.913  1.00  0.00    -0.000 C 
BRANCH  12  13
ATOM     13  C   UNL     1       9.749  39.839  46.891  1.00  0.00    -0.000 C 
BRANCH  13  14
ATOM     14  C   UNL     1      11.170  39.777  47.473  1.00  0.00    -0.000 C 
BRANCH  14  15
ATOM     15  C   UNL     1      11.293  38.640  48.494  1.00  0.00    -0.003 C 
ATOM     16  C   UNL     1      12.019  39.106  49.753  1.00  0.00     0.004 C 
ENDBRANCH  14  15
ENDBRANCH  13  14
ENDBRANCH  12  13
ENDBRANCH  11  12
ENDBRANCH  10  11
ENDBRANCH   1  10
TORSDOF 12
ENDMDL
MODEL 4
REMARK VINA RESULT:    -4.845      2.236      6.936
REMARK INTER + INTRA:          -9.040
REMARK INTER:                  -8.596
REMARK INTRA:                  -0.444
REMARK UNBOUND:                -0.796
REMARK SMILES CCCCCCCCCCCCCC(=O)[O-]
REMARK SMILES IDX 8 1 9 2 10 3 11 4 12 5 13 6 14 7 15 8 16 9 7 10 6 11 5 12
REMARK SMILES IDX 4 13 3 14 2 15 1 16
REMARK H PARENT
REMARK Flexibility Score: inf
ROOT
ATOM      1  C   UNL     1       5.924  41.548  46.282  1.00  0.00     0.000 C 
ENDROOT
BRANCH   1   2
ATOM      2  C   UNL     1       5.426  41.805  47.715  1.00  0.00     0.000 C 
BRANCH   2   3
ATOM      3  C   UNL     1       6.421  41.294  48.780  1.00  0.00     0.000 C 
BRANCH   3   4
ATOM      4  C   UNL     1       7.498  40.352  48.218  1.00  0.00     0.000 C 
BRANCH   4   5
ATOM      5  C   UNL     1       8.810  40.400  49.019  1.00  0.00     0.006 C 
BRANCH   5   6
ATOM      6  C   UNL     1       9.880  39.466  48.437  1.00  0.00     0.053 C 
BRANCH   6   7
ATOM      7  C   UNL     1      11.080  40.226  47.961  1.00  0.00     0.041 C 
ATOM      8  O   UNL     1      11.258  40.423  46.730  1.00  0.00    -0.550 OA
ATOM      9  O   UNL     1      11.981  40.748  48.880  1.00  0.00    -0.550 OA
ENDBRANCH   6   7
ENDBRANCH   5   6
ENDBRANCH   4   5
ENDBRANCH   3   4
ENDBRANCH   2   3
ENDBRANCH   1   2
BRANCH   1  10
ATOM     10  C   UNL     1       5.404  42.584  45.269  1.00  0.00     0.000 C 
BRANCH  10  11
ATOM     11  C   UNL     1       6.256  42.742  43.995  1.00  0.00    -0.000 C 
BRANCH  11  12
ATOM     12  C   UNL     1       6.738  44.186  43.771  1.00  0.00    -0.000 C 
BRANCH  12  13
ATOM     13  C   UNL     1       7.905  44.270  42.773  1.00  0.00    -0.000 C 
BRANCH  13  14
ATOM     14  C   UNL     1       7.567  45.112  41.534  1.00  0.00    -0.000 C 
BRANCH  14  15
ATOM     15  C   UNL     1       8.279  46.468  41.583  1.00  0.00    -0.003 C 
ATOM     16  C   UNL     1       7.963  47.302  40.345  1.00  0.00     0.004 C 
ENDBRANCH  14  15
ENDBRANCH  13  14
ENDBRANCH  12  13
ENDBRANCH  11  12
ENDBRANCH  10  11
ENDBRANCH   1  10
TORSDOF 12
ENDMDL
MODEL 5
REMARK VINA RESULT:    -4.842      2.834      6.104
REMARK INTER + INTRA:          -9.036
REMARK INTER:                  -7.775
REMARK INTRA:                  -1.261
REMARK UNBOUND:                -0.796
REMARK SMILES CCCCCCCCCCCCCC(=O)[O-]
REMARK SMILES IDX 8 1 9 2 10 3 11 4 12 5 13 6 14 7 15 8 16 9 7 10 6 11 5 12
REMARK SMILES IDX 4 13 3 14 2 15 1 16
REMARK H PARENT
REMARK Flexibility Score: inf
ROOT
ATOM      1  C   UNL     1       6.884  44.461  43.774  1.00  0.00     0.000 C 
ENDROOT
BRANCH   1   2
ATOM      2  C   UNL     1       6.140  43.119  43.655  1.00  0.00     0.000 C 
BRANCH   2   3
ATOM      3  C   UNL     1       6.229  42.284  44.952  1.00  0.00     0.000 C 
BRANCH   3   4
ATOM      4  C   UNL     1       5.055  42.517  45.918  1.00  0.00     0.000 C 
BRANCH   4   5
ATOM      5  C   UNL     1       5.057  41.540  47.104  1.00  0.00     0.006 C 
BRANCH   5   6
ATOM      6  C   UNL     1       6.404  40.823  47.264  1.00  0.00     0.053 C 
BRANCH   6   7
ATOM      7  C   UNL     1       7.011  41.077  48.610  1.00  0.00     0.041 C 
ATOM      8  O   UNL     1       8.163  40.644  48.877  1.00  0.00    -0.550 OA
ATOM      9  O   UNL     1       6.318  41.822  49.555  1.00  0.00    -0.550 OA
ENDBRANCH   6   7
ENDBRANCH   5   6
ENDBRANCH   4   5
ENDBRANCH   3   4
ENDBRANCH   2   3
ENDBRANCH   1   2
BRANCH   1  10
ATOM     10  C   UNL     1       7.765  44.771  42.551  1.00  0.00     0.000 C 
BRANCH  10  11
ATOM     11  C   UNL     1       9.060  43.942  42.447  1.00  0.00    -0.000 C 
BRANCH  11  12
ATOM     12  C   UNL     1       9.173  43.169  41.123  1.00  0.00    -0.000 C 
BRANCH  12  13
ATOM     13  C   UNL     1       9.688  41.734  41.320  1.00  0.00    -0.000 C 
BRANCH  13  14
ATOM     14  C   UNL     1       8.822  40.921  42.295  1.00  0.00    -0.000 C 
BRANCH  14  15
ATOM     15  C   UNL     1       9.647  40.449  43.497  1.00  0.00    -0.003 C 
ATOM     16  C   UNL     1       8.789  39.656  44.478  1.00  0.00     0.004 C 
ENDBRANCH  14  15
ENDBRANCH  13  14
ENDBRANCH  12  13
ENDBRANCH  11  12
ENDBRANCH  10  11
ENDBRANCH   1  10
TORSDOF 12
ENDMDL
MODEL 6
REMARK VINA RESULT:    -4.811      3.437      8.088
REMARK INTER + INTRA:          -8.983
REMARK INTER:                  -8.382
REMARK INTRA:                  -0.601
REMARK UNBOUND:                -0.796
REMARK SMILES CCCCCCCCCCCCCC(=O)[O-]
REMARK SMILES IDX 8 1 9 2 10 3 11 4 12 5 13 6 14 7 15 8 16 9 7 10 6 11 5 12
REMARK SMILES IDX 4 13 3 14 2 15 1 16
REMARK H PARENT
REMARK Flexibility Score: inf
ROOT
ATOM      1  C   UNL     1       8.289  43.846  42.445  1.00  0.00     0.000 C 
ENDROOT
BRANCH   1   2
ATOM      2  C   UNL     1       7.152  42.937  42.943  1.00  0.00     0.000 C 
BRANCH   2   3
ATOM      3  C   UNL     1       6.355  43.577  44.101  1.00  0.00     0.000 C 
BRANCH   3   4
ATOM      4  C   UNL     1       5.350  42.620  44.761  1.00  0.00     0.000 C 
BRANCH   4   5
ATOM      5  C   UNL     1       5.958  41.831  45.932  1.00  0.00     0.006 C 
BRANCH   5   6
ATOM      6  C   UNL     1       5.162  42.016  47.232  1.00  0.00     0.053 C 
BRANCH   6   7
ATOM      7  C   UNL     1       5.786  41.272  48.373  1.00  0.00     0.041 C 
ATOM      8  O   UNL     1       6.048  41.870  49.450  1.00  0.00    -0.550 OA
ATOM      9  O   UNL     1       6.043  39.912  48.259  1.00  0.00    -0.550 OA
ENDBRANCH   6   7
ENDBRANCH   5   6
ENDBRANCH   4   5
ENDBRANCH   3   4
ENDBRANCH   2   3
ENDBRANCH   1   2
BRANCH   1  10
ATOM     10  C   UNL     1       7.854  44.785  41.305  1.00  0.00     0.000 C 
BRANCH  10  11
ATOM     11  C   UNL     1       7.249  46.128  41.756  1.00  0.00    -0.000 C 
BRANCH  11  12
ATOM     12  C   UNL     1       7.805  47.330  40.972  1.00  0.00    -0.000 C 
BRANCH  12  13
ATOM     13  C   UNL     1       9.293  47.586  41.262  1.00  0.00    -0.000 C 
BRANCH  13  14
ATOM     14  C   UNL     1      10.131  47.731  39.983  1.00  0.00    -0.000 C 
BRANCH  14  15
ATOM     15  C   UNL     1       9.519  46.922  38.833  1.00  0.00    -0.003 C 
ATOM     16  C   UNL     1      10.423  46.941  37.603  1.00  0.00     0.004 C 
ENDBRANCH  14  15
ENDBRANCH  13  14
ENDBRANCH  12  13
ENDBRANCH  11  12
ENDBRANCH  10  11
ENDBRANCH   1  10
TORSDOF 12
ENDMDL
MODEL 7
REMARK VINA RESULT:    -4.800      2.221      3.223
REMARK INTER + INTRA:          -8.964
REMARK INTER:                  -7.588
REMARK INTRA:                  -1.376
REMARK UNBOUND:                -0.796
REMARK SMILES CCCCCCCCCCCCCC(=O)[O-]
REMARK SMILES IDX 8 1 9 2 10 3 11 4 12 5 13 6 14 7 15 8 16 9 7 10 6 11 5 12
REMARK SMILES IDX 4 13 3 14 2 15 1 16
REMARK H PARENT
REMARK Flexibility Score: inf
ROOT
ATOM      1  C   UNL     1       6.737  43.700  43.678  1.00  0.00     0.000 C 
ENDROOT
BRANCH   1   2
ATOM      2  C   UNL     1       7.571  43.303  42.447  1.00  0.00     0.000 C 
BRANCH   2   3
ATOM      3  C   UNL     1       7.360  41.826  42.048  1.00  0.00     0.000 C 
BRANCH   3   4
ATOM      4  C   UNL     1       8.660  41.005  42.010  1.00  0.00     0.000 C 
BRANCH   4   5
ATOM      5  C   UNL     1       9.397  40.993  43.358  1.00  0.00     0.006 C 
BRANCH   5   6
ATOM      6  C   UNL     1       9.634  39.569  43.878  1.00  0.00     0.053 C 
BRANCH   6   7
ATOM      7  C   UNL     1      11.088  39.299  44.115  1.00  0.00     0.041 C 
ATOM      8  O   UNL     1      11.530  39.196  45.290  1.00  0.00    -0.550 OA
ATOM      9  O   UNL     1      11.948  39.128  43.038  1.00  0.00    -0.550 OA
ENDBRANCH   6   7
ENDBRANCH   5   6
ENDBRANCH   4   5
ENDBRANCH   3   4
ENDBRANCH   2   3
ENDBRANCH   1   2
BRANCH   1  10
ATOM     10  C   UNL     1       5.676  42.649  44.051  1.00  0.00     0.000 C 
BRANCH  10  11
ATOM     11  C   UNL     1       5.815  42.047  45.462  1.00  0.00    -0.000 C 
BRANCH  11  12
ATOM     12  C   UNL     1       6.318  40.593  45.448  1.00  0.00    -0.000 C 
BRANCH  12  13
ATOM     13  C   UNL     1       7.172  40.253  46.680  1.00  0.00    -0.000 C 
BRANCH  13  14
ATOM     14  C   UNL     1       6.348  40.181  47.974  1.00  0.00    -0.000 C 
BRANCH  14  15
ATOM     15  C   UNL     1       6.763  41.289  48.949  1.00  0.00    -0.003 C 
ATOM     16  C   UNL     1       5.567  42.152  49.344  1.00  0.00     0.004 C 
ENDBRANCH  14  15
ENDBRANCH  13  14
ENDBRANCH  12  13
ENDBRANCH  11  12
ENDBRANCH  10  11
ENDBRANCH   1  10
TORSDOF 12
ENDMDL
MODEL 8
REMARK VINA RESULT:    -4.787      2.965      7.575
REMARK INTER + INTRA:          -8.941
REMARK INTER:                  -7.981
REMARK INTRA:                  -0.960
REMARK UNBOUND:                -0.796
REMARK SMILES CCCCCCCCCCCCCC(=O)[O-]
REMARK SMILES IDX 8 1 9 2 10 3 11 4 12 5 13 6 14 7 15 8 16 9 7 10 6 11 5 12
REMARK SMILES IDX 4 13 3 14 2 15 1 16
REMARK H PARENT
REMARK Flexibility Score: inf
ROOT
ATOM      1  C   UNL     1       7.454  43.274  42.532  1.00  0.00     0.000 C 
ENDROOT
BRANCH   1   2
ATOM      2  C   UNL     1       6.682  43.834  43.739  1.00  0.00     0.000 C 
BRANCH   2   3
ATOM      3  C   UNL     1       5.597  42.857  44.244  1.00  0.00     0.000 C 
BRANCH   3   4
ATOM      4  C   UNL     1       5.959  42.163  45.567  1.00  0.00     0.000 C 
BRANCH   4   5
ATOM      5  C   UNL     1       4.808  42.183  46.586  1.00  0.00     0.006 C 
BRANCH   5   6
ATOM      6  C   UNL     1       5.315  42.133  48.034  1.00  0.00     0.053 C 
BRANCH   6   7
ATOM      7  C   UNL     1       6.148  40.915  48.288  1.00  0.00     0.041 C 
ATOM      8  O   UNL     1       5.679  39.768  48.063  1.00  0.00    -0.550 OA
ATOM      9  O   UNL     1       7.455  41.048  48.740  1.00  0.00    -0.550 OA
ENDBRANCH   6   7
ENDBRANCH   5   6
ENDBRANCH   4   5
ENDBRANCH   3   4
ENDBRANCH   2   3
ENDBRANCH   1   2
BRANCH   1  10
ATOM     10  C   UNL     1       8.967  43.552  42.603  1.00  0.00     0.000 C 
BRANCH  10  11
ATOM     11  C   UNL     1       9.619  43.978  41.274  1.00  0.00    -0.000 C 
BRANCH  11  12
ATOM     12  C   UNL     1      10.595  45.156  41.435  1.00  0.00    -0.000 C 
BRANCH  12  13
ATOM     13  C   UNL     1       9.885  46.519  41.400  1.00  0.00    -0.000 C 
BRANCH  13  14
ATOM     14  C   UNL     1       9.243  46.820  40.037  1.00  0.00    -0.000 C 
BRANCH  14  15
ATOM     15  C   UNL     1       7.743  47.099  40.189  1.00  0.00    -0.003 C 
ATOM     16  C   UNL     1       7.296  46.938  41.640  1.00  0.00     0.004 C 
ENDBRANCH  14  15
ENDBRANCH  13  14
ENDBRANCH  12  13
ENDBRANCH  11  12
ENDBRANCH  10  11
ENDBRANCH   1  10
TORSDOF 12
ENDMDL
MODEL 9
REMARK VINA RESULT:    -4.745      2.043      6.142
REMARK INTER + INTRA:          -8.871
REMARK INTER:                  -7.744
REMARK INTRA:                  -1.127
REMARK UNBOUND:                -0.796
REMARK SMILES CCCCCCCCCCCCCC(=O)[O-]
REMARK SMILES IDX 8 1 9 2 10 3 11 4 12 5 13 6 14 7 15 8 16 9 7 10 6 11 5 12
REMARK SMILES IDX 4 13 3 14 2 15 1 16
REMARK H PARENT
REMARK Flexibility Score: inf
ROOT
ATOM      1  C   UNL     1       5.168  42.471  44.869  1.00  0.00     0.000 C 
ENDROOT
BRANCH   1   2
ATOM      2  C   UNL     1       6.025  42.003  46.057  1.00  0.00     0.000 C 
BRANCH   2   3
ATOM      3  C   UNL     1       5.261  42.084  47.398  1.00  0.00     0.000 C 
BRANCH   3   4
ATOM      4  C   UNL     1       5.695  41.022  48.421  1.00  0.00     0.000 C 
BRANCH   4   5
ATOM      5  C   UNL     1       6.015  39.665  47.773  1.00  0.00     0.006 C 
BRANCH   5   6
ATOM      6  C   UNL     1       7.324  39.063  48.303  1.00  0.00     0.053 C 
BRANCH   6   7
ATOM      7  C   UNL     1       8.516  39.861  47.872  1.00  0.00     0.041 C 
ATOM      8  O   UNL     1       9.163  40.539  48.713  1.00  0.00    -0.550 OA
ATOM      9  O   UNL     1       8.933  39.827  46.547  1.00  0.00    -0.550 OA
ENDBRANCH   6   7
ENDBRANCH   5   6
ENDBRANCH   4   5
ENDBRANCH   3   4
ENDBRANCH   2   3
ENDBRANCH   1   2
BRANCH   1  10
ATOM     10  C   UNL     1       6.006  42.849  43.634  1.00  0.00     0.000 C 
BRANCH  10  11
ATOM     11  C   UNL     1       6.834  44.140  43.772  1.00  0.00    -0.000 C 
BRANCH  11  12
ATOM     12  C   UNL     1       7.822  44.347  42.611  1.00  0.00    -0.000 C 
BRANCH  12  13
ATOM     13  C   UNL     1       9.010  43.373  42.666  1.00  0.00    -0.000 C 
BRANCH  13  14
ATOM     14  C   UNL     1       9.127  42.506  41.403  1.00  0.00    -0.000 C 
BRANCH  14  15
ATOM     15  C   UNL     1       8.480  41.134  41.619  1.00  0.00    -0.003 C 
ATOM     16  C   UNL     1       8.973  40.489  42.911  1.00  0.00     0.004 C 
ENDBRANCH  14  15
ENDBRANCH  13  14
ENDBRANCH  12  13
ENDBRANCH  11  12
ENDBRANCH  10  11
ENDBRANCH   1  10
TORSDOF 12
ENDMDL
