MODEL 1
REMARK VINA RESULT:    -4.933      0.000      0.000
REMARK INTER + INTRA:          -3.538
REMARK INTER:                  -5.365
REMARK INTRA:                   1.827
REMARK UNBOUND:                 1.827
REMARK SMILES CC1(C)CC[C@]2(C(=O)[O-])CC[C@@]3(C)C(=CC[C@H]4[C@@]5(C)CC[C@@H](O)C(C)(C)[C@H]5CC[C@]43C)[C@@H]2C1
REMARK SMILES IDX 6 1 5 2 10 3 32 4 4 5 11 6 14 7 33 8 2 9 12 10 15 11 1 12
REMARK SMILES IDX 3 13 13 14 30 15 16 16 17 17 29 18 31 19 18 20 28 21 27 22
REMARK SMILES IDX 20 23 19 24 24 25 21 26 22 27 25 28 26 29 7 30 8 31 9 32
REMARK SMILES IDX 23 33
REMARK H PARENT 23 34
REMARK Flexibility Score: inf
ROOT
ATOM      1  C   UNL     1       2.782  21.265  18.108  1.00  0.00     0.017 C 
ATOM      2  C   UNL     1       1.932  22.400  18.758  1.00  0.00     0.014 C 
ATOM      3  C   UNL     1       1.876  20.497  17.115  1.00  0.00     0.014 C 
ATOM      4  C   UNL     1       3.340  20.234  19.202  1.00  0.00     0.028 C 
ATOM      5  C   UNL     1       2.664  22.970  19.987  1.00  0.00     0.007 C 
ATOM      6  C   UNL     1       2.647  19.387  16.356  1.00  0.00     0.013 C 
ATOM      7  C   UNL     1       3.374  18.766  18.695  1.00  0.00    -0.064 C 
ATOM      8  C   UNL     1       2.627  20.457  20.566  1.00  0.00     0.015 C 
ATOM      9  C   UNL     1       2.877  21.909  21.121  1.00  0.00    -0.035 C 
ATOM     10  C   UNL     1       3.675  18.541  17.205  1.00  0.00    -0.006 C 
ATOM     11  C   UNL     1       3.490  17.731  19.584  1.00  0.00    -0.027 C 
ATOM     12  C   UNL     1       1.875  22.141  22.274  1.00  0.00     0.011 C 
ATOM     13  C   UNL     1       4.332  21.982  21.694  1.00  0.00     0.011 C 
ATOM     14  C   UNL     1       5.135  19.091  16.985  1.00  0.00     0.017 C 
ATOM     15  C   UNL     1       3.631  16.991  16.767  1.00  0.00    -0.020 C 
ATOM     16  C   UNL     1       4.044  16.406  19.216  1.00  0.00     0.032 C 
ATOM     17  C   UNL     1       4.563  16.199  17.771  1.00  0.00     0.006 C 
ATOM     18  C   UNL     1       2.223  16.290  16.869  1.00  0.00     0.008 C 
ATOM     19  C   UNL     1       4.036  16.933  15.262  1.00  0.00     0.012 C 
ATOM     20  C   UNL     1       4.786  14.663  17.432  1.00  0.00    -0.025 C 
ATOM     21  C   UNL     1       2.246  14.743  16.613  1.00  0.00     0.005 C 
ATOM     22  C   UNL     1       3.407  13.890  17.232  1.00  0.00     0.003 C 
ATOM     23  C   UNL     1       5.651  13.951  18.537  1.00  0.00     0.010 C 
ATOM     24  C   UNL     1       5.658  14.567  16.126  1.00  0.00     0.012 C 
ATOM     25  C   UNL     1       2.891  12.845  18.360  1.00  0.00    -0.006 C 
ATOM     26  C   UNL     1       5.478  12.409  18.473  1.00  0.00     0.033 C 
ATOM     27  C   UNL     1       4.090  11.989  18.982  1.00  0.00     0.120 C 
ATOM     28  C   UNL     1       1.877  11.844  17.682  1.00  0.00     0.014 C 
ATOM     29  C   UNL     1       2.056  13.503  19.526  1.00  0.00     0.014 C 
ENDROOT
BRANCH   1  30
ATOM     30  C   UNL     1       3.907  21.966  17.331  1.00  0.00     0.048 C 
ATOM     31  O   UNL     1       4.349  21.523  16.235  1.00  0.00    -0.550 OA
ATOM     32  O   UNL     1       4.515  23.078  17.914  1.00  0.00    -0.550 OA
ENDBRANCH   1  30
BRANCH  27  33
ATOM     33  O   UNL     1       4.130  12.080  20.402  1.00  0.00    -0.393 OA
ATOM     34  H   UNL     1       3.379  12.636  20.730  1.00  0.00     0.210 HD
ENDBRANCH  27  33
TORSDOF 2
ENDMDL
MODEL 2
REMARK VINA RESULT:    -3.498      1.407      1.849
REMARK INTER + INTRA:          -1.977
REMARK INTER:                  -2.997
REMARK INTRA:                   1.019
REMARK UNBOUND:                 1.827
REMARK SMILES CC1(C)CC[C@]2(C(=O)[O-])CC[C@@]3(C)C(=CC[C@H]4[C@@]5(C)CC[C@@H](O)C(C)(C)[C@H]5CC[C@]43C)[C@@H]2C1
REMARK SMILES IDX 6 1 5 2 10 3 32 4 4 5 11 6 14 7 33 8 2 9 12 10 15 11 1 12
REMARK SMILES IDX 3 13 13 14 30 15 16 16 17 17 29 18 31 19 18 20 28 21 27 22
REMARK SMILES IDX 20 23 19 24 24 25 21 26 22 27 25 28 26 29 7 30 8 31 9 32
REMARK SMILES IDX 23 33
REMARK H PARENT 23 34
REMARK Flexibility Score: inf
ROOT
ATOM      1  C   UNL     1       2.789  19.573  17.412  1.00  0.00     0.017 C 
ATOM      2  C   UNL     1       1.939  20.714  18.051  1.00  0.00     0.014 C 
ATOM      3  C   UNL     1       1.884  18.798  16.422  1.00  0.00     0.014 C 
ATOM      4  C   UNL     1       3.344  18.550  18.514  1.00  0.00     0.028 C 
ATOM      5  C   UNL     1       2.669  21.292  19.277  1.00  0.00     0.007 C 
ATOM      6  C   UNL     1       2.655  17.683  15.673  1.00  0.00     0.013 C 
ATOM      7  C   UNL     1       3.377  17.078  18.018  1.00  0.00    -0.064 C 
ATOM      8  C   UNL     1       2.629  18.784  19.875  1.00  0.00     0.015 C 
ATOM      9  C   UNL     1       2.879  20.239  20.419  1.00  0.00    -0.035 C 
ATOM     10  C   UNL     1       3.680  16.841  16.530  1.00  0.00    -0.006 C 
ATOM     11  C   UNL     1       3.491  16.050  18.915  1.00  0.00    -0.027 C 
ATOM     12  C   UNL     1       1.876  20.480  21.569  1.00  0.00     0.011 C 
ATOM     13  C   UNL     1       4.333  20.315  20.995  1.00  0.00     0.011 C 
ATOM     14  C   UNL     1       5.141  17.389  16.309  1.00  0.00     0.017 C 
ATOM     15  C   UNL     1       3.636  15.288  16.104  1.00  0.00    -0.020 C 
ATOM     16  C   UNL     1       4.044  14.721  18.558  1.00  0.00     0.032 C 
ATOM     17  C   UNL     1       4.566  14.503  17.114  1.00  0.00     0.006 C 
ATOM     18  C   UNL     1       2.227  14.590  16.209  1.00  0.00     0.008 C 
ATOM     19  C   UNL     1       4.044  15.219  14.599  1.00  0.00     0.012 C 
ATOM     20  C   UNL     1       4.787  12.965  16.787  1.00  0.00    -0.025 C 
ATOM     21  C   UNL     1       2.249  13.040  15.963  1.00  0.00     0.005 C 
ATOM     22  C   UNL     1       3.408  12.191  16.591  1.00  0.00     0.003 C 
ATOM     23  C   UNL     1       5.650  12.259  17.899  1.00  0.00     0.010 C 
ATOM     24  C   UNL     1       5.662  12.858  15.484  1.00  0.00     0.012 C 
ATOM     25  C   UNL     1       2.889  11.155  17.726  1.00  0.00    -0.006 C 
ATOM     26  C   UNL     1       5.476  10.718  17.847  1.00  0.00     0.033 C 
ATOM     27  C   UNL     1       4.086  10.302  18.357  1.00  0.00     0.120 C 
ATOM     28  C   UNL     1       1.875  10.150  17.053  1.00  0.00     0.014 C 
ATOM     29  C   UNL     1       2.053  11.823  18.886  1.00  0.00     0.014 C 
ENDROOT
BRANCH   1  30
ATOM     30  C   UNL     1       3.916  20.267  16.631  1.00  0.00     0.048 C 
ATOM     31  O   UNL     1       5.091  19.809  16.590  1.00  0.00    -0.550 OA
ATOM     32  O   UNL     1       3.638  21.493  16.026  1.00  0.00    -0.550 OA
ENDBRANCH   1  30
BRANCH  27  33
ATOM     33  O   UNL     1       4.124  10.404  19.775  1.00  0.00    -0.393 OA
ATOM     34  H   UNL     1       4.595  11.231  20.047  1.00  0.00     0.210 HD
ENDBRANCH  27  33
TORSDOF 2
ENDMDL
