MODEL 1
REMARK VINA RESULT:    -3.818      0.000      0.000
REMARK INTER + INTRA:          -6.638
REMARK INTER:                  -5.827
REMARK INTRA:                  -0.811
REMARK UNBOUND:                -0.811
REMARK SMILES O=C([O-])CCCCCCCCC(=O)[O-]
REMARK SMILES IDX 7 1 6 2 5 3 4 4 2 5 1 6 3 7 8 8 9 9 10 10 11 11 12 12 13 13
REMARK SMILES IDX 14 14
REMARK H PARENT
REMARK Flexibility Score: inf
ROOT
ATOM      1  C   UNL     1       6.766 -31.643  16.233  1.00  0.00     0.000 C 
ENDROOT
BRANCH   1   2
ATOM      2  C   UNL     1       6.184 -30.340  16.809  1.00  0.00     0.000 C 
BRANCH   2   3
ATOM      3  C   UNL     1       6.989 -29.802  18.002  1.00  0.00     0.006 C 
BRANCH   3   4
ATOM      4  C   UNL     1       8.483 -30.094  17.831  1.00  0.00     0.053 C 
BRANCH   4   5
ATOM      5  C   UNL     1       9.301 -28.964  18.370  1.00  0.00     0.041 C 
ATOM      6  O   UNL     1       9.317 -28.726  19.606  1.00  0.00    -0.550 OA
ATOM      7  O   UNL     1      10.085 -28.202  17.513  1.00  0.00    -0.550 OA
ENDBRANCH   4   5
ENDBRANCH   3   4
ENDBRANCH   2   3
ENDBRANCH   1   2
BRANCH   1   8
ATOM      8  C   UNL     1       6.969 -31.649  14.705  1.00  0.00     0.000 C 
BRANCH   8   9
ATOM      9  C   UNL     1       6.841 -30.277  14.021  1.00  0.00     0.000 C 
BRANCH   9  10
ATOM     10  C   UNL     1       8.136 -29.836  13.317  1.00  0.00     0.006 C 
BRANCH  10  11
ATOM     11  C   UNL     1       9.245 -29.480  14.317  1.00  0.00     0.053 C 
BRANCH  11  12
ATOM     12  C   UNL     1      10.596 -29.469  13.670  1.00  0.00     0.041 C 
ATOM     13  O   UNL     1      10.826 -30.199  12.671  1.00  0.00    -0.550 OA
ATOM     14  O   UNL     1      11.609 -28.672  14.187  1.00  0.00    -0.550 OA
ENDBRANCH  11  12
ENDBRANCH  10  11
ENDBRANCH   9  10
ENDBRANCH   8   9
ENDBRANCH   1   8
TORSDOF 9
ENDMDL
MODEL 2
REMARK VINA RESULT:    -3.621      1.311      1.944
REMARK INTER + INTRA:          -6.336
REMARK INTER:                  -5.392
REMARK INTRA:                  -0.944
REMARK UNBOUND:                -0.811
REMARK SMILES O=C([O-])CCCCCCCCC(=O)[O-]
REMARK SMILES IDX 7 1 6 2 5 3 4 4 2 5 1 6 3 7 8 8 9 9 10 10 11 11 12 12 13 13
REMARK SMILES IDX 14 14
REMARK H PARENT
REMARK Flexibility Score: inf
ROOT
ATOM      1  C   UNL     1       7.243 -31.532  13.942  1.00  0.00     0.000 C 
ENDROOT
BRANCH   1   2
ATOM      2  C   UNL     1       7.562 -31.326  15.433  1.00  0.00     0.000 C 
BRANCH   2   3
ATOM      3  C   UNL     1       7.647 -29.843  15.826  1.00  0.00     0.006 C 
BRANCH   3   4
ATOM      4  C   UNL     1       8.804 -29.600  16.800  1.00  0.00     0.053 C 
BRANCH   4   5
ATOM      5  C   UNL     1       8.283 -29.356  18.181  1.00  0.00     0.041 C 
ATOM      6  O   UNL     1       7.367 -30.080  18.649  1.00  0.00    -0.550 OA
ATOM      7  O   UNL     1       8.843 -28.359  18.969  1.00  0.00    -0.550 OA
ENDBRANCH   4   5
ENDBRANCH   3   4
ENDBRANCH   2   3
ENDBRANCH   1   2
BRANCH   1   8
ATOM      8  C   UNL     1       6.397 -30.417  13.294  1.00  0.00     0.000 C 
BRANCH   8   9
ATOM      9  C   UNL     1       7.120 -29.587  12.219  1.00  0.00     0.000 C 
BRANCH   9  10
ATOM     10  C   UNL     1       8.552 -30.079  11.948  1.00  0.00     0.006 C 
BRANCH  10  11
ATOM     11  C   UNL     1       9.608 -29.042  12.358  1.00  0.00     0.053 C 
BRANCH  11  12
ATOM     12  C   UNL     1      10.549 -29.583  13.390  1.00  0.00     0.041 C 
ATOM     13  O   UNL     1      11.221 -28.798  14.108  1.00  0.00    -0.550 OA
ATOM     14  O   UNL     1      10.706 -30.955  13.539  1.00  0.00    -0.550 OA
ENDBRANCH  11  12
ENDBRANCH  10  11
ENDBRANCH   9  10
ENDBRANCH   8   9
ENDBRANCH   1   8
TORSDOF 9
ENDMDL
MODEL 3
REMARK VINA RESULT:    -3.615      0.835      4.491
REMARK INTER + INTRA:          -6.327
REMARK INTER:                  -5.500
REMARK INTRA:                  -0.828
REMARK UNBOUND:                -0.811
REMARK SMILES O=C([O-])CCCCCCCCC(=O)[O-]
REMARK SMILES IDX 7 1 6 2 5 3 4 4 2 5 1 6 3 7 8 8 9 9 10 10 11 11 12 12 13 13
REMARK SMILES IDX 14 14
REMARK H PARENT
REMARK Flexibility Score: inf
ROOT
ATOM      1  C   UNL     1       7.223 -32.393  15.240  1.00  0.00     0.000 C 
ENDROOT
BRANCH   1   2
ATOM      2  C   UNL     1       8.527 -31.634  14.936  1.00  0.00     0.000 C 
BRANCH   2   3
ATOM      3  C   UNL     1       8.492 -30.906  13.584  1.00  0.00     0.006 C 
BRANCH   3   4
ATOM      4  C   UNL     1       9.170 -29.536  13.682  1.00  0.00     0.053 C 
BRANCH   4   5
ATOM      5  C   UNL     1      10.654 -29.676  13.556  1.00  0.00     0.041 C 
ATOM      6  O   UNL     1      11.146 -30.600  12.857  1.00  0.00    -0.550 OA
ATOM      7  O   UNL     1      11.494 -28.757  14.172  1.00  0.00    -0.550 OA
ENDBRANCH   4   5
ENDBRANCH   3   4
ENDBRANCH   2   3
ENDBRANCH   1   2
BRANCH   1   8
ATOM      8  C   UNL     1       6.425 -31.864  16.448  1.00  0.00     0.000 C 
BRANCH   8   9
ATOM      9  C   UNL     1       6.016 -30.383  16.365  1.00  0.00     0.000 C 
BRANCH   9  10
ATOM     10  C   UNL     1       6.418 -29.581  17.615  1.00  0.00     0.006 C 
BRANCH  10  11
ATOM     11  C   UNL     1       7.638 -30.186  18.323  1.00  0.00     0.053 C 
BRANCH  11  12
ATOM     12  C   UNL     1       8.813 -29.257  18.300  1.00  0.00     0.041 C 
ATOM     13  O   UNL     1       9.264 -28.780  19.374  1.00  0.00    -0.550 OA
ATOM     14  O   UNL     1       9.392 -28.897  17.091  1.00  0.00    -0.550 OA
ENDBRANCH  11  12
ENDBRANCH  10  11
ENDBRANCH   9  10
ENDBRANCH   8   9
ENDBRANCH   1   8
TORSDOF 9
ENDMDL
MODEL 4
REMARK VINA RESULT:    -3.520      2.016      2.876
REMARK INTER + INTRA:          -6.182
REMARK INTER:                  -5.549
REMARK INTRA:                  -0.633
REMARK UNBOUND:                -0.811
REMARK SMILES O=C([O-])CCCCCCCCC(=O)[O-]
REMARK SMILES IDX 7 1 6 2 5 3 4 4 2 5 1 6 3 7 8 8 9 9 10 10 11 11 12 12 13 13
REMARK SMILES IDX 14 14
REMARK H PARENT
REMARK Flexibility Score: inf
ROOT
ATOM      1  C   UNL     1       8.424 -29.906  14.361  1.00  0.00     0.000 C 
ENDROOT
BRANCH   1   2
ATOM      2  C   UNL     1       7.515 -29.848  15.602  1.00  0.00     0.000 C 
BRANCH   2   3
ATOM      3  C   UNL     1       8.190 -30.406  16.864  1.00  0.00     0.006 C 
BRANCH   3   4
ATOM      4  C   UNL     1       7.882 -29.530  18.082  1.00  0.00     0.053 C 
BRANCH   4   5
ATOM      5  C   UNL     1       9.136 -28.906  18.607  1.00  0.00     0.041 C 
ATOM      6  O   UNL     1       9.461 -29.054  19.814  1.00  0.00    -0.550 OA
ATOM      7  O   UNL     1       9.973 -28.200  17.751  1.00  0.00    -0.550 OA
ENDBRANCH   4   5
ENDBRANCH   3   4
ENDBRANCH   2   3
ENDBRANCH   1   2
BRANCH   1   8
ATOM      8  C   UNL     1       9.894 -29.510  14.609  1.00  0.00     0.000 C 
BRANCH   8   9
ATOM      9  C   UNL     1      10.827 -29.663  13.395  1.00  0.00     0.000 C 
BRANCH   9  10
ATOM     10  C   UNL     1      10.339 -30.726  12.397  1.00  0.00     0.006 C 
BRANCH  10  11
ATOM     11  C   UNL     1      11.276 -31.941  12.341  1.00  0.00     0.053 C 
BRANCH  11  12
ATOM     12  C   UNL     1      10.939 -32.955  13.391  1.00  0.00     0.041 C 
ATOM     13  O   UNL     1       9.742 -33.133  13.739  1.00  0.00    -0.550 OA
ATOM     14  O   UNL     1      11.949 -33.682  14.006  1.00  0.00    -0.550 OA
ENDBRANCH  11  12
ENDBRANCH  10  11
ENDBRANCH   9  10
ENDBRANCH   8   9
ENDBRANCH   1   8
TORSDOF 9
ENDMDL
MODEL 5
REMARK VINA RESULT:    -3.515      1.267      4.637
REMARK INTER + INTRA:          -6.176
REMARK INTER:                  -5.284
REMARK INTRA:                  -0.892
REMARK UNBOUND:                -0.811
REMARK SMILES O=C([O-])CCCCCCCCC(=O)[O-]
REMARK SMILES IDX 7 1 6 2 5 3 4 4 2 5 1 6 3 7 8 8 9 9 10 10 11 11 12 12 13 13
REMARK SMILES IDX 14 14
REMARK H PARENT
REMARK Flexibility Score: inf
ROOT
ATOM      1  C   UNL     1       6.259 -30.266  13.314  1.00  0.00     0.000 C 
ENDROOT
BRANCH   1   2
ATOM      2  C   UNL     1       7.179 -29.573  12.293  1.00  0.00     0.000 C 
BRANCH   2   3
ATOM      3  C   UNL     1       8.571 -30.215  12.210  1.00  0.00     0.006 C 
BRANCH   3   4
ATOM      4  C   UNL     1       9.671 -29.162  12.376  1.00  0.00     0.053 C 
BRANCH   4   5
ATOM      5  C   UNL     1      10.740 -29.663  13.296  1.00  0.00     0.041 C 
ATOM      6  O   UNL     1      11.119 -30.861  13.234  1.00  0.00    -0.550 OA
ATOM      7  O   UNL     1      11.351 -28.793  14.190  1.00  0.00    -0.550 OA
ENDBRANCH   4   5
ENDBRANCH   3   4
ENDBRANCH   2   3
ENDBRANCH   1   2
BRANCH   1   8
ATOM      8  C   UNL     1       6.847 -31.530  13.971  1.00  0.00     0.000 C 
BRANCH   8   9
ATOM      9  C   UNL     1       7.036 -31.448  15.496  1.00  0.00     0.000 C 
BRANCH   9  10
ATOM     10  C   UNL     1       8.456 -31.017  15.900  1.00  0.00     0.006 C 
BRANCH  10  11
ATOM     11  C   UNL     1       8.495 -29.577  16.432  1.00  0.00     0.053 C 
BRANCH  11  12
ATOM     12  C   UNL     1       8.464 -29.536  17.930  1.00  0.00     0.041 C 
ATOM     13  O   UNL     1       7.423 -29.872  18.551  1.00  0.00    -0.550 OA
ATOM     14  O   UNL     1       9.576 -29.098  18.636  1.00  0.00    -0.550 OA
ENDBRANCH  11  12
ENDBRANCH  10  11
ENDBRANCH   9  10
ENDBRANCH   8   9
ENDBRANCH   1   8
TORSDOF 9
ENDMDL
MODEL 6
REMARK VINA RESULT:    -3.462      1.608      2.278
REMARK INTER + INTRA:          -6.094
REMARK INTER:                  -5.149
REMARK INTRA:                  -0.944
REMARK UNBOUND:                -0.811
REMARK SMILES O=C([O-])CCCCCCCCC(=O)[O-]
REMARK SMILES IDX 7 1 6 2 5 3 4 4 2 5 1 6 3 7 8 8 9 9 10 10 11 11 12 12 13 13
REMARK SMILES IDX 14 14
REMARK H PARENT
REMARK Flexibility Score: inf
ROOT
ATOM      1  C   UNL     1       6.894 -32.194  16.809  1.00  0.00     0.000 C 
ENDROOT
BRANCH   1   2
ATOM      2  C   UNL     1       6.286 -30.779  16.803  1.00  0.00     0.000 C 
BRANCH   2   3
ATOM      3  C   UNL     1       7.086 -29.783  17.655  1.00  0.00     0.006 C 
BRANCH   3   4
ATOM      4  C   UNL     1       8.591 -30.030  17.519  1.00  0.00     0.053 C 
BRANCH   4   5
ATOM      5  C   UNL     1       9.363 -28.935  18.185  1.00  0.00     0.041 C 
ATOM      6  O   UNL     1      10.059 -28.142  17.499  1.00  0.00    -0.550 OA
ATOM      7  O   UNL     1       9.276 -28.760  19.560  1.00  0.00    -0.550 OA
ENDBRANCH   4   5
ENDBRANCH   3   4
ENDBRANCH   2   3
ENDBRANCH   1   2
BRANCH   1   8
ATOM      8  C   UNL     1       6.613 -33.032  15.545  1.00  0.00     0.000 C 
BRANCH   8   9
ATOM      9  C   UNL     1       7.861 -33.486  14.769  1.00  0.00     0.000 C 
BRANCH   9  10
ATOM     10  C   UNL     1       8.967 -32.417  14.739  1.00  0.00     0.006 C 
BRANCH  10  11
ATOM     11  C   UNL     1       8.910 -31.561  13.465  1.00  0.00     0.053 C 
BRANCH  11  12
ATOM     12  C   UNL     1       8.480 -30.156  13.757  1.00  0.00     0.041 C 
ATOM     13  O   UNL     1       9.305 -29.323  14.216  1.00  0.00    -0.550 OA
ATOM     14  O   UNL     1       7.161 -29.774  13.548  1.00  0.00    -0.550 OA
ENDBRANCH  11  12
ENDBRANCH  10  11
ENDBRANCH   9  10
ENDBRANCH   8   9
ENDBRANCH   1   8
TORSDOF 9
ENDMDL
MODEL 7
REMARK VINA RESULT:    -3.392      1.524      1.938
REMARK INTER + INTRA:          -5.988
REMARK INTER:                  -5.368
REMARK INTRA:                  -0.620
REMARK UNBOUND:                -0.811
REMARK SMILES O=C([O-])CCCCCCCCC(=O)[O-]
REMARK SMILES IDX 7 1 6 2 5 3 4 4 2 5 1 6 3 7 8 8 9 9 10 10 11 11 12 12 13 13
REMARK SMILES IDX 14 14
REMARK H PARENT
REMARK Flexibility Score: inf
ROOT
ATOM      1  C   UNL     1       8.378 -32.460  16.314  1.00  0.00     0.000 C 
ENDROOT
BRANCH   1   2
ATOM      2  C   UNL     1       7.157 -31.716  16.882  1.00  0.00     0.000 C 
BRANCH   2   3
ATOM      3  C   UNL     1       7.543 -30.509  17.750  1.00  0.00     0.006 C 
BRANCH   3   4
ATOM      4  C   UNL     1       8.449 -29.546  16.977  1.00  0.00     0.053 C 
BRANCH   4   5
ATOM      5  C   UNL     1       9.350 -28.808  17.917  1.00  0.00     0.041 C 
ATOM      6  O   UNL     1       9.242 -28.974  19.159  1.00  0.00    -0.550 OA
ATOM      7  O   UNL     1      10.341 -27.973  17.417  1.00  0.00    -0.550 OA
ENDBRANCH   4   5
ENDBRANCH   3   4
ENDBRANCH   2   3
ENDBRANCH   1   2
BRANCH   1   8
ATOM      8  C   UNL     1       8.423 -32.566  14.776  1.00  0.00     0.000 C 
BRANCH   8   9
ATOM      9  C   UNL     1       9.830 -32.715  14.170  1.00  0.00     0.000 C 
BRANCH   9  10
ATOM     10  C   UNL     1      10.017 -31.890  12.886  1.00  0.00     0.006 C 
BRANCH  10  11
ATOM     11  C   UNL     1      11.116 -30.829  13.034  1.00  0.00     0.053 C 
BRANCH  11  12
ATOM     12  C   UNL     1      10.588 -29.556  13.621  1.00  0.00     0.041 C 
ATOM     13  O   UNL     1      11.364 -28.761  14.212  1.00  0.00    -0.550 OA
ATOM     14  O   UNL     1       9.233 -29.262  13.540  1.00  0.00    -0.550 OA
ENDBRANCH  11  12
ENDBRANCH  10  11
ENDBRANCH   9  10
ENDBRANCH   8   9
ENDBRANCH   1   8
TORSDOF 9
ENDMDL
MODEL 8
REMARK VINA RESULT:    -3.140      1.980      2.589
REMARK INTER + INTRA:          -5.602
REMARK INTER:                  -4.697
REMARK INTRA:                  -0.905
REMARK UNBOUND:                -0.811
REMARK SMILES O=C([O-])CCCCCCCCC(=O)[O-]
REMARK SMILES IDX 7 1 6 2 5 3 4 4 2 5 1 6 3 7 8 8 9 9 10 10 11 11 12 12 13 13
REMARK SMILES IDX 14 14
REMARK H PARENT
REMARK Flexibility Score: inf
ROOT
ATOM      1  C   UNL     1       7.541 -33.149  15.643  1.00  0.00     0.000 C 
ENDROOT
BRANCH   1   2
ATOM      2  C   UNL     1       6.570 -32.244  16.422  1.00  0.00     0.000 C 
BRANCH   2   3
ATOM      3  C   UNL     1       6.492 -30.820  15.851  1.00  0.00     0.006 C 
BRANCH   3   4
ATOM      4  C   UNL     1       7.432 -29.876  16.606  1.00  0.00     0.053 C 
BRANCH   4   5
ATOM      5  C   UNL     1       6.957 -29.677  18.010  1.00  0.00     0.041 C 
ATOM      6  O   UNL     1       5.875 -29.075  18.234  1.00  0.00    -0.550 OA
ATOM      7  O   UNL     1       7.686 -30.199  19.071  1.00  0.00    -0.550 OA
ENDBRANCH   4   5
ENDBRANCH   3   4
ENDBRANCH   2   3
ENDBRANCH   1   2
BRANCH   1   8
ATOM      8  C   UNL     1       7.413 -33.077  14.108  1.00  0.00     0.000 C 
BRANCH   8   9
ATOM      9  C   UNL     1       8.746 -33.045  13.340  1.00  0.00     0.000 C 
BRANCH   9  10
ATOM     10  C   UNL     1       9.875 -32.363  14.132  1.00  0.00     0.006 C 
BRANCH  10  11
ATOM     11  C   UNL     1      10.473 -31.168  13.375  1.00  0.00     0.053 C 
BRANCH  11  12
ATOM     12  C   UNL     1       9.855 -29.872  13.801  1.00  0.00     0.041 C 
ATOM     13  O   UNL     1      10.436 -29.139  14.642  1.00  0.00    -0.550 OA
ATOM     14  O   UNL     1       8.623 -29.487  13.288  1.00  0.00    -0.550 OA
ENDBRANCH  11  12
ENDBRANCH  10  11
ENDBRANCH   9  10
ENDBRANCH   8   9
ENDBRANCH   1   8
TORSDOF 9
ENDMDL
MODEL 9
REMARK VINA RESULT:    -3.087      2.191      5.454
REMARK INTER + INTRA:          -5.522
REMARK INTER:                  -5.009
REMARK INTRA:                  -0.513
REMARK UNBOUND:                -0.811
REMARK SMILES O=C([O-])CCCCCCCCC(=O)[O-]
REMARK SMILES IDX 7 1 6 2 5 3 4 4 2 5 1 6 3 7 8 8 9 9 10 10 11 11 12 12 13 13
REMARK SMILES IDX 14 14
REMARK H PARENT
REMARK Flexibility Score: inf
ROOT
ATOM      1  C   UNL     1       9.280 -29.542  13.702  1.00  0.00     0.000 C 
ENDROOT
BRANCH   1   2
ATOM      2  C   UNL     1       9.995 -29.697  12.348  1.00  0.00     0.000 C 
BRANCH   2   3
ATOM      3  C   UNL     1      10.285 -31.163  11.991  1.00  0.00     0.006 C 
BRANCH   3   4
ATOM      4  C   UNL     1      11.440 -31.714  12.832  1.00  0.00     0.053 C 
BRANCH   4   5
ATOM      5  C   UNL     1      11.024 -32.967  13.535  1.00  0.00     0.041 C 
ATOM      6  O   UNL     1      11.891 -33.743  14.014  1.00  0.00    -0.550 OA
ATOM      7  O   UNL     1       9.676 -33.254  13.705  1.00  0.00    -0.550 OA
ENDBRANCH   4   5
ENDBRANCH   3   4
ENDBRANCH   2   3
ENDBRANCH   1   2
BRANCH   1   8
ATOM      8  C   UNL     1       7.902 -30.228  13.797  1.00  0.00     0.000 C 
BRANCH   8   9
ATOM      9  C   UNL     1       7.100 -29.912  15.071  1.00  0.00     0.000 C 
BRANCH   9  10
ATOM     10  C   UNL     1       7.388 -30.896  16.218  1.00  0.00     0.006 C 
BRANCH  10  11
ATOM     11  C   UNL     1       8.525 -30.408  17.127  1.00  0.00     0.053 C 
BRANCH  11  12
ATOM     12  C   UNL     1       8.015 -29.567  18.257  1.00  0.00     0.041 C 
ATOM     13  O   UNL     1       6.785 -29.540  18.521  1.00  0.00    -0.550 OA
ATOM     14  O   UNL     1       8.896 -28.791  18.999  1.00  0.00    -0.550 OA
ENDBRANCH  11  12
ENDBRANCH  10  11
ENDBRANCH   9  10
ENDBRANCH   8   9
ENDBRANCH   1   8
TORSDOF 9
ENDMDL
