MODEL 1
REMARK VINA RESULT:    -4.295      0.000      0.000
REMARK INTER + INTRA:          -7.068
REMARK INTER:                  -5.801
REMARK INTRA:                  -1.267
REMARK UNBOUND:                -1.267
REMARK SMILES CC(=O)CCC=C(C)CCC=C(C)C
REMARK SMILES IDX 7 1 6 2 8 3 9 4 10 5 11 6 13 7 12 8 14 9 5 10 4 11 2 12 3 13
REMARK SMILES IDX 1 14
REMARK H PARENT
REMARK Flexibility Score: inf
ROOT
ATOM      1  C   UNL     1       1.462  16.843  21.514  1.00  0.00    -0.077 C 
ATOM      2  C   UNL     1       2.591  16.351  22.076  1.00  0.00    -0.028 C 
ATOM      3  C   UNL     1       0.194  17.039  22.311  1.00  0.00     0.039 C 
ENDROOT
BRANCH   1   4
ATOM      4  C   UNL     1       1.468  17.197  20.040  1.00  0.00     0.034 C 
BRANCH   4   5
ATOM      5  C   UNL     1       2.293  16.198  19.216  1.00  0.00     0.032 C 
BRANCH   5   6
ATOM      6  C   UNL     1       1.536  14.913  18.968  1.00  0.00    -0.028 C 
ATOM      7  C   UNL     1       3.340  13.464  19.927  1.00  0.00     0.039 C 
ATOM      8  C   UNL     1       1.977  13.685  19.319  1.00  0.00    -0.080 C 
ATOM      9  C   UNL     1       1.119  12.477  19.048  1.00  0.00     0.039 C 
ENDBRANCH   5   6
ENDBRANCH   4   5
ENDBRANCH   1   4
BRANCH   2  10
ATOM     10  C   UNL     1       2.741  16.025  23.540  1.00  0.00     0.035 C 
BRANCH  10  11
ATOM     11  C   UNL     1       3.419  14.659  23.721  1.00  0.00     0.079 C 
BRANCH  11  12
ATOM     12  C   UNL     1       2.468  13.527  24.040  1.00  0.00     0.130 C 
ATOM     13  O   UNL     1       2.546  12.997  25.138  1.00  0.00    -0.300 OA
ATOM     14  C   UNL     1       1.430  13.030  23.071  1.00  0.00     0.087 C 
ENDBRANCH  11  12
ENDBRANCH  10  11
ENDBRANCH   2  10
TORSDOF 6
ENDMDL
MODEL 2
REMARK VINA RESULT:    -4.293      3.364      6.232
REMARK INTER + INTRA:          -7.065
REMARK INTER:                  -6.188
REMARK INTRA:                  -0.877
REMARK UNBOUND:                -1.267
REMARK SMILES CC(=O)CCC=C(C)CCC=C(C)C
REMARK SMILES IDX 7 1 6 2 8 3 9 4 10 5 11 6 13 7 12 8 14 9 5 10 4 11 2 12 3 13
REMARK SMILES IDX 1 14
REMARK H PARENT
REMARK Flexibility Score: inf
ROOT
ATOM      1  C   UNL     1       1.716  12.168  15.589  1.00  0.00    -0.077 C 
ATOM      2  C   UNL     1       2.389  12.818  16.567  1.00  0.00    -0.028 C 
ATOM      3  C   UNL     1       0.615  12.836  14.800  1.00  0.00     0.039 C 
ENDROOT
BRANCH   1   4
ATOM      4  C   UNL     1       2.069  10.726  15.284  1.00  0.00     0.034 C 
BRANCH   4   5
ATOM      5  C   UNL     1       2.648  10.008  16.513  1.00  0.00     0.032 C 
BRANCH   5   6
ATOM      6  C   UNL     1       1.659   9.037  17.115  1.00  0.00    -0.028 C 
ATOM      7  C   UNL     1       0.965  10.607  18.939  1.00  0.00     0.039 C 
ATOM      8  C   UNL     1       0.869   9.308  18.177  1.00  0.00    -0.080 C 
ATOM      9  C   UNL     1      -0.104   8.269  18.670  1.00  0.00     0.039 C 
ENDBRANCH   5   6
ENDBRANCH   4   5
ENDBRANCH   1   4
BRANCH   2  10
ATOM     10  C   UNL     1       2.186  14.269  16.923  1.00  0.00     0.035 C 
BRANCH  10  11
ATOM     11  C   UNL     1       1.558  14.398  18.318  1.00  0.00     0.079 C 
BRANCH  11  12
ATOM     12  C   UNL     1       2.297  15.328  19.253  1.00  0.00     0.130 C 
ATOM     13  O   UNL     1       2.977  14.836  20.141  1.00  0.00    -0.300 OA
ATOM     14  C   UNL     1       2.237  16.826  19.136  1.00  0.00     0.087 C 
ENDBRANCH  11  12
ENDBRANCH  10  11
ENDBRANCH   2  10
TORSDOF 6
ENDMDL
MODEL 3
REMARK VINA RESULT:    -4.291      5.535      7.016
REMARK INTER + INTRA:          -7.063
REMARK INTER:                  -6.171
REMARK INTRA:                  -0.892
REMARK UNBOUND:                -1.267
REMARK SMILES CC(=O)CCC=C(C)CCC=C(C)C
REMARK SMILES IDX 7 1 6 2 8 3 9 4 10 5 11 6 13 7 12 8 14 9 5 10 4 11 2 12 3 13
REMARK SMILES IDX 1 14
REMARK H PARENT
REMARK Flexibility Score: inf
ROOT
ATOM      1  C   UNL     1       2.473  10.200  16.454  1.00  0.00    -0.077 C 
ATOM      2  C   UNL     1       1.592   9.262  16.874  1.00  0.00    -0.028 C 
ATOM      3  C   UNL     1       3.562  10.730  17.355  1.00  0.00     0.039 C 
ENDROOT
BRANCH   1   4
ATOM      4  C   UNL     1       2.355  10.741  15.042  1.00  0.00     0.034 C 
BRANCH   4   5
ATOM      5  C   UNL     1       2.300  12.275  15.022  1.00  0.00     0.032 C 
BRANCH   5   6
ATOM      6  C   UNL     1       0.938  12.783  14.609  1.00  0.00    -0.028 C 
ATOM      7  C   UNL     1       0.118  13.011  16.964  1.00  0.00     0.039 C 
ATOM      8  C   UNL     1      -0.035  13.155  15.470  1.00  0.00    -0.080 C 
ATOM      9  C   UNL     1      -1.345  13.677  14.939  1.00  0.00     0.039 C 
ENDBRANCH   5   6
ENDBRANCH   4   5
ENDBRANCH   1   4
BRANCH   2  10
ATOM     10  C   UNL     1       1.639   8.592  18.224  1.00  0.00     0.035 C 
BRANCH  10  11
ATOM     11  C   UNL     1       0.227   8.193  18.676  1.00  0.00     0.079 C 
BRANCH  11  12
ATOM     12  C   UNL     1      -0.257   8.907  19.918  1.00  0.00     0.130 C 
ATOM     13  O   UNL     1      -0.230   8.305  20.980  1.00  0.00    -0.300 OA
ATOM     14  C   UNL     1      -0.764  10.323  19.903  1.00  0.00     0.087 C 
ENDBRANCH  11  12
ENDBRANCH  10  11
ENDBRANCH   2  10
TORSDOF 6
ENDMDL
MODEL 4
REMARK VINA RESULT:    -4.276      1.728      4.333
REMARK INTER + INTRA:          -7.043
REMARK INTER:                  -6.061
REMARK INTRA:                  -0.982
REMARK UNBOUND:                -1.267
REMARK SMILES CC(=O)CCC=C(C)CCC=C(C)C
REMARK SMILES IDX 7 1 6 2 8 3 9 4 10 5 11 6 13 7 12 8 14 9 5 10 4 11 2 12 3 13
REMARK SMILES IDX 1 14
REMARK H PARENT
REMARK Flexibility Score: inf
ROOT
ATOM      1  C   UNL     1       1.788  16.627  21.924  1.00  0.00    -0.077 C 
ATOM      2  C   UNL     1       2.503  16.459  20.787  1.00  0.00    -0.028 C 
ATOM      3  C   UNL     1       0.342  17.063  21.899  1.00  0.00     0.039 C 
ENDROOT
BRANCH   1   4
ATOM      4  C   UNL     1       2.462  16.382  23.259  1.00  0.00     0.034 C 
BRANCH   4   5
ATOM      5  C   UNL     1       3.463  15.219  23.189  1.00  0.00     0.032 C 
BRANCH   5   6
ATOM      6  C   UNL     1       3.275  14.246  24.330  1.00  0.00    -0.028 C 
ATOM      7  C   UNL     1       1.514  12.922  23.139  1.00  0.00     0.039 C 
ATOM      8  C   UNL     1       2.434  13.188  24.304  1.00  0.00    -0.080 C 
ATOM      9  C   UNL     1       2.355  12.266  25.494  1.00  0.00     0.039 C 
ENDBRANCH   5   6
ENDBRANCH   4   5
ENDBRANCH   1   4
BRANCH   2  10
ATOM     10  C   UNL     1       1.938  16.602  19.396  1.00  0.00     0.035 C 
BRANCH  10  11
ATOM     11  C   UNL     1       2.197  15.329  18.577  1.00  0.00     0.079 C 
BRANCH  11  12
ATOM     12  C   UNL     1       2.067  14.043  19.363  1.00  0.00     0.130 C 
ATOM     13  O   UNL     1       0.948  13.662  19.669  1.00  0.00    -0.300 OA
ATOM     14  C   UNL     1       3.251  13.214  19.777  1.00  0.00     0.087 C 
ENDBRANCH  11  12
ENDBRANCH  10  11
ENDBRANCH   2  10
TORSDOF 6
ENDMDL
MODEL 5
REMARK VINA RESULT:    -4.263      6.549      8.832
REMARK INTER + INTRA:          -7.025
REMARK INTER:                  -6.224
REMARK INTRA:                  -0.801
REMARK UNBOUND:                -1.267
REMARK SMILES CC(=O)CCC=C(C)CCC=C(C)C
REMARK SMILES IDX 7 1 6 2 8 3 9 4 10 5 11 6 13 7 12 8 14 9 5 10 4 11 2 12 3 13
REMARK SMILES IDX 1 14
REMARK H PARENT
REMARK Flexibility Score: inf
ROOT
ATOM      1  C   UNL     1       2.120  11.594  14.952  1.00  0.00    -0.077 C 
ATOM      2  C   UNL     1       0.967  12.281  15.131  1.00  0.00    -0.028 C 
ATOM      3  C   UNL     1       3.364  12.253  14.404  1.00  0.00     0.039 C 
ENDROOT
BRANCH   1   4
ATOM      4  C   UNL     1       2.160  10.120  15.302  1.00  0.00     0.034 C 
BRANCH   4   5
ATOM      5  C   UNL     1       2.682   9.885  16.727  1.00  0.00     0.032 C 
BRANCH   5   6
ATOM      6  C   UNL     1       1.806   8.923  17.495  1.00  0.00    -0.028 C 
ATOM      7  C   UNL     1       0.462  10.739  18.576  1.00  0.00     0.039 C 
ATOM      8  C   UNL     1       0.781   9.291  18.296  1.00  0.00    -0.080 C 
ATOM      9  C   UNL     1      -0.044   8.238  18.988  1.00  0.00     0.039 C 
ENDBRANCH   5   6
ENDBRANCH   4   5
ENDBRANCH   1   4
BRANCH   2  10
ATOM     10  C   UNL     1       0.811  13.761  14.890  1.00  0.00     0.035 C 
BRANCH  10  11
ATOM     11  C   UNL     1       0.015  14.015  13.602  1.00  0.00     0.079 C 
BRANCH  11  12
ATOM     12  C   UNL     1       0.819  14.638  12.483  1.00  0.00     0.130 C 
ATOM     13  O   UNL     1       1.937  15.060  12.738  1.00  0.00    -0.300 OA
ATOM     14  C   UNL     1       0.307  14.756  11.074  1.00  0.00     0.087 C 
ENDBRANCH  11  12
ENDBRANCH  10  11
ENDBRANCH   2  10
TORSDOF 6
ENDMDL
MODEL 6
REMARK VINA RESULT:    -4.262      4.560      7.534
REMARK INTER + INTRA:          -7.023
REMARK INTER:                  -5.489
REMARK INTRA:                  -1.534
REMARK UNBOUND:                -1.267
REMARK SMILES CC(=O)CCC=C(C)CCC=C(C)C
REMARK SMILES IDX 7 1 6 2 8 3 9 4 10 5 11 6 13 7 12 8 14 9 5 10 4 11 2 12 3 13
REMARK SMILES IDX 1 14
REMARK H PARENT
REMARK Flexibility Score: inf
ROOT
ATOM      1  C   UNL     1       1.969   9.375  16.876  1.00  0.00    -0.077 C 
ATOM      2  C   UNL     1       1.674  10.458  16.120  1.00  0.00    -0.028 C 
ATOM      3  C   UNL     1       3.300   8.668  16.772  1.00  0.00     0.039 C 
ENDROOT
BRANCH   1   4
ATOM      4  C   UNL     1       0.930   8.850  17.848  1.00  0.00     0.034 C 
BRANCH   4   5
ATOM      5  C   UNL     1       0.550   9.901  18.901  1.00  0.00     0.032 C 
BRANCH   5   6
ATOM      6  C   UNL     1       1.710  10.228  19.813  1.00  0.00    -0.028 C 
ATOM      7  C   UNL     1       1.747  12.651  19.183  1.00  0.00     0.039 C 
ATOM      8  C   UNL     1       2.230  11.464  19.978  1.00  0.00    -0.080 C 
ATOM      9  C   UNL     1       3.369  11.674  20.942  1.00  0.00     0.039 C 
ENDBRANCH   5   6
ENDBRANCH   4   5
ENDBRANCH   1   4
BRANCH   2  10
ATOM     10  C   UNL     1       2.638  11.122  15.170  1.00  0.00     0.035 C 
BRANCH  10  11
ATOM     11  C   UNL     1       3.181  12.424  15.777  1.00  0.00     0.079 C 
BRANCH  11  12
ATOM     12  C   UNL     1       4.625  12.352  16.220  1.00  0.00     0.130 C 
ATOM     13  O   UNL     1       5.484  12.781  15.465  1.00  0.00    -0.300 OA
ATOM     14  C   UNL     1       5.048  11.783  17.546  1.00  0.00     0.087 C 
ENDBRANCH  11  12
ENDBRANCH  10  11
ENDBRANCH   2  10
TORSDOF 6
ENDMDL
MODEL 7
REMARK VINA RESULT:    -4.217      5.757      8.138
REMARK INTER + INTRA:          -6.963
REMARK INTER:                  -6.106
REMARK INTRA:                  -0.858
REMARK UNBOUND:                -1.267
REMARK SMILES CC(=O)CCC=C(C)CCC=C(C)C
REMARK SMILES IDX 7 1 6 2 8 3 9 4 10 5 11 6 13 7 12 8 14 9 5 10 4 11 2 12 3 13
REMARK SMILES IDX 1 14
REMARK H PARENT
REMARK Flexibility Score: inf
ROOT
ATOM      1  C   UNL     1       0.977   9.309  18.140  1.00  0.00    -0.077 C 
ATOM      2  C   UNL     1       1.870   8.950  17.188  1.00  0.00    -0.028 C 
ATOM      3  C   UNL     1       0.841  10.739  18.606  1.00  0.00     0.039 C 
ENDROOT
BRANCH   1   4
ATOM      4  C   UNL     1       0.095   8.245  18.763  1.00  0.00     0.034 C 
BRANCH   4   5
ATOM      5  C   UNL     1      -0.099   8.474  20.269  1.00  0.00     0.032 C 
BRANCH   5   6
ATOM      6  C   UNL     1       0.912   7.708  21.090  1.00  0.00    -0.028 C 
ATOM      7  C   UNL     1       2.002   9.773  21.993  1.00  0.00     0.039 C 
ATOM      8  C   UNL     1       1.833   8.277  21.898  1.00  0.00    -0.080 C 
ATOM      9  C   UNL     1       2.771   7.407  22.694  1.00  0.00     0.039 C 
ENDBRANCH   5   6
ENDBRANCH   4   5
ENDBRANCH   1   4
BRANCH   2  10
ATOM     10  C   UNL     1       2.754   9.915  16.441  1.00  0.00     0.035 C 
BRANCH  10  11
ATOM     11  C   UNL     1       2.011  10.497  15.229  1.00  0.00     0.079 C 
BRANCH  11  12
ATOM     12  C   UNL     1       1.939  12.007  15.206  1.00  0.00     0.130 C 
ATOM     13  O   UNL     1       2.968  12.639  15.392  1.00  0.00    -0.300 OA
ATOM     14  C   UNL     1       0.663  12.762  14.958  1.00  0.00     0.087 C 
ENDBRANCH  11  12
ENDBRANCH  10  11
ENDBRANCH   2  10
TORSDOF 6
ENDMDL
MODEL 8
REMARK VINA RESULT:    -4.208      5.962      8.293
REMARK INTER + INTRA:          -6.950
REMARK INTER:                  -5.876
REMARK INTRA:                  -1.074
REMARK UNBOUND:                -1.267
REMARK SMILES CC(=O)CCC=C(C)CCC=C(C)C
REMARK SMILES IDX 7 1 6 2 8 3 9 4 10 5 11 6 13 7 12 8 14 9 5 10 4 11 2 12 3 13
REMARK SMILES IDX 1 14
REMARK H PARENT
REMARK Flexibility Score: inf
ROOT
ATOM      1  C   UNL     1       2.393  10.564  16.297  1.00  0.00    -0.077 C 
ATOM      2  C   UNL     1       1.730  11.435  15.500  1.00  0.00    -0.028 C 
ATOM      3  C   UNL     1       3.660  10.951  17.021  1.00  0.00     0.039 C 
ENDROOT
BRANCH   1   4
ATOM      4  C   UNL     1       1.853   9.156  16.457  1.00  0.00     0.034 C 
BRANCH   4   5
ATOM      5  C   UNL     1       1.887   8.695  17.922  1.00  0.00     0.032 C 
BRANCH   5   6
ATOM      6  C   UNL     1       0.533   8.822  18.583  1.00  0.00    -0.028 C 
ATOM      7  C   UNL     1       1.098  10.981  19.720  1.00  0.00     0.039 C 
ATOM      8  C   UNL     1       0.154   9.862  19.358  1.00  0.00    -0.080 C 
ATOM      9  C   UNL     1      -1.236   9.894  19.939  1.00  0.00     0.039 C 
ENDBRANCH   5   6
ENDBRANCH   4   5
ENDBRANCH   1   4
BRANCH   2  10
ATOM     10  C   UNL     1       2.118  12.879  15.309  1.00  0.00     0.035 C 
BRANCH  10  11
ATOM     11  C   UNL     1       2.664  13.107  13.892  1.00  0.00     0.079 C 
BRANCH  11  12
ATOM     12  C   UNL     1       4.064  12.579  13.669  1.00  0.00     0.130 C 
ATOM     13  O   UNL     1       4.220  11.675  12.862  1.00  0.00    -0.300 OA
ATOM     14  C   UNL     1       5.268  13.119  14.390  1.00  0.00     0.087 C 
ENDBRANCH  11  12
ENDBRANCH  10  11
ENDBRANCH   2  10
TORSDOF 6
ENDMDL
MODEL 9
REMARK VINA RESULT:    -4.184      5.999      8.009
REMARK INTER + INTRA:          -6.918
REMARK INTER:                  -5.992
REMARK INTRA:                  -0.926
REMARK UNBOUND:                -1.267
REMARK SMILES CC(=O)CCC=C(C)CCC=C(C)C
REMARK SMILES IDX 7 1 6 2 8 3 9 4 10 5 11 6 13 7 12 8 14 9 5 10 4 11 2 12 3 13
REMARK SMILES IDX 1 14
REMARK H PARENT
REMARK Flexibility Score: inf
ROOT
ATOM      1  C   UNL     1       1.565   9.815  17.437  1.00  0.00    -0.077 C 
ATOM      2  C   UNL     1       1.826   9.788  16.109  1.00  0.00    -0.028 C 
ATOM      3  C   UNL     1       1.249  11.102  18.162  1.00  0.00     0.039 C 
ENDROOT
BRANCH   1   4
ATOM      4  C   UNL     1       1.600   8.518  18.221  1.00  0.00     0.034 C 
BRANCH   4   5
ATOM      5  C   UNL     1       0.220   8.157  18.790  1.00  0.00     0.032 C 
BRANCH   5   6
ATOM      6  C   UNL     1       0.213   8.176  20.301  1.00  0.00    -0.028 C 
ATOM      7  C   UNL     1      -1.472  10.023  20.442  1.00  0.00     0.039 C 
ATOM      8  C   UNL     1      -0.571   8.980  21.053  1.00  0.00    -0.080 C 
ATOM      9  C   UNL     1      -0.513   8.887  22.556  1.00  0.00     0.039 C 
ENDBRANCH   5   6
ENDBRANCH   4   5
ENDBRANCH   1   4
BRANCH   2  10
ATOM     10  C   UNL     1       1.756  10.991  15.202  1.00  0.00     0.035 C 
BRANCH  10  11
ATOM     11  C   UNL     1       3.164  11.409  14.754  1.00  0.00     0.079 C 
BRANCH  11  12
ATOM     12  C   UNL     1       3.821  12.444  15.640  1.00  0.00     0.130 C 
ATOM     13  O   UNL     1       3.561  13.621  15.446  1.00  0.00    -0.300 OA
ATOM     14  C   UNL     1       4.773  12.087  16.748  1.00  0.00     0.087 C 
ENDBRANCH  11  12
ENDBRANCH  10  11
ENDBRANCH   2  10
TORSDOF 6
ENDMDL
