MODEL 1
REMARK VINA RESULT:    -6.129      0.000      0.000
REMARK INTER + INTRA:          -7.010
REMARK INTER:                  -6.845
REMARK INTRA:                  -0.165
REMARK UNBOUND:                -0.165
REMARK SMILES O=C([O-])c1ccccc1C(=O)[O-]
REMARK SMILES IDX 4 1 9 2 5 3 8 4 6 5 7 6 2 7 1 8 3 9 10 10 11 11 12 12
REMARK H PARENT
REMARK Flexibility Score: inf
ROOT
ATOM      1  C   UNL     1      14.695  70.513  74.193  1.00  0.00     0.006 A 
ATOM      2  C   UNL     1      15.858  71.252  74.552  1.00  0.00     0.006 A 
ATOM      3  C   UNL     1      13.969  69.848  75.197  1.00  0.00     0.010 A 
ATOM      4  C   UNL     1      16.212  71.351  75.911  1.00  0.00     0.010 A 
ATOM      5  C   UNL     1      14.352  69.943  76.536  1.00  0.00     0.001 A 
ATOM      6  C   UNL     1      15.464  70.702  76.893  1.00  0.00     0.001 A 
ENDROOT
BRANCH   1   7
ATOM      7  C   UNL     1      14.166  70.463  72.810  1.00  0.00     0.072 C 
ATOM      8  O   UNL     1      14.419  69.484  72.057  1.00  0.00    -0.545 OA
ATOM      9  O   UNL     1      13.439  71.534  72.303  1.00  0.00    -0.545 OA
ENDBRANCH   1   7
BRANCH   2  10
ATOM     10  C   UNL     1      16.762  71.872  73.555  1.00  0.00     0.072 C 
ATOM     11  O   UNL     1      17.914  71.406  73.353  1.00  0.00    -0.545 OA
ATOM     12  O   UNL     1      16.371  73.022  72.879  1.00  0.00    -0.545 OA
ENDBRANCH   2  10
TORSDOF 2
ENDMDL
MODEL 2
REMARK VINA RESULT:    -6.118      0.031      2.880
REMARK INTER + INTRA:          -6.998
REMARK INTER:                  -6.825
REMARK INTRA:                  -0.173
REMARK UNBOUND:                -0.165
REMARK SMILES O=C([O-])c1ccccc1C(=O)[O-]
REMARK SMILES IDX 4 1 9 2 5 3 8 4 6 5 7 6 2 7 1 8 3 9 10 10 11 11 12 12
REMARK H PARENT
REMARK Flexibility Score: inf
ROOT
ATOM      1  C   UNL     1      15.860  71.251  74.535  1.00  0.00     0.006 A 
ATOM      2  C   UNL     1      14.694  70.523  74.169  1.00  0.00     0.006 A 
ATOM      3  C   UNL     1      16.216  71.336  75.893  1.00  0.00     0.010 A 
ATOM      4  C   UNL     1      13.965  69.851  75.169  1.00  0.00     0.010 A 
ATOM      5  C   UNL     1      15.465  70.680  76.870  1.00  0.00     0.001 A 
ATOM      6  C   UNL     1      14.349  69.929  76.507  1.00  0.00     0.001 A 
ENDROOT
BRANCH   1   7
ATOM      7  C   UNL     1      16.766  71.877  73.543  1.00  0.00     0.072 C 
ATOM      8  O   UNL     1      17.912  71.400  73.325  1.00  0.00    -0.545 OA
ATOM      9  O   UNL     1      16.384  73.042  72.890  1.00  0.00    -0.545 OA
ENDBRANCH   1   7
BRANCH   2  10
ATOM     10  C   UNL     1      14.163  70.488  72.786  1.00  0.00     0.072 C 
ATOM     11  O   UNL     1      14.428  69.526  72.019  1.00  0.00    -0.545 OA
ATOM     12  O   UNL     1      13.419  71.556  72.298  1.00  0.00    -0.545 OA
ENDBRANCH   2  10
TORSDOF 2
ENDMDL
MODEL 3
REMARK VINA RESULT:    -5.864      7.042      8.064
REMARK INTER + INTRA:          -6.714
REMARK INTER:                  -6.639
REMARK INTRA:                  -0.076
REMARK UNBOUND:                -0.165
REMARK SMILES O=C([O-])c1ccccc1C(=O)[O-]
REMARK SMILES IDX 4 1 9 2 5 3 8 4 6 5 7 6 2 7 1 8 3 9 10 10 11 11 12 12
REMARK H PARENT
REMARK Flexibility Score: inf
ROOT
ATOM      1  C   UNL     1      22.042  71.172  72.137  1.00  0.00     0.006 A 
ATOM      2  C   UNL     1      22.068  71.824  70.872  1.00  0.00     0.006 A 
ATOM      3  C   UNL     1      21.290  69.993  72.284  1.00  0.00     0.010 A 
ATOM      4  C   UNL     1      21.395  71.234  69.785  1.00  0.00     0.010 A 
ATOM      5  C   UNL     1      20.612  69.439  71.196  1.00  0.00     0.001 A 
ATOM      6  C   UNL     1      20.674  70.052  69.948  1.00  0.00     0.001 A 
ENDROOT
BRANCH   1   7
ATOM      7  C   UNL     1      22.827  71.640  73.303  1.00  0.00     0.072 C 
ATOM      8  O   UNL     1      23.910  71.078  73.619  1.00  0.00    -0.545 OA
ATOM      9  O   UNL     1      22.340  72.666  74.105  1.00  0.00    -0.545 OA
ENDBRANCH   1   7
BRANCH   2  10
ATOM     10  C   UNL     1      22.718  73.137  70.652  1.00  0.00     0.072 C 
ATOM     11  O   UNL     1      22.053  74.123  70.238  1.00  0.00    -0.545 OA
ATOM     12  O   UNL     1      24.089  73.278  70.838  1.00  0.00    -0.545 OA
ENDBRANCH   2  10
TORSDOF 2
ENDMDL
MODEL 4
REMARK VINA RESULT:    -5.813      7.000      8.029
REMARK INTER + INTRA:          -6.658
REMARK INTER:                  -6.500
REMARK INTRA:                  -0.157
REMARK UNBOUND:                -0.165
REMARK SMILES O=C([O-])c1ccccc1C(=O)[O-]
REMARK SMILES IDX 4 1 9 2 5 3 8 4 6 5 7 6 2 7 1 8 3 9 10 10 11 11 12 12
REMARK H PARENT
REMARK Flexibility Score: inf
ROOT
ATOM      1  C   UNL     1      21.981  71.819  70.876  1.00  0.00     0.006 A 
ATOM      2  C   UNL     1      22.002  71.227  72.171  1.00  0.00     0.006 A 
ATOM      3  C   UNL     1      21.359  71.131  69.820  1.00  0.00     0.010 A 
ATOM      4  C   UNL     1      21.342  70.000  72.373  1.00  0.00     0.010 A 
ATOM      5  C   UNL     1      20.729  69.904  70.039  1.00  0.00     0.001 A 
ATOM      6  C   UNL     1      20.711  69.346  71.315  1.00  0.00     0.001 A 
ENDROOT
BRANCH   1   7
ATOM      7  C   UNL     1      22.529  73.166  70.596  1.00  0.00     0.072 C 
ATOM      8  O   UNL     1      21.765  74.125  70.302  1.00  0.00    -0.545 OA
ATOM      9  O   UNL     1      23.904  73.372  70.588  1.00  0.00    -0.545 OA
ENDBRANCH   1   7
BRANCH   2  10
ATOM     10  C   UNL     1      22.747  71.807  73.313  1.00  0.00     0.072 C 
ATOM     11  O   UNL     1      22.196  72.633  74.088  1.00  0.00    -0.545 OA
ATOM     12  O   UNL     1      24.088  71.495  73.502  1.00  0.00    -0.545 OA
ENDBRANCH   2  10
TORSDOF 2
ENDMDL
MODEL 5
REMARK VINA RESULT:    -5.738      6.100      7.722
REMARK INTER + INTRA:          -6.573
REMARK INTER:                  -6.353
REMARK INTRA:                  -0.220
REMARK UNBOUND:                -0.165
REMARK SMILES O=C([O-])c1ccccc1C(=O)[O-]
REMARK SMILES IDX 4 1 9 2 5 3 8 4 6 5 7 6 2 7 1 8 3 9 10 10 11 11 12 12
REMARK H PARENT
REMARK Flexibility Score: inf
ROOT
ATOM      1  C   UNL     1      21.499  71.238  71.061  1.00  0.00     0.006 A 
ATOM      2  C   UNL     1      22.234  71.597  72.227  1.00  0.00     0.006 A 
ATOM      3  C   UNL     1      21.804  71.866  69.840  1.00  0.00     0.010 A 
ATOM      4  C   UNL     1      23.289  72.522  72.112  1.00  0.00     0.010 A 
ATOM      5  C   UNL     1      22.841  72.797  69.755  1.00  0.00     0.001 A 
ATOM      6  C   UNL     1      23.589  73.115  70.886  1.00  0.00     0.001 A 
ENDROOT
BRANCH   1   7
ATOM      7  C   UNL     1      20.464  70.178  71.054  1.00  0.00     0.072 C 
ATOM      8  O   UNL     1      19.244  70.468  71.178  1.00  0.00    -0.545 OA
ATOM      9  O   UNL     1      20.836  68.841  70.980  1.00  0.00    -0.545 OA
ENDBRANCH   1   7
BRANCH   2  10
ATOM     10  C   UNL     1      21.900  71.094  73.580  1.00  0.00     0.072 C 
ATOM     11  O   UNL     1      20.998  71.643  74.266  1.00  0.00    -0.545 OA
ATOM     12  O   UNL     1      22.629  70.049  74.135  1.00  0.00    -0.545 OA
ENDBRANCH   2  10
TORSDOF 2
ENDMDL
MODEL 6
REMARK VINA RESULT:    -5.714      6.112      8.053
REMARK INTER + INTRA:          -6.547
REMARK INTER:                  -6.318
REMARK INTRA:                  -0.229
REMARK UNBOUND:                -0.165
REMARK SMILES O=C([O-])c1ccccc1C(=O)[O-]
REMARK SMILES IDX 4 1 9 2 5 3 8 4 6 5 7 6 2 7 1 8 3 9 10 10 11 11 12 12
REMARK H PARENT
REMARK Flexibility Score: inf
ROOT
ATOM      1  C   UNL     1      22.267  71.570  72.247  1.00  0.00     0.006 A 
ATOM      2  C   UNL     1      21.513  71.239  71.086  1.00  0.00     0.006 A 
ATOM      3  C   UNL     1      23.323  72.493  72.137  1.00  0.00     0.010 A 
ATOM      4  C   UNL     1      21.801  71.894  69.874  1.00  0.00     0.010 A 
ATOM      5  C   UNL     1      23.605  73.114  70.919  1.00  0.00     0.001 A 
ATOM      6  C   UNL     1      22.838  72.823  69.793  1.00  0.00     0.001 A 
ENDROOT
BRANCH   1   7
ATOM      7  C   UNL     1      21.952  71.037  73.593  1.00  0.00     0.072 C 
ATOM      8  O   UNL     1      22.594  70.062  74.068  1.00  0.00    -0.545 OA
ATOM      9  O   UNL     1      20.894  71.567  74.322  1.00  0.00    -0.545 OA
ENDBRANCH   1   7
BRANCH   2  10
ATOM     10  C   UNL     1      20.474  70.183  71.071  1.00  0.00     0.072 C 
ATOM     11  O   UNL     1      19.255  70.476  71.191  1.00  0.00    -0.545 OA
ATOM     12  O   UNL     1      20.841  68.844  70.991  1.00  0.00    -0.545 OA
ENDBRANCH   2  10
TORSDOF 2
ENDMDL
MODEL 7
REMARK VINA RESULT:    -5.689      2.174      3.364
REMARK INTER + INTRA:          -6.519
REMARK INTER:                  -6.548
REMARK INTRA:                   0.029
REMARK UNBOUND:                -0.165
REMARK SMILES O=C([O-])c1ccccc1C(=O)[O-]
REMARK SMILES IDX 4 1 9 2 5 3 8 4 6 5 7 6 2 7 1 8 3 9 10 10 11 11 12 12
REMARK H PARENT
REMARK Flexibility Score: inf
ROOT
ATOM      1  C   UNL     1      14.521  71.659  73.083  1.00  0.00     0.006 A 
ATOM      2  C   UNL     1      15.305  71.196  74.178  1.00  0.00     0.006 A 
ATOM      3  C   UNL     1      15.116  72.496  72.122  1.00  0.00     0.010 A 
ATOM      4  C   UNL     1      16.670  71.534  74.233  1.00  0.00     0.010 A 
ATOM      5  C   UNL     1      16.467  72.837  72.210  1.00  0.00     0.001 A 
ATOM      6  C   UNL     1      17.245  72.347  73.257  1.00  0.00     0.001 A 
ENDROOT
BRANCH   1   7
ATOM      7  C   UNL     1      13.115  71.246  72.865  1.00  0.00     0.072 C 
ATOM      8  O   UNL     1      12.825  70.370  72.007  1.00  0.00    -0.545 OA
ATOM      9  O   UNL     1      12.089  71.874  73.562  1.00  0.00    -0.545 OA
ENDBRANCH   1   7
BRANCH   2  10
ATOM     10  C   UNL     1      14.738  70.424  75.308  1.00  0.00     0.072 C 
ATOM     11  O   UNL     1      14.971  70.760  76.499  1.00  0.00    -0.545 OA
ATOM     12  O   UNL     1      13.995  69.274  75.066  1.00  0.00    -0.545 OA
ENDBRANCH   2  10
TORSDOF 2
ENDMDL
MODEL 8
REMARK VINA RESULT:    -5.674      2.177      3.971
REMARK INTER + INTRA:          -6.502
REMARK INTER:                  -6.537
REMARK INTRA:                   0.035
REMARK UNBOUND:                -0.165
REMARK SMILES O=C([O-])c1ccccc1C(=O)[O-]
REMARK SMILES IDX 4 1 9 2 5 3 8 4 6 5 7 6 2 7 1 8 3 9 10 10 11 11 12 12
REMARK H PARENT
REMARK Flexibility Score: inf
ROOT
ATOM      1  C   UNL     1      15.300  71.195  74.172  1.00  0.00     0.006 A 
ATOM      2  C   UNL     1      14.516  71.682  73.089  1.00  0.00     0.006 A 
ATOM      3  C   UNL     1      16.669  71.515  74.225  1.00  0.00     0.010 A 
ATOM      4  C   UNL     1      15.117  72.526  72.135  1.00  0.00     0.010 A 
ATOM      5  C   UNL     1      17.248  72.336  73.255  1.00  0.00     0.001 A 
ATOM      6  C   UNL     1      16.471  72.849  72.219  1.00  0.00     0.001 A 
ENDROOT
BRANCH   1   7
ATOM      7  C   UNL     1      14.729  70.415  75.295  1.00  0.00     0.072 C 
ATOM      8  O   UNL     1      14.972  70.732  76.490  1.00  0.00    -0.545 OA
ATOM      9  O   UNL     1      13.972  69.278  75.039  1.00  0.00    -0.545 OA
ENDBRANCH   1   7
BRANCH   2  10
ATOM     10  C   UNL     1      13.103  71.291  72.872  1.00  0.00     0.072 C 
ATOM     11  O   UNL     1      12.798  70.440  71.996  1.00  0.00    -0.545 OA
ATOM     12  O   UNL     1      12.089  71.913  73.592  1.00  0.00    -0.545 OA
ENDBRANCH   2  10
TORSDOF 2
ENDMDL
MODEL 9
REMARK VINA RESULT:    -5.669      4.924      6.262
REMARK INTER + INTRA:          -6.496
REMARK INTER:                  -6.491
REMARK INTRA:                  -0.006
REMARK UNBOUND:                -0.165
REMARK SMILES O=C([O-])c1ccccc1C(=O)[O-]
REMARK SMILES IDX 4 1 9 2 5 3 8 4 6 5 7 6 2 7 1 8 3 9 10 10 11 11 12 12
REMARK H PARENT
REMARK Flexibility Score: inf
ROOT
ATOM      1  C   UNL     1      20.439  70.481  75.802  1.00  0.00     0.006 A 
ATOM      2  C   UNL     1      21.800  70.065  75.765  1.00  0.00     0.006 A 
ATOM      3  C   UNL     1      19.623  70.057  76.866  1.00  0.00     0.010 A 
ATOM      4  C   UNL     1      22.309  69.296  76.829  1.00  0.00     0.010 A 
ATOM      5  C   UNL     1      20.144  69.276  77.899  1.00  0.00     0.001 A 
ATOM      6  C   UNL     1      21.487  68.906  77.886  1.00  0.00     0.001 A 
ENDROOT
BRANCH   1   7
ATOM      7  C   UNL     1      19.849  71.401  74.802  1.00  0.00     0.072 C 
ATOM      8  O   UNL     1      18.787  71.098  74.195  1.00  0.00    -0.545 OA
ATOM      9  O   UNL     1      20.502  72.582  74.472  1.00  0.00    -0.545 OA
ENDBRANCH   1   7
BRANCH   2  10
ATOM     10  C   UNL     1      22.701  70.345  74.623  1.00  0.00     0.072 C 
ATOM     11  O   UNL     1      22.580  69.716  73.538  1.00  0.00    -0.545 OA
ATOM     12  O   UNL     1      23.737  71.261  74.759  1.00  0.00    -0.545 OA
ENDBRANCH   2  10
TORSDOF 2
ENDMDL
