MODEL 1
REMARK VINA RESULT:    -6.983      0.000      0.000
REMARK INTER + INTRA:          -6.983
REMARK INTER:                  -6.983
REMARK INTRA:                   0.000
REMARK UNBOUND:                 0.000
REMARK SMILES O=c1ccc2ccccc2o1
REMARK SMILES IDX 7 1 8 2 9 3 10 4 5 5 6 6 4 7 3 8 2 9 1 10 11 11
REMARK H PARENT
REMARK Flexibility Score: inf
ROOT
ATOM      1  C   UNL     1      15.725   0.456  25.690  1.00  0.00     0.001 A 
ATOM      2  C   UNL     1      15.315   0.309  27.019  1.00  0.00     0.004 A 
ATOM      3  C   UNL     1      16.073  -0.461  27.907  1.00  0.00     0.048 A 
ATOM      4  C   UNL     1      17.245  -1.088  27.469  1.00  0.00     0.138 A 
ATOM      5  C   UNL     1      17.658  -0.938  26.126  1.00  0.00     0.018 A 
ATOM      6  C   UNL     1      16.895  -0.165  25.240  1.00  0.00     0.012 A 
ATOM      7  C   UNL     1      18.834  -1.576  25.717  1.00  0.00     0.019 A 
ATOM      8  C   UNL     1      19.558  -2.333  26.637  1.00  0.00     0.094 A 
ATOM      9  C   UNL     1      19.087  -2.436  27.951  1.00  0.00     0.336 A 
ATOM     10  O   UNL     1      19.727  -3.116  28.796  1.00  0.00    -0.246 OA
ATOM     11  O   UNL     1      17.965  -1.820  28.315  1.00  0.00    -0.423 OA
ENDROOT
TORSDOF 0
ENDMDL
MODEL 2
REMARK VINA RESULT:    -6.873      1.177      2.117
REMARK INTER + INTRA:          -6.873
REMARK INTER:                  -6.873
REMARK INTRA:                   0.000
REMARK UNBOUND:                 0.000
REMARK SMILES O=c1ccc2ccccc2o1
REMARK SMILES IDX 7 1 8 2 9 3 10 4 5 5 6 6 4 7 3 8 2 9 1 10 11 11
REMARK H PARENT
REMARK Flexibility Score: inf
ROOT
ATOM      1  C   UNL     1      15.397  -0.544  25.888  1.00  0.00     0.001 A 
ATOM      2  C   UNL     1      16.448  -0.200  25.031  1.00  0.00     0.004 A 
ATOM      3  C   UNL     1      17.750  -0.633  25.306  1.00  0.00     0.048 A 
ATOM      4  C   UNL     1      18.005  -1.413  26.441  1.00  0.00     0.138 A 
ATOM      5  C   UNL     1      16.942  -1.759  27.305  1.00  0.00     0.018 A 
ATOM      6  C   UNL     1      15.640  -1.323  27.024  1.00  0.00     0.012 A 
ATOM      7  C   UNL     1      17.228  -2.540  28.431  1.00  0.00     0.019 A 
ATOM      8  C   UNL     1      18.540  -2.948  28.665  1.00  0.00     0.094 A 
ATOM      9  C   UNL     1      19.541  -2.567  27.764  1.00  0.00     0.336 A 
ATOM     10  O   UNL     1      20.731  -2.926  27.960  1.00  0.00    -0.246 OA
ATOM     11  O   UNL     1      19.243  -1.824  26.701  1.00  0.00    -0.423 OA
ENDROOT
TORSDOF 0
ENDMDL
MODEL 3
REMARK VINA RESULT:    -6.836     12.302     13.210
REMARK INTER + INTRA:          -6.836
REMARK INTER:                  -6.836
REMARK INTRA:                   0.000
REMARK UNBOUND:                 0.000
REMARK SMILES O=c1ccc2ccccc2o1
REMARK SMILES IDX 7 1 8 2 9 3 10 4 5 5 6 6 4 7 3 8 2 9 1 10 11 11
REMARK H PARENT
REMARK Flexibility Score: inf
ROOT
ATOM      1  C   UNL     1      14.514 -14.558  27.952  1.00  0.00     0.001 A 
ATOM      2  C   UNL     1      14.917 -14.002  29.170  1.00  0.00     0.004 A 
ATOM      3  C   UNL     1      14.137 -13.019  29.787  1.00  0.00     0.048 A 
ATOM      4  C   UNL     1      12.947 -12.590  29.188  1.00  0.00     0.138 A 
ATOM      5  C   UNL     1      12.540 -13.153  27.958  1.00  0.00     0.018 A 
ATOM      6  C   UNL     1      13.327 -14.137  27.344  1.00  0.00     0.012 A 
ATOM      7  C   UNL     1      11.346 -12.704  27.383  1.00  0.00     0.019 A 
ATOM      8  C   UNL     1      10.600 -11.723  28.034  1.00  0.00     0.094 A 
ATOM      9  C   UNL     1      11.065 -11.211  29.251  1.00  0.00     0.336 A 
ATOM     10  O   UNL     1      10.405 -10.325  29.853  1.00  0.00    -0.246 OA
ATOM     11  O   UNL     1      12.205 -11.655  29.776  1.00  0.00    -0.423 OA
ENDROOT
TORSDOF 0
ENDMDL
MODEL 4
REMARK VINA RESULT:    -6.767     12.045     13.057
REMARK INTER + INTRA:          -6.767
REMARK INTER:                  -6.767
REMARK INTRA:                   0.000
REMARK UNBOUND:                 0.000
REMARK SMILES O=c1ccc2ccccc2o1
REMARK SMILES IDX 7 1 8 2 9 3 10 4 5 5 6 6 4 7 3 8 2 9 1 10 11 11
REMARK H PARENT
REMARK Flexibility Score: inf
ROOT
ATOM      1  C   UNL     1      14.920 -14.005  28.479  1.00  0.00     0.001 A 
ATOM      2  C   UNL     1      13.998 -14.392  27.501  1.00  0.00     0.004 A 
ATOM      3  C   UNL     1      12.751 -13.763  27.421  1.00  0.00     0.048 A 
ATOM      4  C   UNL     1      12.421 -12.742  28.320  1.00  0.00     0.138 A 
ATOM      5  C   UNL     1      13.353 -12.351  29.307  1.00  0.00     0.018 A 
ATOM      6  C   UNL     1      14.601 -12.985  29.383  1.00  0.00     0.012 A 
ATOM      7  C   UNL     1      12.996 -11.327  30.191  1.00  0.00     0.019 A 
ATOM      8  C   UNL     1      11.742 -10.729  30.074  1.00  0.00     0.094 A 
ATOM      9  C   UNL     1      10.871 -11.168  29.071  1.00  0.00     0.336 A 
ATOM     10  O   UNL     1       9.735 -10.640  28.950  1.00  0.00    -0.246 OA
ATOM     11  O   UNL     1      11.235 -12.144  28.242  1.00  0.00    -0.423 OA
ENDROOT
TORSDOF 0
ENDMDL
MODEL 5
REMARK VINA RESULT:    -6.743     11.647     12.371
REMARK INTER + INTRA:          -6.743
REMARK INTER:                  -6.743
REMARK INTRA:                   0.000
REMARK UNBOUND:                 0.000
REMARK SMILES O=c1ccc2ccccc2o1
REMARK SMILES IDX 7 1 8 2 9 3 10 4 5 5 6 6 4 7 3 8 2 9 1 10 11 11
REMARK H PARENT
REMARK Flexibility Score: inf
ROOT
ATOM      1  C   UNL     1      12.652 -14.014  26.992  1.00  0.00     0.001 A 
ATOM      2  C   UNL     1      11.438 -13.322  27.029  1.00  0.00     0.004 A 
ATOM      3  C   UNL     1      11.250 -12.279  27.941  1.00  0.00     0.048 A 
ATOM      4  C   UNL     1      12.279 -11.923  28.822  1.00  0.00     0.138 A 
ATOM      5  C   UNL     1      13.505 -12.623  28.784  1.00  0.00     0.018 A 
ATOM      6  C   UNL     1      13.688 -13.668  27.867  1.00  0.00     0.012 A 
ATOM      7  C   UNL     1      14.515 -12.245  29.676  1.00  0.00     0.019 A 
ATOM      8  C   UNL     1      14.283 -11.199  30.568  1.00  0.00     0.094 A 
ATOM      9  C   UNL     1      13.043 -10.552  30.548  1.00  0.00     0.336 A 
ATOM     10  O   UNL     1      12.815  -9.605  31.346  1.00  0.00    -0.246 OA
ATOM     11  O   UNL     1      12.099 -10.931  29.690  1.00  0.00    -0.423 OA
ENDROOT
TORSDOF 0
ENDMDL
MODEL 6
REMARK VINA RESULT:    -6.523     11.628     12.524
REMARK INTER + INTRA:          -6.523
REMARK INTER:                  -6.523
REMARK INTRA:                   0.000
REMARK UNBOUND:                 0.000
REMARK SMILES O=c1ccc2ccccc2o1
REMARK SMILES IDX 7 1 8 2 9 3 10 4 5 5 6 6 4 7 3 8 2 9 1 10 11 11
REMARK H PARENT
REMARK Flexibility Score: inf
ROOT
ATOM      1  C   UNL     1      13.250 -14.170  27.116  1.00  0.00     0.001 A 
ATOM      2  C   UNL     1      14.470 -14.003  27.779  1.00  0.00     0.004 A 
ATOM      3  C   UNL     1      14.606 -13.023  28.767  1.00  0.00     0.048 A 
ATOM      4  C   UNL     1      13.519 -12.205  29.098  1.00  0.00     0.138 A 
ATOM      5  C   UNL     1      12.286 -12.375  28.429  1.00  0.00     0.018 A 
ATOM      6  C   UNL     1      12.156 -13.359  27.439  1.00  0.00     0.012 A 
ATOM      7  C   UNL     1      11.217 -11.543  28.781  1.00  0.00     0.019 A 
ATOM      8  C   UNL     1      11.398 -10.580  29.773  1.00  0.00     0.094 A 
ATOM      9  C   UNL     1      12.648 -10.470  30.393  1.00  0.00     0.336 A 
ATOM     10  O   UNL     1      12.830  -9.606  31.290  1.00  0.00    -0.246 OA
ATOM     11  O   UNL     1      13.648 -11.273  30.039  1.00  0.00    -0.423 OA
ENDROOT
TORSDOF 0
ENDMDL
MODEL 7
REMARK VINA RESULT:    -6.471      1.921      4.363
REMARK INTER + INTRA:          -6.471
REMARK INTER:                  -6.471
REMARK INTRA:                   0.000
REMARK UNBOUND:                 0.000
REMARK SMILES O=c1ccc2ccccc2o1
REMARK SMILES IDX 7 1 8 2 9 3 10 4 5 5 6 6 4 7 3 8 2 9 1 10 11 11
REMARK H PARENT
REMARK Flexibility Score: inf
ROOT
ATOM      1  C   UNL     1      19.113  -2.830  28.062  1.00  0.00     0.001 A 
ATOM      2  C   UNL     1      19.498  -2.479  26.764  1.00  0.00     0.004 A 
ATOM      3  C   UNL     1      18.744  -1.556  26.031  1.00  0.00     0.048 A 
ATOM      4  C   UNL     1      17.601  -0.979  26.596  1.00  0.00     0.138 A 
ATOM      5  C   UNL     1      17.212  -1.333  27.907  1.00  0.00     0.018 A 
ATOM      6  C   UNL     1      17.972  -2.259  28.636  1.00  0.00     0.012 A 
ATOM      7  C   UNL     1      16.065  -0.740  28.445  1.00  0.00     0.019 A 
ATOM      8  C   UNL     1      15.345   0.175  27.679  1.00  0.00     0.094 A 
ATOM      9  C   UNL     1      15.790   0.478  26.387  1.00  0.00     0.336 A 
ATOM     10  O   UNL     1      15.152   1.301  25.680  1.00  0.00    -0.246 OA
ATOM     11  O   UNL     1      16.885  -0.101  25.899  1.00  0.00    -0.423 OA
ENDROOT
TORSDOF 0
ENDMDL
MODEL 8
REMARK VINA RESULT:    -6.465     11.799     12.444
REMARK INTER + INTRA:          -6.465
REMARK INTER:                  -6.465
REMARK INTRA:                   0.000
REMARK UNBOUND:                 0.000
REMARK SMILES O=c1ccc2ccccc2o1
REMARK SMILES IDX 7 1 8 2 9 3 10 4 5 5 6 6 4 7 3 8 2 9 1 10 11 11
REMARK H PARENT
REMARK Flexibility Score: inf
ROOT
ATOM      1  C   UNL     1      11.553 -10.586  29.883  1.00  0.00     0.001 A 
ATOM      2  C   UNL     1      12.840 -10.438  30.409  1.00  0.00     0.004 A 
ATOM      3  C   UNL     1      13.882 -11.254  29.958  1.00  0.00     0.048 A 
ATOM      4  C   UNL     1      13.641 -12.222  28.977  1.00  0.00     0.138 A 
ATOM      5  C   UNL     1      12.340 -12.370  28.445  1.00  0.00     0.018 A 
ATOM      6  C   UNL     1      11.299 -11.550  28.902  1.00  0.00     0.012 A 
ATOM      7  C   UNL     1      12.129 -13.346  27.465  1.00  0.00     0.019 A 
ATOM      8  C   UNL     1      13.197 -14.137  27.046  1.00  0.00     0.094 A 
ATOM      9  C   UNL     1      14.458 -13.933  27.617  1.00  0.00     0.336 A 
ATOM     10  O   UNL     1      15.436 -14.637  27.251  1.00  0.00    -0.246 OA
ATOM     11  O   UNL     1      14.633 -12.998  28.548  1.00  0.00    -0.423 OA
ENDROOT
TORSDOF 0
ENDMDL
MODEL 9
REMARK VINA RESULT:    -6.405      1.722      3.827
REMARK INTER + INTRA:          -6.405
REMARK INTER:                  -6.405
REMARK INTRA:                   0.000
REMARK UNBOUND:                 0.000
REMARK SMILES O=c1ccc2ccccc2o1
REMARK SMILES IDX 7 1 8 2 9 3 10 4 5 5 6 6 4 7 3 8 2 9 1 10 11 11
REMARK H PARENT
REMARK Flexibility Score: inf
ROOT
ATOM      1  C   UNL     1      19.575  -2.879  27.508  1.00  0.00     0.001 A 
ATOM      2  C   UNL     1      18.747  -2.836  28.635  1.00  0.00     0.004 A 
ATOM      3  C   UNL     1      17.589  -2.052  28.627  1.00  0.00     0.048 A 
ATOM      4  C   UNL     1      17.253  -1.308  27.490  1.00  0.00     0.138 A 
ATOM      5  C   UNL     1      18.088  -1.353  26.352  1.00  0.00     0.018 A 
ATOM      6  C   UNL     1      19.248  -2.140  26.366  1.00  0.00     0.012 A 
ATOM      7  C   UNL     1      17.727  -0.600  25.230  1.00  0.00     0.019 A 
ATOM      8  C   UNL     1      16.563   0.167  25.268  1.00  0.00     0.094 A 
ATOM      9  C   UNL     1      15.784   0.162  26.430  1.00  0.00     0.336 A 
ATOM     10  O   UNL     1      14.730   0.849  26.483  1.00  0.00    -0.246 OA
ATOM     11  O   UNL     1      16.150  -0.563  27.484  1.00  0.00    -0.423 OA
ENDROOT
TORSDOF 0
ENDMDL
