MODEL 1
REMARK VINA RESULT:    -3.422      0.000      0.000
REMARK INTER + INTRA:          -4.725
REMARK INTER:                  -4.522
REMARK INTRA:                  -0.203
REMARK UNBOUND:                -0.203
REMARK SMILES CCCCCCCO
REMARK SMILES IDX 5 1 4 2 3 3 2 4 1 5 6 6 7 7 8 8
REMARK H PARENT 8 9
REMARK Flexibility Score: inf
ROOT
ATOM      1  C   UNL     1     212.562 197.092 212.415  1.00  0.00     0.002 C 
ENDROOT
BRANCH   1   2
ATOM      2  C   UNL     1     212.936 196.686 213.846  1.00  0.00     0.000 C 
BRANCH   2   3
ATOM      3  C   UNL     1     213.547 197.865 214.611  1.00  0.00    -0.000 C 
BRANCH   3   4
ATOM      4  C   UNL     1     213.359 197.697 216.123  1.00  0.00    -0.003 C 
ATOM      5  C   UNL     1     212.155 196.813 216.434  1.00  0.00     0.004 C 
ENDBRANCH   3   4
ENDBRANCH   2   3
ENDBRANCH   1   2
BRANCH   1   6
ATOM      6  C   UNL     1     211.845 198.447 212.397  1.00  0.00     0.028 C 
BRANCH   6   7
ATOM      7  C   UNL     1     211.169 198.696 211.050  1.00  0.00     0.156 C 
BRANCH   7   8
ATOM      8  O   UNL     1     211.113 200.073 210.803  1.00  0.00    -0.396 OA
ATOM      9  H   UNL     1     211.991 200.319 210.413  1.00  0.00     0.210 HD
ENDBRANCH   7   8
ENDBRANCH   6   7
ENDBRANCH   1   6
TORSDOF 6
ENDMDL
MODEL 2
REMARK VINA RESULT:    -3.348      2.700      4.700
REMARK INTER + INTRA:          -4.628
REMARK INTER:                  -4.449
REMARK INTRA:                  -0.179
REMARK UNBOUND:                -0.203
REMARK SMILES CCCCCCCO
REMARK SMILES IDX 5 1 4 2 3 3 2 4 1 5 6 6 7 7 8 8
REMARK H PARENT 8 9
REMARK Flexibility Score: inf
ROOT
ATOM      1  C   UNL     1     212.666 197.934 213.408  1.00  0.00     0.002 C 
ENDROOT
BRANCH   1   2
ATOM      2  C   UNL     1     212.670 196.705 212.491  1.00  0.00     0.000 C 
BRANCH   2   3
ATOM      3  C   UNL     1     212.242 197.079 211.067  1.00  0.00    -0.000 C 
BRANCH   3   4
ATOM      4  C   UNL     1     211.517 198.429 211.047  1.00  0.00    -0.003 C 
ATOM      5  C   UNL     1     210.093 198.282 210.517  1.00  0.00     0.004 C 
ENDBRANCH   3   4
ENDBRANCH   2   3
ENDBRANCH   1   2
BRANCH   1   6
ATOM      6  C   UNL     1     213.406 197.645 214.719  1.00  0.00     0.028 C 
BRANCH   6   7
ATOM      7  C   UNL     1     212.509 196.901 215.706  1.00  0.00     0.156 C 
BRANCH   7   8
ATOM      8  O   UNL     1     213.192 195.787 216.211  1.00  0.00    -0.396 OA
ATOM      9  H   UNL     1     212.494 195.136 216.481  1.00  0.00     0.210 HD
ENDBRANCH   7   8
ENDBRANCH   6   7
ENDBRANCH   1   6
TORSDOF 6
ENDMDL
MODEL 3
REMARK VINA RESULT:    -3.256      1.966      2.248
REMARK INTER + INTRA:          -4.505
REMARK INTER:                  -4.338
REMARK INTRA:                  -0.167
REMARK UNBOUND:                -0.203
REMARK SMILES CCCCCCCO
REMARK SMILES IDX 5 1 4 2 3 3 2 4 1 5 6 6 7 7 8 8
REMARK H PARENT 8 9
REMARK Flexibility Score: inf
ROOT
ATOM      1  C   UNL     1     212.164 198.153 212.684  1.00  0.00     0.002 C 
ENDROOT
BRANCH   1   2
ATOM      2  C   UNL     1     212.690 197.281 213.830  1.00  0.00     0.000 C 
BRANCH   2   3
ATOM      3  C   UNL     1     213.639 198.075 214.735  1.00  0.00    -0.000 C 
BRANCH   3   4
ATOM      4  C   UNL     1     213.455 197.682 216.205  1.00  0.00    -0.003 C 
ATOM      5  C   UNL     1     212.182 196.863 216.402  1.00  0.00     0.004 C 
ENDBRANCH   3   4
ENDBRANCH   2   3
ENDBRANCH   1   2
BRANCH   1   6
ATOM      6  C   UNL     1     212.188 197.388 211.355  1.00  0.00     0.028 C 
BRANCH   6   7
ATOM      7  C   UNL     1     212.959 196.076 211.487  1.00  0.00     0.156 C 
BRANCH   7   8
ATOM      8  O   UNL     1     212.580 195.205 210.458  1.00  0.00    -0.396 OA
ATOM      9  H   UNL     1     213.417 194.952 209.990  1.00  0.00     0.210 HD
ENDBRANCH   7   8
ENDBRANCH   6   7
ENDBRANCH   1   6
TORSDOF 6
ENDMDL
MODEL 4
REMARK VINA RESULT:    -3.169      2.466      5.030
REMARK INTER + INTRA:          -4.390
REMARK INTER:                  -4.212
REMARK INTRA:                  -0.178
REMARK UNBOUND:                -0.203
REMARK SMILES CCCCCCCO
REMARK SMILES IDX 5 1 4 2 3 3 2 4 1 5 6 6 7 7 8 8
REMARK H PARENT 8 9
REMARK Flexibility Score: inf
ROOT
ATOM      1  C   UNL     1     212.350 196.733 212.048  1.00  0.00     0.002 C 
ENDROOT
BRANCH   1   2
ATOM      2  C   UNL     1     212.164 197.448 210.704  1.00  0.00     0.000 C 
BRANCH   2   3
ATOM      3  C   UNL     1     210.688 197.776 210.454  1.00  0.00    -0.000 C 
BRANCH   3   4
ATOM      4  C   UNL     1     210.517 199.230 209.999  1.00  0.00    -0.003 C 
ATOM      5  C   UNL     1     211.618 199.635 209.022  1.00  0.00     0.004 C 
ENDBRANCH   3   4
ENDBRANCH   2   3
ENDBRANCH   1   2
BRANCH   1   6
ATOM      6  C   UNL     1     212.532 197.742 213.188  1.00  0.00     0.028 C 
BRANCH   6   7
ATOM      7  C   UNL     1     212.730 197.033 214.527  1.00  0.00     0.156 C 
BRANCH   7   8
ATOM      8  O   UNL     1     213.314 195.779 214.310  1.00  0.00    -0.396 OA
ATOM      9  H   UNL     1     212.696 195.115 214.710  1.00  0.00     0.210 HD
ENDBRANCH   7   8
ENDBRANCH   6   7
ENDBRANCH   1   6
TORSDOF 6
ENDMDL
MODEL 5
REMARK VINA RESULT:    -3.139      1.250      2.072
REMARK INTER + INTRA:          -4.351
REMARK INTER:                  -4.199
REMARK INTRA:                  -0.152
REMARK UNBOUND:                -0.203
REMARK SMILES CCCCCCCO
REMARK SMILES IDX 5 1 4 2 3 3 2 4 1 5 6 6 7 7 8 8
REMARK H PARENT 8 9
REMARK Flexibility Score: inf
ROOT
ATOM      1  C   UNL     1     211.858 197.801 211.190  1.00  0.00     0.002 C 
ENDROOT
BRANCH   1   2
ATOM      2  C   UNL     1     212.304 196.351 211.415  1.00  0.00     0.000 C 
BRANCH   2   3
ATOM      3  C   UNL     1     213.018 196.198 212.763  1.00  0.00    -0.000 C 
BRANCH   3   4
ATOM      4  C   UNL     1     212.634 197.331 213.721  1.00  0.00    -0.003 C 
ATOM      5  C   UNL     1     212.698 196.869 215.175  1.00  0.00     0.004 C 
ENDBRANCH   3   4
ENDBRANCH   2   3
ENDBRANCH   1   2
BRANCH   1   6
ATOM      6  C   UNL     1     211.999 198.198 209.716  1.00  0.00     0.028 C 
BRANCH   6   7
ATOM      7  C   UNL     1     211.300 199.525 209.431  1.00  0.00     0.156 C 
BRANCH   7   8
ATOM      8  O   UNL     1     211.025 200.177 210.640  1.00  0.00    -0.396 OA
ATOM      9  H   UNL     1     210.178 200.673 210.498  1.00  0.00     0.210 HD
ENDBRANCH   7   8
ENDBRANCH   6   7
ENDBRANCH   1   6
TORSDOF 6
ENDMDL
MODEL 6
REMARK VINA RESULT:    -2.996     15.755     16.674
REMARK INTER + INTRA:          -4.163
REMARK INTER:                  -3.974
REMARK INTRA:                  -0.189
REMARK UNBOUND:                -0.203
REMARK SMILES CCCCCCCO
REMARK SMILES IDX 5 1 4 2 3 3 2 4 1 5 6 6 7 7 8 8
REMARK H PARENT 8 9
REMARK Flexibility Score: inf
ROOT
ATOM      1  C   UNL     1     197.012 200.817 207.174  1.00  0.00     0.002 C 
ENDROOT
BRANCH   1   2
ATOM      2  C   UNL     1     198.517 201.080 207.037  1.00  0.00     0.000 C 
BRANCH   2   3
ATOM      3  C   UNL     1     198.879 202.483 207.538  1.00  0.00    -0.000 C 
BRANCH   3   4
ATOM      4  C   UNL     1     197.645 203.393 207.566  1.00  0.00    -0.003 C 
ATOM      5  C   UNL     1     197.965 204.736 208.216  1.00  0.00     0.004 C 
ENDBRANCH   3   4
ENDBRANCH   2   3
ENDBRANCH   1   2
BRANCH   1   6
ATOM      6  C   UNL     1     196.528 199.824 206.112  1.00  0.00     0.028 C 
BRANCH   6   7
ATOM      7  C   UNL     1     197.554 198.715 205.884  1.00  0.00     0.156 C 
BRANCH   7   8
ATOM      8  O   UNL     1     197.408 197.734 206.872  1.00  0.00    -0.396 OA
ATOM      9  H   UNL     1     196.958 198.178 207.636  1.00  0.00     0.210 HD
ENDBRANCH   7   8
ENDBRANCH   6   7
ENDBRANCH   1   6
TORSDOF 6
ENDMDL
MODEL 7
REMARK VINA RESULT:    -2.963     17.593     18.848
REMARK INTER + INTRA:          -4.119
REMARK INTER:                  -3.935
REMARK INTRA:                  -0.184
REMARK UNBOUND:                -0.203
REMARK SMILES CCCCCCCO
REMARK SMILES IDX 5 1 4 2 3 3 2 4 1 5 6 6 7 7 8 8
REMARK H PARENT 8 9
REMARK Flexibility Score: inf
ROOT
ATOM      1  C   UNL     1     197.394 207.240 209.801  1.00  0.00     0.002 C 
ENDROOT
BRANCH   1   2
ATOM      2  C   UNL     1     196.370 207.319 208.662  1.00  0.00     0.000 C 
BRANCH   2   3
ATOM      3  C   UNL     1     196.429 206.068 207.779  1.00  0.00    -0.000 C 
BRANCH   3   4
ATOM      4  C   UNL     1     197.656 205.214 208.117  1.00  0.00    -0.003 C 
ATOM      5  C   UNL     1     197.456 203.765 207.683  1.00  0.00     0.004 C 
ENDBRANCH   3   4
ENDBRANCH   2   3
ENDBRANCH   1   2
BRANCH   1   6
ATOM      6  C   UNL     1     197.559 208.600 210.490  1.00  0.00     0.028 C 
BRANCH   6   7
ATOM      7  C   UNL     1     196.518 209.601 209.991  1.00  0.00     0.156 C 
BRANCH   7   8
ATOM      8  O   UNL     1     196.486 210.707 210.849  1.00  0.00    -0.396 OA
ATOM      9  H   UNL     1     195.654 210.618 211.381  1.00  0.00     0.210 HD
ENDBRANCH   7   8
ENDBRANCH   6   7
ENDBRANCH   1   6
TORSDOF 6
ENDMDL
MODEL 8
REMARK VINA RESULT:    -2.936      2.527      5.220
REMARK INTER + INTRA:          -4.082
REMARK INTER:                  -3.861
REMARK INTRA:                  -0.221
REMARK UNBOUND:                -0.203
REMARK SMILES CCCCCCCO
REMARK SMILES IDX 5 1 4 2 3 3 2 4 1 5 6 6 7 7 8 8
REMARK H PARENT 8 9
REMARK Flexibility Score: inf
ROOT
ATOM      1  C   UNL     1     211.600 198.619 212.040  1.00  0.00     0.002 C 
ENDROOT
BRANCH   1   2
ATOM      2  C   UNL     1     210.916 198.397 210.685  1.00  0.00     0.000 C 
BRANCH   2   3
ATOM      3  C   UNL     1     211.313 199.485 209.682  1.00  0.00    -0.000 C 
BRANCH   3   4
ATOM      4  C   UNL     1     212.317 198.947 208.655  1.00  0.00    -0.003 C 
ATOM      5  C   UNL     1     212.266 197.424 208.580  1.00  0.00     0.004 C 
ENDBRANCH   3   4
ENDBRANCH   2   3
ENDBRANCH   1   2
BRANCH   1   6
ATOM      6  C   UNL     1     212.402 197.382 212.462  1.00  0.00     0.028 C 
BRANCH   6   7
ATOM      7  C   UNL     1     212.916 197.520 213.894  1.00  0.00     0.156 C 
BRANCH   7   8
ATOM      8  O   UNL     1     212.793 196.291 214.554  1.00  0.00    -0.396 OA
ATOM      9  H   UNL     1     213.019 195.595 213.884  1.00  0.00     0.210 HD
ENDBRANCH   7   8
ENDBRANCH   6   7
ENDBRANCH   1   6
TORSDOF 6
ENDMDL
MODEL 9
REMARK VINA RESULT:    -2.931      9.221     11.370
REMARK INTER + INTRA:          -4.077
REMARK INTER:                  -3.839
REMARK INTRA:                  -0.238
REMARK UNBOUND:                -0.203
REMARK SMILES CCCCCCCO
REMARK SMILES IDX 5 1 4 2 3 3 2 4 1 5 6 6 7 7 8 8
REMARK H PARENT 8 9
REMARK Flexibility Score: inf
ROOT
ATOM      1  C   UNL     1     211.384 206.978 206.731  1.00  0.00     0.002 C 
ENDROOT
BRANCH   1   2
ATOM      2  C   UNL     1     210.703 206.197 207.861  1.00  0.00     0.000 C 
BRANCH   2   3
ATOM      3  C   UNL     1     209.228 205.933 207.538  1.00  0.00    -0.000 C 
BRANCH   3   4
ATOM      4  C   UNL     1     208.864 204.465 207.790  1.00  0.00    -0.003 C 
ATOM      5  C   UNL     1     210.114 203.593 207.874  1.00  0.00     0.004 C 
ENDBRANCH   3   4
ENDBRANCH   2   3
ENDBRANCH   1   2
BRANCH   1   6
ATOM      6  C   UNL     1     210.403 207.948 206.063  1.00  0.00     0.028 C 
BRANCH   6   7
ATOM      7  C   UNL     1     210.900 209.389 206.156  1.00  0.00     0.156 C 
BRANCH   7   8
ATOM      8  O   UNL     1     210.620 209.898 207.430  1.00  0.00    -0.396 OA
ATOM      9  H   UNL     1     209.993 210.654 207.292  1.00  0.00     0.210 HD
ENDBRANCH   7   8
ENDBRANCH   6   7
ENDBRANCH   1   6
TORSDOF 6
ENDMDL
