MODEL 1
REMARK VINA RESULT:    -4.586      0.000      0.000
REMARK INTER + INTRA:          -7.245
REMARK INTER:                  -6.999
REMARK INTRA:                  -0.246
REMARK UNBOUND:                -0.246
REMARK SMILES CC1=CCC[C@@H](C)C(=O)C[C@H](C(C)C)C(=O)C1
REMARK SMILES IDX 8 1 9 2 6 3 7 4 5 5 4 6 3 7 2 8 1 9 10 11 11 12 15 13 16 14
REMARK SMILES IDX 17 15 12 17 13 18 14 19
REMARK H PARENT
REMARK Flexibility Score: 70.00
ROOT
ATOM      1  C   UNL     1      16.686 -30.226  22.153  1.00  0.00     0.136 C 
ATOM      2  O   UNL     1      16.155 -29.125  22.133  1.00  0.00    -0.299 OA
ENDROOT
BRANCH   1   3
ATOM      3  C   UNL     1      18.113 -30.380  21.662  1.00  0.00     0.053 C 
ATOM      4  C   UNL     1      18.561 -29.083  20.979  1.00  0.00     0.016 C 
BRANCH   3   5
ATOM      5  C   UNL     1      18.263 -31.574  20.697  1.00  0.00     0.015 C 
BRANCH   5   6
ATOM      6  C   UNL     1      18.703 -32.887  21.368  1.00  0.00     0.028 C 
BRANCH   6   7
ATOM      7  C   UNL     1      18.204 -34.127  20.664  1.00  0.00    -0.028 C 
ATOM      8  C   UNL     1      16.963 -34.677  20.719  1.00  0.00    -0.070 CG0
ATOM      9  C   UNL     1      16.713 -35.872  19.828  1.00  0.00     0.039 C 
ATOM     10  G   UNL     1      15.841 -34.248  21.659  1.00  0.00     0.000 G0
ENDBRANCH   6   7
ENDBRANCH   5   6
ENDBRANCH   3   5
ENDBRANCH   1   3
BRANCH   1  11
ATOM     11  C   UNL     1      15.916 -31.401  22.701  1.00  0.00     0.087 C 
BRANCH  11  12
ATOM     12  C   UNL     1      14.736 -31.820  21.783  1.00  0.00     0.066 C 
BRANCH  12  13
ATOM     13  C   UNL     1      14.896 -33.187  21.116  1.00  0.00     0.140 C 
ATOM     14  O   UNL     1      14.191 -33.448  20.150  1.00  0.00    -0.299 OA
BRANCH  13  15
ATOM     15  C   UNL     1      15.807 -34.267  21.647  1.00  0.00     0.106 CG0
ATOM     16  G   UNL     1      16.948 -34.669  20.717  1.00  0.00     0.000 G0
ENDBRANCH  13  15
ENDBRANCH  12  13
BRANCH  12  17
ATOM     17  C   UNL     1      13.367 -31.674  22.517  1.00  0.00    -0.006 C 
ATOM     18  C   UNL     1      12.313 -30.898  21.709  1.00  0.00     0.008 C 
ATOM     19  C   UNL     1      13.529 -31.042  23.909  1.00  0.00     0.008 C 
ENDBRANCH  12  17
ENDBRANCH  11  12
ENDBRANCH   1  11
TORSDOF 1
ENDMDL
MODEL 2
REMARK VINA RESULT:    -4.491      1.656      1.934
REMARK INTER + INTRA:          -7.100
REMARK INTER:                  -6.697
REMARK INTRA:                  -0.404
REMARK UNBOUND:                -0.246
REMARK SMILES CC1=CCC[C@@H](C)C(=O)C[C@H](C(C)C)C(=O)C1
REMARK SMILES IDX 8 1 9 2 6 3 7 4 5 5 4 6 3 7 2 8 1 9 10 11 11 12 15 13 16 14
REMARK SMILES IDX 17 15 12 17 13 18 14 19
REMARK H PARENT
REMARK Flexibility Score: 70.00
ROOT
ATOM      1  C   UNL     1      17.350 -30.370  22.372  1.00  0.00     0.136 C 
ATOM      2  O   UNL     1      17.263 -29.334  21.730  1.00  0.00    -0.299 OA
ENDROOT
BRANCH   1   3
ATOM      3  C   UNL     1      18.487 -31.333  22.092  1.00  0.00     0.053 C 
ATOM      4  C   UNL     1      19.826 -30.632  22.346  1.00  0.00     0.016 C 
BRANCH   3   5
ATOM      5  C   UNL     1      18.434 -31.881  20.650  1.00  0.00     0.015 C 
BRANCH   5   6
ATOM      6  C   UNL     1      17.909 -33.322  20.532  1.00  0.00     0.028 C 
BRANCH   6   7
ATOM      7  C   UNL     1      17.875 -34.066  21.847  1.00  0.00    -0.028 C 
ATOM      8  C   UNL     1      16.790 -34.389  22.598  1.00  0.00    -0.070 CG0
ATOM      9  C   UNL     1      17.044 -35.229  23.828  1.00  0.00     0.039 C 
ATOM     10  G   UNL     1      15.364 -33.905  22.353  1.00  0.00     0.000 G0
ENDBRANCH   6   7
ENDBRANCH   5   6
ENDBRANCH   3   5
ENDBRANCH   1   3
BRANCH   1  11
ATOM     11  C   UNL     1      16.338 -30.647  23.455  1.00  0.00     0.087 C 
BRANCH  11  12
ATOM     12  C   UNL     1      15.044 -31.309  22.906  1.00  0.00     0.066 C 
BRANCH  12  13
ATOM     13  C   UNL     1      14.883 -32.790  23.257  1.00  0.00     0.140 C 
ATOM     14  O   UNL     1      14.424 -33.079  24.354  1.00  0.00    -0.299 OA
BRANCH  13  15
ATOM     15  C   UNL     1      15.350 -33.911  22.361  1.00  0.00     0.106 CG0
ATOM     16  G   UNL     1      16.782 -34.379  22.600  1.00  0.00     0.000 G0
ENDBRANCH  13  15
ENDBRANCH  12  13
BRANCH  12  17
ATOM     17  C   UNL     1      13.780 -30.471  23.270  1.00  0.00    -0.006 C 
ATOM     18  C   UNL     1      12.553 -30.798  22.402  1.00  0.00     0.008 C 
ATOM     19  C   UNL     1      14.064 -28.961  23.230  1.00  0.00     0.008 C 
ENDBRANCH  12  17
ENDBRANCH  11  12
ENDBRANCH   1  11
TORSDOF 1
ENDMDL
MODEL 3
REMARK VINA RESULT:    -4.428      1.971      4.448
REMARK INTER + INTRA:          -7.004
REMARK INTER:                  -6.870
REMARK INTRA:                  -0.134
REMARK UNBOUND:                -0.246
REMARK SMILES CC1=CCC[C@@H](C)C(=O)C[C@H](C(C)C)C(=O)C1
REMARK SMILES IDX 8 1 9 2 6 3 7 4 5 5 4 6 3 7 2 8 1 9 10 11 11 12 15 13 16 14
REMARK SMILES IDX 17 15 12 17 13 18 14 19
REMARK H PARENT
REMARK Flexibility Score: 70.00
ROOT
ATOM      1  C   UNL     1      14.096 -32.141  21.344  1.00  0.00     0.136 C 
ATOM      2  O   UNL     1      13.198 -31.891  20.553  1.00  0.00    -0.299 OA
ENDROOT
BRANCH   1   3
ATOM      3  C   UNL     1      14.526 -31.089  22.347  1.00  0.00     0.053 C 
ATOM      4  C   UNL     1      13.290 -30.507  23.042  1.00  0.00     0.016 C 
BRANCH   3   5
ATOM      5  C   UNL     1      15.346 -29.963  21.682  1.00  0.00     0.015 C 
BRANCH   5   6
ATOM      6  C   UNL     1      16.811 -29.881  22.144  1.00  0.00     0.028 C 
BRANCH   6   7
ATOM      7  C   UNL     1      17.085 -30.620  23.433  1.00  0.00    -0.028 C 
ATOM      8  C   UNL     1      17.758 -31.788  23.600  1.00  0.00    -0.070 CG0
ATOM      9  C   UNL     1      17.968 -32.250  25.024  1.00  0.00     0.039 C 
ATOM     10  G   UNL     1      18.239 -32.705  22.480  1.00  0.00     0.000 G0
ENDBRANCH   6   7
ENDBRANCH   5   6
ENDBRANCH   3   5
ENDBRANCH   1   3
BRANCH   1  11
ATOM     11  C   UNL     1      14.730 -33.509  21.324  1.00  0.00     0.087 C 
BRANCH  11  12
ATOM     12  C   UNL     1      16.220 -33.468  20.888  1.00  0.00     0.066 C 
BRANCH  12  13
ATOM     13  C   UNL     1      17.224 -33.743  22.010  1.00  0.00     0.140 C 
ATOM     14  O   UNL     1      17.152 -34.810  22.603  1.00  0.00    -0.299 OA
BRANCH  13  15
ATOM     15  C   UNL     1      18.235 -32.727  22.486  1.00  0.00     0.106 CG0
ATOM     16  G   UNL     1      17.747 -31.796  23.591  1.00  0.00     0.000 G0
ENDBRANCH  13  15
ENDBRANCH  12  13
BRANCH  12  17
ATOM     17  C   UNL     1      16.470 -34.363  19.635  1.00  0.00    -0.006 C 
ATOM     18  C   UNL     1      16.311 -35.868  19.912  1.00  0.00     0.008 C 
ATOM     19  C   UNL     1      17.842 -34.089  19.000  1.00  0.00     0.008 C 
ENDBRANCH  12  17
ENDBRANCH  11  12
ENDBRANCH   1  11
TORSDOF 1
ENDMDL
MODEL 4
REMARK VINA RESULT:    -4.296      1.754      4.216
REMARK INTER + INTRA:          -6.803
REMARK INTER:                  -6.403
REMARK INTRA:                  -0.400
REMARK UNBOUND:                -0.246
REMARK SMILES CC1=CCC[C@@H](C)C(=O)C[C@H](C(C)C)C(=O)C1
REMARK SMILES IDX 8 1 9 2 6 3 7 4 5 5 4 6 3 7 2 8 1 9 10 11 11 12 15 13 16 14
REMARK SMILES IDX 17 15 12 17 13 18 14 19
REMARK H PARENT
REMARK Flexibility Score: 70.00
ROOT
ATOM      1  C   UNL     1      18.558 -32.246  20.947  1.00  0.00     0.136 C 
ATOM      2  O   UNL     1      19.767 -32.423  20.925  1.00  0.00    -0.299 OA
ENDROOT
BRANCH   1   3
ATOM      3  C   UNL     1      17.993 -31.009  21.618  1.00  0.00     0.053 C 
ATOM      4  C   UNL     1      18.639 -29.758  21.014  1.00  0.00     0.016 C 
BRANCH   3   5
ATOM      5  C   UNL     1      18.206 -31.037  23.147  1.00  0.00     0.015 C 
BRANCH   5   6
ATOM      6  C   UNL     1      16.928 -31.289  23.966  1.00  0.00     0.028 C 
BRANCH   6   7
ATOM      7  C   UNL     1      15.656 -30.938  23.231  1.00  0.00    -0.028 C 
ATOM      8  C   UNL     1      14.707 -31.783  22.750  1.00  0.00    -0.070 CG0
ATOM      9  C   UNL     1      13.480 -31.145  22.139  1.00  0.00     0.039 C 
ATOM     10  G   UNL     1      14.817 -33.303  22.696  1.00  0.00     0.000 G0
ENDBRANCH   6   7
ENDBRANCH   5   6
ENDBRANCH   3   5
ENDBRANCH   1   3
BRANCH   1  11
ATOM     11  C   UNL     1      17.659 -33.250  20.271  1.00  0.00     0.087 C 
BRANCH  11  12
ATOM     12  C   UNL     1      16.918 -34.164  21.285  1.00  0.00     0.066 C 
BRANCH  12  13
ATOM     13  C   UNL     1      15.424 -33.873  21.438  1.00  0.00     0.140 C 
ATOM     14  O   UNL     1      14.699 -34.032  20.466  1.00  0.00    -0.299 OA
BRANCH  13  15
ATOM     15  C   UNL     1      14.814 -33.306  22.698  1.00  0.00     0.106 CG0
ATOM     16  G   UNL     1      14.714 -31.785  22.743  1.00  0.00     0.000 G0
ENDBRANCH  13  15
ENDBRANCH  12  13
BRANCH  12  17
ATOM     17  C   UNL     1      17.204 -35.671  21.004  1.00  0.00    -0.006 C 
ATOM     18  C   UNL     1      18.341 -36.253  21.859  1.00  0.00     0.008 C 
ATOM     19  C   UNL     1      17.481 -35.932  19.514  1.00  0.00     0.008 C 
ENDBRANCH  12  17
ENDBRANCH  11  12
ENDBRANCH   1  11
TORSDOF 1
ENDMDL
MODEL 5
REMARK VINA RESULT:    -4.157      2.025      2.501
REMARK INTER + INTRA:          -6.591
REMARK INTER:                  -6.182
REMARK INTRA:                  -0.409
REMARK UNBOUND:                -0.246
REMARK SMILES CC1=CCC[C@@H](C)C(=O)C[C@H](C(C)C)C(=O)C1
REMARK SMILES IDX 8 1 9 2 6 3 7 4 5 5 4 6 3 7 2 8 1 9 10 11 11 12 15 13 16 14
REMARK SMILES IDX 17 15 12 17 13 18 14 19
REMARK H PARENT
REMARK Flexibility Score: 70.00
ROOT
ATOM      1  C   UNL     1      17.108 -32.501  24.082  1.00  0.00     0.136 C 
ATOM      2  O   UNL     1      17.566 -31.411  23.769  1.00  0.00    -0.299 OA
ENDROOT
BRANCH   1   3
ATOM      3  C   UNL     1      17.995 -33.517  24.774  1.00  0.00     0.053 C 
ATOM      4  C   UNL     1      18.979 -32.792  25.699  1.00  0.00     0.016 C 
BRANCH   3   5
ATOM      5  C   UNL     1      18.760 -34.395  23.762  1.00  0.00     0.015 C 
BRANCH   5   6
ATOM      6  C   UNL     1      17.889 -35.428  23.025  1.00  0.00     0.028 C 
BRANCH   6   7
ATOM      7  C   UNL     1      17.818 -35.209  21.532  1.00  0.00    -0.028 C 
ATOM      8  C   UNL     1      16.762 -34.766  20.801  1.00  0.00    -0.070 CG0
ATOM      9  C   UNL     1      17.006 -34.546  19.325  1.00  0.00     0.039 C 
ATOM     10  G   UNL     1      15.344 -34.560  21.323  1.00  0.00     0.000 G0
ENDBRANCH   6   7
ENDBRANCH   5   6
ENDBRANCH   3   5
ENDBRANCH   1   3
BRANCH   1  11
ATOM     11  C   UNL     1      15.655 -32.792  23.801  1.00  0.00     0.087 C 
BRANCH  11  12
ATOM     12  C   UNL     1      15.165 -32.149  22.475  1.00  0.00     0.066 C 
BRANCH  12  13
ATOM     13  C   UNL     1      14.831 -33.146  21.363  1.00  0.00     0.140 C 
ATOM     14  O   UNL     1      14.049 -32.799  20.489  1.00  0.00    -0.299 OA
BRANCH  13  15
ATOM     15  C   UNL     1      15.340 -34.568  21.344  1.00  0.00     0.106 CG0
ATOM     16  G   UNL     1      16.755 -34.743  20.802  1.00  0.00     0.000 G0
ENDBRANCH  13  15
ENDBRANCH  12  13
BRANCH  12  17
ATOM     17  C   UNL     1      14.007 -31.135  22.731  1.00  0.00    -0.006 C 
ATOM     18  C   UNL     1      14.360 -29.688  22.348  1.00  0.00     0.008 C 
ATOM     19  C   UNL     1      13.512 -31.188  24.185  1.00  0.00     0.008 C 
ENDBRANCH  12  17
ENDBRANCH  11  12
ENDBRANCH   1  11
TORSDOF 1
ENDMDL
MODEL 6
REMARK VINA RESULT:    -4.121      2.071      4.684
REMARK INTER + INTRA:          -6.536
REMARK INTER:                  -6.367
REMARK INTRA:                  -0.169
REMARK UNBOUND:                -0.246
REMARK SMILES CC1=CCC[C@@H](C)C(=O)C[C@H](C(C)C)C(=O)C1
REMARK SMILES IDX 8 1 9 2 6 3 7 4 5 5 4 6 3 7 2 8 1 9 10 11 11 12 15 13 16 14
REMARK SMILES IDX 17 15 12 17 13 18 14 19
REMARK H PARENT
REMARK Flexibility Score: 70.00
ROOT
ATOM      1  C   UNL     1      14.352 -32.808  21.362  1.00  0.00     0.136 C 
ATOM      2  O   UNL     1      13.858 -32.976  20.256  1.00  0.00    -0.299 OA
ENDROOT
BRANCH   1   3
ATOM      3  C   UNL     1      14.116 -31.504  22.098  1.00  0.00     0.053 C 
ATOM      4  C   UNL     1      12.699 -31.000  21.807  1.00  0.00     0.016 C 
BRANCH   3   5
ATOM      5  C   UNL     1      15.156 -30.431  21.713  1.00  0.00     0.015 C 
BRANCH   5   6
ATOM      6  C   UNL     1      16.004 -29.912  22.888  1.00  0.00     0.028 C 
BRANCH   6   7
ATOM      7  C   UNL     1      17.488 -30.124  22.706  1.00  0.00    -0.028 C 
ATOM      8  C   UNL     1      18.223 -31.218  23.038  1.00  0.00    -0.070 CG0
ATOM      9  C   UNL     1      19.684 -31.194  22.649  1.00  0.00     0.039 C 
ATOM     10  G   UNL     1      17.723 -32.415  23.838  1.00  0.00     0.000 G0
ENDBRANCH   6   7
ENDBRANCH   5   6
ENDBRANCH   3   5
ENDBRANCH   1   3
BRANCH   1  11
ATOM     11  C   UNL     1      15.158 -33.923  21.980  1.00  0.00     0.087 C 
BRANCH  11  12
ATOM     12  C   UNL     1      16.685 -33.747  21.757  1.00  0.00     0.066 C 
BRANCH  12  13
ATOM     13  C   UNL     1      17.517 -33.687  23.040  1.00  0.00     0.140 C 
ATOM     14  O   UNL     1      17.971 -34.732  23.487  1.00  0.00    -0.299 OA
BRANCH  13  15
ATOM     15  C   UNL     1      17.725 -32.420  23.835  1.00  0.00     0.106 CG0
ATOM     16  G   UNL     1      18.226 -31.225  23.030  1.00  0.00     0.000 G0
ENDBRANCH  13  15
ENDBRANCH  12  13
BRANCH  12  17
ATOM     17  C   UNL     1      17.234 -34.797  20.743  1.00  0.00    -0.006 C 
ATOM     18  C   UNL     1      18.291 -34.230  19.780  1.00  0.00     0.008 C 
ATOM     19  C   UNL     1      16.104 -35.467  19.945  1.00  0.00     0.008 C 
ENDBRANCH  12  17
ENDBRANCH  11  12
ENDBRANCH   1  11
TORSDOF 1
ENDMDL
MODEL 7
REMARK VINA RESULT:    -4.064      2.926      4.922
REMARK INTER + INTRA:          -6.448
REMARK INTER:                  -6.078
REMARK INTRA:                  -0.370
REMARK UNBOUND:                -0.246
REMARK SMILES CC1=CCC[C@@H](C)C(=O)C[C@H](C(C)C)C(=O)C1
REMARK SMILES IDX 8 1 9 2 6 3 7 4 5 5 4 6 3 7 2 8 1 9 10 11 11 12 15 13 16 14
REMARK SMILES IDX 17 15 12 17 13 18 14 19
REMARK H PARENT
REMARK Flexibility Score: 70.00
ROOT
ATOM      1  C   UNL     1      15.777 -33.331  22.142  1.00  0.00     0.136 C 
ATOM      2  O   UNL     1      15.439 -32.702  21.150  1.00  0.00    -0.299 OA
ENDROOT
BRANCH   1   3
ATOM      3  C   UNL     1      15.658 -32.692  23.512  1.00  0.00     0.053 C 
ATOM      4  C   UNL     1      14.309 -31.974  23.627  1.00  0.00     0.016 C 
BRANCH   3   5
ATOM      5  C   UNL     1      16.814 -31.708  23.789  1.00  0.00     0.015 C 
BRANCH   5   6
ATOM      6  C   UNL     1      17.840 -32.202  24.824  1.00  0.00     0.028 C 
BRANCH   6   7
ATOM      7  C   UNL     1      17.600 -33.618  25.289  1.00  0.00    -0.028 C 
ATOM      8  C   UNL     1      18.233 -34.750  24.885  1.00  0.00    -0.070 CG0
ATOM      9  C   UNL     1      17.854 -36.029  25.598  1.00  0.00     0.039 C 
ATOM     10  G   UNL     1      19.218 -34.851  23.725  1.00  0.00     0.000 G0
ENDBRANCH   6   7
ENDBRANCH   5   6
ENDBRANCH   3   5
ENDBRANCH   1   3
BRANCH   1  11
ATOM     11  C   UNL     1      16.273 -34.746  21.979  1.00  0.00     0.087 C 
BRANCH  11  12
ATOM     12  C   UNL     1      17.747 -34.807  21.492  1.00  0.00     0.066 C 
BRANCH  12  13
ATOM     13  C   UNL     1      18.713 -35.495  22.459  1.00  0.00     0.140 C 
ATOM     14  O   UNL     1      19.022 -36.658  22.241  1.00  0.00    -0.299 OA
BRANCH  13  15
ATOM     15  C   UNL     1      19.228 -34.843  23.720  1.00  0.00     0.106 CG0
ATOM     16  G   UNL     1      18.221 -34.755  24.862  1.00  0.00     0.000 G0
ENDBRANCH  13  15
ENDBRANCH  12  13
BRANCH  12  17
ATOM     17  C   UNL     1      17.842 -35.385  20.046  1.00  0.00    -0.006 C 
ATOM     18  C   UNL     1      17.881 -34.305  18.952  1.00  0.00     0.008 C 
ATOM     19  C   UNL     1      16.713 -36.387  19.755  1.00  0.00     0.008 C 
ENDBRANCH  12  17
ENDBRANCH  11  12
ENDBRANCH   1  11
TORSDOF 1
ENDMDL
MODEL 8
REMARK VINA RESULT:    -3.958      2.374      4.736
REMARK INTER + INTRA:          -6.287
REMARK INTER:                  -6.267
REMARK INTRA:                  -0.021
REMARK UNBOUND:                -0.246
REMARK SMILES CC1=CCC[C@@H](C)C(=O)C[C@H](C(C)C)C(=O)C1
REMARK SMILES IDX 8 1 9 2 6 3 7 4 5 5 4 6 3 7 2 8 1 9 10 11 11 12 15 13 16 14
REMARK SMILES IDX 17 15 12 17 13 18 14 19
REMARK H PARENT
REMARK Flexibility Score: 70.00
ROOT
ATOM      1  C   UNL     1      14.623 -32.356  23.936  1.00  0.00     0.136 C 
ATOM      2  O   UNL     1      13.835 -32.952  24.656  1.00  0.00    -0.299 OA
ENDROOT
BRANCH   1   3
ATOM      3  C   UNL     1      14.117 -31.272  23.005  1.00  0.00     0.053 C 
ATOM      4  C   UNL     1      13.993 -31.834  21.584  1.00  0.00     0.016 C 
BRANCH   3   5
ATOM      5  C   UNL     1      15.036 -30.032  23.013  1.00  0.00     0.015 C 
BRANCH   5   6
ATOM      6  C   UNL     1      15.661 -29.691  21.649  1.00  0.00     0.028 C 
BRANCH   6   7
ATOM      7  C   UNL     1      17.147 -29.426  21.711  1.00  0.00    -0.028 C 
ATOM      8  C   UNL     1      18.161 -30.261  21.367  1.00  0.00    -0.070 CG0
ATOM      9  C   UNL     1      19.560 -29.693  21.438  1.00  0.00     0.039 C 
ATOM     10  G   UNL     1      18.013 -31.735  21.004  1.00  0.00     0.000 G0
ENDBRANCH   6   7
ENDBRANCH   5   6
ENDBRANCH   3   5
ENDBRANCH   1   3
BRANCH   1  11
ATOM     11  C   UNL     1      16.091 -32.693  24.021  1.00  0.00     0.087 C 
BRANCH  11  12
ATOM     12  C   UNL     1      16.639 -33.301  22.701  1.00  0.00     0.066 C 
BRANCH  12  13
ATOM     13  C   UNL     1      17.943 -32.677  22.201  1.00  0.00     0.140 C 
ATOM     14  O   UNL     1      18.965 -32.875  22.844  1.00  0.00    -0.299 OA
BRANCH  13  15
ATOM     15  C   UNL     1      18.017 -31.751  21.011  1.00  0.00     0.106 CG0
ATOM     16  G   UNL     1      18.159 -30.270  21.349  1.00  0.00     0.000 G0
ENDBRANCH  13  15
ENDBRANCH  12  13
BRANCH  12  17
ATOM     17  C   UNL     1      16.718 -34.857  22.784  1.00  0.00    -0.006 C 
ATOM     18  C   UNL     1      17.325 -35.374  24.099  1.00  0.00     0.008 C 
ATOM     19  C   UNL     1      17.475 -35.456  21.587  1.00  0.00     0.008 C 
ENDBRANCH  12  17
ENDBRANCH  11  12
ENDBRANCH   1  11
TORSDOF 1
ENDMDL
MODEL 9
REMARK VINA RESULT:    -3.768      2.338      4.724
REMARK INTER + INTRA:          -5.997
REMARK INTER:                  -5.621
REMARK INTRA:                  -0.376
REMARK UNBOUND:                -0.246
REMARK SMILES CC1=CCC[C@@H](C)C(=O)C[C@H](C(C)C)C(=O)C1
REMARK SMILES IDX 8 1 9 2 6 3 7 4 5 5 4 6 3 7 2 8 1 9 10 11 11 12 15 13 16 14
REMARK SMILES IDX 17 15 12 17 13 18 14 19
REMARK H PARENT
REMARK Flexibility Score: 70.00
ROOT
ATOM      1  C   UNL     1      18.090 -33.171  21.023  1.00  0.00     0.136 C 
ATOM      2  O   UNL     1      18.017 -32.041  20.563  1.00  0.00    -0.299 OA
ENDROOT
BRANCH   1   3
ATOM      3  C   UNL     1      17.312 -34.298  20.372  1.00  0.00     0.053 C 
ATOM      4  C   UNL     1      18.060 -34.782  19.125  1.00  0.00     0.016 C 
BRANCH   3   5
ATOM      5  C   UNL     1      15.877 -33.866  20.002  1.00  0.00     0.015 C 
BRANCH   5   6
ATOM      6  C   UNL     1      14.930 -33.700  21.203  1.00  0.00     0.028 C 
BRANCH   6   7
ATOM      7  C   UNL     1      14.617 -32.260  21.536  1.00  0.00    -0.028 C 
ATOM      8  C   UNL     1      15.060 -31.530  22.593  1.00  0.00    -0.070 CG0
ATOM      9  C   UNL     1      14.663 -30.072  22.622  1.00  0.00     0.039 C 
ATOM     10  G   UNL     1      15.842 -32.075  23.783  1.00  0.00     0.000 G0
ENDBRANCH   6   7
ENDBRANCH   5   6
ENDBRANCH   3   5
ENDBRANCH   1   3
BRANCH   1  11
ATOM     11  C   UNL     1      18.984 -33.421  22.211  1.00  0.00     0.087 C 
BRANCH  11  12
ATOM     12  C   UNL     1      18.237 -33.260  23.563  1.00  0.00     0.066 C 
BRANCH  12  13
ATOM     13  C   UNL     1      17.351 -32.016  23.662  1.00  0.00     0.140 C 
ATOM     14  O   UNL     1      17.894 -30.921  23.723  1.00  0.00    -0.299 OA
BRANCH  13  15
ATOM     15  C   UNL     1      15.848 -32.075  23.787  1.00  0.00     0.106 CG0
ATOM     16  G   UNL     1      15.075 -31.533  22.589  1.00  0.00     0.000 G0
ENDBRANCH  13  15
ENDBRANCH  12  13
BRANCH  12  17
ATOM     17  C   UNL     1      17.472 -34.564  23.947  1.00  0.00    -0.006 C 
ATOM     18  C   UNL     1      17.174 -34.685  25.451  1.00  0.00     0.008 C 
ATOM     19  C   UNL     1      18.206 -35.823  23.456  1.00  0.00     0.008 C 
ENDBRANCH  12  17
ENDBRANCH  11  12
ENDBRANCH   1  11
TORSDOF 1
ENDMDL
