MODEL 1
REMARK VINA RESULT:    -8.248      0.000      0.000
REMARK INTER + INTRA:         -10.869
REMARK INTER:                 -11.141
REMARK INTRA:                   0.272
REMARK UNBOUND:                 0.272
REMARK SMILES O=c1c(-c2ccc(O)cc2)coc2c([C@H]3O[C@H](CO)[C@@H](O)[C@H](O)[C@H]3O)c(O)ccc12
REMARK SMILES IDX 3 1 11 2 12 3 13 4 30 5 2 6 1 7 29 8 28 9 26 10 14 11 4 12
REMARK SMILES IDX 5 13 6 14 7 15 10 16 9 17 8 18 15 20 24 21 16 22 22 23 17 24
REMARK SMILES IDX 20 25 25 26 23 28 18 30 19 31 21 33 27 35
REMARK H PARENT 8 19 25 27 23 29 19 32 21 34 27 36
REMARK Flexibility Score: inf
ROOT
ATOM      1  C   UNL     1     -33.154 -24.836   8.246  1.00  0.00     0.065 A 
ATOM      2  C   UNL     1     -34.457 -25.310   8.448  1.00  0.00     0.208 A 
ATOM      3  O   UNL     1     -34.838 -26.486   7.965  1.00  0.00    -0.463 OA
ATOM      4  C   UNL     1     -34.034 -27.287   7.268  1.00  0.00     0.147 A 
ATOM      5  C   UNL     1     -32.712 -26.867   6.987  1.00  0.00     0.066 A 
ATOM      6  C   UNL     1     -32.272 -25.629   7.491  1.00  0.00     0.200 A 
ATOM      7  O   UNL     1     -31.103 -25.221   7.247  1.00  0.00    -0.288 OA
ATOM      8  C   UNL     1     -31.881 -27.679   6.205  1.00  0.00     0.020 A 
ATOM      9  C   UNL     1     -32.385 -28.840   5.629  1.00  0.00     0.047 A 
ATOM     10  C   UNL     1     -33.706 -29.237   5.854  1.00  0.00     0.125 A 
ATOM     11  C   UNL     1     -34.506 -28.546   6.807  1.00  0.00     0.069 A 
ENDROOT
BRANCH   1  12
ATOM     12  C   UNL     1     -32.746 -23.526   8.811  1.00  0.00    -0.011 A 
ATOM     13  C   UNL     1     -31.887 -22.678   8.088  1.00  0.00     0.013 A 
ATOM     14  C   UNL     1     -31.508 -21.439   8.616  1.00  0.00     0.047 A 
ATOM     15  C   UNL     1     -31.986 -21.030   9.864  1.00  0.00     0.115 A 
ATOM     16  C   UNL     1     -33.228 -23.103  10.063  1.00  0.00     0.013 A 
ATOM     17  C   UNL     1     -32.848 -21.864  10.586  1.00  0.00     0.047 A 
BRANCH  15  18
ATOM     18  O   UNL     1     -31.600 -19.792  10.377  1.00  0.00    -0.508 OA
ATOM     19  H   UNL     1     -30.623 -19.554  10.504  1.00  0.00     0.293 HD
ENDBRANCH  15  18
ENDBRANCH   1  12
BRANCH  11  20
ATOM     20  C   UNL     1     -35.869 -29.080   7.297  1.00  0.00     0.188 C 
ATOM     21  C   UNL     1     -35.798 -30.312   8.281  1.00  0.00     0.179 C 
ATOM     22  O   UNL     1     -36.804 -29.283   6.237  1.00  0.00    -0.362 OA
ATOM     23  C   UNL     1     -37.050 -31.207   8.163  1.00  0.00     0.177 C 
ATOM     24  C   UNL     1     -36.737 -30.588   5.688  1.00  0.00     0.176 C 
ATOM     25  C   UNL     1     -37.324 -31.612   6.694  1.00  0.00     0.177 C 
BRANCH  21  26
ATOM     26  O   UNL     1     -34.631 -31.091   8.145  1.00  0.00    -0.387 OA
ATOM     27  H   UNL     1     -34.162 -30.830   7.315  1.00  0.00     0.211 HD
ENDBRANCH  21  26
BRANCH  23  28
ATOM     28  O   UNL     1     -38.165 -30.511   8.662  1.00  0.00    -0.387 OA
ATOM     29  H   UNL     1     -38.799 -31.190   9.013  1.00  0.00     0.211 HD
ENDBRANCH  23  28
BRANCH  24  30
ATOM     30  C   UNL     1     -37.530 -30.622   4.375  1.00  0.00     0.191 C 
BRANCH  30  31
ATOM     31  O   UNL     1     -36.658 -30.802   3.293  1.00  0.00    -0.394 OA
ATOM     32  H   UNL     1     -36.859 -30.071   2.653  1.00  0.00     0.210 HD
ENDBRANCH  30  31
ENDBRANCH  24  30
BRANCH  25  33
ATOM     33  O   UNL     1     -36.852 -32.908   6.421  1.00  0.00    -0.388 OA
ATOM     34  H   UNL     1     -37.447 -33.555   6.880  1.00  0.00     0.211 HD
ENDBRANCH  25  33
ENDBRANCH  11  20
BRANCH  10  35
ATOM     35  O   UNL     1     -34.191 -30.275   5.059  1.00  0.00    -0.507 OA
ATOM     36  H   UNL     1     -35.092 -30.242   4.601  1.00  0.00     0.293 HD
ENDBRANCH  10  35
TORSDOF 9
ENDMDL
MODEL 2
REMARK VINA RESULT:    -8.105      1.303      1.538
REMARK INTER + INTRA:         -10.675
REMARK INTER:                 -10.632
REMARK INTRA:                  -0.043
REMARK UNBOUND:                 0.272
REMARK SMILES O=c1c(-c2ccc(O)cc2)coc2c([C@H]3O[C@H](CO)[C@@H](O)[C@H](O)[C@H]3O)c(O)ccc12
REMARK SMILES IDX 3 1 11 2 12 3 13 4 30 5 2 6 1 7 29 8 28 9 26 10 14 11 4 12
REMARK SMILES IDX 5 13 6 14 7 15 10 16 9 17 8 18 15 20 24 21 16 22 22 23 17 24
REMARK SMILES IDX 20 25 25 26 23 28 18 30 19 31 21 33 27 35
REMARK H PARENT 8 19 25 27 23 29 19 32 21 34 27 36
REMARK Flexibility Score: inf
ROOT
ATOM      1  C   UNL     1     -33.434 -25.579   8.037  1.00  0.00     0.065 A 
ATOM      2  C   UNL     1     -34.706 -26.161   8.112  1.00  0.00     0.208 A 
ATOM      3  O   UNL     1     -34.972 -27.303   7.491  1.00  0.00    -0.463 OA
ATOM      4  C   UNL     1     -34.076 -27.968   6.764  1.00  0.00     0.147 A 
ATOM      5  C   UNL     1     -32.776 -27.430   6.607  1.00  0.00     0.066 A 
ATOM      6  C   UNL     1     -32.457 -26.225   7.259  1.00  0.00     0.200 A 
ATOM      7  O   UNL     1     -31.310 -25.713   7.127  1.00  0.00    -0.288 OA
ATOM      8  C   UNL     1     -31.847 -28.096   5.796  1.00  0.00     0.020 A 
ATOM      9  C   UNL     1     -32.233 -29.221   5.077  1.00  0.00     0.047 A 
ATOM     10  C   UNL     1     -33.529 -29.730   5.181  1.00  0.00     0.125 A 
ATOM     11  C   UNL     1     -34.428 -29.201   6.151  1.00  0.00     0.069 A 
ENDROOT
BRANCH   1  12
ATOM     12  C   UNL     1     -33.155 -24.311   8.755  1.00  0.00    -0.011 A 
ATOM     13  C   UNL     1     -32.346 -23.324   8.165  1.00  0.00     0.013 A 
ATOM     14  C   UNL     1     -32.089 -22.125   8.837  1.00  0.00     0.047 A 
ATOM     15  C   UNL     1     -32.641 -21.894  10.101  1.00  0.00     0.115 A 
ATOM     16  C   UNL     1     -33.712 -24.068  10.024  1.00  0.00     0.013 A 
ATOM     17  C   UNL     1     -33.454 -22.868  10.692  1.00  0.00     0.047 A 
BRANCH  15  18
ATOM     18  O   UNL     1     -32.375 -20.694  10.758  1.00  0.00    -0.508 OA
ATOM     19  H   UNL     1     -32.581 -19.799  10.330  1.00  0.00     0.293 HD
ENDBRANCH  15  18
ENDBRANCH   1  12
BRANCH  11  20
ATOM     20  C   UNL     1     -35.771 -29.877   6.502  1.00  0.00     0.188 C 
ATOM     21  C   UNL     1     -36.134 -29.901   8.038  1.00  0.00     0.179 C 
ATOM     22  O   UNL     1     -35.932 -31.153   5.884  1.00  0.00    -0.362 OA
ATOM     23  C   UNL     1     -37.010 -31.119   8.395  1.00  0.00     0.177 C 
ATOM     24  C   UNL     1     -35.440 -32.216   6.681  1.00  0.00     0.176 C 
ATOM     25  C   UNL     1     -36.380 -32.442   7.894  1.00  0.00     0.177 C 
BRANCH  21  26
ATOM     26  O   UNL     1     -35.016 -29.840   8.895  1.00  0.00    -0.387 OA
ATOM     27  H   UNL     1     -35.089 -29.034   9.465  1.00  0.00     0.211 HD
ENDBRANCH  21  26
BRANCH  23  28
ATOM     28  O   UNL     1     -38.279 -30.966   7.808  1.00  0.00    -0.387 OA
ATOM     29  H   UNL     1     -38.181 -30.310   7.070  1.00  0.00     0.211 HD
ENDBRANCH  23  28
BRANCH  24  30
ATOM     30  C   UNL     1     -35.361 -33.490   5.829  1.00  0.00     0.191 C 
BRANCH  30  31
ATOM     31  O   UNL     1     -34.269 -33.415   4.956  1.00  0.00    -0.394 OA
ATOM     32  H   UNL     1     -33.499 -33.806   5.444  1.00  0.00     0.210 HD
ENDBRANCH  30  31
ENDBRANCH  24  30
BRANCH  25  33
ATOM     33  O   UNL     1     -35.707 -33.115   8.930  1.00  0.00    -0.388 OA
ATOM     34  H   UNL     1     -36.330 -33.199   9.697  1.00  0.00     0.211 HD
ENDBRANCH  25  33
ENDBRANCH  11  20
BRANCH  10  35
ATOM     35  O   UNL     1     -33.894 -30.710   4.257  1.00  0.00    -0.507 OA
ATOM     36  H   UNL     1     -34.811 -30.752   3.833  1.00  0.00     0.293 HD
ENDBRANCH  10  35
TORSDOF 9
ENDMDL
MODEL 3
REMARK VINA RESULT:    -7.932      1.838      3.753
REMARK INTER + INTRA:         -10.442
REMARK INTER:                 -11.023
REMARK INTRA:                   0.580
REMARK UNBOUND:                 0.272
REMARK SMILES O=c1c(-c2ccc(O)cc2)coc2c([C@H]3O[C@H](CO)[C@@H](O)[C@H](O)[C@H]3O)c(O)ccc12
REMARK SMILES IDX 3 1 11 2 12 3 13 4 30 5 2 6 1 7 29 8 28 9 26 10 14 11 4 12
REMARK SMILES IDX 5 13 6 14 7 15 10 16 9 17 8 18 15 20 24 21 16 22 22 23 17 24
REMARK SMILES IDX 20 25 25 26 23 28 18 30 19 31 21 33 27 35
REMARK H PARENT 8 19 25 27 23 29 19 32 21 34 27 36
REMARK Flexibility Score: inf
ROOT
ATOM      1  C   UNL     1     -34.275 -26.339   7.983  1.00  0.00     0.065 A 
ATOM      2  C   UNL     1     -33.660 -27.277   7.143  1.00  0.00     0.208 A 
ATOM      3  O   UNL     1     -34.310 -28.360   6.738  1.00  0.00    -0.463 OA
ATOM      4  C   UNL     1     -35.564 -28.636   7.089  1.00  0.00     0.147 A 
ATOM      5  C   UNL     1     -36.247 -27.758   7.965  1.00  0.00     0.066 A 
ATOM      6  C   UNL     1     -35.591 -26.595   8.407  1.00  0.00     0.200 A 
ATOM      7  O   UNL     1     -36.168 -25.799   9.199  1.00  0.00    -0.288 OA
ATOM      8  C   UNL     1     -37.546 -28.073   8.383  1.00  0.00     0.020 A 
ATOM      9  C   UNL     1     -38.120 -29.286   8.018  1.00  0.00     0.047 A 
ATOM     10  C   UNL     1     -37.434 -30.186   7.199  1.00  0.00     0.125 A 
ATOM     11  C   UNL     1     -36.204 -29.803   6.592  1.00  0.00     0.069 A 
ENDROOT
BRANCH   1  12
ATOM     12  C   UNL     1     -33.534 -25.125   8.408  1.00  0.00    -0.011 A 
ATOM     13  C   UNL     1     -32.385 -24.714   7.710  1.00  0.00     0.013 A 
ATOM     14  C   UNL     1     -31.690 -23.566   8.104  1.00  0.00     0.047 A 
ATOM     15  C   UNL     1     -32.137 -22.812   9.194  1.00  0.00     0.115 A 
ATOM     16  C   UNL     1     -33.981 -24.358   9.499  1.00  0.00     0.013 A 
ATOM     17  C   UNL     1     -33.285 -23.210   9.889  1.00  0.00     0.047 A 
BRANCH  15  18
ATOM     18  O   UNL     1     -31.434 -21.671   9.575  1.00  0.00    -0.508 OA
ATOM     19  H   UNL     1     -30.454 -21.552   9.348  1.00  0.00     0.293 HD
ENDBRANCH  15  18
ENDBRANCH   1  12
BRANCH  11  20
ATOM     20  C   UNL     1     -35.528 -30.633   5.479  1.00  0.00     0.188 C 
ATOM     21  C   UNL     1     -36.378 -30.814   4.161  1.00  0.00     0.179 C 
ATOM     22  O   UNL     1     -34.988 -31.867   5.951  1.00  0.00    -0.362 OA
ATOM     23  C   UNL     1     -36.038 -32.137   3.443  1.00  0.00     0.177 C 
ATOM     24  C   UNL     1     -35.915 -32.936   5.883  1.00  0.00     0.176 C 
ATOM     25  C   UNL     1     -36.134 -33.347   4.403  1.00  0.00     0.177 C 
BRANCH  21  26
ATOM     26  O   UNL     1     -37.771 -30.711   4.354  1.00  0.00    -0.387 OA
ATOM     27  H   UNL     1     -37.946 -30.333   5.251  1.00  0.00     0.211 HD
ENDBRANCH  21  26
BRANCH  23  28
ATOM     28  O   UNL     1     -34.732 -32.063   2.928  1.00  0.00    -0.387 OA
ATOM     29  H   UNL     1     -34.789 -32.262   1.957  1.00  0.00     0.211 HD
ENDBRANCH  23  28
BRANCH  24  30
ATOM     30  C   UNL     1     -35.374 -34.125   6.688  1.00  0.00     0.191 C 
BRANCH  30  31
ATOM     31  O   UNL     1     -34.077 -33.848   7.138  1.00  0.00    -0.394 OA
ATOM     32  H   UNL     1     -33.513 -33.777   6.325  1.00  0.00     0.210 HD
ENDBRANCH  30  31
ENDBRANCH  24  30
BRANCH  25  33
ATOM     33  O   UNL     1     -37.354 -34.031   4.249  1.00  0.00    -0.388 OA
ATOM     34  H   UNL     1     -37.935 -33.799   5.017  1.00  0.00     0.211 HD
ENDBRANCH  25  33
ENDBRANCH  11  20
BRANCH  10  35
ATOM     35  O   UNL     1     -37.982 -31.463   7.076  1.00  0.00    -0.507 OA
ATOM     36  H   UNL     1     -37.503 -32.299   7.384  1.00  0.00     0.293 HD
ENDBRANCH  10  35
TORSDOF 9
ENDMDL
MODEL 4
REMARK VINA RESULT:    -7.712     13.537     15.446
REMARK INTER + INTRA:         -10.144
REMARK INTER:                  -9.833
REMARK INTRA:                  -0.311
REMARK UNBOUND:                 0.272
REMARK SMILES O=c1c(-c2ccc(O)cc2)coc2c([C@H]3O[C@H](CO)[C@@H](O)[C@H](O)[C@H]3O)c(O)ccc12
REMARK SMILES IDX 3 1 11 2 12 3 13 4 30 5 2 6 1 7 29 8 28 9 26 10 14 11 4 12
REMARK SMILES IDX 5 13 6 14 7 15 10 16 9 17 8 18 15 20 24 21 16 22 22 23 17 24
REMARK SMILES IDX 20 25 25 26 23 28 18 30 19 31 21 33 27 35
REMARK H PARENT 8 19 25 27 23 29 19 32 21 34 27 36
REMARK Flexibility Score: inf
ROOT
ATOM      1  C   UNL     1     -42.966 -16.634   6.805  1.00  0.00     0.065 A 
ATOM      2  C   UNL     1     -42.068 -17.259   5.930  1.00  0.00     0.208 A 
ATOM      3  O   UNL     1     -42.064 -16.970   4.636  1.00  0.00    -0.463 OA
ATOM      4  C   UNL     1     -42.893 -16.089   4.079  1.00  0.00     0.147 A 
ATOM      5  C   UNL     1     -43.857 -15.439   4.886  1.00  0.00     0.066 A 
ATOM      6  C   UNL     1     -43.883 -15.715   6.266  1.00  0.00     0.200 A 
ATOM      7  O   UNL     1     -44.739 -15.161   7.010  1.00  0.00    -0.288 OA
ATOM      8  C   UNL     1     -44.768 -14.554   4.297  1.00  0.00     0.020 A 
ATOM      9  C   UNL     1     -44.787 -14.393   2.915  1.00  0.00     0.047 A 
ATOM     10  C   UNL     1     -43.877 -15.071   2.102  1.00  0.00     0.125 A 
ATOM     11  C   UNL     1     -42.810 -15.811   2.687  1.00  0.00     0.069 A 
ENDROOT
BRANCH   1  12
ATOM     12  C   UNL     1     -42.939 -16.960   8.253  1.00  0.00    -0.011 A 
ATOM     13  C   UNL     1     -43.888 -17.841   8.800  1.00  0.00     0.013 A 
ATOM     14  C   UNL     1     -43.859 -18.156  10.162  1.00  0.00     0.047 A 
ATOM     15  C   UNL     1     -42.880 -17.601  10.992  1.00  0.00     0.115 A 
ATOM     16  C   UNL     1     -41.953 -16.411   9.093  1.00  0.00     0.013 A 
ATOM     17  C   UNL     1     -41.926 -16.729  10.454  1.00  0.00     0.047 A 
BRANCH  15  18
ATOM     18  O   UNL     1     -42.864 -17.924  12.348  1.00  0.00    -0.508 OA
ATOM     19  H   UNL     1     -43.687 -17.815  12.928  1.00  0.00     0.293 HD
ENDBRANCH  15  18
ENDBRANCH   1  12
BRANCH  11  20
ATOM     20  C   UNL     1     -41.626 -16.362   1.864  1.00  0.00     0.188 C 
ATOM     21  C   UNL     1     -40.701 -15.271   1.197  1.00  0.00     0.179 C 
ATOM     22  O   UNL     1     -42.011 -17.384   0.946  1.00  0.00    -0.362 OA
ATOM     23  C   UNL     1     -40.050 -15.794  -0.101  1.00  0.00     0.177 C 
ATOM     24  C   UNL     1     -42.372 -16.873  -0.326  1.00  0.00     0.176 C 
ATOM     25  C   UNL     1     -41.106 -16.378  -1.072  1.00  0.00     0.177 C 
BRANCH  21  26
ATOM     26  O   UNL     1     -41.343 -14.040   0.956  1.00  0.00    -0.387 OA
ATOM     27  H   UNL     1     -41.756 -13.720   1.795  1.00  0.00     0.211 HD
ENDBRANCH  21  26
BRANCH  23  28
ATOM     28  O   UNL     1     -39.118 -16.797   0.219  1.00  0.00    -0.387 OA
ATOM     29  H   UNL     1     -38.443 -16.386   0.819  1.00  0.00     0.211 HD
ENDBRANCH  23  28
BRANCH  24  30
ATOM     30  C   UNL     1     -43.064 -17.978  -1.135  1.00  0.00     0.191 C 
BRANCH  30  31
ATOM     31  O   UNL     1     -42.875 -17.759  -2.505  1.00  0.00    -0.394 OA
ATOM     32  H   UNL     1     -42.467 -18.589  -2.864  1.00  0.00     0.210 HD
ENDBRANCH  30  31
ENDBRANCH  24  30
BRANCH  25  33
ATOM     33  O   UNL     1     -41.446 -15.454  -2.077  1.00  0.00    -0.388 OA
ATOM     34  H   UNL     1     -41.925 -14.698  -1.650  1.00  0.00     0.211 HD
ENDBRANCH  25  33
ENDBRANCH  11  20
BRANCH  10  35
ATOM     35  O   UNL     1     -44.115 -15.033   0.728  1.00  0.00    -0.507 OA
ATOM     36  H   UNL     1     -44.970 -14.669   0.328  1.00  0.00     0.293 HD
ENDBRANCH  10  35
TORSDOF 9
ENDMDL
MODEL 5
REMARK VINA RESULT:    -7.679      1.346      2.549
REMARK INTER + INTRA:         -10.100
REMARK INTER:                 -11.042
REMARK INTRA:                   0.942
REMARK UNBOUND:                 0.272
REMARK SMILES O=c1c(-c2ccc(O)cc2)coc2c([C@H]3O[C@H](CO)[C@@H](O)[C@H](O)[C@H]3O)c(O)ccc12
REMARK SMILES IDX 3 1 11 2 12 3 13 4 30 5 2 6 1 7 29 8 28 9 26 10 14 11 4 12
REMARK SMILES IDX 5 13 6 14 7 15 10 16 9 17 8 18 15 20 24 21 16 22 22 23 17 24
REMARK SMILES IDX 20 25 25 26 23 28 18 30 19 31 21 33 27 35
REMARK H PARENT 8 19 25 27 23 29 19 32 21 34 27 36
REMARK Flexibility Score: inf
ROOT
ATOM      1  C   UNL     1     -33.368 -25.714   7.983  1.00  0.00     0.065 A 
ATOM      2  C   UNL     1     -34.596 -26.384   8.067  1.00  0.00     0.208 A 
ATOM      3  O   UNL     1     -34.800 -27.519   7.413  1.00  0.00    -0.463 OA
ATOM      4  C   UNL     1     -33.880 -28.097   6.643  1.00  0.00     0.147 A 
ATOM      5  C   UNL     1     -32.623 -27.467   6.474  1.00  0.00     0.066 A 
ATOM      6  C   UNL     1     -32.370 -26.266   7.161  1.00  0.00     0.200 A 
ATOM      7  O   UNL     1     -31.264 -25.673   7.021  1.00  0.00    -0.288 OA
ATOM      8  C   UNL     1     -31.673 -28.041   5.621  1.00  0.00     0.020 A 
ATOM      9  C   UNL     1     -31.999 -29.166   4.871  1.00  0.00     0.047 A 
ATOM     10  C   UNL     1     -33.256 -29.765   4.987  1.00  0.00     0.125 A 
ATOM     11  C   UNL     1     -34.163 -29.330   5.995  1.00  0.00     0.069 A 
ENDROOT
BRANCH   1  12
ATOM     12  C   UNL     1     -33.157 -24.454   8.738  1.00  0.00    -0.011 A 
ATOM     13  C   UNL     1     -32.378 -23.420   8.190  1.00  0.00     0.013 A 
ATOM     14  C   UNL     1     -32.185 -22.229   8.897  1.00  0.00     0.047 A 
ATOM     15  C   UNL     1     -32.772 -22.053  10.154  1.00  0.00     0.115 A 
ATOM     16  C   UNL     1     -33.750 -24.267  10.001  1.00  0.00     0.013 A 
ATOM     17  C   UNL     1     -33.556 -23.075  10.704  1.00  0.00     0.047 A 
BRANCH  15  18
ATOM     18  O   UNL     1     -32.571 -20.861  10.847  1.00  0.00    -0.508 OA
ATOM     19  H   UNL     1     -31.641 -20.543  11.094  1.00  0.00     0.293 HD
ENDBRANCH  15  18
ENDBRANCH   1  12
BRANCH  11  20
ATOM     20  C   UNL     1     -35.448 -30.108   6.353  1.00  0.00     0.188 C 
ATOM     21  C   UNL     1     -36.799 -29.415   5.920  1.00  0.00     0.179 C 
ATOM     22  O   UNL     1     -35.474 -30.551   7.709  1.00  0.00    -0.362 OA
ATOM     23  C   UNL     1     -37.960 -29.798   6.861  1.00  0.00     0.177 C 
ATOM     24  C   UNL     1     -36.064 -29.606   8.586  1.00  0.00     0.176 C 
ATOM     25  C   UNL     1     -37.595 -29.552   8.346  1.00  0.00     0.177 C 
BRANCH  21  26
ATOM     26  O   UNL     1     -36.715 -28.013   5.799  1.00  0.00    -0.387 OA
ATOM     27  H   UNL     1     -35.791 -27.726   6.000  1.00  0.00     0.211 HD
ENDBRANCH  21  26
BRANCH  23  28
ATOM     28  O   UNL     1     -38.272 -31.158   6.685  1.00  0.00    -0.387 OA
ATOM     29  H   UNL     1     -38.236 -31.583   7.581  1.00  0.00     0.211 HD
ENDBRANCH  23  28
BRANCH  24  30
ATOM     30  C   UNL     1     -35.770 -30.012  10.036  1.00  0.00     0.191 C 
BRANCH  30  31
ATOM     31  O   UNL     1     -34.991 -31.176  10.059  1.00  0.00    -0.394 OA
ATOM     32  H   UNL     1     -34.601 -31.265   9.152  1.00  0.00     0.210 HD
ENDBRANCH  30  31
ENDBRANCH  24  30
BRANCH  25  33
ATOM     33  O   UNL     1     -38.133 -28.340   8.814  1.00  0.00    -0.388 OA
ATOM     34  H   UNL     1     -37.907 -28.255   9.776  1.00  0.00     0.211 HD
ENDBRANCH  25  33
ENDBRANCH  11  20
BRANCH  10  35
ATOM     35  O   UNL     1     -33.576 -30.736   4.038  1.00  0.00    -0.507 OA
ATOM     36  H   UNL     1     -33.827 -30.511   3.085  1.00  0.00     0.293 HD
ENDBRANCH  10  35
TORSDOF 9
ENDMDL
MODEL 6
REMARK VINA RESULT:    -7.527     15.398     16.823
REMARK INTER + INTRA:          -9.895
REMARK INTER:                  -9.521
REMARK INTRA:                  -0.374
REMARK UNBOUND:                 0.272
REMARK SMILES O=c1c(-c2ccc(O)cc2)coc2c([C@H]3O[C@H](CO)[C@@H](O)[C@H](O)[C@H]3O)c(O)ccc12
REMARK SMILES IDX 3 1 11 2 12 3 13 4 30 5 2 6 1 7 29 8 28 9 26 10 14 11 4 12
REMARK SMILES IDX 5 13 6 14 7 15 10 16 9 17 8 18 15 20 24 21 16 22 22 23 17 24
REMARK SMILES IDX 20 25 25 26 23 28 18 30 19 31 21 33 27 35
REMARK H PARENT 8 19 25 27 23 29 19 32 21 34 27 36
REMARK Flexibility Score: inf
ROOT
ATOM      1  C   UNL     1     -45.101 -17.793   0.241  1.00  0.00     0.065 A 
ATOM      2  C   UNL     1     -45.842 -18.980   0.301  1.00  0.00     0.208 A 
ATOM      3  O   UNL     1     -46.050 -19.710  -0.787  1.00  0.00    -0.463 OA
ATOM      4  C   UNL     1     -45.585 -19.381  -1.990  1.00  0.00     0.147 A 
ATOM      5  C   UNL     1     -44.856 -18.178  -2.146  1.00  0.00     0.066 A 
ATOM      6  C   UNL     1     -44.609 -17.384  -1.011  1.00  0.00     0.200 A 
ATOM      7  O   UNL     1     -43.973 -16.298  -1.119  1.00  0.00    -0.288 OA
ATOM      8  C   UNL     1     -44.413 -17.798  -3.419  1.00  0.00     0.020 A 
ATOM      9  C   UNL     1     -44.773 -18.549  -4.533  1.00  0.00     0.047 A 
ATOM     10  C   UNL     1     -45.540 -19.709  -4.399  1.00  0.00     0.125 A 
ATOM     11  C   UNL     1     -45.825 -20.230  -3.105  1.00  0.00     0.069 A 
ENDROOT
BRANCH   1  12
ATOM     12  C   UNL     1     -44.866 -17.002   1.475  1.00  0.00    -0.011 A 
ATOM     13  C   UNL     1     -45.862 -16.140   1.966  1.00  0.00     0.013 A 
ATOM     14  C   UNL     1     -45.646 -15.400   3.133  1.00  0.00     0.047 A 
ATOM     15  C   UNL     1     -44.437 -15.517   3.826  1.00  0.00     0.115 A 
ATOM     16  C   UNL     1     -43.655 -17.118   2.182  1.00  0.00     0.013 A 
ATOM     17  C   UNL     1     -43.443 -16.379   3.348  1.00  0.00     0.047 A 
BRANCH  15  18
ATOM     18  O   UNL     1     -44.236 -14.773   4.988  1.00  0.00    -0.508 OA
ATOM     19  H   UNL     1     -44.590 -15.086   5.884  1.00  0.00     0.293 HD
ENDBRANCH  15  18
ENDBRANCH   1  12
BRANCH  11  20
ATOM     20  C   UNL     1     -46.433 -21.632  -2.884  1.00  0.00     0.188 C 
ATOM     21  C   UNL     1     -45.533 -22.840  -3.356  1.00  0.00     0.179 C 
ATOM     22  O   UNL     1     -47.777 -21.739  -3.353  1.00  0.00    -0.362 OA
ATOM     23  C   UNL     1     -46.387 -24.053  -3.780  1.00  0.00     0.177 C 
ATOM     24  C   UNL     1     -47.856 -22.157  -4.705  1.00  0.00     0.176 C 
ATOM     25  C   UNL     1     -47.468 -23.655  -4.814  1.00  0.00     0.177 C 
BRANCH  21  26
ATOM     26  O   UNL     1     -44.617 -22.512  -4.376  1.00  0.00    -0.387 OA
ATOM     27  H   UNL     1     -43.984 -21.832  -4.037  1.00  0.00     0.211 HD
ENDBRANCH  21  26
BRANCH  23  28
ATOM     28  O   UNL     1     -47.016 -24.596  -2.646  1.00  0.00    -0.387 OA
ATOM     29  H   UNL     1     -46.480 -24.323  -1.857  1.00  0.00     0.211 HD
ENDBRANCH  23  28
BRANCH  24  30
ATOM     30  C   UNL     1     -49.287 -21.943  -5.216  1.00  0.00     0.191 C 
BRANCH  30  31
ATOM     31  O   UNL     1     -49.929 -23.177  -5.376  1.00  0.00    -0.394 OA
ATOM     32  H   UNL     1     -50.574 -23.057  -6.121  1.00  0.00     0.210 HD
ENDBRANCH  30  31
ENDBRANCH  24  30
BRANCH  25  33
ATOM     33  O   UNL     1     -47.068 -23.974  -6.125  1.00  0.00    -0.388 OA
ATOM     34  H   UNL     1     -47.755 -24.571  -6.519  1.00  0.00     0.211 HD
ENDBRANCH  25  33
ENDBRANCH  11  20
BRANCH  10  35
ATOM     35  O   UNL     1     -46.046 -20.264  -5.574  1.00  0.00    -0.507 OA
ATOM     36  H   UNL     1     -45.484 -20.404  -6.403  1.00  0.00     0.293 HD
ENDBRANCH  10  35
TORSDOF 9
ENDMDL
MODEL 7
REMARK VINA RESULT:    -7.515     15.007     16.144
REMARK INTER + INTRA:          -9.879
REMARK INTER:                  -9.705
REMARK INTRA:                  -0.174
REMARK UNBOUND:                 0.272
REMARK SMILES O=c1c(-c2ccc(O)cc2)coc2c([C@H]3O[C@H](CO)[C@@H](O)[C@H](O)[C@H]3O)c(O)ccc12
REMARK SMILES IDX 3 1 11 2 12 3 13 4 30 5 2 6 1 7 29 8 28 9 26 10 14 11 4 12
REMARK SMILES IDX 5 13 6 14 7 15 10 16 9 17 8 18 15 20 24 21 16 22 22 23 17 24
REMARK SMILES IDX 20 25 25 26 23 28 18 30 19 31 21 33 27 35
REMARK H PARENT 8 19 25 27 23 29 19 32 21 34 27 36
REMARK Flexibility Score: inf
ROOT
ATOM      1  C   UNL     1     -44.692 -16.871   1.328  1.00  0.00     0.065 A 
ATOM      2  C   UNL     1     -45.870 -17.618   1.202  1.00  0.00     0.208 A 
ATOM      3  O   UNL     1     -46.161 -18.249   0.072  1.00  0.00    -0.463 OA
ATOM      4  C   UNL     1     -45.378 -18.222  -1.004  1.00  0.00     0.147 A 
ATOM      5  C   UNL     1     -44.185 -17.461  -0.974  1.00  0.00     0.066 A 
ATOM      6  C   UNL     1     -43.841 -16.786   0.212  1.00  0.00     0.200 A 
ATOM      7  O   UNL     1     -42.791 -16.087   0.265  1.00  0.00    -0.288 OA
ATOM      8  C   UNL     1     -43.386 -17.383  -2.122  1.00  0.00     0.020 A 
ATOM      9  C   UNL     1     -43.814 -17.968  -3.309  1.00  0.00     0.047 A 
ATOM     10  C   UNL     1     -45.017 -18.676  -3.365  1.00  0.00     0.125 A 
ATOM     11  C   UNL     1     -45.743 -18.948  -2.171  1.00  0.00     0.069 A 
ENDROOT
BRANCH   1  12
ATOM     12  C   UNL     1     -44.379 -16.188   2.608  1.00  0.00    -0.011 A 
ATOM     13  C   UNL     1     -45.248 -15.208   3.120  1.00  0.00     0.013 A 
ATOM     14  C   UNL     1     -44.960 -14.570   4.331  1.00  0.00     0.047 A 
ATOM     15  C   UNL     1     -43.806 -14.905   5.046  1.00  0.00     0.115 A 
ATOM     16  C   UNL     1     -43.224 -16.525   3.337  1.00  0.00     0.013 A 
ATOM     17  C   UNL     1     -42.940 -15.886   4.547  1.00  0.00     0.047 A 
BRANCH  15  18
ATOM     18  O   UNL     1     -43.532 -14.261   6.251  1.00  0.00    -0.508 OA
ATOM     19  H   UNL     1     -44.058 -14.465   7.092  1.00  0.00     0.293 HD
ENDBRANCH  15  18
ENDBRANCH   1  12
BRANCH  11  20
ATOM     20  C   UNL     1     -46.927 -19.937  -2.120  1.00  0.00     0.188 C 
ATOM     21  C   UNL     1     -47.083 -20.735  -0.767  1.00  0.00     0.179 C 
ATOM     22  O   UNL     1     -46.996 -20.787  -3.264  1.00  0.00    -0.362 OA
ATOM     23  C   UNL     1     -47.736 -22.115  -0.993  1.00  0.00     0.177 C 
ATOM     24  C   UNL     1     -46.267 -21.991  -3.099  1.00  0.00     0.176 C 
ATOM     25  C   UNL     1     -47.004 -22.918  -2.097  1.00  0.00     0.177 C 
BRANCH  21  26
ATOM     26  O   UNL     1     -45.882 -20.881  -0.042  1.00  0.00    -0.387 OA
ATOM     27  H   UNL     1     -46.084 -20.864   0.926  1.00  0.00     0.211 HD
ENDBRANCH  21  26
BRANCH  23  28
ATOM     28  O   UNL     1     -49.078 -21.936  -1.370  1.00  0.00    -0.387 OA
ATOM     29  H   UNL     1     -49.449 -21.216  -0.796  1.00  0.00     0.211 HD
ENDBRANCH  23  28
BRANCH  24  30
ATOM     30  C   UNL     1     -46.130 -22.688  -4.459  1.00  0.00     0.191 C 
BRANCH  30  31
ATOM     31  O   UNL     1     -46.945 -23.826  -4.500  1.00  0.00    -0.394 OA
ATOM     32  H   UNL     1     -47.182 -23.961  -5.454  1.00  0.00     0.210 HD
ENDBRANCH  30  31
ENDBRANCH  24  30
BRANCH  25  33
ATOM     33  O   UNL     1     -46.120 -23.862  -1.545  1.00  0.00    -0.388 OA
ATOM     34  H   UNL     1     -46.014 -24.601  -2.198  1.00  0.00     0.211 HD
ENDBRANCH  25  33
ENDBRANCH  11  20
BRANCH  10  35
ATOM     35  O   UNL     1     -45.478 -19.027  -4.635  1.00  0.00    -0.507 OA
ATOM     36  H   UNL     1     -44.868 -19.112  -5.437  1.00  0.00     0.293 HD
ENDBRANCH  10  35
TORSDOF 9
ENDMDL
MODEL 8
REMARK VINA RESULT:    -7.428     14.658     15.750
REMARK INTER + INTRA:          -9.762
REMARK INTER:                  -9.471
REMARK INTRA:                  -0.291
REMARK UNBOUND:                 0.272
REMARK SMILES O=c1c(-c2ccc(O)cc2)coc2c([C@H]3O[C@H](CO)[C@@H](O)[C@H](O)[C@H]3O)c(O)ccc12
REMARK SMILES IDX 3 1 11 2 12 3 13 4 30 5 2 6 1 7 29 8 28 9 26 10 14 11 4 12
REMARK SMILES IDX 5 13 6 14 7 15 10 16 9 17 8 18 15 20 24 21 16 22 22 23 17 24
REMARK SMILES IDX 20 25 25 26 23 28 18 30 19 31 21 33 27 35
REMARK H PARENT 8 19 25 27 23 29 19 32 21 34 27 36
REMARK Flexibility Score: inf
ROOT
ATOM      1  C   UNL     1     -43.846 -16.930   1.888  1.00  0.00     0.065 A 
ATOM      2  C   UNL     1     -45.095 -17.512   1.633  1.00  0.00     0.208 A 
ATOM      3  O   UNL     1     -45.420 -17.923   0.415  1.00  0.00    -0.463 OA
ATOM      4  C   UNL     1     -44.608 -17.817  -0.635  1.00  0.00     0.147 A 
ATOM      5  C   UNL     1     -43.341 -17.208  -0.472  1.00  0.00     0.066 A 
ATOM      6  C   UNL     1     -42.960 -16.768   0.809  1.00  0.00     0.200 A 
ATOM      7  O   UNL     1     -41.842 -16.209   0.985  1.00  0.00    -0.288 OA
ATOM      8  C   UNL     1     -42.506 -17.042  -1.584  1.00  0.00     0.020 A 
ATOM      9  C   UNL     1     -42.961 -17.385  -2.853  1.00  0.00     0.047 A 
ATOM     10  C   UNL     1     -44.231 -17.936  -3.034  1.00  0.00     0.125 A 
ATOM     11  C   UNL     1     -45.016 -18.307  -1.906  1.00  0.00     0.069 A 
ENDROOT
BRANCH   1  12
ATOM     12  C   UNL     1     -43.498 -16.494   3.264  1.00  0.00    -0.011 A 
ATOM     13  C   UNL     1     -44.151 -15.393   3.846  1.00  0.00     0.013 A 
ATOM     14  C   UNL     1     -43.831 -14.986   5.145  1.00  0.00     0.047 A 
ATOM     15  C   UNL     1     -42.861 -15.676   5.880  1.00  0.00     0.115 A 
ATOM     16  C   UNL     1     -42.529 -17.187   4.012  1.00  0.00     0.013 A 
ATOM     17  C   UNL     1     -42.212 -16.778   5.310  1.00  0.00     0.047 A 
BRANCH  15  18
ATOM     18  O   UNL     1     -42.552 -15.258   7.173  1.00  0.00    -0.508 OA
ATOM     19  H   UNL     1     -43.009 -14.458   7.594  1.00  0.00     0.293 HD
ENDBRANCH  15  18
ENDBRANCH   1  12
BRANCH  11  20
ATOM     20  C   UNL     1     -46.302 -19.153  -2.025  1.00  0.00     0.188 C 
ATOM     21  C   UNL     1     -46.577 -20.138  -0.822  1.00  0.00     0.179 C 
ATOM     22  O   UNL     1     -46.435 -19.793  -3.293  1.00  0.00    -0.362 OA
ATOM     23  C   UNL     1     -47.370 -21.381  -1.275  1.00  0.00     0.177 C 
ATOM     24  C   UNL     1     -45.847 -21.082  -3.323  1.00  0.00     0.176 C 
ATOM     25  C   UNL     1     -46.704 -22.070  -2.491  1.00  0.00     0.177 C 
BRANCH  21  26
ATOM     26  O   UNL     1     -45.417 -20.532  -0.123  1.00  0.00    -0.387 OA
ATOM     27  H   UNL     1     -44.643 -20.503  -0.738  1.00  0.00     0.211 HD
ENDBRANCH  21  26
BRANCH  23  28
ATOM     28  O   UNL     1     -48.676 -20.994  -1.626  1.00  0.00    -0.387 OA
ATOM     29  H   UNL     1     -48.637 -20.036  -1.883  1.00  0.00     0.211 HD
ENDBRANCH  23  28
BRANCH  24  30
ATOM     30  C   UNL     1     -45.753 -21.559  -4.778  1.00  0.00     0.191 C 
BRANCH  30  31
ATOM     31  O   UNL     1     -45.073 -22.782  -4.839  1.00  0.00    -0.394 OA
ATOM     32  H   UNL     1     -45.771 -23.481  -4.928  1.00  0.00     0.210 HD
ENDBRANCH  30  31
ENDBRANCH  24  30
BRANCH  25  33
ATOM     33  O   UNL     1     -45.942 -23.185  -2.096  1.00  0.00    -0.388 OA
ATOM     34  H   UNL     1     -46.048 -23.297  -1.117  1.00  0.00     0.211 HD
ENDBRANCH  25  33
ENDBRANCH  11  20
BRANCH  10  35
ATOM     35  O   UNL     1     -44.691 -18.030  -4.348  1.00  0.00    -0.507 OA
ATOM     36  H   UNL     1     -44.690 -17.248  -4.989  1.00  0.00     0.293 HD
ENDBRANCH  10  35
TORSDOF 9
ENDMDL
MODEL 9
REMARK VINA RESULT:    -5.988     15.118     18.197
REMARK INTER + INTRA:          -7.815
REMARK INTER:                  -7.247
REMARK INTRA:                  -0.569
REMARK UNBOUND:                 0.272
REMARK SMILES O=c1c(-c2ccc(O)cc2)coc2c([C@H]3O[C@H](CO)[C@@H](O)[C@H](O)[C@H]3O)c(O)ccc12
REMARK SMILES IDX 3 1 11 2 12 3 13 4 30 5 2 6 1 7 29 8 28 9 26 10 14 11 4 12
REMARK SMILES IDX 5 13 6 14 7 15 10 16 9 17 8 18 15 20 24 21 16 22 22 23 17 24
REMARK SMILES IDX 20 25 25 26 23 28 18 30 19 31 21 33 27 35
REMARK H PARENT 8 19 25 27 23 29 19 32 21 34 27 36
REMARK Flexibility Score: inf
ROOT
ATOM      1  C   UNL     1     -46.221 -20.423  -2.579  1.00  0.00     0.065 A 
ATOM      2  C   UNL     1     -45.440 -19.360  -3.050  1.00  0.00     0.208 A 
ATOM      3  O   UNL     1     -45.021 -18.405  -2.231  1.00  0.00    -0.463 OA
ATOM      4  C   UNL     1     -45.303 -18.380  -0.930  1.00  0.00     0.147 A 
ATOM      5  C   UNL     1     -46.118 -19.397  -0.378  1.00  0.00     0.066 A 
ATOM      6  C   UNL     1     -46.573 -20.431  -1.218  1.00  0.00     0.200 A 
ATOM      7  O   UNL     1     -47.312 -21.346  -0.758  1.00  0.00    -0.288 OA
ATOM      8  C   UNL     1     -46.466 -19.344   0.977  1.00  0.00     0.020 A 
ATOM      9  C   UNL     1     -46.094 -18.249   1.749  1.00  0.00     0.047 A 
ATOM     10  C   UNL     1     -45.336 -17.211   1.202  1.00  0.00     0.125 A 
ATOM     11  C   UNL     1     -44.794 -17.337  -0.109  1.00  0.00     0.069 A 
ENDROOT
BRANCH   1  12
ATOM     12  C   UNL     1     -46.663 -21.490  -3.511  1.00  0.00    -0.011 A 
ATOM     13  C   UNL     1     -45.881 -22.645  -3.690  1.00  0.00     0.013 A 
ATOM     14  C   UNL     1     -46.300 -23.655  -4.562  1.00  0.00     0.047 A 
ATOM     15  C   UNL     1     -47.505 -23.527  -5.260  1.00  0.00     0.115 A 
ATOM     16  C   UNL     1     -47.877 -21.372  -4.212  1.00  0.00     0.013 A 
ATOM     17  C   UNL     1     -48.293 -22.384  -5.081  1.00  0.00     0.047 A 
BRANCH  15  18
ATOM     18  O   UNL     1     -47.909 -24.542  -6.125  1.00  0.00    -0.508 OA
ATOM     19  H   UNL     1     -48.214 -25.444  -5.777  1.00  0.00     0.293 HD
ENDBRANCH  15  18
ENDBRANCH   1  12
BRANCH  11  20
ATOM     20  C   UNL     1     -43.742 -16.360  -0.675  1.00  0.00     0.188 C 
ATOM     21  C   UNL     1     -42.607 -17.021  -1.550  1.00  0.00     0.179 C 
ATOM     22  O   UNL     1     -43.219 -15.469   0.310  1.00  0.00    -0.362 OA
ATOM     23  C   UNL     1     -41.291 -16.220  -1.475  1.00  0.00     0.177 C 
ATOM     24  C   UNL     1     -42.071 -15.983   0.963  1.00  0.00     0.176 C 
ATOM     25  C   UNL     1     -40.862 -15.965  -0.009  1.00  0.00     0.177 C 
BRANCH  21  26
ATOM     26  O   UNL     1     -42.366 -18.378  -1.252  1.00  0.00    -0.387 OA
ATOM     27  H   UNL     1     -42.541 -18.923  -2.059  1.00  0.00     0.211 HD
ENDBRANCH  21  26
BRANCH  23  28
ATOM     28  O   UNL     1     -41.462 -14.984  -2.124  1.00  0.00    -0.387 OA
ATOM     29  H   UNL     1     -42.278 -14.566  -1.742  1.00  0.00     0.211 HD
ENDBRANCH  23  28
BRANCH  24  30
ATOM     30  C   UNL     1     -41.768 -15.127   2.199  1.00  0.00     0.191 C 
BRANCH  30  31
ATOM     31  O   UNL     1     -42.638 -15.467   3.243  1.00  0.00    -0.394 OA
ATOM     32  H   UNL     1     -42.690 -14.668   3.829  1.00  0.00     0.210 HD
ENDBRANCH  30  31
ENDBRANCH  24  30
BRANCH  25  33
ATOM     33  O   UNL     1     -39.874 -16.877   0.404  1.00  0.00    -0.388 OA
ATOM     34  H   UNL     1     -40.050 -17.744  -0.044  1.00  0.00     0.211 HD
ENDBRANCH  25  33
ENDBRANCH  11  20
BRANCH  10  35
ATOM     35  O   UNL     1     -45.209 -16.055   1.973  1.00  0.00    -0.507 OA
ATOM     36  H   UNL     1     -45.998 -15.587   2.397  1.00  0.00     0.293 HD
ENDBRANCH  10  35
TORSDOF 9
ENDMDL
