MODEL 1
REMARK VINA RESULT:    -4.313      0.000      0.000
REMARK INTER + INTRA:          -7.184
REMARK INTER:                  -6.330
REMARK INTRA:                  -0.854
REMARK UNBOUND:                -0.854
REMARK SMILES CCCOC(=O)c1ccccc1C(=O)OCCC
REMARK SMILES IDX 7 1 8 2 9 3 10 4 11 5 12 6 5 7 6 8 4 9 3 10 2 11 1 12 13 13
REMARK SMILES IDX 14 14 15 15 16 16 17 17 18 18
REMARK H PARENT
REMARK Flexibility Score: inf
ROOT
ATOM      1  C   UNL     1      78.686  34.020  51.941  1.00  0.00     0.074 A 
ATOM      2  C   UNL     1      79.268  32.761  52.173  1.00  0.00     0.016 A 
ATOM      3  C   UNL     1      78.473  31.639  52.413  1.00  0.00     0.001 A 
ATOM      4  C   UNL     1      77.085  31.757  52.424  1.00  0.00     0.001 A 
ATOM      5  C   UNL     1      76.485  32.992  52.173  1.00  0.00     0.016 A 
ATOM      6  C   UNL     1      77.268  34.131  51.907  1.00  0.00     0.074 A 
ENDROOT
BRANCH   1   7
ATOM      7  C   UNL     1      79.587  35.188  51.811  1.00  0.00     0.339 C 
ATOM      8  O   UNL     1      79.699  36.012  52.759  1.00  0.00    -0.246 OA
BRANCH   7   9
ATOM      9  O   UNL     1      80.365  35.332  50.654  1.00  0.00    -0.462 OA
BRANCH   9  10
ATOM     10  C   UNL     1      79.931  34.946  49.351  1.00  0.00     0.233 C 
BRANCH  10  11
ATOM     11  C   UNL     1      80.939  33.999  48.690  1.00  0.00     0.038 C 
ATOM     12  C   UNL     1      81.027  32.649  49.397  1.00  0.00     0.007 C 
ENDBRANCH  10  11
ENDBRANCH   9  10
ENDBRANCH   7   9
ENDBRANCH   1   7
BRANCH   6  13
ATOM     13  C   UNL     1      76.575  35.382  51.530  1.00  0.00     0.339 C 
ATOM     14  O   UNL     1      76.735  35.863  50.373  1.00  0.00    -0.246 OA
BRANCH  13  15
ATOM     15  O   UNL     1      75.799  36.063  52.475  1.00  0.00    -0.462 OA
BRANCH  15  16
ATOM     16  C   UNL     1      74.373  36.098  52.448  1.00  0.00     0.233 C 
BRANCH  16  17
ATOM     17  C   UNL     1      73.794  35.231  53.570  1.00  0.00     0.038 C 
ATOM     18  C   UNL     1      73.026  34.040  53.005  1.00  0.00     0.007 C 
ENDBRANCH  16  17
ENDBRANCH  15  16
ENDBRANCH  13  15
ENDBRANCH   6  13
TORSDOF 8
ENDMDL
MODEL 2
REMARK VINA RESULT:    -4.235      0.403      5.299
REMARK INTER + INTRA:          -7.069
REMARK INTER:                  -6.163
REMARK INTRA:                  -0.907
REMARK UNBOUND:                -0.854
REMARK SMILES CCCOC(=O)c1ccccc1C(=O)OCCC
REMARK SMILES IDX 7 1 8 2 9 3 10 4 11 5 12 6 5 7 6 8 4 9 3 10 2 11 1 12 13 13
REMARK SMILES IDX 14 14 15 15 16 16 17 17 18 18
REMARK H PARENT
REMARK Flexibility Score: inf
ROOT
ATOM      1  C   UNL     1      77.283  34.086  51.958  1.00  0.00     0.074 A 
ATOM      2  C   UNL     1      76.579  32.894  52.204  1.00  0.00     0.016 A 
ATOM      3  C   UNL     1      77.259  31.692  52.410  1.00  0.00     0.001 A 
ATOM      4  C   UNL     1      78.651  31.662  52.374  1.00  0.00     0.001 A 
ATOM      5  C   UNL     1      79.371  32.838  52.155  1.00  0.00     0.016 A 
ATOM      6  C   UNL     1      78.706  34.064  51.966  1.00  0.00     0.074 A 
ENDROOT
BRANCH   1   7
ATOM      7  C   UNL     1      76.500  35.299  51.631  1.00  0.00     0.339 C 
ATOM      8  O   UNL     1      76.602  35.833  50.492  1.00  0.00    -0.246 OA
BRANCH   7   9
ATOM      9  O   UNL     1      75.595  35.810  52.571  1.00  0.00    -0.462 OA
BRANCH   9  10
ATOM     10  C   UNL     1      74.211  36.033  52.302  1.00  0.00     0.233 C 
BRANCH  10  11
ATOM     11  C   UNL     1      73.416  34.725  52.368  1.00  0.00     0.038 C 
ATOM     12  C   UNL     1      73.376  34.133  53.774  1.00  0.00     0.007 C 
ENDBRANCH  10  11
ENDBRANCH   9  10
ENDBRANCH   7   9
ENDBRANCH   1   7
BRANCH   6  13
ATOM     13  C   UNL     1      79.523  35.293  51.859  1.00  0.00     0.339 C 
ATOM     14  O   UNL     1      79.570  36.101  52.828  1.00  0.00    -0.246 OA
BRANCH  13  15
ATOM     15  O   UNL     1      80.186  35.588  50.662  1.00  0.00    -0.462 OA
BRANCH  15  16
ATOM     16  C   UNL     1      79.756  35.120  49.386  1.00  0.00     0.233 C 
BRANCH  16  17
ATOM     17  C   UNL     1      80.875  34.331  48.698  1.00  0.00     0.038 C 
ATOM     18  C   UNL     1      80.896  32.880  49.170  1.00  0.00     0.007 C 
ENDBRANCH  16  17
ENDBRANCH  15  16
ENDBRANCH  13  15
ENDBRANCH   6  13
TORSDOF 8
ENDMDL
MODEL 3
REMARK VINA RESULT:    -3.438     15.584     17.030
REMARK INTER + INTRA:          -5.901
REMARK INTER:                  -5.743
REMARK INTRA:                  -0.157
REMARK UNBOUND:                -0.854
REMARK SMILES CCCOC(=O)c1ccccc1C(=O)OCCC
REMARK SMILES IDX 7 1 8 2 9 3 10 4 11 5 12 6 5 7 6 8 4 9 3 10 2 11 1 12 13 13
REMARK SMILES IDX 14 14 15 15 16 16 17 17 18 18
REMARK H PARENT
REMARK Flexibility Score: inf
ROOT
ATOM      1  C   UNL     1      85.703  30.266  65.071  1.00  0.00     0.074 A 
ATOM      2  C   UNL     1      84.483  29.879  64.490  1.00  0.00     0.016 A 
ATOM      3  C   UNL     1      83.278  30.438  64.919  1.00  0.00     0.001 A 
ATOM      4  C   UNL     1      83.273  31.392  65.934  1.00  0.00     0.001 A 
ATOM      5  C   UNL     1      84.474  31.808  66.510  1.00  0.00     0.016 A 
ATOM      6  C   UNL     1      85.702  31.273  66.077  1.00  0.00     0.074 A 
ENDROOT
BRANCH   1   7
ATOM      7  C   UNL     1      86.930  29.550  64.653  1.00  0.00     0.339 C 
ATOM      8  O   UNL     1      87.966  30.197  64.340  1.00  0.00    -0.246 OA
BRANCH   7   9
ATOM      9  O   UNL     1      86.951  28.149  64.675  1.00  0.00    -0.462 OA
BRANCH   9  10
ATOM     10  C   UNL     1      88.125  27.368  64.450  1.00  0.00     0.233 C 
BRANCH  10  11
ATOM     11  C   UNL     1      87.788  25.876  64.357  1.00  0.00     0.038 C 
ATOM     12  C   UNL     1      87.915  25.333  62.937  1.00  0.00     0.007 C 
ENDBRANCH  10  11
ENDBRANCH   9  10
ENDBRANCH   7   9
ENDBRANCH   1   7
BRANCH   6  13
ATOM     13  C   UNL     1      86.948  31.840  66.639  1.00  0.00     0.339 C 
ATOM     14  O   UNL     1      87.370  31.439  67.759  1.00  0.00    -0.246 OA
BRANCH  13  15
ATOM     15  O   UNL     1      87.617  32.864  65.958  1.00  0.00    -0.462 OA
BRANCH  15  16
ATOM     16  C   UNL     1      87.031  33.626  64.905  1.00  0.00     0.233 C 
BRANCH  16  17
ATOM     17  C   UNL     1      87.738  34.978  64.763  1.00  0.00     0.038 C 
ATOM     18  C   UNL     1      87.010  35.878  63.769  1.00  0.00     0.007 C 
ENDBRANCH  16  17
ENDBRANCH  15  16
ENDBRANCH  13  15
ENDBRANCH   6  13
TORSDOF 8
ENDMDL
MODEL 4
REMARK VINA RESULT:    -3.065      1.788      4.294
REMARK INTER + INTRA:          -5.352
REMARK INTER:                  -5.465
REMARK INTRA:                   0.112
REMARK UNBOUND:                -0.854
REMARK SMILES CCCOC(=O)c1ccccc1C(=O)OCCC
REMARK SMILES IDX 7 1 8 2 9 3 10 4 11 5 12 6 5 7 6 8 4 9 3 10 2 11 1 12 13 13
REMARK SMILES IDX 14 14 15 15 16 16 17 17 18 18
REMARK H PARENT
REMARK Flexibility Score: inf
ROOT
ATOM      1  C   UNL     1      76.089  34.967  52.151  1.00  0.00     0.074 A 
ATOM      2  C   UNL     1      75.069  35.896  52.420  1.00  0.00     0.016 A 
ATOM      3  C   UNL     1      73.811  35.472  52.851  1.00  0.00     0.001 A 
ATOM      4  C   UNL     1      73.553  34.114  53.021  1.00  0.00     0.001 A 
ATOM      5  C   UNL     1      74.558  33.175  52.782  1.00  0.00     0.016 A 
ATOM      6  C   UNL     1      75.839  33.583  52.368  1.00  0.00     0.074 A 
ENDROOT
BRANCH   1   7
ATOM      7  C   UNL     1      77.360  35.475  51.585  1.00  0.00     0.339 C 
ATOM      8  O   UNL     1      78.170  36.111  52.314  1.00  0.00    -0.246 OA
BRANCH   7   9
ATOM      9  O   UNL     1      77.686  35.184  50.254  1.00  0.00    -0.462 OA
BRANCH   9  10
ATOM     10  C   UNL     1      78.295  36.118  49.362  1.00  0.00     0.233 C 
BRANCH  10  11
ATOM     11  C   UNL     1      79.820  35.961  49.353  1.00  0.00     0.038 C 
ATOM     12  C   UNL     1      80.261  34.536  49.030  1.00  0.00     0.007 C 
ENDBRANCH  10  11
ENDBRANCH   9  10
ENDBRANCH   7   9
ENDBRANCH   1   7
BRANCH   6  13
ATOM     13  C   UNL     1      76.896  32.554  52.249  1.00  0.00     0.339 C 
ATOM     14  O   UNL     1      76.598  31.333  52.367  1.00  0.00    -0.246 OA
BRANCH  13  15
ATOM     15  O   UNL     1      78.230  32.940  52.070  1.00  0.00    -0.462 OA
BRANCH  15  16
ATOM     16  C   UNL     1      79.341  32.093  52.355  1.00  0.00     0.233 C 
BRANCH  16  17
ATOM     17  C   UNL     1      80.653  32.780  51.964  1.00  0.00     0.038 C 
ATOM     18  C   UNL     1      80.818  34.110  52.694  1.00  0.00     0.007 C 
ENDBRANCH  16  17
ENDBRANCH  15  16
ENDBRANCH  13  15
ENDBRANCH   6  13
TORSDOF 8
ENDMDL
MODEL 5
REMARK VINA RESULT:    -2.908      2.503      3.779
REMARK INTER + INTRA:          -5.122
REMARK INTER:                  -5.577
REMARK INTRA:                   0.455
REMARK UNBOUND:                -0.854
REMARK SMILES CCCOC(=O)c1ccccc1C(=O)OCCC
REMARK SMILES IDX 7 1 8 2 9 3 10 4 11 5 12 6 5 7 6 8 4 9 3 10 2 11 1 12 13 13
REMARK SMILES IDX 14 14 15 15 16 16 17 17 18 18
REMARK H PARENT
REMARK Flexibility Score: inf
ROOT
ATOM      1  C   UNL     1      76.794  33.523  52.012  1.00  0.00     0.074 A 
ATOM      2  C   UNL     1      77.654  34.384  51.309  1.00  0.00     0.016 A 
ATOM      3  C   UNL     1      77.247  35.673  50.960  1.00  0.00     0.001 A 
ATOM      4  C   UNL     1      75.975  36.122  51.309  1.00  0.00     0.001 A 
ATOM      5  C   UNL     1      75.112  35.292  52.027  1.00  0.00     0.016 A 
ATOM      6  C   UNL     1      75.511  33.997  52.408  1.00  0.00     0.074 A 
ENDROOT
BRANCH   1   7
ATOM      7  C   UNL     1      77.243  32.132  52.247  1.00  0.00     0.339 C 
ATOM      8  O   UNL     1      76.569  31.163  51.801  1.00  0.00    -0.246 OA
BRANCH   7   9
ATOM      9  O   UNL     1      78.458  31.902  52.907  1.00  0.00    -0.462 OA
BRANCH   9  10
ATOM     10  C   UNL     1      79.682  31.602  52.237  1.00  0.00     0.233 C 
BRANCH  10  11
ATOM     11  C   UNL     1      80.484  32.876  51.951  1.00  0.00     0.038 C 
ATOM     12  C   UNL     1      80.974  32.949  50.508  1.00  0.00     0.007 C 
ENDBRANCH  10  11
ENDBRANCH   9  10
ENDBRANCH   7   9
ENDBRANCH   1   7
BRANCH   6  13
ATOM     13  C   UNL     1      74.602  33.211  53.270  1.00  0.00     0.339 C 
ATOM     14  O   UNL     1      75.059  32.256  53.958  1.00  0.00    -0.246 OA
BRANCH  13  15
ATOM     15  O   UNL     1      73.229  33.485  53.271  1.00  0.00    -0.462 OA
BRANCH  15  16
ATOM     16  C   UNL     1      72.360  33.159  54.353  1.00  0.00     0.233 C 
BRANCH  16  17
ATOM     17  C   UNL     1      72.563  34.133  55.517  1.00  0.00     0.038 C 
ATOM     18  C   UNL     1      71.661  33.781  56.696  1.00  0.00     0.007 C 
ENDBRANCH  16  17
ENDBRANCH  15  16
ENDBRANCH  13  15
ENDBRANCH   6  13
TORSDOF 8
ENDMDL
MODEL 6
REMARK VINA RESULT:    -2.547      1.338      5.218
REMARK INTER + INTRA:          -4.593
REMARK INTER:                  -3.941
REMARK INTRA:                  -0.652
REMARK UNBOUND:                -0.854
REMARK SMILES CCCOC(=O)c1ccccc1C(=O)OCCC
REMARK SMILES IDX 7 1 8 2 9 3 10 4 11 5 12 6 5 7 6 8 4 9 3 10 2 11 1 12 13 13
REMARK SMILES IDX 14 14 15 15 16 16 17 17 18 18
REMARK H PARENT
REMARK Flexibility Score: inf
ROOT
ATOM      1  C   UNL     1      77.625  34.159  51.627  1.00  0.00     0.074 A 
ATOM      2  C   UNL     1      76.885  33.154  52.275  1.00  0.00     0.016 A 
ATOM      3  C   UNL     1      77.463  31.919  52.570  1.00  0.00     0.001 A 
ATOM      4  C   UNL     1      78.788  31.667  52.224  1.00  0.00     0.001 A 
ATOM      5  C   UNL     1      79.549  32.657  51.600  1.00  0.00     0.016 A 
ATOM      6  C   UNL     1      78.992  33.918  51.313  1.00  0.00     0.074 A 
ENDROOT
BRANCH   1   7
ATOM      7  C   UNL     1      76.918  35.401  51.238  1.00  0.00     0.339 C 
ATOM      8  O   UNL     1      76.944  35.797  50.040  1.00  0.00    -0.246 OA
BRANCH   7   9
ATOM      9  O   UNL     1      76.165  36.093  52.195  1.00  0.00    -0.462 OA
BRANCH   9  10
ATOM     10  C   UNL     1      74.738  36.125  52.212  1.00  0.00     0.233 C 
BRANCH  10  11
ATOM     11  C   UNL     1      74.178  35.226  53.320  1.00  0.00     0.038 C 
ATOM     12  C   UNL     1      73.184  34.195  52.793  1.00  0.00     0.007 C 
ENDBRANCH  10  11
ENDBRANCH   9  10
ENDBRANCH   7   9
ENDBRANCH   1   7
BRANCH   6  13
ATOM     13  C   UNL     1      79.880  34.965  50.763  1.00  0.00     0.339 C 
ATOM     14  O   UNL     1      80.215  34.929  49.546  1.00  0.00    -0.246 OA
BRANCH  13  15
ATOM     15  O   UNL     1      80.399  35.955  51.607  1.00  0.00    -0.462 OA
BRANCH  15  16
ATOM     16  C   UNL     1      80.445  35.835  53.027  1.00  0.00     0.233 C 
BRANCH  16  17
ATOM     17  C   UNL     1      81.654  34.999  53.456  1.00  0.00     0.038 C 
ATOM     18  C   UNL     1      82.539  35.769  54.431  1.00  0.00     0.007 C 
ENDBRANCH  16  17
ENDBRANCH  15  16
ENDBRANCH  13  15
ENDBRANCH   6  13
TORSDOF 8
ENDMDL
MODEL 7
REMARK VINA RESULT:    -1.546      1.731      2.088
REMARK INTER + INTRA:          -3.123
REMARK INTER:                  -2.368
REMARK INTRA:                  -0.755
REMARK UNBOUND:                -0.854
REMARK SMILES CCCOC(=O)c1ccccc1C(=O)OCCC
REMARK SMILES IDX 7 1 8 2 9 3 10 4 11 5 12 6 5 7 6 8 4 9 3 10 2 11 1 12 13 13
REMARK SMILES IDX 14 14 15 15 16 16 17 17 18 18
REMARK H PARENT
REMARK Flexibility Score: inf
ROOT
ATOM      1  C   UNL     1      77.501  34.191  51.727  1.00  0.00     0.074 A 
ATOM      2  C   UNL     1      78.130  32.938  51.626  1.00  0.00     0.016 A 
ATOM      3  C   UNL     1      77.509  31.785  52.107  1.00  0.00     0.001 A 
ATOM      4  C   UNL     1      76.249  31.864  52.696  1.00  0.00     0.001 A 
ATOM      5  C   UNL     1      75.595  33.094  52.787  1.00  0.00     0.016 A 
ATOM      6  C   UNL     1      76.195  34.266  52.288  1.00  0.00     0.074 A 
ENDROOT
BRANCH   1   7
ATOM      7  C   UNL     1      78.263  35.388  51.305  1.00  0.00     0.339 C 
ATOM      8  O   UNL     1      78.162  35.821  50.124  1.00  0.00    -0.246 OA
BRANCH   7   9
ATOM      9  O   UNL     1      79.043  36.076  52.244  1.00  0.00    -0.462 OA
BRANCH   9  10
ATOM     10  C   UNL     1      80.470  36.081  52.242  1.00  0.00     0.233 C 
BRANCH  10  11
ATOM     11  C   UNL     1      81.029  34.967  53.133  1.00  0.00     0.038 C 
ATOM     12  C   UNL     1      81.317  33.684  52.358  1.00  0.00     0.007 C 
ENDBRANCH  10  11
ENDBRANCH   9  10
ENDBRANCH   7   9
ENDBRANCH   1   7
BRANCH   6  13
ATOM     13  C   UNL     1      75.404  35.516  52.302  1.00  0.00     0.339 C 
ATOM     14  O   UNL     1      75.169  36.122  51.220  1.00  0.00    -0.246 OA
BRANCH  13  15
ATOM     15  O   UNL     1      74.975  36.057  53.520  1.00  0.00    -0.462 OA
BRANCH  15  16
ATOM     16  C   UNL     1      73.606  36.125  53.915  1.00  0.00     0.233 C 
BRANCH  16  17
ATOM     17  C   UNL     1      73.305  35.073  54.987  1.00  0.00     0.038 C 
ATOM     18  C   UNL     1      72.472  33.929  54.417  1.00  0.00     0.007 C 
ENDBRANCH  16  17
ENDBRANCH  15  16
ENDBRANCH  13  15
ENDBRANCH   6  13
TORSDOF 8
ENDMDL
