MODEL 1
REMARK VINA RESULT:    -7.203      0.000      0.000
REMARK INTER + INTRA:         -12.084
REMARK INTER:                  -9.940
REMARK INTRA:                  -2.144
REMARK UNBOUND:                -2.144
REMARK SMILES C=C(CC[C@H](C(=O)[O-])[C@@H]1CC[C@]2(C)C3=C(CC[C@]12C)[C@@]1(C)CC[C@@H](O)C(C)(C)[C@H]1CC3)C(C)C
REMARK SMILES IDX 4 1 5 2 6 3 7 4 8 5 9 6 10 7 18 8 11 9 12 10 17 11 19 12
REMARK SMILES IDX 13 13 14 14 16 15 15 16 31 17 20 18 30 19 29 20 22 21 21 22
REMARK SMILES IDX 26 23 23 24 24 25 27 26 28 27 25 28 3 30 2 31 1 32 32 33
REMARK SMILES IDX 33 34 34 35
REMARK H PARENT 25 29
REMARK Flexibility Score: inf
ROOT
ATOM      1  C   UNL     1      49.916  -1.283  24.547  1.00  0.00     0.014 C 
ENDROOT
BRANCH   1   2
ATOM      2  C   UNL     1      49.494  -1.146  23.058  1.00  0.00     0.039 C 
BRANCH   2   3
ATOM      3  C   UNL     1      49.936  -2.362  22.285  1.00  0.00     0.045 C 
ATOM      4  O   UNL     1      49.093  -3.133  21.754  1.00  0.00    -0.550 OA
ATOM      5  O   UNL     1      51.290  -2.621  22.123  1.00  0.00    -0.550 OA
ENDBRANCH   2   3
BRANCH   2   6
ATOM      6  C   UNL     1      49.946   0.197  22.387  1.00  0.00     0.004 C 
ATOM      7  C   UNL     1      51.135   0.820  23.124  1.00  0.00     0.006 C 
ATOM      8  C   UNL     1      48.901   1.361  22.220  1.00  0.00    -0.020 C 
ATOM      9  C   UNL     1      51.135   2.309  22.814  1.00  0.00     0.012 C 
ATOM     10  C   UNL     1      49.823   2.644  22.048  1.00  0.00    -0.006 C 
ATOM     11  C   UNL     1      47.924   1.512  23.441  1.00  0.00     0.012 C 
ATOM     12  C   UNL     1      48.000   1.112  20.975  1.00  0.00     0.012 C 
ATOM     13  C   UNL     1      50.227   2.872  20.559  1.00  0.00     0.017 C 
ATOM     14  C   UNL     1      49.198   3.915  22.685  1.00  0.00    -0.064 C 
ATOM     15  C   UNL     1      48.426   2.460  24.525  1.00  0.00     0.032 C 
ATOM     16  C   UNL     1      48.625   3.845  23.925  1.00  0.00    -0.064 C 
ATOM     17  C   UNL     1      49.304   5.278  22.030  1.00  0.00     0.032 C 
ATOM     18  C   UNL     1      48.422   5.144  24.764  1.00  0.00    -0.008 C 
ATOM     19  C   UNL     1      48.045   6.066  22.342  1.00  0.00     0.009 C 
ATOM     20  C   UNL     1      47.909   6.373  23.865  1.00  0.00     0.007 C 
ATOM     21  C   UNL     1      49.810   5.403  25.417  1.00  0.00     0.014 C 
ATOM     22  C   UNL     1      47.380   4.889  25.890  1.00  0.00     0.016 C 
ATOM     23  C   UNL     1      48.365   7.846  24.328  1.00  0.00    -0.006 C 
ATOM     24  C   UNL     1      49.960   6.784  26.034  1.00  0.00     0.033 C 
ATOM     25  C   UNL     1      49.788   7.867  24.966  1.00  0.00     0.120 C 
ATOM     26  C   UNL     1      48.355   8.878  23.164  1.00  0.00     0.014 C 
ATOM     27  C   UNL     1      47.349   8.425  25.359  1.00  0.00     0.014 C 
BRANCH  25  28
ATOM     28  O   UNL     1      50.776   7.714  23.975  1.00  0.00    -0.393 OA
ATOM     29  H   UNL     1      50.763   6.761  23.695  1.00  0.00     0.210 HD
ENDBRANCH  25  28
ENDBRANCH   2   6
ENDBRANCH   1   2
BRANCH   1  30
ATOM     30  C   UNL     1      48.781  -1.642  25.523  1.00  0.00     0.031 C 
BRANCH  30  31
ATOM     31  C   UNL     1      48.622  -0.559  26.564  1.00  0.00    -0.075 C 
ATOM     32  C   UNL     1      49.710   0.099  27.008  1.00  0.00     0.008 C 
BRANCH  31  33
ATOM     33  C   UNL     1      47.238  -0.262  27.123  1.00  0.00     0.008 C 
ATOM     34  C   UNL     1      47.152   1.162  27.689  1.00  0.00     0.012 C 
ATOM     35  C   UNL     1      46.153  -0.504  26.068  1.00  0.00     0.012 C 
ENDBRANCH  31  33
ENDBRANCH  30  31
ENDBRANCH   1  30
TORSDOF 7
ENDMDL
MODEL 2
REMARK VINA RESULT:    -7.182      2.523      8.719
REMARK INTER + INTRA:         -12.055
REMARK INTER:                  -9.911
REMARK INTRA:                  -2.144
REMARK UNBOUND:                -2.144
REMARK SMILES C=C(CC[C@H](C(=O)[O-])[C@@H]1CC[C@]2(C)C3=C(CC[C@]12C)[C@@]1(C)CC[C@@H](O)C(C)(C)[C@H]1CC3)C(C)C
REMARK SMILES IDX 4 1 5 2 6 3 7 4 8 5 9 6 10 7 18 8 11 9 12 10 17 11 19 12
REMARK SMILES IDX 13 13 14 14 16 15 15 16 31 17 20 18 30 19 29 20 22 21 21 22
REMARK SMILES IDX 26 23 23 24 24 25 27 26 28 27 25 28 3 30 2 31 1 32 32 33
REMARK SMILES IDX 33 34 34 35
REMARK H PARENT 25 29
REMARK Flexibility Score: inf
ROOT
ATOM      1  C   UNL     1      47.407  10.414  22.363  1.00  0.00     0.014 C 
ENDROOT
BRANCH   1   2
ATOM      2  C   UNL     1      46.781   9.652  23.563  1.00  0.00     0.039 C 
BRANCH   2   3
ATOM      3  C   UNL     1      46.094  10.624  24.487  1.00  0.00     0.045 C 
ATOM      4  O   UNL     1      46.564  11.776  24.680  1.00  0.00    -0.550 OA
ATOM      5  O   UNL     1      44.906  10.261  25.108  1.00  0.00    -0.550 OA
ENDBRANCH   2   3
BRANCH   2   6
ATOM      6  C   UNL     1      47.784   8.707  24.312  1.00  0.00     0.004 C 
ATOM      7  C   UNL     1      49.125   8.618  23.579  1.00  0.00     0.006 C 
ATOM      8  C   UNL     1      47.366   7.219  24.603  1.00  0.00    -0.020 C 
ATOM      9  C   UNL     1      49.788   7.314  23.995  1.00  0.00     0.012 C 
ATOM     10  C   UNL     1      48.763   6.496  24.833  1.00  0.00    -0.006 C 
ATOM     11  C   UNL     1      46.556   6.551  23.434  1.00  0.00     0.012 C 
ATOM     12  C   UNL     1      46.450   7.144  25.859  1.00  0.00     0.012 C 
ATOM     13  C   UNL     1      49.228   6.594  26.319  1.00  0.00     0.017 C 
ATOM     14  C   UNL     1      48.767   5.033  24.314  1.00  0.00    -0.064 C 
ATOM     15  C   UNL     1      47.426   5.840  22.403  1.00  0.00     0.032 C 
ATOM     16  C   UNL     1      48.221   4.740  23.094  1.00  0.00    -0.064 C 
ATOM     17  C   UNL     1      49.470   3.916  25.061  1.00  0.00     0.032 C 
ATOM     18  C   UNL     1      48.616   3.422  22.360  1.00  0.00    -0.008 C 
ATOM     19  C   UNL     1      48.692   2.629  24.856  1.00  0.00     0.009 C 
ATOM     20  C   UNL     1      48.704   2.171  23.364  1.00  0.00     0.007 C 
ATOM     21  C   UNL     1      49.973   3.752  21.676  1.00  0.00     0.014 C 
ATOM     22  C   UNL     1      47.568   3.096  21.258  1.00  0.00     0.016 C 
ATOM     23  C   UNL     1      49.767   1.021  22.993  1.00  0.00    -0.006 C 
ATOM     24  C   UNL     1      50.721   2.535  21.156  1.00  0.00     0.033 C 
ATOM     25  C   UNL     1      51.050   1.579  22.306  1.00  0.00     0.120 C 
ATOM     26  C   UNL     1      50.218   0.189  24.229  1.00  0.00     0.014 C 
ATOM     27  C   UNL     1      49.113  -0.032  22.046  1.00  0.00     0.014 C 
BRANCH  25  28
ATOM     28  O   UNL     1      51.868   2.235  23.245  1.00  0.00    -0.393 OA
ATOM     29  H   UNL     1      52.810   2.088  22.965  1.00  0.00     0.210 HD
ENDBRANCH  25  28
ENDBRANCH   2   6
ENDBRANCH   1   2
BRANCH   1  30
ATOM     30  C   UNL     1      46.748  10.148  20.997  1.00  0.00     0.031 C 
BRANCH  30  31
ATOM     31  C   UNL     1      47.468   9.032  20.276  1.00  0.00    -0.075 C 
ATOM     32  C   UNL     1      46.774   7.955  19.861  1.00  0.00     0.008 C 
BRANCH  31  33
ATOM     33  C   UNL     1      48.972   9.128  20.070  1.00  0.00     0.008 C 
ATOM     34  C   UNL     1      49.649   7.758  20.208  1.00  0.00     0.012 C 
ATOM     35  C   UNL     1      49.305   9.776  18.722  1.00  0.00     0.012 C 
ENDBRANCH  31  33
ENDBRANCH  30  31
ENDBRANCH   1  30
TORSDOF 7
ENDMDL
MODEL 3
REMARK VINA RESULT:    -6.983      2.428      5.382
REMARK INTER + INTRA:         -11.781
REMARK INTER:                 -10.117
REMARK INTRA:                  -1.664
REMARK UNBOUND:                -2.144
REMARK SMILES C=C(CC[C@H](C(=O)[O-])[C@@H]1CC[C@]2(C)C3=C(CC[C@]12C)[C@@]1(C)CC[C@@H](O)C(C)(C)[C@H]1CC3)C(C)C
REMARK SMILES IDX 4 1 5 2 6 3 7 4 8 5 9 6 10 7 18 8 11 9 12 10 17 11 19 12
REMARK SMILES IDX 13 13 14 14 16 15 15 16 31 17 20 18 30 19 29 20 22 21 21 22
REMARK SMILES IDX 26 23 23 24 24 25 27 26 28 27 25 28 3 30 2 31 1 32 32 33
REMARK SMILES IDX 33 34 34 35
REMARK H PARENT 25 29
REMARK Flexibility Score: inf
ROOT
ATOM      1  C   UNL     1      50.316   1.262  22.509  1.00  0.00     0.014 C 
ENDROOT
BRANCH   1   2
ATOM      2  C   UNL     1      49.921   1.553  23.983  1.00  0.00     0.039 C 
BRANCH   2   3
ATOM      3  C   UNL     1      50.004   0.287  24.796  1.00  0.00     0.045 C 
ATOM      4  O   UNL     1      50.135  -0.835  24.236  1.00  0.00    -0.550 OA
ATOM      5  O   UNL     1      49.973   0.355  26.182  1.00  0.00    -0.550 OA
ENDBRANCH   2   3
BRANCH   2   6
ATOM      6  C   UNL     1      48.545   2.287  24.142  1.00  0.00     0.004 C 
ATOM      7  C   UNL     1      47.755   2.288  22.831  1.00  0.00     0.006 C 
ATOM      8  C   UNL     1      48.525   3.778  24.645  1.00  0.00    -0.020 C 
ATOM      9  C   UNL     1      46.779   3.453  22.887  1.00  0.00     0.012 C 
ATOM     10  C   UNL     1      47.106   4.299  24.150  1.00  0.00    -0.006 C 
ATOM     11  C   UNL     1      49.694   4.654  24.068  1.00  0.00     0.012 C 
ATOM     12  C   UNL     1      48.667   3.835  26.194  1.00  0.00     0.012 C 
ATOM     13  C   UNL     1      45.983   3.995  25.190  1.00  0.00     0.017 C 
ATOM     14  C   UNL     1      47.134   5.797  23.741  1.00  0.00    -0.064 C 
ATOM     15  C   UNL     1      49.356   5.357  22.758  1.00  0.00     0.032 C 
ATOM     16  C   UNL     1      48.163   6.276  22.977  1.00  0.00    -0.064 C 
ATOM     17  C   UNL     1      45.988   6.738  24.056  1.00  0.00     0.032 C 
ATOM     18  C   UNL     1      47.987   7.605  22.179  1.00  0.00    -0.008 C 
ATOM     19  C   UNL     1      46.553   8.124  24.309  1.00  0.00     0.009 C 
ATOM     20  C   UNL     1      47.215   8.727  23.031  1.00  0.00     0.007 C 
ATOM     21  C   UNL     1      47.224   7.184  20.891  1.00  0.00     0.014 C 
ATOM     22  C   UNL     1      49.380   8.166  21.773  1.00  0.00     0.016 C 
ATOM     23  C   UNL     1      46.316   9.772  22.202  1.00  0.00    -0.006 C 
ATOM     24  C   UNL     1      46.656   8.349  20.095  1.00  0.00     0.033 C 
ATOM     25  C   UNL     1      45.653   9.135  20.943  1.00  0.00     0.120 C 
ATOM     26  C   UNL     1      45.184  10.412  23.057  1.00  0.00     0.014 C 
ATOM     27  C   UNL     1      47.182  10.987  21.748  1.00  0.00     0.014 C 
BRANCH  25  28
ATOM     28  O   UNL     1      44.589   8.293  21.317  1.00  0.00    -0.393 OA
ATOM     29  H   UNL     1      44.747   7.413  20.885  1.00  0.00     0.210 HD
ENDBRANCH  25  28
ENDBRANCH   2   6
ENDBRANCH   1   2
BRANCH   1  30
ATOM     30  C   UNL     1      51.414   2.174  21.929  1.00  0.00     0.031 C 
BRANCH  30  31
ATOM     31  C   UNL     1      51.032   2.638  20.543  1.00  0.00    -0.075 C 
ATOM     32  C   UNL     1      49.740   2.895  20.263  1.00  0.00     0.008 C 
BRANCH  31  33
ATOM     33  C   UNL     1      52.111   2.764  19.477  1.00  0.00     0.008 C 
ATOM     34  C   UNL     1      52.071   4.137  18.794  1.00  0.00     0.012 C 
ATOM     35  C   UNL     1      53.499   2.476  20.061  1.00  0.00     0.012 C 
ENDBRANCH  31  33
ENDBRANCH  30  31
ENDBRANCH   1  30
TORSDOF 7
ENDMDL
MODEL 4
REMARK VINA RESULT:    -6.953      2.507      4.515
REMARK INTER + INTRA:         -11.738
REMARK INTER:                  -9.583
REMARK INTRA:                  -2.155
REMARK UNBOUND:                -2.144
REMARK SMILES C=C(CC[C@H](C(=O)[O-])[C@@H]1CC[C@]2(C)C3=C(CC[C@]12C)[C@@]1(C)CC[C@@H](O)C(C)(C)[C@H]1CC3)C(C)C
REMARK SMILES IDX 4 1 5 2 6 3 7 4 8 5 9 6 10 7 18 8 11 9 12 10 17 11 19 12
REMARK SMILES IDX 13 13 14 14 16 15 15 16 31 17 20 18 30 19 29 20 22 21 21 22
REMARK SMILES IDX 26 23 23 24 24 25 27 26 28 27 25 28 3 30 2 31 1 32 32 33
REMARK SMILES IDX 33 34 34 35
REMARK H PARENT 25 29
REMARK Flexibility Score: inf
ROOT
ATOM      1  C   UNL     1      49.660  -0.273  21.736  1.00  0.00     0.014 C 
ENDROOT
BRANCH   1   2
ATOM      2  C   UNL     1      48.486   0.059  22.698  1.00  0.00     0.039 C 
BRANCH   2   3
ATOM      3  C   UNL     1      47.932  -1.211  23.290  1.00  0.00     0.045 C 
ATOM      4  O   UNL     1      46.773  -1.609  23.000  1.00  0.00    -0.550 OA
ATOM      5  O   UNL     1      48.720  -1.975  24.141  1.00  0.00    -0.550 OA
ENDBRANCH   2   3
BRANCH   2   6
ATOM      6  C   UNL     1      47.378   0.967  22.061  1.00  0.00     0.004 C 
ATOM      7  C   UNL     1      47.827   1.540  20.714  1.00  0.00     0.006 C 
ATOM      8  C   UNL     1      46.829   2.195  22.877  1.00  0.00    -0.020 C 
ATOM      9  C   UNL     1      47.012   2.799  20.459  1.00  0.00     0.012 C 
ATOM     10  C   UNL     1      46.200   3.119  21.746  1.00  0.00    -0.006 C 
ATOM     11  C   UNL     1      47.935   2.955  23.694  1.00  0.00     0.012 C 
ATOM     12  C   UNL     1      45.768   1.730  23.917  1.00  0.00     0.012 C 
ATOM     13  C   UNL     1      44.719   2.734  21.442  1.00  0.00     0.017 C 
ATOM     14  C   UNL     1      46.358   4.632  22.059  1.00  0.00    -0.064 C 
ATOM     15  C   UNL     1      48.607   4.087  22.925  1.00  0.00     0.032 C 
ATOM     16  C   UNL     1      47.554   5.111  22.522  1.00  0.00    -0.064 C 
ATOM     17  C   UNL     1      45.264   5.635  21.755  1.00  0.00     0.032 C 
ATOM     18  C   UNL     1      47.885   6.630  22.398  1.00  0.00    -0.008 C 
ATOM     19  C   UNL     1      45.299   6.727  22.809  1.00  0.00     0.009 C 
ATOM     20  C   UNL     1      46.620   7.557  22.746  1.00  0.00     0.007 C 
ATOM     21  C   UNL     1      48.380   6.799  20.933  1.00  0.00     0.014 C 
ATOM     22  C   UNL     1      49.046   6.999  23.364  1.00  0.00     0.016 C 
ATOM     23  C   UNL     1      46.525   8.968  21.979  1.00  0.00    -0.006 C 
ATOM     24  C   UNL     1      48.468   8.244  20.469  1.00  0.00     0.033 C 
ATOM     25  C   UNL     1      47.090   8.908  20.527  1.00  0.00     0.120 C 
ATOM     26  C   UNL     1      45.072   9.519  21.898  1.00  0.00     0.014 C 
ATOM     27  C   UNL     1      47.303  10.064  22.771  1.00  0.00     0.014 C 
BRANCH  25  28
ATOM     28  O   UNL     1      46.200   8.223  19.680  1.00  0.00    -0.393 OA
ATOM     29  H   UNL     1      45.963   7.370  20.132  1.00  0.00     0.210 HD
ENDBRANCH  25  28
ENDBRANCH   2   6
ENDBRANCH   1   2
BRANCH   1  30
ATOM     30  C   UNL     1      51.064   0.071  22.267  1.00  0.00     0.031 C 
BRANCH  30  31
ATOM     31  C   UNL     1      51.431   1.491  21.898  1.00  0.00    -0.075 C 
ATOM     32  C   UNL     1      51.585   2.409  22.870  1.00  0.00     0.008 C 
BRANCH  31  33
ATOM     33  C   UNL     1      51.575   1.863  20.430  1.00  0.00     0.008 C 
ATOM     34  C   UNL     1      50.928   3.222  20.127  1.00  0.00     0.012 C 
ATOM     35  C   UNL     1      53.045   1.842  19.997  1.00  0.00     0.012 C 
ENDBRANCH  31  33
ENDBRANCH  30  31
ENDBRANCH   1  30
TORSDOF 7
ENDMDL
MODEL 5
REMARK VINA RESULT:    -6.908      2.011      7.126
REMARK INTER + INTRA:         -11.677
REMARK INTER:                  -9.347
REMARK INTRA:                  -2.331
REMARK UNBOUND:                -2.144
REMARK SMILES C=C(CC[C@H](C(=O)[O-])[C@@H]1CC[C@]2(C)C3=C(CC[C@]12C)[C@@]1(C)CC[C@@H](O)C(C)(C)[C@H]1CC3)C(C)C
REMARK SMILES IDX 4 1 5 2 6 3 7 4 8 5 9 6 10 7 18 8 11 9 12 10 17 11 19 12
REMARK SMILES IDX 13 13 14 14 16 15 15 16 31 17 20 18 30 19 29 20 22 21 21 22
REMARK SMILES IDX 26 23 23 24 24 25 27 26 28 27 25 28 3 30 2 31 1 32 32 33
REMARK SMILES IDX 33 34 34 35
REMARK H PARENT 25 29
REMARK Flexibility Score: inf
ROOT
ATOM      1  C   UNL     1      49.148   7.202  23.078  1.00  0.00     0.014 C 
ENDROOT
BRANCH   1   2
ATOM      2  C   UNL     1      49.620   6.472  21.790  1.00  0.00     0.039 C 
BRANCH   2   3
ATOM      3  C   UNL     1      49.710   7.451  20.648  1.00  0.00     0.045 C 
ATOM      4  O   UNL     1      50.722   7.480  19.899  1.00  0.00    -0.550 OA
ATOM      5  O   UNL     1      48.650   8.311  20.392  1.00  0.00    -0.550 OA
ENDBRANCH   2   3
BRANCH   2   6
ATOM      6  C   UNL     1      48.777   5.199  21.434  1.00  0.00     0.004 C 
ATOM      7  C   UNL     1      47.457   5.164  22.210  1.00  0.00     0.006 C 
ATOM      8  C   UNL     1      49.416   3.775  21.630  1.00  0.00    -0.020 C 
ATOM      9  C   UNL     1      47.001   3.715  22.271  1.00  0.00     0.012 C 
ATOM     10  C   UNL     1      48.145   2.823  21.708  1.00  0.00    -0.006 C 
ATOM     11  C   UNL     1      50.305   3.655  22.920  1.00  0.00     0.012 C 
ATOM     12  C   UNL     1      50.345   3.422  20.432  1.00  0.00     0.012 C 
ATOM     13  C   UNL     1      47.684   2.357  20.292  1.00  0.00     0.017 C 
ATOM     14  C   UNL     1      48.355   1.629  22.677  1.00  0.00    -0.064 C 
ATOM     15  C   UNL     1      49.542   3.206  24.161  1.00  0.00     0.032 C 
ATOM     16  C   UNL     1      48.928   1.838  23.902  1.00  0.00    -0.064 C 
ATOM     17  C   UNL     1      47.835   0.239  22.366  1.00  0.00     0.032 C 
ATOM     18  C   UNL     1      48.727   0.794  25.043  1.00  0.00    -0.008 C 
ATOM     19  C   UNL     1      48.795  -0.781  22.951  1.00  0.00     0.009 C 
ATOM     20  C   UNL     1      48.837  -0.718  24.509  1.00  0.00     0.007 C 
ATOM     21  C   UNL     1      47.329   1.132  25.636  1.00  0.00     0.014 C 
ATOM     22  C   UNL     1      49.802   1.004  26.148  1.00  0.00     0.016 C 
ATOM     23  C   UNL     1      47.955  -1.822  25.280  1.00  0.00    -0.006 C 
ATOM     24  C   UNL     1      46.767   0.060  26.556  1.00  0.00     0.033 C 
ATOM     25  C   UNL     1      46.596  -1.259  25.798  1.00  0.00     0.120 C 
ATOM     26  C   UNL     1      47.645  -3.070  24.404  1.00  0.00     0.014 C 
ATOM     27  C   UNL     1      48.750  -2.396  26.492  1.00  0.00     0.014 C 
BRANCH  25  28
ATOM     28  O   UNL     1      45.698  -1.075  24.730  1.00  0.00    -0.393 OA
ATOM     29  H   UNL     1      46.034  -1.619  23.969  1.00  0.00     0.210 HD
ENDBRANCH  25  28
ENDBRANCH   2   6
ENDBRANCH   1   2
BRANCH   1  30
ATOM     30  C   UNL     1      50.104   7.099  24.281  1.00  0.00     0.031 C 
BRANCH  30  31
ATOM     31  C   UNL     1      49.367   6.575  25.493  1.00  0.00    -0.075 C 
ATOM     32  C   UNL     1      50.059   5.971  26.478  1.00  0.00     0.008 C 
BRANCH  31  33
ATOM     33  C   UNL     1      47.853   6.703  25.555  1.00  0.00     0.008 C 
ATOM     34  C   UNL     1      47.190   5.368  25.921  1.00  0.00     0.012 C 
ATOM     35  C   UNL     1      47.432   7.814  26.522  1.00  0.00     0.012 C 
ENDBRANCH  31  33
ENDBRANCH  30  31
ENDBRANCH   1  30
TORSDOF 7
ENDMDL
MODEL 6
REMARK VINA RESULT:    -6.842      2.285      8.531
REMARK INTER + INTRA:         -11.585
REMARK INTER:                 -10.323
REMARK INTRA:                  -1.261
REMARK UNBOUND:                -2.144
REMARK SMILES C=C(CC[C@H](C(=O)[O-])[C@@H]1CC[C@]2(C)C3=C(CC[C@]12C)[C@@]1(C)CC[C@@H](O)C(C)(C)[C@H]1CC3)C(C)C
REMARK SMILES IDX 4 1 5 2 6 3 7 4 8 5 9 6 10 7 18 8 11 9 12 10 17 11 19 12
REMARK SMILES IDX 13 13 14 14 16 15 15 16 31 17 20 18 30 19 29 20 22 21 21 22
REMARK SMILES IDX 26 23 23 24 24 25 27 26 28 27 25 28 3 30 2 31 1 32 32 33
REMARK SMILES IDX 33 34 34 35
REMARK H PARENT 25 29
REMARK Flexibility Score: inf
ROOT
ATOM      1  C   UNL     1      49.099   8.575  22.529  1.00  0.00     0.014 C 
ENDROOT
BRANCH   1   2
ATOM      2  C   UNL     1      47.889   8.259  23.450  1.00  0.00     0.039 C 
BRANCH   2   3
ATOM      3  C   UNL     1      47.413   9.520  24.124  1.00  0.00     0.045 C 
ATOM      4  O   UNL     1      47.068   9.516  25.335  1.00  0.00    -0.550 OA
ATOM      5  O   UNL     1      47.388  10.713  23.414  1.00  0.00    -0.550 OA
ENDBRANCH   2   3
BRANCH   2   6
ATOM      6  C   UNL     1      48.145   7.089  24.461  1.00  0.00     0.004 C 
ATOM      7  C   UNL     1      49.622   6.686  24.491  1.00  0.00     0.006 C 
ATOM      8  C   UNL     1      47.347   5.743  24.296  1.00  0.00    -0.020 C 
ATOM      9  C   UNL     1      49.694   5.254  24.999  1.00  0.00     0.012 C 
ATOM     10  C   UNL     1      48.244   4.699  25.091  1.00  0.00    -0.006 C 
ATOM     11  C   UNL     1      47.145   5.309  22.800  1.00  0.00     0.012 C 
ATOM     12  C   UNL     1      45.919   5.876  24.903  1.00  0.00     0.012 C 
ATOM     13  C   UNL     1      47.881   4.660  26.608  1.00  0.00     0.017 C 
ATOM     14  C   UNL     1      48.222   3.286  24.448  1.00  0.00    -0.064 C 
ATOM     15  C   UNL     1      48.259   4.421  22.255  1.00  0.00     0.032 C 
ATOM     16  C   UNL     1      48.340   3.152  23.091  1.00  0.00    -0.064 C 
ATOM     17  C   UNL     1      48.194   2.022  25.285  1.00  0.00     0.032 C 
ATOM     18  C   UNL     1      48.784   1.788  22.479  1.00  0.00    -0.008 C 
ATOM     19  C   UNL     1      47.395   0.966  24.543  1.00  0.00     0.009 C 
ATOM     20  C   UNL     1      48.086   0.539  23.210  1.00  0.00     0.007 C 
ATOM     21  C   UNL     1      50.333   1.787  22.618  1.00  0.00     0.014 C 
ATOM     22  C   UNL     1      48.418   1.742  20.969  1.00  0.00     0.016 C 
ATOM     23  C   UNL     1      48.930  -0.830  23.266  1.00  0.00    -0.006 C 
ATOM     24  C   UNL     1      50.979   0.432  22.379  1.00  0.00     0.033 C 
ATOM     25  C   UNL     1      50.465  -0.591  23.395  1.00  0.00     0.120 C 
ATOM     26  C   UNL     1      48.498  -1.763  24.434  1.00  0.00     0.014 C 
ATOM     27  C   UNL     1      48.665  -1.678  21.984  1.00  0.00     0.014 C 
BRANCH  25  28
ATOM     28  O   UNL     1      50.791  -0.167  24.697  1.00  0.00    -0.393 OA
ATOM     29  H   UNL     1      50.496   0.778  24.779  1.00  0.00     0.210 HD
ENDBRANCH  25  28
ENDBRANCH   2   6
ENDBRANCH   1   2
BRANCH   1  30
ATOM     30  C   UNL     1      49.165   7.760  21.224  1.00  0.00     0.031 C 
BRANCH  30  31
ATOM     31  C   UNL     1      49.049   8.677  20.027  1.00  0.00    -0.075 C 
ATOM     32  C   UNL     1      47.930   9.407  19.859  1.00  0.00     0.008 C 
BRANCH  31  33
ATOM     33  C   UNL     1      50.182   8.722  19.013  1.00  0.00     0.008 C 
ATOM     34  C   UNL     1      51.173   7.570  19.224  1.00  0.00     0.012 C 
ATOM     35  C   UNL     1      49.639   8.731  17.580  1.00  0.00     0.012 C 
ENDBRANCH  31  33
ENDBRANCH  30  31
ENDBRANCH   1  30
TORSDOF 7
ENDMDL
MODEL 7
REMARK VINA RESULT:    -6.835      2.897      5.567
REMARK INTER + INTRA:         -11.577
REMARK INTER:                 -10.270
REMARK INTRA:                  -1.307
REMARK UNBOUND:                -2.144
REMARK SMILES C=C(CC[C@H](C(=O)[O-])[C@@H]1CC[C@]2(C)C3=C(CC[C@]12C)[C@@]1(C)CC[C@@H](O)C(C)(C)[C@H]1CC3)C(C)C
REMARK SMILES IDX 4 1 5 2 6 3 7 4 8 5 9 6 10 7 18 8 11 9 12 10 17 11 19 12
REMARK SMILES IDX 13 13 14 14 16 15 15 16 31 17 20 18 30 19 29 20 22 21 21 22
REMARK SMILES IDX 26 23 23 24 24 25 27 26 28 27 25 28 3 30 2 31 1 32 32 33
REMARK SMILES IDX 33 34 34 35
REMARK H PARENT 25 29
REMARK Flexibility Score: inf
ROOT
ATOM      1  C   UNL     1      48.927   1.942  20.638  1.00  0.00     0.014 C 
ENDROOT
BRANCH   1   2
ATOM      2  C   UNL     1      48.057   1.701  21.902  1.00  0.00     0.039 C 
BRANCH   2   3
ATOM      3  C   UNL     1      47.733   0.235  22.032  1.00  0.00     0.045 C 
ATOM      4  O   UNL     1      48.596  -0.644  21.770  1.00  0.00    -0.550 OA
ATOM      5  O   UNL     1      46.478  -0.156  22.480  1.00  0.00    -0.550 OA
ENDBRANCH   2   3
BRANCH   2   6
ATOM      6  C   UNL     1      46.785   2.614  21.984  1.00  0.00     0.004 C 
ATOM      7  C   UNL     1      46.534   3.345  20.662  1.00  0.00     0.006 C 
ATOM      8  C   UNL     1      46.706   3.722  23.098  1.00  0.00    -0.020 C 
ATOM      9  C   UNL     1      45.706   4.583  20.975  1.00  0.00     0.012 C 
ATOM     10  C   UNL     1      45.616   4.727  22.521  1.00  0.00    -0.006 C 
ATOM     11  C   UNL     1      48.074   4.447  23.365  1.00  0.00     0.012 C 
ATOM     12  C   UNL     1      46.274   3.101  24.458  1.00  0.00     0.012 C 
ATOM     13  C   UNL     1      44.169   4.304  22.922  1.00  0.00     0.017 C 
ATOM     14  C   UNL     1      45.916   6.205  22.891  1.00  0.00    -0.064 C 
ATOM     15  C   UNL     1      48.300   5.685  22.505  1.00  0.00     0.032 C 
ATOM     16  C   UNL     1      47.190   6.691  22.776  1.00  0.00    -0.064 C 
ATOM     17  C   UNL     1      44.818   7.179  23.266  1.00  0.00     0.032 C 
ATOM     18  C   UNL     1      47.431   8.230  22.684  1.00  0.00    -0.008 C 
ATOM     19  C   UNL     1      45.364   8.157  24.291  1.00  0.00     0.009 C 
ATOM     20  C   UNL     1      46.496   9.052  23.700  1.00  0.00     0.007 C 
ATOM     21  C   UNL     1      47.161   8.575  21.191  1.00  0.00     0.014 C 
ATOM     22  C   UNL     1      48.917   8.553  23.010  1.00  0.00     0.016 C 
ATOM     23  C   UNL     1      46.054  10.529  23.239  1.00  0.00    -0.006 C 
ATOM     24  C   UNL     1      47.023  10.063  20.911  1.00  0.00     0.033 C 
ATOM     25  C   UNL     1      45.848  10.648  21.699  1.00  0.00     0.120 C 
ATOM     26  C   UNL     1      44.745  11.014  23.928  1.00  0.00     0.014 C 
ATOM     27  C   UNL     1      47.124  11.574  23.681  1.00  0.00     0.014 C 
BRANCH  25  28
ATOM     28  O   UNL     1      44.655  10.011  21.309  1.00  0.00    -0.393 OA
ATOM     29  H   UNL     1      44.905   9.122  20.944  1.00  0.00     0.210 HD
ENDBRANCH  25  28
ENDBRANCH   2   6
ENDBRANCH   1   2
BRANCH   1  30
ATOM     30  C   UNL     1      50.074   2.955  20.810  1.00  0.00     0.031 C 
BRANCH  30  31
ATOM     31  C   UNL     1      51.411   2.259  20.705  1.00  0.00    -0.075 C 
ATOM     32  C   UNL     1      51.798   1.417  21.682  1.00  0.00     0.008 C 
BRANCH  31  33
ATOM     33  C   UNL     1      52.312   2.556  19.516  1.00  0.00     0.008 C 
ATOM     34  C   UNL     1      51.920   3.869  18.826  1.00  0.00     0.012 C 
ATOM     35  C   UNL     1      53.787   2.567  19.931  1.00  0.00     0.012 C 
ENDBRANCH  31  33
ENDBRANCH  30  31
ENDBRANCH   1  30
TORSDOF 7
ENDMDL
MODEL 8
REMARK VINA RESULT:    -6.659      3.081      5.485
REMARK INTER + INTRA:         -11.333
REMARK INTER:                  -9.421
REMARK INTRA:                  -1.912
REMARK UNBOUND:                -2.144
REMARK SMILES C=C(CC[C@H](C(=O)[O-])[C@@H]1CC[C@]2(C)C3=C(CC[C@]12C)[C@@]1(C)CC[C@@H](O)C(C)(C)[C@H]1CC3)C(C)C
REMARK SMILES IDX 4 1 5 2 6 3 7 4 8 5 9 6 10 7 18 8 11 9 12 10 17 11 19 12
REMARK SMILES IDX 13 13 14 14 16 15 15 16 31 17 20 18 30 19 29 20 22 21 21 22
REMARK SMILES IDX 26 23 23 24 24 25 27 26 28 27 25 28 3 30 2 31 1 32 32 33
REMARK SMILES IDX 33 34 34 35
REMARK H PARENT 25 29
REMARK Flexibility Score: inf
ROOT
ATOM      1  C   UNL     1      46.416   1.250  22.508  1.00  0.00     0.014 C 
ENDROOT
BRANCH   1   2
ATOM      2  C   UNL     1      47.720   2.083  22.646  1.00  0.00     0.039 C 
BRANCH   2   3
ATOM      3  C   UNL     1      48.888   1.169  22.913  1.00  0.00     0.045 C 
ATOM      4  O   UNL     1      49.428   0.519  21.980  1.00  0.00    -0.550 OA
ATOM      5  O   UNL     1      49.402   1.066  24.199  1.00  0.00    -0.550 OA
ENDBRANCH   2   3
BRANCH   2   6
ATOM      6  C   UNL     1      47.619   3.259  23.678  1.00  0.00     0.004 C 
ATOM      7  C   UNL     1      46.162   3.610  23.987  1.00  0.00     0.006 C 
ATOM      8  C   UNL     1      48.321   4.628  23.352  1.00  0.00    -0.020 C 
ATOM      9  C   UNL     1      46.135   5.047  24.488  1.00  0.00     0.012 C 
ATOM     10  C   UNL     1      47.554   5.653  24.295  1.00  0.00    -0.006 C 
ATOM     11  C   UNL     1      48.217   5.047  21.841  1.00  0.00     0.012 C 
ATOM     12  C   UNL     1      49.842   4.554  23.675  1.00  0.00     0.012 C 
ATOM     13  C   UNL     1      48.199   5.727  25.714  1.00  0.00     0.017 C 
ATOM     14  C   UNL     1      47.401   7.056  23.649  1.00  0.00    -0.064 C 
ATOM     15  C   UNL     1      46.987   5.887  21.513  1.00  0.00     0.032 C 
ATOM     16  C   UNL     1      47.021   7.166  22.339  1.00  0.00    -0.064 C 
ATOM     17  C   UNL     1      47.542   8.333  24.454  1.00  0.00     0.032 C 
ATOM     18  C   UNL     1      46.418   8.504  21.812  1.00  0.00    -0.008 C 
ATOM     19  C   UNL     1      48.145   9.405  23.564  1.00  0.00     0.009 C 
ATOM     20  C   UNL     1      47.197   9.787  22.385  1.00  0.00     0.007 C 
ATOM     21  C   UNL     1      44.925   8.453  22.244  1.00  0.00     0.014 C 
ATOM     22  C   UNL     1      46.487   8.540  20.259  1.00  0.00     0.016 C 
ATOM     23  C   UNL     1      46.329  11.127  22.590  1.00  0.00    -0.006 C 
ATOM     24  C   UNL     1      44.196   9.782  22.123  1.00  0.00     0.033 C 
ATOM     25  C   UNL     1      44.857  10.837  23.013  1.00  0.00     0.120 C 
ATOM     26  C   UNL     1      46.942  12.092  23.646  1.00  0.00     0.014 C 
ATOM     27  C   UNL     1      46.313  11.965  21.274  1.00  0.00     0.014 C 
BRANCH  25  28
ATOM     28  O   UNL     1      44.802  10.422  24.357  1.00  0.00    -0.393 OA
ATOM     29  H   UNL     1      43.921   9.983  24.491  1.00  0.00     0.210 HD
ENDBRANCH  25  28
ENDBRANCH   2   6
ENDBRANCH   1   2
BRANCH   1  30
ATOM     30  C   UNL     1      45.711   1.351  21.142  1.00  0.00     0.031 C 
BRANCH  30  31
ATOM     31  C   UNL     1      44.267   1.759  21.327  1.00  0.00    -0.075 C 
ATOM     32  C   UNL     1      43.426   0.937  21.984  1.00  0.00     0.008 C 
BRANCH  31  33
ATOM     33  C   UNL     1      43.783   3.071  20.728  1.00  0.00     0.008 C 
ATOM     34  C   UNL     1      43.255   4.023  21.810  1.00  0.00     0.012 C 
ATOM     35  C   UNL     1      44.883   3.736  19.894  1.00  0.00     0.012 C 
ENDBRANCH  31  33
ENDBRANCH  30  31
ENDBRANCH   1  30
TORSDOF 7
ENDMDL
MODEL 9
REMARK VINA RESULT:    -6.636      2.919      6.795
REMARK INTER + INTRA:         -11.301
REMARK INTER:                  -9.742
REMARK INTRA:                  -1.559
REMARK UNBOUND:                -2.144
REMARK SMILES C=C(CC[C@H](C(=O)[O-])[C@@H]1CC[C@]2(C)C3=C(CC[C@]12C)[C@@]1(C)CC[C@@H](O)C(C)(C)[C@H]1CC3)C(C)C
REMARK SMILES IDX 4 1 5 2 6 3 7 4 8 5 9 6 10 7 18 8 11 9 12 10 17 11 19 12
REMARK SMILES IDX 13 13 14 14 16 15 15 16 31 17 20 18 30 19 29 20 22 21 21 22
REMARK SMILES IDX 26 23 23 24 24 25 27 26 28 27 25 28 3 30 2 31 1 32 32 33
REMARK SMILES IDX 33 34 34 35
REMARK H PARENT 25 29
REMARK Flexibility Score: inf
ROOT
ATOM      1  C   UNL     1      50.064   4.329  20.626  1.00  0.00     0.014 C 
ENDROOT
BRANCH   1   2
ATOM      2  C   UNL     1      50.698   2.976  21.051  1.00  0.00     0.039 C 
BRANCH   2   3
ATOM      3  C   UNL     1      51.872   2.657  20.162  1.00  0.00     0.045 C 
ATOM      4  O   UNL     1      52.838   1.968  20.587  1.00  0.00    -0.550 OA
ATOM      5  O   UNL     1      51.878   3.095  18.844  1.00  0.00    -0.550 OA
ENDBRANCH   2   3
BRANCH   2   6
ATOM      6  C   UNL     1      49.672   1.794  21.150  1.00  0.00     0.004 C 
ATOM      7  C   UNL     1      48.294   2.202  20.622  1.00  0.00     0.006 C 
ATOM      8  C   UNL     1      49.404   1.126  22.549  1.00  0.00    -0.020 C 
ATOM      9  C   UNL     1      47.269   1.277  21.259  1.00  0.00     0.012 C 
ATOM     10  C   UNL     1      47.991   0.425  22.342  1.00  0.00    -0.006 C 
ATOM     11  C   UNL     1      49.371   2.149  23.741  1.00  0.00     0.012 C 
ATOM     12  C   UNL     1      50.525   0.102  22.890  1.00  0.00     0.012 C 
ATOM     13  C   UNL     1      48.139  -1.010  21.750  1.00  0.00     0.017 C 
ATOM     14  C   UNL     1      47.126   0.440  23.631  1.00  0.00    -0.064 C 
ATOM     15  C   UNL     1      47.987   2.721  24.031  1.00  0.00     0.032 C 
ATOM     16  C   UNL     1      47.040   1.582  24.381  1.00  0.00    -0.064 C 
ATOM     17  C   UNL     1      46.264  -0.739  24.035  1.00  0.00     0.032 C 
ATOM     18  C   UNL     1      45.854   1.772  25.376  1.00  0.00    -0.008 C 
ATOM     19  C   UNL     1      46.225  -0.816  25.551  1.00  0.00     0.009 C 
ATOM     20  C   UNL     1      45.514   0.423  26.180  1.00  0.00     0.007 C 
ATOM     21  C   UNL     1      44.677   2.264  24.485  1.00  0.00     0.014 C 
ATOM     22  C   UNL     1      46.200   2.884  26.405  1.00  0.00     0.016 C 
ATOM     23  C   UNL     1      43.978   0.206  26.610  1.00  0.00    -0.006 C 
ATOM     24  C   UNL     1      43.319   2.222  25.168  1.00  0.00     0.033 C 
ATOM     25  C   UNL     1      42.970   0.788  25.573  1.00  0.00     0.120 C 
ATOM     26  C   UNL     1      43.615  -1.291  26.832  1.00  0.00     0.014 C 
ATOM     27  C   UNL     1      43.708   0.871  27.995  1.00  0.00     0.014 C 
BRANCH  25  28
ATOM     28  O   UNL     1      42.915  -0.026  24.427  1.00  0.00    -0.393 OA
ATOM     29  H   UNL     1      42.054   0.167  23.972  1.00  0.00     0.210 HD
ENDBRANCH  25  28
ENDBRANCH   2   6
ENDBRANCH   1   2
BRANCH   1  30
ATOM     30  C   UNL     1      49.588   5.225  21.784  1.00  0.00     0.031 C 
BRANCH  30  31
ATOM     31  C   UNL     1      49.026   6.522  21.247  1.00  0.00    -0.075 C 
ATOM     32  C   UNL     1      49.858   7.424  20.693  1.00  0.00     0.008 C 
BRANCH  31  33
ATOM     33  C   UNL     1      47.537   6.799  21.381  1.00  0.00     0.008 C 
ATOM     34  C   UNL     1      47.022   7.682  20.237  1.00  0.00     0.012 C 
ATOM     35  C   UNL     1      46.738   5.494  21.476  1.00  0.00     0.012 C 
ENDBRANCH  31  33
ENDBRANCH  30  31
ENDBRANCH   1  30
TORSDOF 7
ENDMDL
