MODEL 1
REMARK VINA RESULT:    22.236      0.000      0.000
REMARK INTER + INTRA:          22.886
REMARK INTER:                  22.886
REMARK INTRA:                   0.000
REMARK UNBOUND:                 0.000
REMARK SMILES CC1(C)CC[C@]2(C)CC[C@]3(C)C(=CC[C@@H]4[C@@]5(C)CC[C@@H](O)C(C)(C)[C@H]5CC[C@@]43C)[C@@H]2C1
REMARK SMILES IDX 1 1 2 2 4 3 5 4 6 5 8 6 9 7 10 8 12 9 13 10 14 11 15 12
REMARK SMILES IDX 28 13 27 14 26 15 25 16 16 17 18 18 19 19 20 20 22 21 23 22
REMARK SMILES IDX 24 23 17 24 29 25 30 26 31 27 11 28 7 29 3 30 21 31
REMARK H PARENT 21 32
REMARK Flexibility Score: inf
ROOT
ATOM      1  C   UNL     1     133.113 125.874 137.668  1.00  0.00     0.011 C 
ATOM      2  C   UNL     1     131.718 126.475 137.389  1.00  0.00    -0.035 C 
ATOM      3  C   UNL     1     130.877 126.432 138.703  1.00  0.00     0.007 C 
ATOM      4  C   UNL     1     129.851 127.569 138.758  1.00  0.00     0.008 C 
ATOM      5  C   UNL     1     130.530 128.983 138.783  1.00  0.00    -0.026 C 
ATOM      6  C   UNL     1     129.544 129.982 138.132  1.00  0.00     0.008 C 
ATOM      7  C   UNL     1     130.093 131.406 138.093  1.00  0.00     0.012 C 
ATOM      8  C   UNL     1     131.420 131.541 137.257  1.00  0.00    -0.006 C 
ATOM      9  C   UNL     1     132.350 130.343 137.471  1.00  0.00    -0.064 C 
ATOM     10  C   UNL     1     133.619 130.447 137.039  1.00  0.00    -0.027 C 
ATOM     11  C   UNL     1     134.096 131.626 136.244  1.00  0.00     0.032 C 
ATOM     12  C   UNL     1     133.577 133.027 136.750  1.00  0.00     0.006 C 
ATOM     13  C   UNL     1     132.237 132.896 137.613  1.00  0.00    -0.020 C 
ATOM     14  C   UNL     1     132.633 132.978 139.139  1.00  0.00     0.008 C 
ATOM     15  C   UNL     1     134.051 132.509 139.518  1.00  0.00     0.005 C 
ATOM     16  C   UNL     1     135.259 133.126 138.720  1.00  0.00     0.003 C 
ATOM     17  C   UNL     1     134.777 133.865 137.406  1.00  0.00    -0.025 C 
ATOM     18  C   UNL     1     134.377 135.341 137.745  1.00  0.00     0.010 C 
ATOM     19  C   UNL     1     135.428 136.117 138.555  1.00  0.00     0.033 C 
ATOM     20  C   UNL     1     135.784 135.393 139.867  1.00  0.00     0.120 C 
ATOM     21  C   UNL     1     136.296 133.944 139.616  1.00  0.00    -0.006 C 
ATOM     22  C   UNL     1     136.563 133.245 140.986  1.00  0.00     0.014 C 
ATOM     23  C   UNL     1     137.699 133.993 138.940  1.00  0.00     0.014 C 
ATOM     24  C   UNL     1     135.914 133.956 136.322  1.00  0.00     0.012 C 
ATOM     25  C   UNL     1     131.276 134.091 137.292  1.00  0.00     0.012 C 
ATOM     26  C   UNL     1     131.895 128.978 138.007  1.00  0.00     0.022 C 
ATOM     27  C   UNL     1     131.869 127.935 136.860  1.00  0.00     0.015 C 
ATOM     28  C   UNL     1     130.979 131.506 135.751  1.00  0.00     0.017 C 
ATOM     29  C   UNL     1     130.785 129.362 140.265  1.00  0.00     0.012 C 
ATOM     30  C   UNL     1     131.032 125.617 136.304  1.00  0.00     0.011 C 
ENDROOT
BRANCH  20  31
ATOM     31  O   UNL     1     134.660 135.373 140.712  1.00  0.00    -0.393 OA
ATOM     32  H   UNL     1     133.984 135.979 140.312  1.00  0.00     0.210 HD
ENDBRANCH  20  31
TORSDOF 1
ENDMDL
MODEL 2
REMARK VINA RESULT:    23.596      0.222      0.222
REMARK INTER + INTRA:          24.285
REMARK INTER:                  24.285
REMARK INTRA:                   0.000
REMARK UNBOUND:                 0.000
REMARK SMILES CC1(C)CC[C@]2(C)CC[C@]3(C)C(=CC[C@@H]4[C@@]5(C)CC[C@@H](O)C(C)(C)[C@H]5CC[C@@]43C)[C@@H]2C1
REMARK SMILES IDX 1 1 2 2 4 3 5 4 6 5 8 6 9 7 10 8 12 9 13 10 14 11 15 12
REMARK SMILES IDX 28 13 27 14 26 15 25 16 16 17 18 18 19 19 20 20 22 21 23 22
REMARK SMILES IDX 24 23 17 24 29 25 30 26 31 27 11 28 7 29 3 30 21 31
REMARK H PARENT 21 32
REMARK Flexibility Score: inf
ROOT
ATOM      1  C   UNL     1     133.168 125.736 138.040  1.00  0.00     0.011 C 
ATOM      2  C   UNL     1     131.779 126.300 137.665  1.00  0.00    -0.035 C 
ATOM      3  C   UNL     1     130.882 126.324 138.941  1.00  0.00     0.007 C 
ATOM      4  C   UNL     1     129.842 127.448 138.883  1.00  0.00     0.008 C 
ATOM      5  C   UNL     1     130.502 128.870 138.852  1.00  0.00    -0.026 C 
ATOM      6  C   UNL     1     129.534 129.815 138.100  1.00  0.00     0.008 C 
ATOM      7  C   UNL     1     130.069 131.241 138.000  1.00  0.00     0.012 C 
ATOM      8  C   UNL     1     131.430 131.345 137.216  1.00  0.00    -0.006 C 
ATOM      9  C   UNL     1     132.363 130.175 137.543  1.00  0.00    -0.064 C 
ATOM     10  C   UNL     1     133.648 130.271 137.160  1.00  0.00    -0.027 C 
ATOM     11  C   UNL     1     134.147 131.407 136.317  1.00  0.00     0.032 C 
ATOM     12  C   UNL     1     133.590 132.828 136.715  1.00  0.00     0.006 C 
ATOM     13  C   UNL     1     132.215 132.730 137.525  1.00  0.00    -0.020 C 
ATOM     14  C   UNL     1     132.542 132.908 139.060  1.00  0.00     0.008 C 
ATOM     15  C   UNL     1     133.947 132.482 139.527  1.00  0.00     0.005 C 
ATOM     16  C   UNL     1     135.182 133.067 138.747  1.00  0.00     0.003 C 
ATOM     17  C   UNL     1     134.750 133.720 137.372  1.00  0.00    -0.025 C 
ATOM     18  C   UNL     1     134.319 135.208 137.604  1.00  0.00     0.010 C 
ATOM     19  C   UNL     1     135.324 136.046 138.411  1.00  0.00     0.033 C 
ATOM     20  C   UNL     1     135.630 135.406 139.779  1.00  0.00     0.120 C 
ATOM     21  C   UNL     1     136.169 133.952 139.638  1.00  0.00    -0.006 C 
ATOM     22  C   UNL     1     136.383 133.339 141.057  1.00  0.00     0.014 C 
ATOM     23  C   UNL     1     137.599 133.981 139.021  1.00  0.00     0.014 C 
ATOM     24  C   UNL     1     135.933 133.763 136.335  1.00  0.00     0.012 C 
ATOM     25  C   UNL     1     131.255 133.890 137.091  1.00  0.00     0.012 C 
ATOM     26  C   UNL     1     131.900 128.838 138.138  1.00  0.00     0.022 C 
ATOM     27  C   UNL     1     131.937 127.728 137.056  1.00  0.00     0.015 C 
ATOM     28  C   UNL     1     131.057 131.214 135.697  1.00  0.00     0.017 C 
ATOM     29  C   UNL     1     130.687 129.340 140.319  1.00  0.00     0.012 C 
ATOM     30  C   UNL     1     131.152 125.370 136.604  1.00  0.00     0.011 C 
ENDROOT
BRANCH  20  31
ATOM     31  O   UNL     1     134.469 135.420 140.573  1.00  0.00    -0.393 OA
ATOM     32  H   UNL     1     134.081 136.331 140.506  1.00  0.00     0.210 HD
ENDBRANCH  20  31
TORSDOF 1
ENDMDL
