MODEL 1
REMARK VINA RESULT:    -4.814      0.000      0.000
REMARK INTER + INTRA:          -5.530
REMARK INTER:                  -6.784
REMARK INTRA:                   1.254
REMARK UNBOUND:                 1.254
REMARK SMILES CC1=CCC(=C(C)C)C(=O)CC(C)=CCC1
REMARK SMILES IDX 12 1 14 2 13 3 15 4 16 5 2 6 1 7 3 8 11 10 9 11 10 12 5 13
REMARK SMILES IDX 6 14 7 15 8 16 4 17
REMARK H PARENT
REMARK Flexibility Score: 60.00
ROOT
ATOM      1  C   UNL     1      31.738  19.096  23.944  1.00  0.00    -0.070 C 
ATOM      2  C   UNL     1      32.130  20.386  24.047  1.00  0.00    -0.027 C 
ATOM      3  C   UNL     1      32.489  18.206  22.985  1.00  0.00     0.039 C 
ENDROOT
BRANCH   2   4
ATOM      4  C   UNL     1      31.569  21.403  25.017  1.00  0.00     0.032 C 
BRANCH   4   5
ATOM      5  C   UNL     1      32.613  22.055  25.946  1.00  0.00     0.034 C 
BRANCH   5   6
ATOM      6  C   UNL     1      33.479  21.044  26.677  1.00  0.00    -0.077 C 
ATOM      7  C   UNL     1      34.971  21.260  26.663  1.00  0.00     0.039 C 
ATOM      8  C   UNL     1      32.995  20.002  27.397  1.00  0.00    -0.023 CG0
ATOM      9  G   UNL     1      31.546  19.583  27.538  1.00  0.00     0.000 G0
ENDBRANCH   5   6
ENDBRANCH   4   5
ENDBRANCH   2   4
BRANCH   1  10
ATOM     10  C   UNL     1      30.653  18.484  24.805  1.00  0.00     0.111 C 
BRANCH  10  11
ATOM     11  C   UNL     1      31.229  17.606  25.885  1.00  0.00     0.163 C 
ATOM     12  O   UNL     1      31.646  16.461  25.560  1.00  0.00    -0.294 OA
BRANCH  11  13
ATOM     13  C   UNL     1      31.379  18.067  27.298  1.00  0.00    -0.002 C 
ATOM     14  C   UNL     1      31.441  17.165  28.324  1.00  0.00    -0.069 C 
ATOM     15  C   UNL     1      31.750  17.587  29.743  1.00  0.00     0.039 C 
ATOM     16  C   UNL     1      31.202  15.689  28.087  1.00  0.00     0.039 C 
BRANCH  13  17
ATOM     17  C   UNL     1      31.555  19.558  27.528  1.00  0.00     0.066 CG0
ATOM     18  G   UNL     1      33.000  19.996  27.399  1.00  0.00     0.000 G0
ENDBRANCH  13  17
ENDBRANCH  11  13
ENDBRANCH  10  11
ENDBRANCH   1  10
TORSDOF 0
ENDMDL
MODEL 2
REMARK VINA RESULT:    -4.780      1.301      3.809
REMARK INTER + INTRA:          -5.482
REMARK INTER:                  -6.732
REMARK INTRA:                   1.251
REMARK UNBOUND:                 1.254
REMARK SMILES CC1=CCC(=C(C)C)C(=O)CC(C)=CCC1
REMARK SMILES IDX 12 1 14 2 13 3 15 4 16 5 2 6 1 7 3 8 11 10 9 11 10 12 5 13
REMARK SMILES IDX 6 14 7 15 8 16 4 17
REMARK H PARENT
REMARK Flexibility Score: 60.00
ROOT
ATOM      1  C   UNL     1      31.244  17.498  27.762  1.00  0.00    -0.070 C 
ATOM      2  C   UNL     1      30.865  18.724  28.186  1.00  0.00    -0.027 C 
ATOM      3  C   UNL     1      30.854  16.309  28.606  1.00  0.00     0.039 C 
ENDROOT
BRANCH   2   4
ATOM      4  C   UNL     1      31.076  20.021  27.434  1.00  0.00     0.032 C 
BRANCH   4   5
ATOM      5  C   UNL     1      32.384  20.763  27.777  1.00  0.00     0.034 C 
BRANCH   5   6
ATOM      6  C   UNL     1      33.355  20.833  26.611  1.00  0.00    -0.077 C 
ATOM      7  C   UNL     1      34.789  21.189  26.915  1.00  0.00     0.039 C 
ATOM      8  C   UNL     1      33.034  20.530  25.329  1.00  0.00    -0.023 CG0
ATOM      9  G   UNL     1      31.665  20.168  24.791  1.00  0.00     0.000 G0
ENDBRANCH   5   6
ENDBRANCH   4   5
ENDBRANCH   2   4
BRANCH   1  10
ATOM     10  C   UNL     1      31.954  17.254  26.447  1.00  0.00     0.111 C 
BRANCH  10  11
ATOM     11  C   UNL     1      31.121  17.701  25.274  1.00  0.00     0.163 C 
ATOM     12  O   UNL     1      29.958  17.227  25.157  1.00  0.00    -0.294 OA
BRANCH  11  13
ATOM     13  C   UNL     1      31.599  18.723  24.296  1.00  0.00    -0.002 C 
ATOM     14  C   UNL     1      31.878  18.375  23.003  1.00  0.00    -0.069 C 
ATOM     15  C   UNL     1      32.210  19.409  21.950  1.00  0.00     0.039 C 
ATOM     16  C   UNL     1      31.866  16.928  22.560  1.00  0.00     0.039 C 
BRANCH  13  17
ATOM     17  C   UNL     1      31.666  20.165  24.772  1.00  0.00     0.066 CG0
ATOM     18  G   UNL     1      33.034  20.529  25.315  1.00  0.00     0.000 G0
ENDBRANCH  13  17
ENDBRANCH  11  13
ENDBRANCH  10  11
ENDBRANCH   1  10
TORSDOF 0
ENDMDL
MODEL 3
REMARK VINA RESULT:    -4.641     13.895     15.174
REMARK INTER + INTRA:          -5.285
REMARK INTER:                  -5.539
REMARK INTRA:                   0.254
REMARK UNBOUND:                 1.254
REMARK SMILES CC1=CCC(=C(C)C)C(=O)CC(C)=CCC1
REMARK SMILES IDX 12 1 14 2 13 3 15 4 16 5 2 6 1 7 3 8 11 10 9 11 10 12 5 13
REMARK SMILES IDX 6 14 7 15 8 16 4 17
REMARK H PARENT
REMARK Flexibility Score: 60.00
ROOT
ATOM      1  C   UNL     1      21.648  25.011  27.324  1.00  0.00    -0.070 C 
ATOM      2  C   UNL     1      21.401  23.922  26.562  1.00  0.00    -0.027 C 
ATOM      3  C   UNL     1      22.784  25.915  26.914  1.00  0.00     0.039 C 
ENDROOT
BRANCH   2   4
ATOM      4  C   UNL     1      20.253  22.954  26.751  1.00  0.00     0.032 C 
BRANCH   4   5
ATOM      5  C   UNL     1      18.895  23.447  26.212  1.00  0.00     0.034 C 
BRANCH   5   6
ATOM      6  C   UNL     1      17.795  23.434  27.259  1.00  0.00    -0.077 C 
ATOM      7  C   UNL     1      17.327  22.093  27.766  1.00  0.00     0.039 C 
ATOM      8  C   UNL     1      17.257  24.546  27.816  1.00  0.00    -0.023 CG0
ATOM      9  G   UNL     1      17.558  25.987  27.455  1.00  0.00     0.000 G0
ENDBRANCH   5   6
ENDBRANCH   4   5
ENDBRANCH   2   4
BRANCH   1  10
ATOM     10  C   UNL     1      20.788  25.413  28.504  1.00  0.00     0.111 C 
BRANCH  10  11
ATOM     11  C   UNL     1      19.946  26.623  28.191  1.00  0.00     0.163 C 
ATOM     12  O   UNL     1      20.500  27.602  27.622  1.00  0.00    -0.294 OA
BRANCH  11  13
ATOM     13  C   UNL     1      18.480  26.672  28.473  1.00  0.00    -0.002 C 
ATOM     14  C   UNL     1      17.998  27.369  29.546  1.00  0.00    -0.069 C 
ATOM     15  C   UNL     1      16.516  27.571  29.769  1.00  0.00     0.039 C 
ATOM     16  C   UNL     1      18.933  27.978  30.569  1.00  0.00     0.039 C 
BRANCH  13  17
ATOM     17  C   UNL     1      17.555  26.002  27.470  1.00  0.00     0.066 CG0
ATOM     18  G   UNL     1      17.269  24.557  27.826  1.00  0.00     0.000 G0
ENDBRANCH  13  17
ENDBRANCH  11  13
ENDBRANCH  10  11
ENDBRANCH   1  10
TORSDOF 0
ENDMDL
MODEL 4
REMARK VINA RESULT:    -4.622     13.018     13.858
REMARK INTER + INTRA:          -5.259
REMARK INTER:                  -5.617
REMARK INTRA:                   0.357
REMARK UNBOUND:                 1.254
REMARK SMILES CC1=CCC(=C(C)C)C(=O)CC(C)=CCC1
REMARK SMILES IDX 12 1 14 2 13 3 15 4 16 5 2 6 1 7 3 8 11 10 9 11 10 12 5 13
REMARK SMILES IDX 6 14 7 15 8 16 4 17
REMARK H PARENT
REMARK Flexibility Score: 60.00
ROOT
ATOM      1  C   UNL     1      20.653  23.151  25.855  1.00  0.00    -0.070 C 
ATOM      2  C   UNL     1      21.864  23.747  25.786  1.00  0.00    -0.027 C 
ATOM      3  C   UNL     1      20.168  22.397  24.641  1.00  0.00     0.039 C 
ENDROOT
BRANCH   2   4
ATOM      4  C   UNL     1      22.562  24.461  26.923  1.00  0.00     0.032 C 
BRANCH   4   5
ATOM      5  C   UNL     1      21.988  25.853  27.263  1.00  0.00     0.034 C 
BRANCH   5   6
ATOM      6  C   UNL     1      21.520  25.971  28.702  1.00  0.00    -0.077 C 
ATOM      7  C   UNL     1      22.565  25.900  29.787  1.00  0.00     0.039 C 
ATOM      8  C   UNL     1      20.237  26.206  29.072  1.00  0.00    -0.023 CG0
ATOM      9  G   UNL     1      19.026  26.296  28.165  1.00  0.00     0.000 G0
ENDBRANCH   5   6
ENDBRANCH   4   5
ENDBRANCH   2   4
BRANCH   1  10
ATOM     10  C   UNL     1      19.809  23.125  27.112  1.00  0.00     0.111 C 
BRANCH  10  11
ATOM     11  C   UNL     1      18.615  24.038  26.999  1.00  0.00     0.163 C 
ATOM     12  O   UNL     1      17.886  23.938  25.975  1.00  0.00    -0.294 OA
BRANCH  11  13
ATOM     13  C   UNL     1      18.239  25.000  28.077  1.00  0.00    -0.002 C 
ATOM     14  C   UNL     1      17.289  24.673  29.005  1.00  0.00    -0.069 C 
ATOM     15  C   UNL     1      16.998  25.555  30.198  1.00  0.00     0.039 C 
ATOM     16  C   UNL     1      16.477  23.402  28.881  1.00  0.00     0.039 C 
BRANCH  13  17
ATOM     17  C   UNL     1      19.019  26.302  28.152  1.00  0.00     0.066 CG0
ATOM     18  G   UNL     1      20.226  26.200  29.063  1.00  0.00     0.000 G0
ENDBRANCH  13  17
ENDBRANCH  11  13
ENDBRANCH  10  11
ENDBRANCH   1  10
TORSDOF 0
ENDMDL
MODEL 5
REMARK VINA RESULT:    -4.583     12.920     14.188
REMARK INTER + INTRA:          -5.204
REMARK INTER:                  -5.468
REMARK INTRA:                   0.265
REMARK UNBOUND:                 1.254
REMARK SMILES CC1=CCC(=C(C)C)C(=O)CC(C)=CCC1
REMARK SMILES IDX 12 1 14 2 13 3 15 4 16 5 2 6 1 7 3 8 11 10 9 11 10 12 5 13
REMARK SMILES IDX 6 14 7 15 8 16 4 17
REMARK H PARENT
REMARK Flexibility Score: 60.00
ROOT
ATOM      1  C   UNL     1      21.596  23.894  26.486  1.00  0.00    -0.070 C 
ATOM      2  C   UNL     1      20.449  23.317  26.064  1.00  0.00    -0.027 C 
ATOM      3  C   UNL     1      22.751  23.956  25.517  1.00  0.00     0.039 C 
ENDROOT
BRANCH   2   4
ATOM      4  C   UNL     1      19.157  23.246  26.849  1.00  0.00     0.032 C 
BRANCH   4   5
ATOM      5  C   UNL     1      18.296  24.525  26.796  1.00  0.00     0.034 C 
BRANCH   5   6
ATOM      6  C   UNL     1      17.965  25.081  28.171  1.00  0.00    -0.077 C 
ATOM      7  C   UNL     1      16.999  24.301  29.026  1.00  0.00     0.039 C 
ATOM      8  C   UNL     1      18.533  26.190  28.703  1.00  0.00    -0.023 CG0
ATOM      9  G   UNL     1      19.509  27.133  28.027  1.00  0.00     0.000 G0
ENDBRANCH   5   6
ENDBRANCH   4   5
ENDBRANCH   2   4
BRANCH   1  10
ATOM     10  C   UNL     1      21.746  24.557  27.839  1.00  0.00     0.111 C 
BRANCH  10  11
ATOM     11  C   UNL     1      21.820  26.057  27.717  1.00  0.00     0.163 C 
ATOM     12  O   UNL     1      22.619  26.545  26.872  1.00  0.00    -0.294 OA
BRANCH  11  13
ATOM     13  C   UNL     1      20.944  26.969  28.510  1.00  0.00    -0.002 C 
ATOM     14  C   UNL     1      21.447  27.678  29.566  1.00  0.00    -0.069 C 
ATOM     15  C   UNL     1      20.630  28.726  30.289  1.00  0.00     0.039 C 
ATOM     16  C   UNL     1      22.857  27.447  30.066  1.00  0.00     0.039 C 
BRANCH  13  17
ATOM     17  C   UNL     1      19.511  27.145  28.036  1.00  0.00     0.066 CG0
ATOM     18  G   UNL     1      18.556  26.186  28.719  1.00  0.00     0.000 G0
ENDBRANCH  13  17
ENDBRANCH  11  13
ENDBRANCH  10  11
ENDBRANCH   1  10
TORSDOF 0
ENDMDL
MODEL 6
REMARK VINA RESULT:    -4.565     15.050     16.167
REMARK INTER + INTRA:          -5.179
REMARK INTER:                  -5.333
REMARK INTRA:                   0.154
REMARK UNBOUND:                 1.254
REMARK SMILES CC1=CCC(=C(C)C)C(=O)CC(C)=CCC1
REMARK SMILES IDX 12 1 14 2 13 3 15 4 16 5 2 6 1 7 3 8 11 10 9 11 10 12 5 13
REMARK SMILES IDX 6 14 7 15 8 16 4 17
REMARK H PARENT
REMARK Flexibility Score: 60.00
ROOT
ATOM      1  C   UNL     1      16.520  22.357  27.354  1.00  0.00    -0.070 C 
ATOM      2  C   UNL     1      15.699  22.055  28.384  1.00  0.00    -0.027 C 
ATOM      3  C   UNL     1      16.014  22.113  25.954  1.00  0.00     0.039 C 
ENDROOT
BRANCH   2   4
ATOM      4  C   UNL     1      15.986  22.317  29.847  1.00  0.00     0.032 C 
BRANCH   4   5
ATOM      5  C   UNL     1      15.610  23.730  30.337  1.00  0.00     0.034 C 
BRANCH   5   6
ATOM      6  C   UNL     1      16.695  24.380  31.178  1.00  0.00    -0.077 C 
ATOM      7  C   UNL     1      16.924  23.836  32.566  1.00  0.00     0.039 C 
ATOM      8  C   UNL     1      17.515  25.366  30.739  1.00  0.00    -0.023 CG0
ATOM      9  G   UNL     1      17.459  26.073  29.399  1.00  0.00     0.000 G0
ENDBRANCH   5   6
ENDBRANCH   4   5
ENDBRANCH   2   4
BRANCH   1  10
ATOM     10  C   UNL     1      17.875  23.009  27.533  1.00  0.00     0.111 C 
BRANCH  10  11
ATOM     11  C   UNL     1      17.795  24.507  27.382  1.00  0.00     0.163 C 
ATOM     12  O   UNL     1      17.147  24.971  26.405  1.00  0.00    -0.294 OA
BRANCH  11  13
ATOM     13  C   UNL     1      18.398  25.445  28.375  1.00  0.00    -0.002 C 
ATOM     14  C   UNL     1      19.722  25.779  28.305  1.00  0.00    -0.069 C 
ATOM     15  C   UNL     1      20.327  26.844  29.192  1.00  0.00     0.039 C 
ATOM     16  C   UNL     1      20.653  25.095  27.327  1.00  0.00     0.039 C 
BRANCH  13  17
ATOM     17  C   UNL     1      17.464  26.077  29.393  1.00  0.00     0.066 CG0
ATOM     18  G   UNL     1      17.517  25.379  30.736  1.00  0.00     0.000 G0
ENDBRANCH  13  17
ENDBRANCH  11  13
ENDBRANCH  10  11
ENDBRANCH   1  10
TORSDOF 0
ENDMDL
MODEL 7
REMARK VINA RESULT:    -4.401     15.879     17.016
REMARK INTER + INTRA:          -4.947
REMARK INTER:                  -5.145
REMARK INTRA:                   0.198
REMARK UNBOUND:                 1.254
REMARK SMILES CC1=CCC(=C(C)C)C(=O)CC(C)=CCC1
REMARK SMILES IDX 12 1 14 2 13 3 15 4 16 5 2 6 1 7 3 8 11 10 9 11 10 12 5 13
REMARK SMILES IDX 6 14 7 15 8 16 4 17
REMARK H PARENT
REMARK Flexibility Score: 60.00
ROOT
ATOM      1  C   UNL     1      17.479  23.932  27.074  1.00  0.00    -0.070 C 
ATOM      2  C   UNL     1      16.927  22.843  27.654  1.00  0.00    -0.027 C 
ATOM      3  C   UNL     1      17.334  24.085  25.581  1.00  0.00     0.039 C 
ENDROOT
BRANCH   2   4
ATOM      4  C   UNL     1      16.882  22.562  29.141  1.00  0.00     0.032 C 
BRANCH   4   5
ATOM      5  C   UNL     1      15.872  23.419  29.931  1.00  0.00     0.034 C 
BRANCH   5   6
ATOM      6  C   UNL     1      16.472  24.059  31.172  1.00  0.00    -0.077 C 
ATOM      7  C   UNL     1      17.010  23.141  32.241  1.00  0.00     0.039 C 
ATOM      8  C   UNL     1      16.618  25.395  31.348  1.00  0.00    -0.023 CG0
ATOM      9  G   UNL     1      16.141  26.497  30.424  1.00  0.00     0.000 G0
ENDBRANCH   5   6
ENDBRANCH   4   5
ENDBRANCH   2   4
BRANCH   1  10
ATOM     10  C   UNL     1      18.149  25.042  27.857  1.00  0.00     0.111 C 
BRANCH  10  11
ATOM     11  C   UNL     1      17.205  26.189  28.114  1.00  0.00     0.163 C 
ATOM     12  O   UNL     1      16.379  26.491  27.211  1.00  0.00    -0.294 OA
BRANCH  11  13
ATOM     13  C   UNL     1      17.178  26.928  29.411  1.00  0.00    -0.002 C 
ATOM     14  C   UNL     1      18.010  27.992  29.627  1.00  0.00    -0.069 C 
ATOM     15  C   UNL     1      17.898  28.858  30.862  1.00  0.00     0.039 C 
ATOM     16  C   UNL     1      19.090  28.357  28.632  1.00  0.00     0.039 C 
BRANCH  13  17
ATOM     17  C   UNL     1      16.129  26.510  30.428  1.00  0.00     0.066 CG0
ATOM     18  G   UNL     1      16.618  25.402  31.339  1.00  0.00     0.000 G0
ENDBRANCH  13  17
ENDBRANCH  11  13
ENDBRANCH  10  11
ENDBRANCH   1  10
TORSDOF 0
ENDMDL
MODEL 8
REMARK VINA RESULT:    -4.354     15.199     16.608
REMARK INTER + INTRA:          -4.881
REMARK INTER:                  -5.081
REMARK INTRA:                   0.199
REMARK UNBOUND:                 1.254
REMARK SMILES CC1=CCC(=C(C)C)C(=O)CC(C)=CCC1
REMARK SMILES IDX 12 1 14 2 13 3 15 4 16 5 2 6 1 7 3 8 11 10 9 11 10 12 5 13
REMARK SMILES IDX 6 14 7 15 8 16 4 17
REMARK H PARENT
REMARK Flexibility Score: 60.00
ROOT
ATOM      1  C   UNL     1      20.941  26.484  28.030  1.00  0.00    -0.070 C 
ATOM      2  C   UNL     1      20.064  25.456  27.972  1.00  0.00    -0.027 C 
ATOM      3  C   UNL     1      22.412  26.161  27.939  1.00  0.00     0.039 C 
ENDROOT
BRANCH   2   4
ATOM      4  C   UNL     1      18.556  25.583  27.949  1.00  0.00     0.032 C 
BRANCH   4   5
ATOM      5  C   UNL     1      17.913  25.907  29.312  1.00  0.00     0.034 C 
BRANCH   5   6
ATOM      6  C   UNL     1      16.965  27.093  29.260  1.00  0.00    -0.077 C 
ATOM      7  C   UNL     1      15.705  26.946  28.445  1.00  0.00     0.039 C 
ATOM      8  C   UNL     1      17.144  28.245  29.951  1.00  0.00    -0.023 CG0
ATOM      9  G   UNL     1      18.333  28.619  30.813  1.00  0.00     0.000 G0
ENDBRANCH   5   6
ENDBRANCH   4   5
ENDBRANCH   2   4
BRANCH   1  10
ATOM     10  C   UNL     1      20.517  27.936  28.086  1.00  0.00     0.111 C 
BRANCH  10  11
ATOM     11  C   UNL     1      20.526  28.464  29.497  1.00  0.00     0.163 C 
ATOM     12  O   UNL     1      21.526  28.206  30.221  1.00  0.00    -0.294 OA
BRANCH  11  13
ATOM     13  C   UNL     1      19.432  29.324  30.037  1.00  0.00    -0.002 C 
ATOM     14  C   UNL     1      19.392  30.662  29.757  1.00  0.00    -0.069 C 
ATOM     15  C   UNL     1      18.217  31.529  30.154  1.00  0.00     0.039 C 
ATOM     16  C   UNL     1      20.529  31.345  29.029  1.00  0.00     0.039 C 
BRANCH  13  17
ATOM     17  C   UNL     1      18.327  28.636  30.822  1.00  0.00     0.066 CG0
ATOM     18  G   UNL     1      17.159  28.236  29.943  1.00  0.00     0.000 G0
ENDBRANCH  13  17
ENDBRANCH  11  13
ENDBRANCH  10  11
ENDBRANCH   1  10
TORSDOF 0
ENDMDL
MODEL 9
REMARK VINA RESULT:    -4.341     15.182     16.473
REMARK INTER + INTRA:          -4.863
REMARK INTER:                  -5.392
REMARK INTRA:                   0.529
REMARK UNBOUND:                 1.254
REMARK SMILES CC1=CCC(=C(C)C)C(=O)CC(C)=CCC1
REMARK SMILES IDX 12 1 14 2 13 3 15 4 16 5 2 6 1 7 3 8 11 10 9 11 10 12 5 13
REMARK SMILES IDX 6 14 7 15 8 16 4 17
REMARK H PARENT
REMARK Flexibility Score: 60.00
ROOT
ATOM      1  C   UNL     1      15.942  25.628  30.328  1.00  0.00    -0.070 C 
ATOM      2  C   UNL     1      14.953  24.716  30.459  1.00  0.00    -0.027 C 
ATOM      3  C   UNL     1      15.579  27.085  30.466  1.00  0.00     0.039 C 
ENDROOT
BRANCH   2   4
ATOM      4  C   UNL     1      15.131  23.213  30.451  1.00  0.00     0.032 C 
BRANCH   4   5
ATOM      5  C   UNL     1      15.177  22.574  29.048  1.00  0.00     0.034 C 
BRANCH   5   6
ATOM      6  C   UNL     1      16.500  21.892  28.744  1.00  0.00    -0.077 C 
ATOM      7  C   UNL     1      16.746  20.537  29.360  1.00  0.00     0.039 C 
ATOM      8  C   UNL     1      17.440  22.387  27.903  1.00  0.00    -0.023 CG0
ATOM      9  G   UNL     1      17.417  23.725  27.191  1.00  0.00     0.000 G0
ENDBRANCH   5   6
ENDBRANCH   4   5
ENDBRANCH   2   4
BRANCH   1  10
ATOM     10  C   UNL     1      17.398  25.255  30.145  1.00  0.00     0.111 C 
BRANCH  10  11
ATOM     11  C   UNL     1      17.915  25.679  28.794  1.00  0.00     0.163 C 
ATOM     12  O   UNL     1      17.957  26.913  28.536  1.00  0.00    -0.294 OA
BRANCH  11  13
ATOM     13  C   UNL     1      18.429  24.701  27.790  1.00  0.00    -0.002 C 
ATOM     14  C   UNL     1      19.764  24.636  27.499  1.00  0.00    -0.069 C 
ATOM     15  C   UNL     1      20.337  23.556  26.609  1.00  0.00     0.039 C 
ATOM     16  C   UNL     1      20.739  25.649  28.058  1.00  0.00     0.039 C 
BRANCH  13  17
ATOM     17  C   UNL     1      17.428  23.730  27.187  1.00  0.00     0.066 CG0
ATOM     18  G   UNL     1      17.444  22.382  27.880  1.00  0.00     0.000 G0
ENDBRANCH  13  17
ENDBRANCH  11  13
ENDBRANCH  10  11
ENDBRANCH   1  10
TORSDOF 0
ENDMDL
