MODEL 1
REMARK VINA RESULT:    -5.249      0.000      0.000
REMARK INTER + INTRA:         -10.419
REMARK INTER:                  -8.010
REMARK INTRA:                  -2.409
REMARK UNBOUND:                -2.409
REMARK SMILES CC(=O)CCC=C(C)CCC=C(C)CCC=C(C)C
REMARK SMILES IDX 10 1 11 2 12 3 13 4 14 5 15 6 16 7 18 8 17 9 19 10 9 11 7 12
REMARK SMILES IDX 6 13 8 14 5 15 4 16 2 17 3 18 1 19
REMARK H PARENT
REMARK Flexibility Score: inf
ROOT
ATOM      1  C   UNL     1       6.715 -18.887  23.699  1.00  0.00     0.032 C 
ENDROOT
BRANCH   1   2
ATOM      2  C   UNL     1       7.076 -17.439  23.911  1.00  0.00    -0.028 C 
ATOM      3  C   UNL     1       7.664 -16.654  22.979  1.00  0.00    -0.077 C 
ATOM      4  C   UNL     1       7.954 -17.154  21.583  1.00  0.00     0.039 C 
BRANCH   3   5
ATOM      5  C   UNL     1       8.024 -15.229  23.340  1.00  0.00     0.034 C 
BRANCH   5   6
ATOM      6  C   UNL     1       8.993 -15.198  24.527  1.00  0.00     0.032 C 
BRANCH   6   7
ATOM      7  C   UNL     1      10.318 -15.816  24.152  1.00  0.00    -0.028 C 
ATOM      8  C   UNL     1      12.194 -17.397  24.282  1.00  0.00     0.039 C 
ATOM      9  C   UNL     1      10.883 -16.860  24.796  1.00  0.00    -0.080 C 
ATOM     10  C   UNL     1      10.248 -17.486  26.017  1.00  0.00     0.039 C 
ENDBRANCH   6   7
ENDBRANCH   5   6
ENDBRANCH   3   5
ENDBRANCH   1   2
BRANCH   1  11
ATOM     11  C   UNL     1       7.769 -19.806  24.326  1.00  0.00     0.034 C 
BRANCH  11  12
ATOM     12  C   UNL     1       8.530 -20.559  23.258  1.00  0.00    -0.077 C 
ATOM     13  C   UNL     1       7.906 -21.553  22.585  1.00  0.00    -0.028 C 
ATOM     14  C   UNL     1       9.957 -20.163  22.953  1.00  0.00     0.039 C 
BRANCH  13  15
ATOM     15  C   UNL     1       8.558 -22.411  21.531  1.00  0.00     0.035 C 
BRANCH  15  16
ATOM     16  C   UNL     1       8.059 -22.027  20.135  1.00  0.00     0.079 C 
BRANCH  16  17
ATOM     17  C   UNL     1       9.015 -21.077  19.468  1.00  0.00     0.130 C 
ATOM     18  O   UNL     1      10.217 -21.289  19.524  1.00  0.00    -0.300 OA
ATOM     19  C   UNL     1       8.502 -19.887  18.716  1.00  0.00     0.087 C 
ENDBRANCH  16  17
ENDBRANCH  15  16
ENDBRANCH  13  15
ENDBRANCH  11  12
ENDBRANCH   1  11
TORSDOF 9
ENDMDL
MODEL 2
REMARK VINA RESULT:    -5.226      1.964      5.743
REMARK INTER + INTRA:         -10.384
REMARK INTER:                  -8.003
REMARK INTRA:                  -2.381
REMARK UNBOUND:                -2.409
REMARK SMILES CC(=O)CCC=C(C)CCC=C(C)CCC=C(C)C
REMARK SMILES IDX 10 1 11 2 12 3 13 4 14 5 15 6 16 7 18 8 17 9 19 10 9 11 7 12
REMARK SMILES IDX 6 13 8 14 5 15 4 16 2 17 3 18 1 19
REMARK H PARENT
REMARK Flexibility Score: inf
ROOT
ATOM      1  C   UNL     1       7.111 -15.577  20.766  1.00  0.00     0.032 C 
ENDROOT
BRANCH   1   2
ATOM      2  C   UNL     1       7.035 -16.974  20.206  1.00  0.00    -0.028 C 
ATOM      3  C   UNL     1       8.095 -17.806  20.082  1.00  0.00    -0.077 C 
ATOM      4  C   UNL     1       9.472 -17.422  20.572  1.00  0.00     0.039 C 
BRANCH   3   5
ATOM      5  C   UNL     1       7.891 -19.167  19.452  1.00  0.00     0.034 C 
BRANCH   5   6
ATOM      6  C   UNL     1       8.461 -20.271  20.350  1.00  0.00     0.032 C 
BRANCH   6   7
ATOM      7  C   UNL     1       7.506 -20.592  21.473  1.00  0.00    -0.028 C 
ATOM      8  C   UNL     1       6.732 -20.792  23.796  1.00  0.00     0.039 C 
ATOM      9  C   UNL     1       7.802 -20.472  22.786  1.00  0.00    -0.080 C 
ATOM     10  C   UNL     1       9.172 -20.044  23.261  1.00  0.00     0.039 C 
ENDBRANCH   6   7
ENDBRANCH   5   6
ENDBRANCH   3   5
ENDBRANCH   1   2
BRANCH   1  11
ATOM     11  C   UNL     1       6.385 -15.493  22.113  1.00  0.00     0.034 C 
BRANCH  11  12
ATOM     12  C   UNL     1       7.292 -15.928  23.241  1.00  0.00    -0.077 C 
ATOM     13  C   UNL     1       8.373 -15.171  23.543  1.00  0.00    -0.028 C 
ATOM     14  C   UNL     1       6.954 -17.180  24.018  1.00  0.00     0.039 C 
BRANCH  13  15
ATOM     15  C   UNL     1       9.382 -15.511  24.611  1.00  0.00     0.035 C 
BRANCH  15  16
ATOM     16  C   UNL     1      10.646 -16.113  23.990  1.00  0.00     0.079 C 
BRANCH  16  17
ATOM     17  C   UNL     1      11.274 -17.114  24.920  1.00  0.00     0.130 C 
ATOM     18  O   UNL     1      12.405 -17.520  24.699  1.00  0.00    -0.300 OA
ATOM     19  C   UNL     1      10.531 -17.598  26.128  1.00  0.00     0.087 C 
ENDBRANCH  16  17
ENDBRANCH  15  16
ENDBRANCH  13  15
ENDBRANCH  11  12
ENDBRANCH   1  11
TORSDOF 9
ENDMDL
MODEL 3
REMARK VINA RESULT:    -5.159      1.492      2.171
REMARK INTER + INTRA:         -10.282
REMARK INTER:                  -8.036
REMARK INTRA:                  -2.246
REMARK UNBOUND:                -2.409
REMARK SMILES CC(=O)CCC=C(C)CCC=C(C)CCC=C(C)C
REMARK SMILES IDX 10 1 11 2 12 3 13 4 14 5 15 6 16 7 18 8 17 9 19 10 9 11 7 12
REMARK SMILES IDX 6 13 8 14 5 15 4 16 2 17 3 18 1 19
REMARK H PARENT
REMARK Flexibility Score: inf
ROOT
ATOM      1  C   UNL     1       6.739 -18.099  24.173  1.00  0.00     0.032 C 
ENDROOT
BRANCH   1   2
ATOM      2  C   UNL     1       7.888 -17.165  24.458  1.00  0.00    -0.028 C 
ATOM      3  C   UNL     1       8.127 -16.020  23.778  1.00  0.00    -0.077 C 
ATOM      4  C   UNL     1       7.198 -15.528  22.693  1.00  0.00     0.039 C 
BRANCH   3   5
ATOM      5  C   UNL     1       9.349 -15.198  24.129  1.00  0.00     0.034 C 
BRANCH   5   6
ATOM      6  C   UNL     1      10.593 -16.088  24.219  1.00  0.00     0.032 C 
BRANCH   6   7
ATOM      7  C   UNL     1      10.956 -16.638  22.861  1.00  0.00    -0.028 C 
ATOM      8  C   UNL     1      11.411 -18.356  21.165  1.00  0.00     0.039 C 
ATOM      9  C   UNL     1      11.083 -17.953  22.579  1.00  0.00    -0.080 C 
ATOM     10  C   UNL     1      10.922 -19.018  23.640  1.00  0.00     0.039 C 
ENDBRANCH   6   7
ENDBRANCH   5   6
ENDBRANCH   3   5
ENDBRANCH   1   2
BRANCH   1  11
ATOM     11  C   UNL     1       7.207 -19.558  24.210  1.00  0.00     0.034 C 
BRANCH  11  12
ATOM     12  C   UNL     1       7.392 -20.099  22.810  1.00  0.00    -0.077 C 
ATOM     13  C   UNL     1       7.285 -21.432  22.602  1.00  0.00    -0.028 C 
ATOM     14  C   UNL     1       7.665 -19.135  21.678  1.00  0.00     0.039 C 
BRANCH  13  15
ATOM     15  C   UNL     1       7.489 -22.107  21.269  1.00  0.00     0.035 C 
BRANCH  15  16
ATOM     16  C   UNL     1       8.636 -23.119  21.345  1.00  0.00     0.079 C 
BRANCH  16  17
ATOM     17  C   UNL     1       9.966 -22.434  21.193  1.00  0.00     0.130 C 
ATOM     18  O   UNL     1      10.140 -21.647  20.275  1.00  0.00    -0.300 OA
ATOM     19  C   UNL     1      11.070 -22.692  22.172  1.00  0.00     0.087 C 
ENDBRANCH  16  17
ENDBRANCH  15  16
ENDBRANCH  13  15
ENDBRANCH  11  12
ENDBRANCH   1  11
TORSDOF 9
ENDMDL
MODEL 4
REMARK VINA RESULT:    -5.109      2.471      6.078
REMARK INTER + INTRA:         -10.206
REMARK INTER:                  -8.129
REMARK INTRA:                  -2.076
REMARK UNBOUND:                -2.409
REMARK SMILES CC(=O)CCC=C(C)CCC=C(C)CCC=C(C)C
REMARK SMILES IDX 10 1 11 2 12 3 13 4 14 5 15 6 16 7 18 8 17 9 19 10 9 11 7 12
REMARK SMILES IDX 6 13 8 14 5 15 4 16 2 17 3 18 1 19
REMARK H PARENT
REMARK Flexibility Score: inf
ROOT
ATOM      1  C   UNL     1       7.555 -19.576  19.993  1.00  0.00     0.032 C 
ENDROOT
BRANCH   1   2
ATOM      2  C   UNL     1       7.928 -20.999  20.323  1.00  0.00    -0.028 C 
ATOM      3  C   UNL     1       7.570 -21.638  21.460  1.00  0.00    -0.077 C 
ATOM      4  C   UNL     1       6.682 -20.988  22.495  1.00  0.00     0.039 C 
BRANCH   3   5
ATOM      5  C   UNL     1       8.056 -23.053  21.692  1.00  0.00     0.034 C 
BRANCH   5   6
ATOM      6  C   UNL     1       9.469 -23.240  21.129  1.00  0.00     0.032 C 
BRANCH   6   7
ATOM      7  C   UNL     1      10.507 -22.788  22.126  1.00  0.00    -0.028 C 
ATOM      8  C   UNL     1      12.493 -21.592  22.939  1.00  0.00     0.039 C 
ATOM      9  C   UNL     1      11.558 -21.994  21.828  1.00  0.00    -0.080 C 
ATOM     10  C   UNL     1      11.827 -21.517  20.418  1.00  0.00     0.039 C 
ENDBRANCH   6   7
ENDBRANCH   5   6
ENDBRANCH   3   5
ENDBRANCH   1   2
BRANCH   1  11
ATOM     11  C   UNL     1       8.702 -18.621  20.344  1.00  0.00     0.034 C 
BRANCH  11  12
ATOM     12  C   UNL     1       8.564 -18.112  21.761  1.00  0.00    -0.077 C 
ATOM     13  C   UNL     1       7.609 -17.195  22.039  1.00  0.00    -0.028 C 
ATOM     14  C   UNL     1       9.477 -18.661  22.833  1.00  0.00     0.039 C 
BRANCH  13  15
ATOM     15  C   UNL     1       7.391 -16.572  23.394  1.00  0.00     0.035 C 
BRANCH  15  16
ATOM     16  C   UNL     1       8.145 -15.243  23.507  1.00  0.00     0.079 C 
BRANCH  16  17
ATOM     17  C   UNL     1       9.417 -15.414  24.290  1.00  0.00     0.130 C 
ATOM     18  O   UNL     1       9.364 -15.655  25.487  1.00  0.00    -0.300 OA
ATOM     19  C   UNL     1      10.747 -15.316  23.608  1.00  0.00     0.087 C 
ENDBRANCH  16  17
ENDBRANCH  15  16
ENDBRANCH  13  15
ENDBRANCH  11  12
ENDBRANCH   1  11
TORSDOF 9
ENDMDL
MODEL 5
REMARK VINA RESULT:    -5.011      1.905      5.550
REMARK INTER + INTRA:         -10.056
REMARK INTER:                  -7.680
REMARK INTRA:                  -2.377
REMARK UNBOUND:                -2.409
REMARK SMILES CC(=O)CCC=C(C)CCC=C(C)CCC=C(C)C
REMARK SMILES IDX 10 1 11 2 12 3 13 4 14 5 15 6 16 7 18 8 17 9 19 10 9 11 7 12
REMARK SMILES IDX 6 13 8 14 5 15 4 16 2 17 3 18 1 19
REMARK H PARENT
REMARK Flexibility Score: inf
ROOT
ATOM      1  C   UNL     1       6.985 -20.039  24.308  1.00  0.00     0.032 C 
ENDROOT
BRANCH   1   2
ATOM      2  C   UNL     1       7.022 -20.539  22.886  1.00  0.00    -0.028 C 
ATOM      3  C   UNL     1       8.117 -20.504  22.093  1.00  0.00    -0.077 C 
ATOM      4  C   UNL     1       9.453 -20.012  22.599  1.00  0.00     0.039 C 
BRANCH   3   5
ATOM      5  C   UNL     1       8.005 -20.990  20.664  1.00  0.00     0.034 C 
BRANCH   5   6
ATOM      6  C   UNL     1       8.481 -19.911  19.685  1.00  0.00     0.032 C 
BRANCH   6   7
ATOM      7  C   UNL     1       7.536 -18.735  19.685  1.00  0.00    -0.028 C 
ATOM      8  C   UNL     1       6.854 -16.381  19.861  1.00  0.00     0.039 C 
ATOM      9  C   UNL     1       7.904 -17.459  19.935  1.00  0.00    -0.080 C 
ATOM     10  C   UNL     1       9.325 -17.093  20.300  1.00  0.00     0.039 C 
ENDBRANCH   6   7
ENDBRANCH   5   6
ENDBRANCH   3   5
ENDBRANCH   1   2
BRANCH   1  11
ATOM     11  C   UNL     1       6.356 -18.642  24.374  1.00  0.00     0.034 C 
BRANCH  11  12
ATOM     12  C   UNL     1       7.421 -17.578  24.514  1.00  0.00    -0.077 C 
ATOM     13  C   UNL     1       8.329 -17.686  25.510  1.00  0.00    -0.028 C 
ATOM     14  C   UNL     1       7.458 -16.439  23.521  1.00  0.00     0.039 C 
BRANCH  13  15
ATOM     15  C   UNL     1       9.414 -16.677  25.790  1.00  0.00     0.035 C 
BRANCH  15  16
ATOM     16  C   UNL     1      10.788 -17.353  25.824  1.00  0.00     0.079 C 
BRANCH  16  17
ATOM     17  C   UNL     1      11.548 -17.083  24.555  1.00  0.00     0.130 C 
ATOM     18  O   UNL     1      12.463 -17.823  24.227  1.00  0.00    -0.300 OA
ATOM     19  C   UNL     1      11.175 -15.926  23.678  1.00  0.00     0.087 C 
ENDBRANCH  16  17
ENDBRANCH  15  16
ENDBRANCH  13  15
ENDBRANCH  11  12
ENDBRANCH   1  11
TORSDOF 9
ENDMDL
MODEL 6
REMARK VINA RESULT:    -4.985      2.066      4.239
REMARK INTER + INTRA:         -10.016
REMARK INTER:                  -8.036
REMARK INTRA:                  -1.981
REMARK UNBOUND:                -2.409
REMARK SMILES CC(=O)CCC=C(C)CCC=C(C)CCC=C(C)C
REMARK SMILES IDX 10 1 11 2 12 3 13 4 14 5 15 6 16 7 18 8 17 9 19 10 9 11 7 12
REMARK SMILES IDX 6 13 8 14 5 15 4 16 2 17 3 18 1 19
REMARK H PARENT
REMARK Flexibility Score: inf
ROOT
ATOM      1  C   UNL     1       7.784 -22.310  21.251  1.00  0.00     0.032 C 
ENDROOT
BRANCH   1   2
ATOM      2  C   UNL     1       7.463 -21.634  22.560  1.00  0.00    -0.028 C 
ATOM      3  C   UNL     1       7.397 -20.294  22.731  1.00  0.00    -0.077 C 
ATOM      4  C   UNL     1       7.574 -19.333  21.578  1.00  0.00     0.039 C 
BRANCH   3   5
ATOM      5  C   UNL     1       7.118 -19.742  24.112  1.00  0.00     0.034 C 
BRANCH   5   6
ATOM      6  C   UNL     1       6.651 -18.284  24.030  1.00  0.00     0.032 C 
BRANCH   6   7
ATOM      7  C   UNL     1       7.747 -17.346  24.473  1.00  0.00    -0.028 C 
ATOM      8  C   UNL     1       9.079 -15.282  24.513  1.00  0.00     0.039 C 
ATOM      9  C   UNL     1       7.969 -16.125  23.940  1.00  0.00    -0.080 C 
ATOM     10  C   UNL     1       7.151 -15.596  22.784  1.00  0.00     0.039 C 
ENDBRANCH   6   7
ENDBRANCH   5   6
ENDBRANCH   3   5
ENDBRANCH   1   2
BRANCH   1  11
ATOM     11  C   UNL     1       9.002 -23.229  21.401  1.00  0.00     0.034 C 
BRANCH  11  12
ATOM     12  C   UNL     1      10.285 -22.432  21.352  1.00  0.00    -0.077 C 
ATOM     13  C   UNL     1      11.230 -22.650  22.296  1.00  0.00    -0.028 C 
ATOM     14  C   UNL     1      10.490 -21.433  20.236  1.00  0.00     0.039 C 
BRANCH  13  15
ATOM     15  C   UNL     1      12.533 -21.896  22.391  1.00  0.00     0.035 C 
BRANCH  15  16
ATOM     16  C   UNL     1      12.612 -21.115  23.706  1.00  0.00     0.079 C 
BRANCH  16  17
ATOM     17  C   UNL     1      12.267 -19.667  23.489  1.00  0.00     0.130 C 
ATOM     18  O   UNL     1      13.158 -18.854  23.296  1.00  0.00    -0.300 OA
ATOM     19  C   UNL     1      10.837 -19.220  23.485  1.00  0.00     0.087 C 
ENDBRANCH  16  17
ENDBRANCH  15  16
ENDBRANCH  13  15
ENDBRANCH  11  12
ENDBRANCH   1  11
TORSDOF 9
ENDMDL
MODEL 7
REMARK VINA RESULT:    -4.977      1.625      5.439
REMARK INTER + INTRA:         -10.004
REMARK INTER:                  -7.911
REMARK INTRA:                  -2.094
REMARK UNBOUND:                -2.409
REMARK SMILES CC(=O)CCC=C(C)CCC=C(C)CCC=C(C)C
REMARK SMILES IDX 10 1 11 2 12 3 13 4 14 5 15 6 16 7 18 8 17 9 19 10 9 11 7 12
REMARK SMILES IDX 6 13 8 14 5 15 4 16 2 17 3 18 1 19
REMARK H PARENT
REMARK Flexibility Score: inf
ROOT
ATOM      1  C   UNL     1       7.923 -16.087  23.479  1.00  0.00     0.032 C 
ENDROOT
BRANCH   1   2
ATOM      2  C   UNL     1       7.465 -17.479  23.835  1.00  0.00    -0.028 C 
ATOM      3  C   UNL     1       7.428 -18.516  22.967  1.00  0.00    -0.077 C 
ATOM      4  C   UNL     1       7.922 -18.384  21.545  1.00  0.00     0.039 C 
BRANCH   3   5
ATOM      5  C   UNL     1       6.895 -19.852  23.440  1.00  0.00     0.034 C 
BRANCH   5   6
ATOM      6  C   UNL     1       6.832 -20.852  22.280  1.00  0.00     0.032 C 
BRANCH   6   7
ATOM      7  C   UNL     1       7.999 -21.807  22.334  1.00  0.00    -0.028 C 
ATOM      8  C   UNL     1       9.885 -23.125  21.472  1.00  0.00     0.039 C 
ATOM      9  C   UNL     1       8.719 -22.195  21.259  1.00  0.00    -0.080 C 
ATOM     10  C   UNL     1       8.377 -21.736  19.859  1.00  0.00     0.039 C 
ENDBRANCH   6   7
ENDBRANCH   5   6
ENDBRANCH   3   5
ENDBRANCH   1   2
BRANCH   1  11
ATOM     11  C   UNL     1       8.766 -15.489  24.610  1.00  0.00     0.034 C 
BRANCH  11  12
ATOM     12  C   UNL     1      10.109 -16.178  24.702  1.00  0.00    -0.077 C 
ATOM     13  C   UNL     1      11.019 -15.974  23.722  1.00  0.00    -0.028 C 
ATOM     14  C   UNL     1      10.408 -17.052  25.898  1.00  0.00     0.039 C 
BRANCH  13  15
ATOM     15  C   UNL     1      12.375 -16.631  23.666  1.00  0.00     0.035 C 
BRANCH  15  16
ATOM     16  C   UNL     1      12.383 -17.771  22.643  1.00  0.00     0.079 C 
BRANCH  16  17
ATOM     17  C   UNL     1      12.252 -19.104  23.327  1.00  0.00     0.130 C 
ATOM     18  O   UNL     1      13.232 -19.618  23.846  1.00  0.00    -0.300 OA
ATOM     19  C   UNL     1      10.924 -19.794  23.397  1.00  0.00     0.087 C 
ENDBRANCH  16  17
ENDBRANCH  15  16
ENDBRANCH  13  15
ENDBRANCH  11  12
ENDBRANCH   1  11
TORSDOF 9
ENDMDL
MODEL 8
REMARK VINA RESULT:    -4.946      2.359      5.494
REMARK INTER + INTRA:          -9.958
REMARK INTER:                  -7.676
REMARK INTRA:                  -2.282
REMARK UNBOUND:                -2.409
REMARK SMILES CC(=O)CCC=C(C)CCC=C(C)CCC=C(C)C
REMARK SMILES IDX 10 1 11 2 12 3 13 4 14 5 15 6 16 7 18 8 17 9 19 10 9 11 7 12
REMARK SMILES IDX 6 13 8 14 5 15 4 16 2 17 3 18 1 19
REMARK H PARENT
REMARK Flexibility Score: inf
ROOT
ATOM      1  C   UNL     1       6.651 -20.939  22.833  1.00  0.00     0.032 C 
ENDROOT
BRANCH   1   2
ATOM      2  C   UNL     1       7.739 -21.920  22.478  1.00  0.00    -0.028 C 
ATOM      3  C   UNL     1       8.413 -21.922  21.305  1.00  0.00    -0.077 C 
ATOM      4  C   UNL     1       8.176 -20.869  20.247  1.00  0.00     0.039 C 
BRANCH   3   5
ATOM      5  C   UNL     1       9.447 -22.998  21.053  1.00  0.00     0.034 C 
BRANCH   5   6
ATOM      6  C   UNL     1      10.626 -22.855  22.022  1.00  0.00     0.032 C 
BRANCH   6   7
ATOM      7  C   UNL     1      11.595 -21.807  21.534  1.00  0.00    -0.028 C 
ATOM      8  C   UNL     1      12.776 -19.652  21.513  1.00  0.00     0.039 C 
ATOM      9  C   UNL     1      11.736 -20.581  22.084  1.00  0.00    -0.080 C 
ATOM     10  C   UNL     1      10.873 -20.118  23.236  1.00  0.00     0.039 C 
ENDBRANCH   6   7
ENDBRANCH   5   6
ENDBRANCH   3   5
ENDBRANCH   1   2
BRANCH   1  11
ATOM     11  C   UNL     1       6.871 -20.372  24.240  1.00  0.00     0.034 C 
BRANCH  11  12
ATOM     12  C   UNL     1       7.187 -18.894  24.181  1.00  0.00    -0.077 C 
ATOM     13  C   UNL     1       7.494 -18.336  22.987  1.00  0.00    -0.028 C 
ATOM     14  C   UNL     1       7.124 -18.076  25.451  1.00  0.00     0.039 C 
BRANCH  13  15
ATOM     15  C   UNL     1       7.871 -16.889  22.793  1.00  0.00     0.035 C 
BRANCH  15  16
ATOM     16  C   UNL     1       9.394 -16.723  22.781  1.00  0.00     0.079 C 
BRANCH  16  17
ATOM     17  C   UNL     1       9.873 -16.097  24.062  1.00  0.00     0.130 C 
ATOM     18  O   UNL     1       9.464 -14.992  24.387  1.00  0.00    -0.300 OA
ATOM     19  C   UNL     1      10.831 -16.828  24.952  1.00  0.00     0.087 C 
ENDBRANCH  16  17
ENDBRANCH  15  16
ENDBRANCH  13  15
ENDBRANCH  11  12
ENDBRANCH   1  11
TORSDOF 9
ENDMDL
MODEL 9
REMARK VINA RESULT:    -4.936      2.845      5.826
REMARK INTER + INTRA:          -9.941
REMARK INTER:                  -7.524
REMARK INTRA:                  -2.418
REMARK UNBOUND:                -2.409
REMARK SMILES CC(=O)CCC=C(C)CCC=C(C)CCC=C(C)C
REMARK SMILES IDX 10 1 11 2 12 3 13 4 14 5 15 6 16 7 18 8 17 9 19 10 9 11 7 12
REMARK SMILES IDX 6 13 8 14 5 15 4 16 2 17 3 18 1 19
REMARK H PARENT
REMARK Flexibility Score: inf
ROOT
ATOM      1  C   UNL     1       8.272 -22.662  21.701  1.00  0.00     0.032 C 
ENDROOT
BRANCH   1   2
ATOM      2  C   UNL     1       9.436 -22.414  20.775  1.00  0.00    -0.028 C 
ATOM      3  C   UNL     1      10.560 -21.746  21.124  1.00  0.00    -0.077 C 
ATOM      4  C   UNL     1      10.782 -21.237  22.529  1.00  0.00     0.039 C 
BRANCH   3   5
ATOM      5  C   UNL     1      11.633 -21.519  20.080  1.00  0.00     0.034 C 
BRANCH   5   6
ATOM      6  C   UNL     1      11.015 -21.045  18.760  1.00  0.00     0.032 C 
BRANCH   6   7
ATOM      7  C   UNL     1      10.895 -19.541  18.736  1.00  0.00    -0.028 C 
ATOM      8  C   UNL     1       9.760 -17.363  18.679  1.00  0.00     0.039 C 
ATOM      9  C   UNL     1       9.726 -18.869  18.653  1.00  0.00    -0.080 C 
ATOM     10  C   UNL     1       8.400 -19.583  18.519  1.00  0.00     0.039 C 
ENDBRANCH   6   7
ENDBRANCH   5   6
ENDBRANCH   3   5
ENDBRANCH   1   2
BRANCH   1  11
ATOM     11  C   UNL     1       7.133 -21.677  21.414  1.00  0.00     0.034 C 
BRANCH  11  12
ATOM     12  C   UNL     1       7.160 -20.523  22.390  1.00  0.00    -0.077 C 
ATOM     13  C   UNL     1       7.551 -19.304  21.955  1.00  0.00    -0.028 C 
ATOM     14  C   UNL     1       6.724 -20.757  23.819  1.00  0.00     0.039 C 
BRANCH  13  15
ATOM     15  C   UNL     1       7.666 -18.081  22.829  1.00  0.00     0.035 C 
BRANCH  15  16
ATOM     16  C   UNL     1       8.278 -16.913  22.050  1.00  0.00     0.079 C 
BRANCH  16  17
ATOM     17  C   UNL     1       7.219 -15.921  21.654  1.00  0.00     0.130 C 
ATOM     18  O   UNL     1       6.749 -15.168  22.494  1.00  0.00    -0.300 OA
ATOM     19  C   UNL     1       6.753 -15.835  20.232  1.00  0.00     0.087 C 
ENDBRANCH  16  17
ENDBRANCH  15  16
ENDBRANCH  13  15
ENDBRANCH  11  12
ENDBRANCH   1  11
TORSDOF 9
ENDMDL
