MODEL 1
REMARK VINA RESULT:    -4.090      0.000      0.000
REMARK INTER + INTRA:          -4.660
REMARK INTER:                  -4.688
REMARK INTRA:                   0.028
REMARK UNBOUND:                 0.028
REMARK SMILES CC(C)[C@@H]([NH3+])C(=O)[O-]
REMARK SMILES IDX 4 1 5 2 6 6 7 7 8 8 2 9 1 10 3 11
REMARK H PARENT 5 3 5 4 5 5
REMARK Flexibility Score: inf
ROOT
ATOM      1  C   UNL     1       4.471  -3.654   4.875  1.00  0.00     0.230 C 
ENDROOT
BRANCH   1   2
ATOM      2  N   UNL     1       5.915  -3.403   4.745  1.00  0.00    -0.350 N 
ATOM      3  H   UNL     1       6.083  -2.743   3.952  1.00  0.00     0.345 HD
ATOM      4  H   UNL     1       6.280  -2.960   5.618  1.00  0.00     0.345 HD
ATOM      5  H   UNL     1       6.441  -4.287   4.562  1.00  0.00     0.345 HD
ENDBRANCH   1   2
BRANCH   1   6
ATOM      6  C   UNL     1       4.210  -4.745   5.887  1.00  0.00     0.099 C 
ATOM      7  O   UNL     1       4.824  -4.744   6.986  1.00  0.00    -0.544 OA
ATOM      8  O   UNL     1       3.315  -5.772   5.606  1.00  0.00    -0.544 OA
ENDBRANCH   1   6
BRANCH   1   9
ATOM      9  C   UNL     1       3.683  -2.346   5.184  1.00  0.00     0.047 C 
ATOM     10  C   UNL     1       3.345  -1.580   3.897  1.00  0.00     0.014 C 
ATOM     11  C   UNL     1       2.406  -2.575   6.012  1.00  0.00     0.014 C 
ENDBRANCH   1   9
TORSDOF 3
ENDMDL
MODEL 2
REMARK VINA RESULT:    -3.760     13.440     13.943
REMARK INTER + INTRA:          -4.282
REMARK INTER:                  -4.229
REMARK INTRA:                  -0.052
REMARK UNBOUND:                 0.028
REMARK SMILES CC(C)[C@@H]([NH3+])C(=O)[O-]
REMARK SMILES IDX 4 1 5 2 6 6 7 7 8 8 2 9 1 10 3 11
REMARK H PARENT 5 3 5 4 5 5
REMARK Flexibility Score: inf
ROOT
ATOM      1  C   UNL     1       6.525  -3.163  -7.898  1.00  0.00     0.230 C 
ENDROOT
BRANCH   1   2
ATOM      2  N   UNL     1       6.941  -3.234  -6.489  1.00  0.00    -0.350 N 
ATOM      3  H   UNL     1       6.133  -2.980  -5.874  1.00  0.00     0.345 HD
ATOM      4  H   UNL     1       7.234  -4.209  -6.252  1.00  0.00     0.345 HD
ATOM      5  H   UNL     1       7.730  -2.579  -6.290  1.00  0.00     0.345 HD
ENDBRANCH   1   2
BRANCH   1   6
ATOM      6  C   UNL     1       5.059  -3.499  -8.038  1.00  0.00     0.099 C 
ATOM      7  O   UNL     1       4.698  -4.699  -8.163  1.00  0.00    -0.544 OA
ATOM      8  O   UNL     1       4.101  -2.492  -8.059  1.00  0.00    -0.544 OA
ENDBRANCH   1   6
BRANCH   1   9
ATOM      9  C   UNL     1       6.891  -1.790  -8.538  1.00  0.00     0.047 C 
ATOM     10  C   UNL     1       7.957  -1.055  -7.713  1.00  0.00     0.014 C 
ATOM     11  C   UNL     1       7.339  -1.893 -10.006  1.00  0.00     0.014 C 
ENDBRANCH   1   9
TORSDOF 3
ENDMDL
MODEL 3
REMARK VINA RESULT:    -3.724      2.225      2.701
REMARK INTER + INTRA:          -4.241
REMARK INTER:                  -4.185
REMARK INTRA:                  -0.056
REMARK UNBOUND:                 0.028
REMARK SMILES CC(C)[C@@H]([NH3+])C(=O)[O-]
REMARK SMILES IDX 4 1 5 2 6 6 7 7 8 8 2 9 1 10 3 11
REMARK H PARENT 5 3 5 4 5 5
REMARK Flexibility Score: inf
ROOT
ATOM      1  C   UNL     1       2.677  -3.292   5.640  1.00  0.00     0.230 C 
ENDROOT
BRANCH   1   2
ATOM      2  N   UNL     1       2.923  -4.727   5.435  1.00  0.00    -0.350 N 
ATOM      3  H   UNL     1       2.136  -5.139   4.882  1.00  0.00     0.345 HD
ATOM      4  H   UNL     1       3.806  -4.864   4.893  1.00  0.00     0.345 HD
ATOM      5  H   UNL     1       2.994  -5.236   6.345  1.00  0.00     0.345 HD
ENDBRANCH   1   2
BRANCH   1   6
ATOM      6  C   UNL     1       2.449  -2.995   7.104  1.00  0.00     0.099 C 
ATOM      7  O   UNL     1       3.379  -2.508   7.800  1.00  0.00    -0.544 OA
ATOM      8  O   UNL     1       1.226  -3.280   7.702  1.00  0.00    -0.544 OA
ENDBRANCH   1   6
BRANCH   1   9
ATOM      9  C   UNL     1       3.807  -2.417   5.019  1.00  0.00     0.047 C 
ATOM     10  C   UNL     1       5.017  -3.273   4.614  1.00  0.00     0.014 C 
ATOM     11  C   UNL     1       3.343  -1.564   3.826  1.00  0.00     0.014 C 
ENDBRANCH   1   9
TORSDOF 3
ENDMDL
MODEL 4
REMARK VINA RESULT:    -3.637      1.186      1.861
REMARK INTER + INTRA:          -4.141
REMARK INTER:                  -4.110
REMARK INTRA:                  -0.031
REMARK UNBOUND:                 0.028
REMARK SMILES CC(C)[C@@H]([NH3+])C(=O)[O-]
REMARK SMILES IDX 4 1 5 2 6 6 7 7 8 8 2 9 1 10 3 11
REMARK H PARENT 5 3 5 4 5 5
REMARK Flexibility Score: inf
ROOT
ATOM      1  C   UNL     1       3.816  -4.145   4.934  1.00  0.00     0.230 C 
ENDROOT
BRANCH   1   2
ATOM      2  N   UNL     1       5.218  -4.077   5.371  1.00  0.00    -0.350 N 
ATOM      3  H   UNL     1       5.256  -3.793   6.377  1.00  0.00     0.345 HD
ATOM      4  H   UNL     1       5.666  -5.017   5.282  1.00  0.00     0.345 HD
ATOM      5  H   UNL     1       5.760  -3.383   4.808  1.00  0.00     0.345 HD
ENDBRANCH   1   2
BRANCH   1   6
ATOM      6  C   UNL     1       3.106  -5.301   5.600  1.00  0.00     0.099 C 
ATOM      7  O   UNL     1       1.886  -5.205   5.894  1.00  0.00    -0.544 OA
ATOM      8  O   UNL     1       3.795  -6.465   5.919  1.00  0.00    -0.544 OA
ENDBRANCH   1   6
BRANCH   1   9
ATOM      9  C   UNL     1       3.080  -2.787   5.144  1.00  0.00     0.047 C 
ATOM     10  C   UNL     1       3.409  -2.179   6.516  1.00  0.00     0.014 C 
ATOM     11  C   UNL     1       3.352  -1.759   4.033  1.00  0.00     0.014 C 
ENDBRANCH   1   9
TORSDOF 3
ENDMDL
MODEL 5
REMARK VINA RESULT:    -3.626     12.740     13.593
REMARK INTER + INTRA:          -4.128
REMARK INTER:                  -4.141
REMARK INTRA:                   0.014
REMARK UNBOUND:                 0.028
REMARK SMILES CC(C)[C@@H]([NH3+])C(=O)[O-]
REMARK SMILES IDX 4 1 5 2 6 6 7 7 8 8 2 9 1 10 3 11
REMARK H PARENT 5 3 5 4 5 5
REMARK Flexibility Score: inf
ROOT
ATOM      1  C   UNL     1       5.700  -4.000  -8.386  1.00  0.00     0.230 C 
ENDROOT
BRANCH   1   2
ATOM      2  N   UNL     1       5.886  -5.408  -8.005  1.00  0.00    -0.350 N 
ATOM      3  H   UNL     1       6.565  -5.859  -8.661  1.00  0.00     0.345 HD
ATOM      4  H   UNL     1       6.279  -5.469  -7.039  1.00  0.00     0.345 HD
ATOM      5  H   UNL     1       4.984  -5.936  -8.044  1.00  0.00     0.345 HD
ENDBRANCH   1   2
BRANCH   1   6
ATOM      6  C   UNL     1       4.553  -3.388  -7.616  1.00  0.00     0.099 C 
ATOM      7  O   UNL     1       4.211  -3.871  -6.505  1.00  0.00    -0.544 OA
ATOM      8  O   UNL     1       3.847  -2.308  -8.137  1.00  0.00    -0.544 OA
ENDBRANCH   1   6
BRANCH   1   9
ATOM      9  C   UNL     1       7.021  -3.185  -8.244  1.00  0.00     0.047 C 
ATOM     10  C   UNL     1       7.031  -1.971  -9.185  1.00  0.00     0.014 C 
ATOM     11  C   UNL     1       7.319  -2.737  -6.803  1.00  0.00     0.014 C 
ENDBRANCH   1   9
TORSDOF 3
ENDMDL
MODEL 6
REMARK VINA RESULT:    -3.615     13.427     13.928
REMARK INTER + INTRA:          -4.115
REMARK INTER:                  -4.060
REMARK INTRA:                  -0.055
REMARK UNBOUND:                 0.028
REMARK SMILES CC(C)[C@@H]([NH3+])C(=O)[O-]
REMARK SMILES IDX 4 1 5 2 6 6 7 7 8 8 2 9 1 10 3 11
REMARK H PARENT 5 3 5 4 5 5
REMARK Flexibility Score: inf
ROOT
ATOM      1  C   UNL     1       6.475  -2.906  -7.460  1.00  0.00     0.230 C 
ENDROOT
BRANCH   1   2
ATOM      2  N   UNL     1       7.565  -3.859  -7.208  1.00  0.00    -0.350 N 
ATOM      3  H   UNL     1       7.196  -4.836  -7.274  1.00  0.00     0.345 HD
ATOM      4  H   UNL     1       8.312  -3.747  -7.930  1.00  0.00     0.345 HD
ATOM      5  H   UNL     1       7.981  -3.723  -6.259  1.00  0.00     0.345 HD
ENDBRANCH   1   2
BRANCH   1   6
ATOM      6  C   UNL     1       6.990  -1.688  -8.191  1.00  0.00     0.099 C 
ATOM      7  O   UNL     1       6.711  -1.519  -9.407  1.00  0.00    -0.544 OA
ATOM      8  O   UNL     1       7.798  -0.762  -7.542  1.00  0.00    -0.544 OA
ENDBRANCH   1   6
BRANCH   1   9
ATOM      9  C   UNL     1       5.274  -3.581  -8.189  1.00  0.00     0.047 C 
ATOM     10  C   UNL     1       5.293  -5.105  -8.002  1.00  0.00     0.014 C 
ATOM     11  C   UNL     1       3.904  -3.016  -7.777  1.00  0.00     0.014 C 
ENDBRANCH   1   9
TORSDOF 3
ENDMDL
MODEL 7
REMARK VINA RESULT:    -3.612     13.206     14.054
REMARK INTER + INTRA:          -4.112
REMARK INTER:                  -4.117
REMARK INTRA:                   0.004
REMARK UNBOUND:                 0.028
REMARK SMILES CC(C)[C@@H]([NH3+])C(=O)[O-]
REMARK SMILES IDX 4 1 5 2 6 6 7 7 8 8 2 9 1 10 3 11
REMARK H PARENT 5 3 5 4 5 5
REMARK Flexibility Score: inf
ROOT
ATOM      1  C   UNL     1       6.011  -3.119  -7.994  1.00  0.00     0.230 C 
ENDROOT
BRANCH   1   2
ATOM      2  N   UNL     1       6.419  -1.763  -8.391  1.00  0.00    -0.350 N 
ATOM      3  H   UNL     1       6.024  -1.068  -7.716  1.00  0.00     0.345 HD
ATOM      4  H   UNL     1       7.460  -1.682  -8.368  1.00  0.00     0.345 HD
ATOM      5  H   UNL     1       6.077  -1.527  -9.350  1.00  0.00     0.345 HD
ENDBRANCH   1   2
BRANCH   1   6
ATOM      6  C   UNL     1       4.567  -3.131  -7.550  1.00  0.00     0.099 C 
ATOM      7  O   UNL     1       4.202  -3.891  -6.615  1.00  0.00    -0.544 OA
ATOM      8  O   UNL     1       3.624  -2.330  -8.185  1.00  0.00    -0.544 OA
ENDBRANCH   1   6
BRANCH   1   9
ATOM      9  C   UNL     1       6.304  -4.161  -9.115  1.00  0.00     0.047 C 
ATOM     10  C   UNL     1       7.638  -3.868  -9.816  1.00  0.00     0.014 C 
ATOM     11  C   UNL     1       6.275  -5.619  -8.625  1.00  0.00     0.014 C 
ENDBRANCH   1   9
TORSDOF 3
ENDMDL
MODEL 8
REMARK VINA RESULT:    -3.378      2.076      2.324
REMARK INTER + INTRA:          -3.844
REMARK INTER:                  -3.819
REMARK INTRA:                  -0.025
REMARK UNBOUND:                 0.028
REMARK SMILES CC(C)[C@@H]([NH3+])C(=O)[O-]
REMARK SMILES IDX 4 1 5 2 6 6 7 7 8 8 2 9 1 10 3 11
REMARK H PARENT 5 3 5 4 5 5
REMARK Flexibility Score: inf
ROOT
ATOM      1  C   UNL     1       4.655  -4.516   6.218  1.00  0.00     0.230 C 
ENDROOT
BRANCH   1   2
ATOM      2  N   UNL     1       3.780  -5.645   5.867  1.00  0.00    -0.350 N 
ATOM      3  H   UNL     1       2.781  -5.365   6.001  1.00  0.00     0.345 HD
ATOM      4  H   UNL     1       3.913  -5.901   4.863  1.00  0.00     0.345 HD
ATOM      5  H   UNL     1       3.976  -6.480   6.464  1.00  0.00     0.345 HD
ENDBRANCH   1   2
BRANCH   1   6
ATOM      6  C   UNL     1       6.078  -4.792   5.789  1.00  0.00     0.099 C 
ATOM      7  O   UNL     1       6.677  -5.813   6.218  1.00  0.00    -0.544 OA
ATOM      8  O   UNL     1       6.746  -3.912   4.946  1.00  0.00    -0.544 OA
ENDBRANCH   1   6
BRANCH   1   9
ATOM      9  C   UNL     1       4.110  -3.167   5.660  1.00  0.00     0.047 C 
ATOM     10  C   UNL     1       3.409  -3.365   4.308  1.00  0.00     0.014 C 
ATOM     11  C   UNL     1       3.177  -2.427   6.634  1.00  0.00     0.014 C 
ENDBRANCH   1   9
TORSDOF 3
ENDMDL
MODEL 9
REMARK VINA RESULT:    -3.376      2.311      2.918
REMARK INTER + INTRA:          -3.842
REMARK INTER:                  -3.794
REMARK INTRA:                  -0.048
REMARK UNBOUND:                 0.028
REMARK SMILES CC(C)[C@@H]([NH3+])C(=O)[O-]
REMARK SMILES IDX 4 1 5 2 6 6 7 7 8 8 2 9 1 10 3 11
REMARK H PARENT 5 3 5 4 5 5
REMARK Flexibility Score: inf
ROOT
ATOM      1  C   UNL     1       3.626  -4.080   5.843  1.00  0.00     0.230 C 
ENDROOT
BRANCH   1   2
ATOM      2  N   UNL     1       2.920  -5.170   5.153  1.00  0.00    -0.350 N 
ATOM      3  H   UNL     1       2.029  -4.803   4.743  1.00  0.00     0.345 HD
ATOM      4  H   UNL     1       3.508  -5.539   4.372  1.00  0.00     0.345 HD
ATOM      5  H   UNL     1       2.689  -5.951   5.808  1.00  0.00     0.345 HD
ENDBRANCH   1   2
BRANCH   1   6
ATOM      6  C   UNL     1       4.513  -3.327   4.880  1.00  0.00     0.099 C 
ATOM      7  O   UNL     1       4.027  -2.422   4.153  1.00  0.00    -0.544 OA
ATOM      8  O   UNL     1       5.863  -3.643   4.766  1.00  0.00    -0.544 OA
ENDBRANCH   1   6
BRANCH   1   9
ATOM      9  C   UNL     1       2.640  -3.146   6.607  1.00  0.00     0.047 C 
ATOM     10  C   UNL     1       1.226  -3.745   6.654  1.00  0.00     0.014 C 
ATOM     11  C   UNL     1       3.106  -2.786   8.028  1.00  0.00     0.014 C 
ENDBRANCH   1   9
TORSDOF 3
ENDMDL
