MODEL 1
REMARK VINA RESULT:    -4.629      0.000      0.000
REMARK INTER + INTRA:         -13.788
REMARK INTER:                 -10.584
REMARK INTRA:                  -3.205
REMARK UNBOUND:                -3.205
REMARK SMILES CCCCCCCCCCCCCCCCCCCCCCCC(=O)[O-]
REMARK SMILES IDX 13 1 14 2 15 3 16 4 17 5 18 6 19 7 20 8 21 9 22 10 23 11
REMARK SMILES IDX 24 12 25 13 26 14 12 15 11 16 10 17 9 18 8 19 7 20 6 21 5 22
REMARK SMILES IDX 4 23 3 24 2 25 1 26
REMARK H PARENT
REMARK Flexibility Score: inf
ROOT
ATOM      1  C   UNL     1      98.251  85.505  80.774  1.00  0.00     0.000 C 
ENDROOT
BRANCH   1   2
ATOM      2  C   UNL     1      97.640  86.919  80.858  1.00  0.00     0.000 C 
BRANCH   2   3
ATOM      3  C   UNL     1      96.140  87.012  80.525  1.00  0.00     0.000 C 
BRANCH   3   4
ATOM      4  C   UNL     1      95.784  86.354  79.181  1.00  0.00     0.000 C 
BRANCH   4   5
ATOM      5  C   UNL     1      94.402  85.680  79.201  1.00  0.00     0.000 C 
BRANCH   5   6
ATOM      6  C   UNL     1      94.488  84.154  79.352  1.00  0.00     0.000 C 
BRANCH   6   7
ATOM      7  C   UNL     1      93.267  83.607  80.104  1.00  0.00     0.000 C 
BRANCH   7   8
ATOM      8  C   UNL     1      92.623  84.644  81.041  1.00  0.00     0.000 C 
BRANCH   8   9
ATOM      9  C   UNL     1      91.082  84.669  80.970  1.00  0.00     0.000 C 
BRANCH   9  10
ATOM     10  C   UNL     1      90.567  84.633  79.521  1.00  0.00     0.006 C 
BRANCH  10  11
ATOM     11  C   UNL     1      89.089  84.231  79.442  1.00  0.00     0.053 C 
BRANCH  11  12
ATOM     12  C   UNL     1      88.225  85.381  79.026  1.00  0.00     0.041 C 
ATOM     13  O   UNL     1      88.294  86.481  79.638  1.00  0.00    -0.550 OA
ATOM     14  O   UNL     1      87.317  85.229  77.985  1.00  0.00    -0.550 OA
ENDBRANCH  11  12
ENDBRANCH  10  11
ENDBRANCH   9  10
ENDBRANCH   8   9
ENDBRANCH   7   8
ENDBRANCH   6   7
ENDBRANCH   5   6
ENDBRANCH   4   5
ENDBRANCH   3   4
ENDBRANCH   2   3
ENDBRANCH   1   2
BRANCH   1  15
ATOM     15  C   UNL     1      97.613  84.452  81.699  1.00  0.00     0.000 C 
BRANCH  15  16
ATOM     16  C   UNL     1      98.625  83.418  82.219  1.00  0.00     0.000 C 
BRANCH  16  17
ATOM     17  C   UNL     1     100.061  83.693  81.739  1.00  0.00     0.000 C 
BRANCH  17  18
ATOM     18  C   UNL     1     101.009  84.263  82.811  1.00  0.00    -0.000 C 
BRANCH  18  19
ATOM     19  C   UNL     1     100.429  84.176  84.229  1.00  0.00    -0.000 C 
BRANCH  19  20
ATOM     20  C   UNL     1     100.414  85.557  84.901  1.00  0.00    -0.000 C 
BRANCH  20  21
ATOM     21  C   UNL     1      99.570  86.593  84.136  1.00  0.00    -0.000 C 
BRANCH  21  22
ATOM     22  C   UNL     1      98.334  87.118  84.889  1.00  0.00    -0.000 C 
BRANCH  22  23
ATOM     23  C   UNL     1      97.037  86.391  84.493  1.00  0.00    -0.000 C 
BRANCH  23  24
ATOM     24  C   UNL     1      96.787  85.117  85.321  1.00  0.00    -0.000 C 
BRANCH  24  25
ATOM     25  C   UNL     1      97.251  85.193  86.787  1.00  0.00    -0.003 C 
ATOM     26  C   UNL     1      96.217  85.835  87.711  1.00  0.00     0.004 C 
ENDBRANCH  24  25
ENDBRANCH  23  24
ENDBRANCH  22  23
ENDBRANCH  21  22
ENDBRANCH  20  21
ENDBRANCH  19  20
ENDBRANCH  18  19
ENDBRANCH  17  18
ENDBRANCH  16  17
ENDBRANCH  15  16
ENDBRANCH   1  15
TORSDOF 22
ENDMDL
MODEL 2
REMARK VINA RESULT:    -4.581      1.458      3.377
REMARK INTER + INTRA:         -13.677
REMARK INTER:                  -9.764
REMARK INTRA:                  -3.914
REMARK UNBOUND:                -3.205
REMARK SMILES CCCCCCCCCCCCCCCCCCCCCCCC(=O)[O-]
REMARK SMILES IDX 13 1 14 2 15 3 16 4 17 5 18 6 19 7 20 8 21 9 22 10 23 11
REMARK SMILES IDX 24 12 25 13 26 14 12 15 11 16 10 17 9 18 8 19 7 20 6 21 5 22
REMARK SMILES IDX 4 23 3 24 2 25 1 26
REMARK H PARENT
REMARK Flexibility Score: inf
ROOT
ATOM      1  C   UNL     1     100.113  83.660  81.942  1.00  0.00     0.000 C 
ENDROOT
BRANCH   1   2
ATOM      2  C   UNL     1      98.594  83.436  82.097  1.00  0.00     0.000 C 
BRANCH   2   3
ATOM      3  C   UNL     1      97.718  84.683  81.879  1.00  0.00     0.000 C 
BRANCH   3   4
ATOM      4  C   UNL     1      98.240  85.592  80.754  1.00  0.00     0.000 C 
BRANCH   4   5
ATOM      5  C   UNL     1      97.906  87.075  80.990  1.00  0.00     0.000 C 
BRANCH   5   6
ATOM      6  C   UNL     1      96.740  87.566  80.119  1.00  0.00     0.000 C 
BRANCH   6   7
ATOM      7  C   UNL     1      96.239  86.451  79.192  1.00  0.00     0.000 C 
BRANCH   7   8
ATOM      8  C   UNL     1      94.776  86.056  79.461  1.00  0.00     0.000 C 
BRANCH   8   9
ATOM      9  C   UNL     1      94.624  84.707  80.193  1.00  0.00     0.000 C 
BRANCH   9  10
ATOM     10  C   UNL     1      93.515  83.835  79.580  1.00  0.00     0.006 C 
BRANCH  10  11
ATOM     11  C   UNL     1      92.197  83.945  80.358  1.00  0.00     0.053 C 
BRANCH  11  12
ATOM     12  C   UNL     1      91.174  84.738  79.603  1.00  0.00     0.041 C 
ATOM     13  O   UNL     1      89.971  84.743  79.977  1.00  0.00    -0.550 OA
ATOM     14  O   UNL     1      91.544  85.443  78.465  1.00  0.00    -0.550 OA
ENDBRANCH  11  12
ENDBRANCH  10  11
ENDBRANCH   9  10
ENDBRANCH   8   9
ENDBRANCH   7   8
ENDBRANCH   6   7
ENDBRANCH   5   6
ENDBRANCH   4   5
ENDBRANCH   3   4
ENDBRANCH   2   3
ENDBRANCH   1   2
BRANCH   1  15
ATOM     15  C   UNL     1     100.872  83.976  83.244  1.00  0.00     0.000 C 
BRANCH  15  16
ATOM     16  C   UNL     1     102.169  84.768  83.006  1.00  0.00     0.000 C 
BRANCH  16  17
ATOM     17  C   UNL     1     102.159  86.149  83.686  1.00  0.00     0.000 C 
BRANCH  17  18
ATOM     18  C   UNL     1     100.979  86.394  84.644  1.00  0.00    -0.000 C 
BRANCH  18  19
ATOM     19  C   UNL     1      99.977  87.427  84.108  1.00  0.00    -0.000 C 
BRANCH  19  20
ATOM     20  C   UNL     1      98.563  87.146  84.636  1.00  0.00    -0.000 C 
BRANCH  20  21
ATOM     21  C   UNL     1      98.412  85.737  85.239  1.00  0.00    -0.000 C 
BRANCH  21  22
ATOM     22  C   UNL     1      97.120  85.503  86.044  1.00  0.00    -0.000 C 
BRANCH  22  23
ATOM     23  C   UNL     1      95.989  86.470  85.656  1.00  0.00    -0.000 C 
BRANCH  23  24
ATOM     24  C   UNL     1      95.021  85.875  84.617  1.00  0.00    -0.000 C 
BRANCH  24  25
ATOM     25  C   UNL     1      94.925  86.658  83.294  1.00  0.00    -0.003 C 
ATOM     26  C   UNL     1      95.214  88.150  83.458  1.00  0.00     0.004 C 
ENDBRANCH  24  25
ENDBRANCH  23  24
ENDBRANCH  22  23
ENDBRANCH  21  22
ENDBRANCH  20  21
ENDBRANCH  19  20
ENDBRANCH  18  19
ENDBRANCH  17  18
ENDBRANCH  16  17
ENDBRANCH  15  16
ENDBRANCH   1  15
TORSDOF 22
ENDMDL
MODEL 3
REMARK VINA RESULT:    -4.573      2.270      4.916
REMARK INTER + INTRA:         -13.660
REMARK INTER:                  -9.955
REMARK INTRA:                  -3.705
REMARK UNBOUND:                -3.205
REMARK SMILES CCCCCCCCCCCCCCCCCCCCCCCC(=O)[O-]
REMARK SMILES IDX 13 1 14 2 15 3 16 4 17 5 18 6 19 7 20 8 21 9 22 10 23 11
REMARK SMILES IDX 24 12 25 13 26 14 12 15 11 16 10 17 9 18 8 19 7 20 6 21 5 22
REMARK SMILES IDX 4 23 3 24 2 25 1 26
REMARK H PARENT
REMARK Flexibility Score: inf
ROOT
ATOM      1  C   UNL     1     101.338  86.115  84.114  1.00  0.00     0.000 C 
ENDROOT
BRANCH   1   2
ATOM      2  C   UNL     1     102.215  85.085  83.371  1.00  0.00     0.000 C 
BRANCH   2   3
ATOM      3  C   UNL     1     101.446  84.036  82.546  1.00  0.00     0.000 C 
BRANCH   3   4
ATOM      4  C   UNL     1     100.076  83.687  83.150  1.00  0.00     0.000 C 
BRANCH   4   5
ATOM      5  C   UNL     1      98.974  83.569  82.083  1.00  0.00     0.000 C 
BRANCH   5   6
ATOM      6  C   UNL     1      98.822  84.844  81.242  1.00  0.00     0.000 C 
BRANCH   6   7
ATOM      7  C   UNL     1      97.352  85.277  81.163  1.00  0.00     0.000 C 
BRANCH   7   8
ATOM      8  C   UNL     1      97.141  86.533  80.297  1.00  0.00     0.000 C 
BRANCH   8   9
ATOM      9  C   UNL     1      96.036  86.371  79.232  1.00  0.00     0.000 C 
BRANCH   9  10
ATOM     10  C   UNL     1      95.147  85.144  79.499  1.00  0.00     0.006 C 
BRANCH  10  11
ATOM     11  C   UNL     1      93.674  85.529  79.695  1.00  0.00     0.053 C 
BRANCH  11  12
ATOM     12  C   UNL     1      92.979  84.591  80.633  1.00  0.00     0.041 C 
ATOM     13  O   UNL     1      92.806  83.385  80.313  1.00  0.00    -0.550 OA
ATOM     14  O   UNL     1      92.490  85.058  81.847  1.00  0.00    -0.550 OA
ENDBRANCH  11  12
ENDBRANCH  10  11
ENDBRANCH   9  10
ENDBRANCH   8   9
ENDBRANCH   7   8
ENDBRANCH   6   7
ENDBRANCH   5   6
ENDBRANCH   4   5
ENDBRANCH   3   4
ENDBRANCH   2   3
ENDBRANCH   1   2
BRANCH   1  15
ATOM     15  C   UNL     1     100.831  87.291  83.260  1.00  0.00     0.000 C 
BRANCH  15  16
ATOM     16  C   UNL     1      99.329  87.565  83.443  1.00  0.00     0.000 C 
BRANCH  16  17
ATOM     17  C   UNL     1      98.756  86.919  84.718  1.00  0.00     0.000 C 
BRANCH  17  18
ATOM     18  C   UNL     1      97.239  86.657  84.689  1.00  0.00    -0.000 C 
BRANCH  18  19
ATOM     19  C   UNL     1      96.889  85.163  84.684  1.00  0.00    -0.000 C 
BRANCH  19  20
ATOM     20  C   UNL     1      96.226  84.750  86.006  1.00  0.00    -0.000 C 
BRANCH  20  21
ATOM     21  C   UNL     1      95.829  85.951  86.884  1.00  0.00    -0.000 C 
BRANCH  21  22
ATOM     22  C   UNL     1      96.260  85.856  88.360  1.00  0.00    -0.000 C 
BRANCH  22  23
ATOM     23  C   UNL     1      97.627  86.508  88.628  1.00  0.00    -0.000 C 
BRANCH  23  24
ATOM     24  C   UNL     1      98.736  85.479  88.913  1.00  0.00    -0.000 C 
BRANCH  24  25
ATOM     25  C   UNL     1      99.449  84.928  87.664  1.00  0.00    -0.003 C 
ATOM     26  C   UNL     1     100.953  85.197  87.663  1.00  0.00     0.004 C 
ENDBRANCH  24  25
ENDBRANCH  23  24
ENDBRANCH  22  23
ENDBRANCH  21  22
ENDBRANCH  20  21
ENDBRANCH  19  20
ENDBRANCH  18  19
ENDBRANCH  17  18
ENDBRANCH  16  17
ENDBRANCH  15  16
ENDBRANCH   1  15
TORSDOF 22
ENDMDL
MODEL 4
REMARK VINA RESULT:    -4.525      2.620      4.686
REMARK INTER + INTRA:         -13.550
REMARK INTER:                 -10.578
REMARK INTRA:                  -2.972
REMARK UNBOUND:                -3.205
REMARK SMILES CCCCCCCCCCCCCCCCCCCCCCCC(=O)[O-]
REMARK SMILES IDX 13 1 14 2 15 3 16 4 17 5 18 6 19 7 20 8 21 9 22 10 23 11
REMARK SMILES IDX 24 12 25 13 26 14 12 15 11 16 10 17 9 18 8 19 7 20 6 21 5 22
REMARK SMILES IDX 4 23 3 24 2 25 1 26
REMARK H PARENT
REMARK Flexibility Score: inf
ROOT
ATOM      1  C   UNL     1      95.459  86.405  80.157  1.00  0.00     0.000 C 
ENDROOT
BRANCH   1   2
ATOM      2  C   UNL     1      95.053  85.223  79.251  1.00  0.00     0.000 C 
BRANCH   2   3
ATOM      3  C   UNL     1      94.383  84.039  79.971  1.00  0.00     0.000 C 
BRANCH   3   4
ATOM      4  C   UNL     1      92.850  84.053  79.846  1.00  0.00     0.000 C 
BRANCH   4   5
ATOM      5  C   UNL     1      92.347  85.126  78.866  1.00  0.00     0.000 C 
BRANCH   5   6
ATOM      6  C   UNL     1      90.884  85.519  79.114  1.00  0.00     0.000 C 
BRANCH   6   7
ATOM      7  C   UNL     1      90.122  84.386  79.814  1.00  0.00     0.000 C 
BRANCH   7   8
ATOM      8  C   UNL     1      89.286  84.873  81.012  1.00  0.00     0.000 C 
BRANCH   8   9
ATOM      9  C   UNL     1      90.101  85.669  82.051  1.00  0.00     0.000 C 
BRANCH   9  10
ATOM     10  C   UNL     1      90.943  84.752  82.956  1.00  0.00     0.006 C 
BRANCH  10  11
ATOM     11  C   UNL     1      91.474  85.488  84.193  1.00  0.00     0.053 C 
BRANCH  11  12
ATOM     12  C   UNL     1      92.944  85.754  84.090  1.00  0.00     0.041 C 
ATOM     13  O   UNL     1      93.485  85.902  82.962  1.00  0.00    -0.550 OA
ATOM     14  O   UNL     1      93.724  85.802  85.239  1.00  0.00    -0.550 OA
ENDBRANCH  11  12
ENDBRANCH  10  11
ENDBRANCH   9  10
ENDBRANCH   8   9
ENDBRANCH   7   8
ENDBRANCH   6   7
ENDBRANCH   5   6
ENDBRANCH   4   5
ENDBRANCH   3   4
ENDBRANCH   2   3
ENDBRANCH   1   2
BRANCH   1  15
ATOM     15  C   UNL     1      96.890  86.934  79.952  1.00  0.00     0.000 C 
BRANCH  15  16
ATOM     16  C   UNL     1      97.790  86.724  81.181  1.00  0.00     0.000 C 
BRANCH  16  17
ATOM     17  C   UNL     1      96.995  86.371  82.450  1.00  0.00     0.000 C 
BRANCH  17  18
ATOM     18  C   UNL     1      97.256  84.960  83.011  1.00  0.00    -0.000 C 
BRANCH  18  19
ATOM     19  C   UNL     1      97.498  83.915  81.913  1.00  0.00    -0.000 C 
BRANCH  19  20
ATOM     20  C   UNL     1      98.837  83.195  82.127  1.00  0.00    -0.000 C 
BRANCH  20  21
ATOM     21  C   UNL     1     100.056  84.068  81.777  1.00  0.00    -0.000 C 
BRANCH  21  22
ATOM     22  C   UNL     1     101.269  83.906  82.712  1.00  0.00    -0.000 C 
BRANCH  22  23
ATOM     23  C   UNL     1     101.148  84.736  84.002  1.00  0.00    -0.000 C 
BRANCH  23  24
ATOM     24  C   UNL     1     100.658  86.173  83.745  1.00  0.00    -0.000 C 
BRANCH  24  25
ATOM     25  C   UNL     1     101.729  87.137  83.200  1.00  0.00    -0.003 C 
ATOM     26  C   UNL     1     103.024  87.114  84.011  1.00  0.00     0.004 C 
ENDBRANCH  24  25
ENDBRANCH  23  24
ENDBRANCH  22  23
ENDBRANCH  21  22
ENDBRANCH  20  21
ENDBRANCH  19  20
ENDBRANCH  18  19
ENDBRANCH  17  18
ENDBRANCH  16  17
ENDBRANCH  15  16
ENDBRANCH   1  15
TORSDOF 22
ENDMDL
MODEL 5
REMARK VINA RESULT:    -4.512      1.742      3.022
REMARK INTER + INTRA:         -13.521
REMARK INTER:                  -9.695
REMARK INTRA:                  -3.826
REMARK UNBOUND:                -3.205
REMARK SMILES CCCCCCCCCCCCCCCCCCCCCCCC(=O)[O-]
REMARK SMILES IDX 13 1 14 2 15 3 16 4 17 5 18 6 19 7 20 8 21 9 22 10 23 11
REMARK SMILES IDX 24 12 25 13 26 14 12 15 11 16 10 17 9 18 8 19 7 20 6 21 5 22
REMARK SMILES IDX 4 23 3 24 2 25 1 26
REMARK H PARENT
REMARK Flexibility Score: inf
ROOT
ATOM      1  C   UNL     1      98.737  83.629  82.383  1.00  0.00     0.000 C 
ENDROOT
BRANCH   1   2
ATOM      2  C   UNL     1      97.765  84.607  81.689  1.00  0.00     0.000 C 
BRANCH   2   3
ATOM      3  C   UNL     1      98.425  85.660  80.780  1.00  0.00     0.000 C 
BRANCH   3   4
ATOM      4  C   UNL     1      97.613  86.963  80.687  1.00  0.00     0.000 C 
BRANCH   4   5
ATOM      5  C   UNL     1      96.105  86.707  80.520  1.00  0.00     0.000 C 
BRANCH   5   6
ATOM      6  C   UNL     1      95.680  86.604  79.048  1.00  0.00     0.000 C 
BRANCH   6   7
ATOM      7  C   UNL     1      94.701  85.440  78.840  1.00  0.00     0.000 C 
BRANCH   7   8
ATOM      8  C   UNL     1      94.625  84.494  80.051  1.00  0.00     0.000 C 
BRANCH   8   9
ATOM      9  C   UNL     1      93.450  83.497  79.985  1.00  0.00     0.000 C 
BRANCH   9  10
ATOM     10  C   UNL     1      92.142  84.104  80.522  1.00  0.00     0.006 C 
BRANCH  10  11
ATOM     11  C   UNL     1      92.396  85.163  81.603  1.00  0.00     0.053 C 
BRANCH  11  12
ATOM     12  C   UNL     1      91.839  86.497  81.211  1.00  0.00     0.041 C 
ATOM     13  O   UNL     1      91.465  86.706  80.027  1.00  0.00    -0.550 OA
ATOM     14  O   UNL     1      91.764  87.521  82.147  1.00  0.00    -0.550 OA
ENDBRANCH  11  12
ENDBRANCH  10  11
ENDBRANCH   9  10
ENDBRANCH   8   9
ENDBRANCH   7   8
ENDBRANCH   6   7
ENDBRANCH   5   6
ENDBRANCH   4   5
ENDBRANCH   3   4
ENDBRANCH   2   3
ENDBRANCH   1   2
BRANCH   1  15
ATOM     15  C   UNL     1     100.187  83.659  81.867  1.00  0.00     0.000 C 
BRANCH  15  16
ATOM     16  C   UNL     1     101.209  83.999  82.964  1.00  0.00     0.000 C 
BRANCH  16  17
ATOM     17  C   UNL     1     100.561  84.634  84.208  1.00  0.00     0.000 C 
BRANCH  17  18
ATOM     18  C   UNL     1     100.960  86.097  84.475  1.00  0.00    -0.000 C 
BRANCH  18  19
ATOM     19  C   UNL     1     100.029  87.106  83.787  1.00  0.00    -0.000 C 
BRANCH  19  20
ATOM     20  C   UNL     1      98.914  87.561  84.739  1.00  0.00    -0.000 C 
BRANCH  20  21
ATOM     21  C   UNL     1      97.542  86.948  84.402  1.00  0.00    -0.000 C 
BRANCH  21  22
ATOM     22  C   UNL     1      96.785  86.339  85.596  1.00  0.00    -0.000 C 
BRANCH  22  23
ATOM     23  C   UNL     1      97.507  85.127  86.210  1.00  0.00    -0.000 C 
BRANCH  23  24
ATOM     24  C   UNL     1      98.030  85.399  87.633  1.00  0.00    -0.000 C 
BRANCH  24  25
ATOM     25  C   UNL     1      99.525  85.095  87.846  1.00  0.00    -0.003 C 
ATOM     26  C   UNL     1     100.363  86.349  88.091  1.00  0.00     0.004 C 
ENDBRANCH  24  25
ENDBRANCH  23  24
ENDBRANCH  22  23
ENDBRANCH  21  22
ENDBRANCH  20  21
ENDBRANCH  19  20
ENDBRANCH  18  19
ENDBRANCH  17  18
ENDBRANCH  16  17
ENDBRANCH  15  16
ENDBRANCH   1  15
TORSDOF 22
ENDMDL
MODEL 6
REMARK VINA RESULT:    -4.505      2.182      3.960
REMARK INTER + INTRA:         -13.504
REMARK INTER:                  -9.227
REMARK INTRA:                  -4.278
REMARK UNBOUND:                -3.205
REMARK SMILES CCCCCCCCCCCCCCCCCCCCCCCC(=O)[O-]
REMARK SMILES IDX 13 1 14 2 15 3 16 4 17 5 18 6 19 7 20 8 21 9 22 10 23 11
REMARK SMILES IDX 24 12 25 13 26 14 12 15 11 16 10 17 9 18 8 19 7 20 6 21 5 22
REMARK SMILES IDX 4 23 3 24 2 25 1 26
REMARK H PARENT
REMARK Flexibility Score: inf
ROOT
ATOM      1  C   UNL     1      96.760  87.085  84.108  1.00  0.00     0.000 C 
ENDROOT
BRANCH   1   2
ATOM      2  C   UNL     1      95.582  88.037  83.811  1.00  0.00     0.000 C 
BRANCH   2   3
ATOM      3  C   UNL     1      95.844  89.091  82.720  1.00  0.00     0.000 C 
BRANCH   3   4
ATOM      4  C   UNL     1      97.338  89.256  82.393  1.00  0.00     0.000 C 
BRANCH   4   5
ATOM      5  C   UNL     1      97.678  88.829  80.955  1.00  0.00     0.000 C 
BRANCH   5   6
ATOM      6  C   UNL     1      98.532  87.554  80.900  1.00  0.00     0.000 C 
BRANCH   6   7
ATOM      7  C   UNL     1      97.737  86.385  80.303  1.00  0.00     0.000 C 
BRANCH   7   8
ATOM      8  C   UNL     1      96.350  86.805  79.785  1.00  0.00     0.000 C 
BRANCH   8   9
ATOM      9  C   UNL     1      95.180  86.161  80.559  1.00  0.00     0.000 C 
BRANCH   9  10
ATOM     10  C   UNL     1      95.087  84.645  80.316  1.00  0.00     0.006 C 
BRANCH  10  11
ATOM     11  C   UNL     1      94.143  84.301  79.156  1.00  0.00     0.053 C 
BRANCH  11  12
ATOM     12  C   UNL     1      92.706  84.410  79.563  1.00  0.00     0.041 C 
ATOM     13  O   UNL     1      92.348  84.081  80.726  1.00  0.00    -0.550 OA
ATOM     14  O   UNL     1      91.755  84.843  78.647  1.00  0.00    -0.550 OA
ENDBRANCH  11  12
ENDBRANCH  10  11
ENDBRANCH   9  10
ENDBRANCH   8   9
ENDBRANCH   7   8
ENDBRANCH   6   7
ENDBRANCH   5   6
ENDBRANCH   4   5
ENDBRANCH   3   4
ENDBRANCH   2   3
ENDBRANCH   1   2
BRANCH   1  15
ATOM     15  C   UNL     1      96.477  85.589  83.875  1.00  0.00     0.000 C 
BRANCH  15  16
ATOM     16  C   UNL     1      97.754  84.735  83.834  1.00  0.00     0.000 C 
BRANCH  16  17
ATOM     17  C   UNL     1      97.824  83.824  82.595  1.00  0.00     0.000 C 
BRANCH  17  18
ATOM     18  C   UNL     1      99.241  83.588  82.039  1.00  0.00    -0.000 C 
BRANCH  18  19
ATOM     19  C   UNL     1     100.327  83.651  83.122  1.00  0.00    -0.000 C 
BRANCH  19  20
ATOM     20  C   UNL     1     101.587  84.354  82.596  1.00  0.00    -0.000 C 
BRANCH  20  21
ATOM     21  C   UNL     1     102.255  85.264  83.644  1.00  0.00    -0.000 C 
BRANCH  21  22
ATOM     22  C   UNL     1     101.780  86.729  83.639  1.00  0.00    -0.000 C 
BRANCH  22  23
ATOM     23  C   UNL     1     100.501  86.947  84.466  1.00  0.00    -0.000 C 
BRANCH  23  24
ATOM     24  C   UNL     1     100.718  86.726  85.974  1.00  0.00    -0.000 C 
BRANCH  24  25
ATOM     25  C   UNL     1      99.837  85.631  86.604  1.00  0.00    -0.003 C 
ATOM     26  C   UNL     1     100.578  84.311  86.812  1.00  0.00     0.004 C 
ENDBRANCH  24  25
ENDBRANCH  23  24
ENDBRANCH  22  23
ENDBRANCH  21  22
ENDBRANCH  20  21
ENDBRANCH  19  20
ENDBRANCH  18  19
ENDBRANCH  17  18
ENDBRANCH  16  17
ENDBRANCH  15  16
ENDBRANCH   1  15
TORSDOF 22
ENDMDL
MODEL 7
REMARK VINA RESULT:    -4.453      3.630      8.247
REMARK INTER + INTRA:         -13.385
REMARK INTER:                 -10.306
REMARK INTRA:                  -3.080
REMARK UNBOUND:                -3.205
REMARK SMILES CCCCCCCCCCCCCCCCCCCCCCCC(=O)[O-]
REMARK SMILES IDX 13 1 14 2 15 3 16 4 17 5 18 6 19 7 20 8 21 9 22 10 23 11
REMARK SMILES IDX 24 12 25 13 26 14 12 15 11 16 10 17 9 18 8 19 7 20 6 21 5 22
REMARK SMILES IDX 4 23 3 24 2 25 1 26
REMARK H PARENT
REMARK Flexibility Score: inf
ROOT
ATOM      1  C   UNL     1      96.575  87.093  82.093  1.00  0.00     0.000 C 
ENDROOT
BRANCH   1   2
ATOM      2  C   UNL     1      97.795  86.318  82.634  1.00  0.00     0.000 C 
BRANCH   2   3
ATOM      3  C   UNL     1      97.528  84.851  83.017  1.00  0.00     0.000 C 
BRANCH   3   4
ATOM      4  C   UNL     1      98.050  83.855  81.968  1.00  0.00     0.000 C 
BRANCH   4   5
ATOM      5  C   UNL     1      99.550  84.033  81.679  1.00  0.00     0.000 C 
BRANCH   5   6
ATOM      6  C   UNL     1     100.431  83.722  82.897  1.00  0.00     0.000 C 
BRANCH   6   7
ATOM      7  C   UNL     1     101.228  84.960  83.330  1.00  0.00     0.000 C 
BRANCH   7   8
ATOM      8  C   UNL     1     101.014  85.327  84.809  1.00  0.00     0.000 C 
BRANCH   8   9
ATOM      9  C   UNL     1     100.691  84.113  85.706  1.00  0.00     0.000 C 
BRANCH   9  10
ATOM     10  C   UNL     1     100.081  84.534  87.055  1.00  0.00     0.006 C 
BRANCH  10  11
ATOM     11  C   UNL     1      99.156  85.750  86.917  1.00  0.00     0.053 C 
BRANCH  11  12
ATOM     12  C   UNL     1      97.747  85.417  87.300  1.00  0.00     0.041 C 
ATOM     13  O   UNL     1      96.934  84.998  86.433  1.00  0.00    -0.550 OA
ATOM     14  O   UNL     1      97.320  85.603  88.610  1.00  0.00    -0.550 OA
ENDBRANCH  11  12
ENDBRANCH  10  11
ENDBRANCH   9  10
ENDBRANCH   8   9
ENDBRANCH   7   8
ENDBRANCH   6   7
ENDBRANCH   5   6
ENDBRANCH   4   5
ENDBRANCH   3   4
ENDBRANCH   2   3
ENDBRANCH   1   2
BRANCH   1  15
ATOM     15  C   UNL     1      96.619  87.430  80.591  1.00  0.00     0.000 C 
BRANCH  15  16
ATOM     16  C   UNL     1      96.282  86.226  79.695  1.00  0.00     0.000 C 
BRANCH  16  17
ATOM     17  C   UNL     1      94.914  85.601  80.024  1.00  0.00     0.000 C 
BRANCH  17  18
ATOM     18  C   UNL     1      94.656  84.225  79.383  1.00  0.00    -0.000 C 
BRANCH  18  19
ATOM     19  C   UNL     1      93.490  83.469  80.036  1.00  0.00    -0.000 C 
BRANCH  19  20
ATOM     20  C   UNL     1      92.200  84.299  79.983  1.00  0.00    -0.000 C 
BRANCH  20  21
ATOM     21  C   UNL     1      91.200  83.934  81.096  1.00  0.00    -0.000 C 
BRANCH  21  22
ATOM     22  C   UNL     1      90.159  85.021  81.424  1.00  0.00    -0.000 C 
BRANCH  22  23
ATOM     23  C   UNL     1      90.658  86.033  82.470  1.00  0.00    -0.000 C 
BRANCH  23  24
ATOM     24  C   UNL     1      91.777  85.467  83.364  1.00  0.00    -0.000 C 
BRANCH  24  25
ATOM     25  C   UNL     1      93.093  86.266  83.343  1.00  0.00    -0.003 C 
ATOM     26  C   UNL     1      94.012  85.939  84.520  1.00  0.00     0.004 C 
ENDBRANCH  24  25
ENDBRANCH  23  24
ENDBRANCH  22  23
ENDBRANCH  21  22
ENDBRANCH  20  21
ENDBRANCH  19  20
ENDBRANCH  18  19
ENDBRANCH  17  18
ENDBRANCH  16  17
ENDBRANCH  15  16
ENDBRANCH   1  15
TORSDOF 22
ENDMDL
MODEL 8
REMARK VINA RESULT:    -4.451      3.620      8.002
REMARK INTER + INTRA:         -13.381
REMARK INTER:                  -9.897
REMARK INTRA:                  -3.483
REMARK UNBOUND:                -3.205
REMARK SMILES CCCCCCCCCCCCCCCCCCCCCCCC(=O)[O-]
REMARK SMILES IDX 13 1 14 2 15 3 16 4 17 5 18 6 19 7 20 8 21 9 22 10 23 11
REMARK SMILES IDX 24 12 25 13 26 14 12 15 11 16 10 17 9 18 8 19 7 20 6 21 5 22
REMARK SMILES IDX 4 23 3 24 2 25 1 26
REMARK H PARENT
REMARK Flexibility Score: inf
ROOT
ATOM      1  C   UNL     1      98.289  84.515  81.698  1.00  0.00     0.000 C 
ENDROOT
BRANCH   1   2
ATOM      2  C   UNL     1      99.583  83.684  81.833  1.00  0.00     0.000 C 
BRANCH   2   3
ATOM      3  C   UNL     1     100.279  83.765  83.204  1.00  0.00     0.000 C 
BRANCH   3   4
ATOM      4  C   UNL     1     101.652  84.455  83.139  1.00  0.00     0.000 C 
BRANCH   4   5
ATOM      5  C   UNL     1     101.541  85.989  83.115  1.00  0.00     0.000 C 
BRANCH   5   6
ATOM      6  C   UNL     1     101.900  86.631  84.462  1.00  0.00     0.000 C 
BRANCH   6   7
ATOM      7  C   UNL     1     100.670  87.289  85.102  1.00  0.00     0.000 C 
BRANCH   7   8
ATOM      8  C   UNL     1      99.447  87.315  84.168  1.00  0.00     0.000 C 
BRANCH   8   9
ATOM      9  C   UNL     1      98.111  87.542  84.905  1.00  0.00     0.000 C 
BRANCH   9  10
ATOM     10  C   UNL     1      97.007  86.590  84.412  1.00  0.00     0.006 C 
BRANCH  10  11
ATOM     11  C   UNL     1      97.149  85.182  85.005  1.00  0.00     0.053 C 
BRANCH  11  12
ATOM     12  C   UNL     1      97.454  85.229  86.471  1.00  0.00     0.041 C 
ATOM     13  O   UNL     1      96.573  85.600  87.291  1.00  0.00    -0.550 OA
ATOM     14  O   UNL     1      98.723  84.895  86.928  1.00  0.00    -0.550 OA
ENDBRANCH  11  12
ENDBRANCH  10  11
ENDBRANCH   9  10
ENDBRANCH   8   9
ENDBRANCH   7   8
ENDBRANCH   6   7
ENDBRANCH   5   6
ENDBRANCH   4   5
ENDBRANCH   3   4
ENDBRANCH   2   3
ENDBRANCH   1   2
BRANCH   1  15
ATOM     15  C   UNL     1      98.416  85.807  80.869  1.00  0.00     0.000 C 
BRANCH  15  16
ATOM     16  C   UNL     1      97.063  86.323  80.352  1.00  0.00     0.000 C 
BRANCH  16  17
ATOM     17  C   UNL     1      95.882  85.429  80.771  1.00  0.00     0.000 C 
BRANCH  17  18
ATOM     18  C   UNL     1      94.717  85.376  79.765  1.00  0.00    -0.000 C 
BRANCH  18  19
ATOM     19  C   UNL     1      94.396  83.950  79.296  1.00  0.00    -0.000 C 
BRANCH  19  20
ATOM     20  C   UNL     1      93.197  83.377  80.066  1.00  0.00    -0.000 C 
BRANCH  20  21
ATOM     21  C   UNL     1      91.983  84.324  80.088  1.00  0.00    -0.000 C 
BRANCH  21  22
ATOM     22  C   UNL     1      90.860  83.929  81.065  1.00  0.00    -0.000 C 
BRANCH  22  23
ATOM     23  C   UNL     1      90.911  84.714  82.386  1.00  0.00    -0.000 C 
BRANCH  23  24
ATOM     24  C   UNL     1      91.749  86.002  82.286  1.00  0.00    -0.000 C 
BRANCH  24  25
ATOM     25  C   UNL     1      93.022  86.018  83.152  1.00  0.00    -0.003 C 
ATOM     26  C   UNL     1      93.722  87.377  83.164  1.00  0.00     0.004 C 
ENDBRANCH  24  25
ENDBRANCH  23  24
ENDBRANCH  22  23
ENDBRANCH  21  22
ENDBRANCH  20  21
ENDBRANCH  19  20
ENDBRANCH  18  19
ENDBRANCH  17  18
ENDBRANCH  16  17
ENDBRANCH  15  16
ENDBRANCH   1  15
TORSDOF 22
ENDMDL
MODEL 9
REMARK VINA RESULT:    -4.435      2.464      4.985
REMARK INTER + INTRA:         -13.344
REMARK INTER:                 -10.018
REMARK INTRA:                  -3.326
REMARK UNBOUND:                -3.205
REMARK SMILES CCCCCCCCCCCCCCCCCCCCCCCC(=O)[O-]
REMARK SMILES IDX 13 1 14 2 15 3 16 4 17 5 18 6 19 7 20 8 21 9 22 10 23 11
REMARK SMILES IDX 24 12 25 13 26 14 12 15 11 16 10 17 9 18 8 19 7 20 6 21 5 22
REMARK SMILES IDX 4 23 3 24 2 25 1 26
REMARK H PARENT
REMARK Flexibility Score: inf
ROOT
ATOM      1  C   UNL     1     101.321  84.530  83.498  1.00  0.00     0.000 C 
ENDROOT
BRANCH   1   2
ATOM      2  C   UNL     1     102.479  85.545  83.402  1.00  0.00     0.000 C 
BRANCH   2   3
ATOM      3  C   UNL     1     102.088  87.016  83.634  1.00  0.00     0.000 C 
BRANCH   3   4
ATOM      4  C   UNL     1     100.618  87.307  83.285  1.00  0.00     0.000 C 
BRANCH   4   5
ATOM      5  C   UNL     1     100.446  88.619  82.501  1.00  0.00     0.000 C 
BRANCH   5   6
ATOM      6  C   UNL     1      99.088  88.713  81.792  1.00  0.00     0.000 C 
BRANCH   6   7
ATOM      7  C   UNL     1      98.700  87.367  81.165  1.00  0.00     0.000 C 
BRANCH   7   8
ATOM      8  C   UNL     1      97.218  87.298  80.755  1.00  0.00     0.000 C 
BRANCH   8   9
ATOM      9  C   UNL     1      96.913  86.193  79.723  1.00  0.00     0.000 C 
BRANCH   9  10
ATOM     10  C   UNL     1      95.408  86.070  79.431  1.00  0.00     0.006 C 
BRANCH  10  11
ATOM     11  C   UNL     1      94.635  85.474  80.616  1.00  0.00     0.053 C 
BRANCH  11  12
ATOM     12  C   UNL     1      93.623  84.467  80.164  1.00  0.00     0.041 C 
ATOM     13  O   UNL     1      93.813  83.803  79.111  1.00  0.00    -0.550 OA
ATOM     14  O   UNL     1      92.451  84.286  80.889  1.00  0.00    -0.550 OA
ENDBRANCH  11  12
ENDBRANCH  10  11
ENDBRANCH   9  10
ENDBRANCH   8   9
ENDBRANCH   7   8
ENDBRANCH   6   7
ENDBRANCH   5   6
ENDBRANCH   4   5
ENDBRANCH   3   4
ENDBRANCH   2   3
ENDBRANCH   1   2
BRANCH   1  15
ATOM     15  C   UNL     1     101.068  83.693  82.230  1.00  0.00     0.000 C 
BRANCH  15  16
ATOM     16  C   UNL     1      99.729  84.024  81.550  1.00  0.00     0.000 C 
BRANCH  16  17
ATOM     17  C   UNL     1      98.546  83.240  82.145  1.00  0.00     0.000 C 
BRANCH  17  18
ATOM     18  C   UNL     1      97.394  84.109  82.683  1.00  0.00    -0.000 C 
BRANCH  18  19
ATOM     19  C   UNL     1      97.819  85.012  83.850  1.00  0.00    -0.000 C 
BRANCH  19  20
ATOM     20  C   UNL     1      96.593  85.567  84.589  1.00  0.00    -0.000 C 
BRANCH  20  21
ATOM     21  C   UNL     1      96.184  84.716  85.806  1.00  0.00    -0.000 C 
BRANCH  21  22
ATOM     22  C   UNL     1      96.247  85.440  87.164  1.00  0.00    -0.000 C 
BRANCH  22  23
ATOM     23  C   UNL     1      97.595  86.140  87.408  1.00  0.00    -0.000 C 
BRANCH  23  24
ATOM     24  C   UNL     1      98.469  85.412  88.445  1.00  0.00    -0.000 C 
BRANCH  24  25
ATOM     25  C   UNL     1      99.930  85.178  88.017  1.00  0.00    -0.003 C 
ATOM     26  C   UNL     1     100.061  84.228  86.827  1.00  0.00     0.004 C 
ENDBRANCH  24  25
ENDBRANCH  23  24
ENDBRANCH  22  23
ENDBRANCH  21  22
ENDBRANCH  20  21
ENDBRANCH  19  20
ENDBRANCH  18  19
ENDBRANCH  17  18
ENDBRANCH  16  17
ENDBRANCH  15  16
ENDBRANCH   1  15
TORSDOF 22
ENDMDL
