MODEL 1
REMARK VINA RESULT:    37.119      0.000      0.000
REMARK INTER + INTRA:          46.248
REMARK INTER:                  46.884
REMARK INTRA:                  -0.636
REMARK UNBOUND:                -0.636
REMARK SMILES O=C(C=Cc1ccc(O)cc1)c1ccc(O)cc1O
REMARK SMILES IDX 4 1 3 2 5 3 6 4 7 5 8 6 11 7 10 8 9 9 2 11 1 12 12 13 18 14
REMARK SMILES IDX 13 15 17 16 14 17 15 18 19 19 16 21
REMARK H PARENT 9 10 19 20 16 22
REMARK Flexibility Score: inf
ROOT
ATOM      1  C   UNL     1     -42.551  24.611 -10.254  1.00  0.00     0.012 C 
ATOM      2  C   UNL     1     -42.545  24.782 -11.583  1.00  0.00     0.053 C 
ENDROOT
BRANCH   1   3
ATOM      3  C   UNL     1     -43.681  25.011  -9.378  1.00  0.00    -0.025 A 
ATOM      4  C   UNL     1     -44.899  25.376  -9.976  1.00  0.00     0.012 A 
ATOM      5  C   UNL     1     -45.993  25.750  -9.190  1.00  0.00     0.047 A 
ATOM      6  C   UNL     1     -45.888  25.753  -7.794  1.00  0.00     0.115 A 
ATOM      7  C   UNL     1     -43.589  25.001  -7.972  1.00  0.00     0.012 A 
ATOM      8  C   UNL     1     -44.685  25.376  -7.188  1.00  0.00     0.047 A 
BRANCH   6   9
ATOM      9  O   UNL     1     -46.971  26.124  -7.000  1.00  0.00    -0.508 OA
ATOM     10  H   UNL     1     -47.919  25.860  -7.241  1.00  0.00     0.293 HD
ENDBRANCH   6   9
ENDBRANCH   1   3
BRANCH   2  11
ATOM     11  C   UNL     1     -41.407  24.357 -12.427  1.00  0.00     0.189 C 
ATOM     12  O   UNL     1     -40.255  24.250 -11.921  1.00  0.00    -0.289 OA
BRANCH  11  13
ATOM     13  C   UNL     1     -41.601  24.001 -13.852  1.00  0.00     0.064 A 
ATOM     14  C   UNL     1     -40.652  24.344 -14.841  1.00  0.00     0.130 A 
ATOM     15  C   UNL     1     -42.748  23.281 -14.227  1.00  0.00     0.020 A 
ATOM     16  C   UNL     1     -40.886  24.000 -16.182  1.00  0.00     0.093 A 
ATOM     17  C   UNL     1     -42.969  22.937 -15.563  1.00  0.00     0.047 A 
ATOM     18  C   UNL     1     -42.039  23.300 -16.543  1.00  0.00     0.119 A 
BRANCH  14  19
ATOM     19  O   UNL     1     -39.471  25.000 -14.495  1.00  0.00    -0.507 OA
ATOM     20  H   UNL     1     -38.845  25.377 -15.198  1.00  0.00     0.293 HD
ENDBRANCH  14  19
BRANCH  18  21
ATOM     21  O   UNL     1     -42.250  22.966 -17.879  1.00  0.00    -0.508 OA
ATOM     22  H   UNL     1     -41.834  22.139 -18.291  1.00  0.00     0.293 HD
ENDBRANCH  18  21
ENDBRANCH  11  13
ENDBRANCH   2  11
TORSDOF 6
ENDMDL
MODEL 2
REMARK VINA RESULT:    37.701     10.918     12.964
REMARK INTER + INTRA:          46.983
REMARK INTER:                  47.501
REMARK INTRA:                  -0.518
REMARK UNBOUND:                -0.636
REMARK SMILES O=C(C=Cc1ccc(O)cc1)c1ccc(O)cc1O
REMARK SMILES IDX 4 1 3 2 5 3 6 4 7 5 8 6 11 7 10 8 9 9 2 11 1 12 12 13 18 14
REMARK SMILES IDX 13 15 17 16 14 17 15 18 19 19 16 21
REMARK H PARENT 9 10 19 20 16 22
REMARK Flexibility Score: inf
ROOT
ATOM      1  C   UNL     1     -40.684  29.919 -22.387  1.00  0.00     0.012 C 
ATOM      2  C   UNL     1     -39.701  29.526 -21.565  1.00  0.00     0.053 C 
ENDROOT
BRANCH   1   3
ATOM      3  C   UNL     1     -41.982  30.463 -21.916  1.00  0.00    -0.025 A 
ATOM      4  C   UNL     1     -42.546  31.550 -22.606  1.00  0.00     0.012 A 
ATOM      5  C   UNL     1     -43.772  32.088 -22.204  1.00  0.00     0.047 A 
ATOM      6  C   UNL     1     -44.458  31.539 -21.114  1.00  0.00     0.115 A 
ATOM      7  C   UNL     1     -42.687  29.907 -20.830  1.00  0.00     0.012 A 
ATOM      8  C   UNL     1     -43.913  30.447 -20.431  1.00  0.00     0.047 A 
BRANCH   6   9
ATOM      9  O   UNL     1     -45.680  32.067 -20.704  1.00  0.00    -0.508 OA
ATOM     10  H   UNL     1     -46.021  31.941 -19.759  1.00  0.00     0.293 HD
ENDBRANCH   6   9
ENDBRANCH   1   3
BRANCH   2  11
ATOM     11  C   UNL     1     -38.413  29.003 -22.070  1.00  0.00     0.189 C 
ATOM     12  O   UNL     1     -37.957  27.916 -21.620  1.00  0.00    -0.289 OA
BRANCH  11  13
ATOM     13  C   UNL     1     -37.666  29.708 -23.139  1.00  0.00     0.064 A 
ATOM     14  C   UNL     1     -36.933  29.006 -24.122  1.00  0.00     0.130 A 
ATOM     15  C   UNL     1     -37.711  31.111 -23.192  1.00  0.00     0.020 A 
ATOM     16  C   UNL     1     -36.229  29.717 -25.107  1.00  0.00     0.093 A 
ATOM     17  C   UNL     1     -37.012  31.809 -24.179  1.00  0.00     0.047 A 
ATOM     18  C   UNL     1     -36.266  31.113 -25.136  1.00  0.00     0.119 A 
BRANCH  14  19
ATOM     19  O   UNL     1     -36.923  27.612 -24.140  1.00  0.00    -0.507 OA
ATOM     20  H   UNL     1     -36.202  27.078 -23.667  1.00  0.00     0.293 HD
ENDBRANCH  14  19
BRANCH  18  21
ATOM     21  O   UNL     1     -35.562  31.798 -26.124  1.00  0.00    -0.508 OA
ATOM     22  H   UNL     1     -34.884  32.514 -25.891  1.00  0.00     0.293 HD
ENDBRANCH  18  21
ENDBRANCH  11  13
ENDBRANCH   2  11
TORSDOF 6
ENDMDL
MODEL 3
REMARK VINA RESULT:    38.113      3.279      5.683
REMARK INTER + INTRA:          47.504
REMARK INTER:                  48.053
REMARK INTRA:                  -0.549
REMARK UNBOUND:                -0.636
REMARK SMILES O=C(C=Cc1ccc(O)cc1)c1ccc(O)cc1O
REMARK SMILES IDX 4 1 3 2 5 3 6 4 7 5 8 6 11 7 10 8 9 9 2 11 1 12 12 13 18 14
REMARK SMILES IDX 13 15 17 16 14 17 15 18 19 19 16 21
REMARK H PARENT 9 10 19 20 16 22
REMARK Flexibility Score: inf
ROOT
ATOM      1  C   UNL     1     -40.772  24.194 -15.663  1.00  0.00     0.012 C 
ATOM      2  C   UNL     1     -41.727  23.902 -16.556  1.00  0.00     0.053 C 
ENDROOT
BRANCH   1   3
ATOM      3  C   UNL     1     -41.025  24.349 -14.209  1.00  0.00    -0.025 A 
ATOM      4  C   UNL     1     -42.352  24.306 -13.749  1.00  0.00     0.012 A 
ATOM      5  C   UNL     1     -42.637  24.439 -12.386  1.00  0.00     0.047 A 
ATOM      6  C   UNL     1     -41.597  24.603 -11.463  1.00  0.00     0.115 A 
ATOM      7  C   UNL     1     -39.984  24.500 -13.271  1.00  0.00     0.012 A 
ATOM      8  C   UNL     1     -40.272  24.631 -11.909  1.00  0.00     0.047 A 
BRANCH   6   9
ATOM      9  O   UNL     1     -41.869  24.737 -10.103  1.00  0.00    -0.508 OA
ATOM     10  H   UNL     1     -42.775  25.045  -9.772  1.00  0.00     0.293 HD
ENDBRANCH   6   9
ENDBRANCH   1   3
BRANCH   2  11
ATOM     11  C   UNL     1     -41.435  23.739 -17.998  1.00  0.00     0.189 C 
ATOM     12  O   UNL     1     -42.175  24.296 -18.855  1.00  0.00    -0.289 OA
BRANCH  11  13
ATOM     13  C   UNL     1     -40.254  22.972 -18.458  1.00  0.00     0.064 A 
ATOM     14  C   UNL     1     -40.308  21.576 -18.667  1.00  0.00     0.130 A 
ATOM     15  C   UNL     1     -39.054  23.656 -18.718  1.00  0.00     0.020 A 
ATOM     16  C   UNL     1     -39.159  20.889 -19.089  1.00  0.00     0.093 A 
ATOM     17  C   UNL     1     -37.918  22.964 -19.144  1.00  0.00     0.047 A 
ATOM     18  C   UNL     1     -37.968  21.577 -19.326  1.00  0.00     0.119 A 
BRANCH  14  19
ATOM     19  O   UNL     1     -41.500  20.876 -18.483  1.00  0.00    -0.507 OA
ATOM     20  H   UNL     1     -41.525  19.862 -18.464  1.00  0.00     0.293 HD
ENDBRANCH  14  19
BRANCH  18  21
ATOM     21  O   UNL     1     -36.840  20.876 -19.747  1.00  0.00    -0.508 OA
ATOM     22  H   UNL     1     -35.998  20.840 -19.185  1.00  0.00     0.293 HD
ENDBRANCH  18  21
ENDBRANCH  11  13
ENDBRANCH   2  11
TORSDOF 6
ENDMDL
