MODEL 1
REMARK VINA RESULT:    -5.511      0.000      0.000
REMARK INTER + INTRA:          -6.766
REMARK INTER:                  -6.478
REMARK INTRA:                  -0.288
REMARK UNBOUND:                -0.288
REMARK SMILES O=c1c(O)c(-c2ccc(O)c(O)c2)oc2cc(O)ccc12
REMARK SMILES IDX 5 1 3 2 2 3 1 4 21 5 15 6 14 7 16 8 17 9 19 10 20 11 6 12
REMARK SMILES IDX 7 13 8 14 9 15 13 16 11 17 10 18 12 20 4 22 18 24
REMARK H PARENT 10 19 12 21 4 23 18 25
REMARK Flexibility Score: inf
ROOT
ATOM      1  C   UNL     1      -8.038  91.160 -13.609  1.00  0.00     0.180 A 
ATOM      2  C   UNL     1      -7.276  91.234 -12.425  1.00  0.00     0.208 A 
ATOM      3  C   UNL     1      -5.876  91.241 -12.521  1.00  0.00     0.235 A 
ATOM      4  O   UNL     1      -5.172  91.317 -11.476  1.00  0.00    -0.285 OA
ATOM      5  C   UNL     1      -5.270  91.152 -13.785  1.00  0.00     0.069 A 
ATOM      6  C   UNL     1      -6.103  91.057 -14.921  1.00  0.00     0.142 A 
ATOM      7  O   UNL     1      -7.425  91.063 -14.787  1.00  0.00    -0.452 OA
ATOM      8  C   UNL     1      -5.537  90.958 -16.197  1.00  0.00     0.094 A 
ATOM      9  C   UNL     1      -4.147  90.955 -16.354  1.00  0.00     0.119 A 
ATOM     10  C   UNL     1      -3.317  91.050 -15.229  1.00  0.00     0.047 A 
ATOM     11  C   UNL     1      -3.873  91.149 -13.949  1.00  0.00     0.020 A 
ENDROOT
BRANCH   1  12
ATOM     12  C   UNL     1      -9.518  91.167 -13.593  1.00  0.00     0.025 A 
ATOM     13  C   UNL     1     -10.201  92.381 -13.433  1.00  0.00     0.016 A 
ATOM     14  C   UNL     1     -11.596  92.407 -13.395  1.00  0.00     0.051 A 
ATOM     15  C   UNL     1     -12.336  91.225 -13.500  1.00  0.00     0.157 A 
ATOM     16  C   UNL     1     -10.257  89.974 -13.676  1.00  0.00     0.062 A 
ATOM     17  C   UNL     1     -11.657  89.990 -13.635  1.00  0.00     0.158 A 
BRANCH  15  18
ATOM     18  O   UNL     1     -13.729  91.320 -13.463  1.00  0.00    -0.504 OA
ATOM     19  H   UNL     1     -14.337  90.585 -13.133  1.00  0.00     0.293 HD
ENDBRANCH  15  18
BRANCH  17  20
ATOM     20  O   UNL     1     -12.326  88.768 -13.725  1.00  0.00    -0.504 OA
ATOM     21  H   UNL     1     -12.052  87.936 -13.225  1.00  0.00     0.293 HD
ENDBRANCH  17  20
ENDBRANCH   1  12
BRANCH   2  22
ATOM     22  O   UNL     1      -7.906  91.270 -11.179  1.00  0.00    -0.502 OA
ATOM     23  H   UNL     1      -7.432  91.584 -10.340  1.00  0.00     0.293 HD
ENDBRANCH   2  22
BRANCH   9  24
ATOM     24  O   UNL     1      -3.602  90.855 -17.632  1.00  0.00    -0.508 OA
ATOM     25  H   UNL     1      -2.674  90.475 -17.783  1.00  0.00     0.293 HD
ENDBRANCH   9  24
TORSDOF 5
ENDMDL
MODEL 2
REMARK VINA RESULT:    -5.176      5.964      8.053
REMARK INTER + INTRA:          -6.372
REMARK INTER:                  -6.049
REMARK INTRA:                  -0.323
REMARK UNBOUND:                -0.288
REMARK SMILES O=c1c(O)c(-c2ccc(O)c(O)c2)oc2cc(O)ccc12
REMARK SMILES IDX 5 1 3 2 2 3 1 4 21 5 15 6 14 7 16 8 17 9 19 10 20 11 6 12
REMARK SMILES IDX 7 13 8 14 9 15 13 16 11 17 10 18 12 20 4 22 18 24
REMARK H PARENT 10 19 12 21 4 23 18 25
REMARK Flexibility Score: inf
ROOT
ATOM      1  C   UNL     1      -4.430  88.416  -8.566  1.00  0.00     0.180 A 
ATOM      2  C   UNL     1      -3.330  88.149  -7.725  1.00  0.00     0.208 A 
ATOM      3  C   UNL     1      -2.865  86.829  -7.619  1.00  0.00     0.235 A 
ATOM      4  O   UNL     1      -1.876  86.567  -6.881  1.00  0.00    -0.285 OA
ATOM      5  C   UNL     1      -3.515  85.808  -8.331  1.00  0.00     0.069 A 
ATOM      6  C   UNL     1      -4.624  86.154  -9.133  1.00  0.00     0.142 A 
ATOM      7  O   UNL     1      -5.027  87.418  -9.214  1.00  0.00    -0.452 OA
ATOM      8  C   UNL     1      -5.304  85.164  -9.851  1.00  0.00     0.094 A 
ATOM      9  C   UNL     1      -4.888  83.830  -9.781  1.00  0.00     0.119 A 
ATOM     10  C   UNL     1      -3.787  83.484  -8.986  1.00  0.00     0.047 A 
ATOM     11  C   UNL     1      -3.101  84.466  -8.264  1.00  0.00     0.020 A 
ENDROOT
BRANCH   1  12
ATOM     12  C   UNL     1      -4.968  89.784  -8.746  1.00  0.00     0.025 A 
ATOM     13  C   UNL     1      -5.996  90.236  -7.908  1.00  0.00     0.016 A 
ATOM     14  C   UNL     1      -6.531  91.515  -8.074  1.00  0.00     0.051 A 
ATOM     15  C   UNL     1      -6.063  92.360  -9.086  1.00  0.00     0.157 A 
ATOM     16  C   UNL     1      -4.510  90.621  -9.779  1.00  0.00     0.062 A 
ATOM     17  C   UNL     1      -5.043  91.904  -9.955  1.00  0.00     0.158 A 
BRANCH  15  18
ATOM     18  O   UNL     1      -6.634  93.629  -9.193  1.00  0.00    -0.504 OA
ATOM     19  H   UNL     1      -6.373  94.309  -9.893  1.00  0.00     0.293 HD
ENDBRANCH  15  18
BRANCH  17  20
ATOM     20  O   UNL     1      -4.540  92.681 -11.000  1.00  0.00    -0.504 OA
ATOM     21  H   UNL     1      -4.094  92.302 -11.822  1.00  0.00     0.293 HD
ENDBRANCH  17  20
ENDBRANCH   1  12
BRANCH   2  22
ATOM     22  O   UNL     1      -2.736  89.177  -6.990  1.00  0.00    -0.502 OA
ATOM     23  H   UNL     1      -1.772  89.458  -7.131  1.00  0.00     0.293 HD
ENDBRANCH   2  22
BRANCH   9  24
ATOM     24  O   UNL     1      -5.577  82.858 -10.502  1.00  0.00    -0.508 OA
ATOM     25  H   UNL     1      -5.977  82.045 -10.046  1.00  0.00     0.293 HD
ENDBRANCH   9  24
TORSDOF 5
ENDMDL
MODEL 3
REMARK VINA RESULT:    -5.159      4.103      7.083
REMARK INTER + INTRA:          -6.352
REMARK INTER:                  -6.043
REMARK INTRA:                  -0.309
REMARK UNBOUND:                -0.288
REMARK SMILES O=c1c(O)c(-c2ccc(O)c(O)c2)oc2cc(O)ccc12
REMARK SMILES IDX 5 1 3 2 2 3 1 4 21 5 15 6 14 7 16 8 17 9 19 10 20 11 6 12
REMARK SMILES IDX 7 13 8 14 9 15 13 16 11 17 10 18 12 20 4 22 18 24
REMARK H PARENT 10 19 12 21 4 23 18 25
REMARK Flexibility Score: inf
ROOT
ATOM      1  C   UNL     1      -4.313  91.963 -17.643  1.00  0.00     0.180 A 
ATOM      2  C   UNL     1      -3.140  91.604 -18.337  1.00  0.00     0.208 A 
ATOM      3  C   UNL     1      -2.940  92.107 -19.632  1.00  0.00     0.235 A 
ATOM      4  O   UNL     1      -1.892  91.809 -20.269  1.00  0.00    -0.285 OA
ATOM      5  C   UNL     1      -3.916  92.934 -20.210  1.00  0.00     0.069 A 
ATOM      6  C   UNL     1      -5.075  93.227 -19.458  1.00  0.00     0.142 A 
ATOM      7  O   UNL     1      -5.222  92.738 -18.232  1.00  0.00    -0.452 OA
ATOM      8  C   UNL     1      -6.075  94.040 -20.004  1.00  0.00     0.094 A 
ATOM      9  C   UNL     1      -5.932  94.566 -21.292  1.00  0.00     0.119 A 
ATOM     10  C   UNL     1      -4.783  94.278 -22.040  1.00  0.00     0.047 A 
ATOM     11  C   UNL     1      -3.778  93.466 -21.505  1.00  0.00     0.020 A 
ENDROOT
BRANCH   1  12
ATOM     12  C   UNL     1      -4.589  91.489 -16.267  1.00  0.00     0.025 A 
ATOM     13  C   UNL     1      -5.485  90.429 -16.070  1.00  0.00     0.016 A 
ATOM     14  C   UNL     1      -5.774  89.979 -14.780  1.00  0.00     0.051 A 
ATOM     15  C   UNL     1      -5.189  90.587 -13.664  1.00  0.00     0.157 A 
ATOM     16  C   UNL     1      -4.017  92.117 -15.148  1.00  0.00     0.062 A 
ATOM     17  C   UNL     1      -4.304  91.676 -13.850  1.00  0.00     0.158 A 
BRANCH  15  18
ATOM     18  O   UNL     1      -5.514  90.085 -12.402  1.00  0.00    -0.504 OA
ATOM     19  H   UNL     1      -5.347  90.580 -11.537  1.00  0.00     0.293 HD
ENDBRANCH  15  18
BRANCH  17  20
ATOM     20  O   UNL     1      -3.699  92.345 -12.785  1.00  0.00    -0.504 OA
ATOM     21  H   UNL     1      -2.793  92.787 -12.836  1.00  0.00     0.293 HD
ENDBRANCH  17  20
ENDBRANCH   1  12
BRANCH   2  22
ATOM     22  O   UNL     1      -2.210  90.739 -17.755  1.00  0.00    -0.502 OA
ATOM     23  H   UNL     1      -1.953  89.855 -18.178  1.00  0.00     0.293 HD
ENDBRANCH   2  22
BRANCH   9  24
ATOM     24  O   UNL     1      -6.938  95.373 -21.818  1.00  0.00    -0.508 OA
ATOM     25  H   UNL     1      -6.923  95.674 -22.786  1.00  0.00     0.293 HD
ENDBRANCH   9  24
TORSDOF 5
ENDMDL
MODEL 4
REMARK VINA RESULT:    -5.156      3.063      5.956
REMARK INTER + INTRA:          -6.348
REMARK INTER:                  -6.044
REMARK INTRA:                  -0.304
REMARK UNBOUND:                -0.288
REMARK SMILES O=c1c(O)c(-c2ccc(O)c(O)c2)oc2cc(O)ccc12
REMARK SMILES IDX 5 1 3 2 2 3 1 4 21 5 15 6 14 7 16 8 17 9 19 10 20 11 6 12
REMARK SMILES IDX 7 13 8 14 9 15 13 16 11 17 10 18 12 20 4 22 18 24
REMARK H PARENT 10 19 12 21 4 23 18 25
REMARK Flexibility Score: inf
ROOT
ATOM      1  C   UNL     1      -6.206  90.212 -12.471  1.00  0.00     0.180 A 
ATOM      2  C   UNL     1      -7.100  89.188 -12.100  1.00  0.00     0.208 A 
ATOM      3  C   UNL     1      -7.056  88.695 -10.786  1.00  0.00     0.235 A 
ATOM      4  O   UNL     1      -7.854  87.786 -10.426  1.00  0.00    -0.285 OA
ATOM      5  C   UNL     1      -6.114  89.216  -9.885  1.00  0.00     0.069 A 
ATOM      6  C   UNL     1      -5.237  90.225 -10.342  1.00  0.00     0.142 A 
ATOM      7  O   UNL     1      -5.318  90.669 -11.591  1.00  0.00    -0.452 OA
ATOM      8  C   UNL     1      -4.278  90.762  -9.476  1.00  0.00     0.094 A 
ATOM      9  C   UNL     1      -4.184  90.308  -8.157  1.00  0.00     0.119 A 
ATOM     10  C   UNL     1      -5.054  89.308  -7.699  1.00  0.00     0.047 A 
ATOM     11  C   UNL     1      -6.015  88.763  -8.557  1.00  0.00     0.020 A 
ENDROOT
BRANCH   1  12
ATOM     12  C   UNL     1      -6.202  90.797 -13.832  1.00  0.00     0.025 A 
ATOM     13  C   UNL     1      -7.127  91.800 -14.154  1.00  0.00     0.016 A 
ATOM     14  C   UNL     1      -7.153  92.351 -15.436  1.00  0.00     0.051 A 
ATOM     15  C   UNL     1      -6.271  91.903 -16.425  1.00  0.00     0.157 A 
ATOM     16  C   UNL     1      -5.329  90.327 -14.829  1.00  0.00     0.062 A 
ATOM     17  C   UNL     1      -5.351  90.871 -16.119  1.00  0.00     0.158 A 
BRANCH  15  18
ATOM     18  O   UNL     1      -6.344  92.500 -17.685  1.00  0.00    -0.504 OA
ATOM     19  H   UNL     1      -6.338  91.987 -18.555  1.00  0.00     0.293 HD
ENDBRANCH  15  18
BRANCH  17  20
ATOM     20  O   UNL     1      -4.455  90.358 -17.059  1.00  0.00    -0.504 OA
ATOM     21  H   UNL     1      -3.881  89.543 -16.905  1.00  0.00     0.293 HD
ENDBRANCH  17  20
ENDBRANCH   1  12
BRANCH   2  22
ATOM     22  O   UNL     1      -7.993  88.654 -13.032  1.00  0.00    -0.502 OA
ATOM     23  H   UNL     1      -8.971  88.917 -13.060  1.00  0.00     0.293 HD
ENDBRANCH   2  22
BRANCH   9  24
ATOM     24  O   UNL     1      -3.224  90.855  -7.309  1.00  0.00    -0.508 OA
ATOM     25  H   UNL     1      -3.481  91.464  -6.541  1.00  0.00     0.293 HD
ENDBRANCH   9  24
TORSDOF 5
ENDMDL
MODEL 5
REMARK VINA RESULT:    -5.144      4.111      6.555
REMARK INTER + INTRA:          -6.334
REMARK INTER:                  -6.030
REMARK INTRA:                  -0.304
REMARK UNBOUND:                -0.288
REMARK SMILES O=c1c(O)c(-c2ccc(O)c(O)c2)oc2cc(O)ccc12
REMARK SMILES IDX 5 1 3 2 2 3 1 4 21 5 15 6 14 7 16 8 17 9 19 10 20 11 6 12
REMARK SMILES IDX 7 13 8 14 9 15 13 16 11 17 10 18 12 20 4 22 18 24
REMARK H PARENT 10 19 12 21 4 23 18 25
REMARK Flexibility Score: inf
ROOT
ATOM      1  C   UNL     1      -4.713  92.393 -12.438  1.00  0.00     0.180 A 
ATOM      2  C   UNL     1      -4.561  93.716 -11.974  1.00  0.00     0.208 A 
ATOM      3  C   UNL     1      -4.373  93.933 -10.600  1.00  0.00     0.235 A 
ATOM      4  O   UNL     1      -4.224  95.107 -10.162  1.00  0.00    -0.285 OA
ATOM      5  C   UNL     1      -4.362  92.837  -9.723  1.00  0.00     0.069 A 
ATOM      6  C   UNL     1      -4.544  91.545 -10.264  1.00  0.00     0.142 A 
ATOM      7  O   UNL     1      -4.710  91.382 -11.572  1.00  0.00    -0.452 OA
ATOM      8  C   UNL     1      -4.548  90.428  -9.421  1.00  0.00     0.094 A 
ATOM      9  C   UNL     1      -4.370  90.584  -8.043  1.00  0.00     0.119 A 
ATOM     10  C   UNL     1      -4.187  91.864  -7.502  1.00  0.00     0.047 A 
ATOM     11  C   UNL     1      -4.183  92.987  -8.336  1.00  0.00     0.020 A 
ENDROOT
BRANCH   1  12
ATOM     12  C   UNL     1      -4.897  92.080 -13.874  1.00  0.00     0.025 A 
ATOM     13  C   UNL     1      -6.181  92.136 -14.433  1.00  0.00     0.016 A 
ATOM     14  C   UNL     1      -6.379  91.825 -15.779  1.00  0.00     0.051 A 
ATOM     15  C   UNL     1      -5.305  91.440 -16.589  1.00  0.00     0.157 A 
ATOM     16  C   UNL     1      -3.819  91.671 -14.678  1.00  0.00     0.062 A 
ATOM     17  C   UNL     1      -4.008  91.354 -16.029  1.00  0.00     0.158 A 
BRANCH  15  18
ATOM     18  O   UNL     1      -5.569  91.150 -17.929  1.00  0.00    -0.504 OA
ATOM     19  H   UNL     1      -4.964  90.594 -18.517  1.00  0.00     0.293 HD
ENDBRANCH  15  18
BRANCH  17  20
ATOM     20  O   UNL     1      -2.893  90.956 -16.768  1.00  0.00    -0.504 OA
ATOM     21  H   UNL     1      -1.983  91.387 -16.694  1.00  0.00     0.293 HD
ENDBRANCH  17  20
ENDBRANCH   1  12
BRANCH   2  22
ATOM     22  O   UNL     1      -4.627  94.790 -12.864  1.00  0.00    -0.502 OA
ATOM     23  H   UNL     1      -3.951  94.921 -13.607  1.00  0.00     0.293 HD
ENDBRANCH   2  22
BRANCH   9  24
ATOM     24  O   UNL     1      -4.377  89.460  -7.219  1.00  0.00    -0.508 OA
ATOM     25  H   UNL     1      -4.933  88.643  -7.444  1.00  0.00     0.293 HD
ENDBRANCH   9  24
TORSDOF 5
ENDMDL
MODEL 6
REMARK VINA RESULT:    -5.130      3.512      5.919
REMARK INTER + INTRA:          -6.317
REMARK INTER:                  -5.997
REMARK INTRA:                  -0.320
REMARK UNBOUND:                -0.288
REMARK SMILES O=c1c(O)c(-c2ccc(O)c(O)c2)oc2cc(O)ccc12
REMARK SMILES IDX 5 1 3 2 2 3 1 4 21 5 15 6 14 7 16 8 17 9 19 10 20 11 6 12
REMARK SMILES IDX 7 13 8 14 9 15 13 16 11 17 10 18 12 20 4 22 18 24
REMARK H PARENT 10 19 12 21 4 23 18 25
REMARK Flexibility Score: inf
ROOT
ATOM      1  C   UNL     1      -5.605  91.782 -14.851  1.00  0.00     0.180 A 
ATOM      2  C   UNL     1      -4.838  92.528 -13.934  1.00  0.00     0.208 A 
ATOM      3  C   UNL     1      -4.781  92.103 -12.597  1.00  0.00     0.235 A 
ATOM      4  O   UNL     1      -4.092  92.748 -11.759  1.00  0.00    -0.285 OA
ATOM      5  C   UNL     1      -5.502  90.965 -12.203  1.00  0.00     0.069 A 
ATOM      6  C   UNL     1      -6.266  90.286 -13.178  1.00  0.00     0.142 A 
ATOM      7  O   UNL     1      -6.286  90.716 -14.434  1.00  0.00    -0.452 OA
ATOM      8  C   UNL     1      -7.005  89.153 -12.822  1.00  0.00     0.094 A 
ATOM      9  C   UNL     1      -6.990  88.685 -11.504  1.00  0.00     0.119 A 
ATOM     10  C   UNL     1      -6.232  89.355 -10.534  1.00  0.00     0.047 A 
ATOM     11  C   UNL     1      -5.490  90.490 -10.879  1.00  0.00     0.020 A 
ENDROOT
BRANCH   1  12
ATOM     12  C   UNL     1      -5.701  92.154 -16.281  1.00  0.00     0.025 A 
ATOM     13  C   UNL     1      -6.811  92.882 -16.731  1.00  0.00     0.016 A 
ATOM     14  C   UNL     1      -6.931  93.226 -18.079  1.00  0.00     0.051 A 
ATOM     15  C   UNL     1      -5.956  92.839 -19.005  1.00  0.00     0.157 A 
ATOM     16  C   UNL     1      -4.731  91.743 -17.211  1.00  0.00     0.062 A 
ATOM     17  C   UNL     1      -4.844  92.080 -18.566  1.00  0.00     0.158 A 
BRANCH  15  18
ATOM     18  O   UNL     1      -6.131  93.221 -20.336  1.00  0.00    -0.504 OA
ATOM     19  H   UNL     1      -5.632  92.810 -21.112  1.00  0.00     0.293 HD
ENDBRANCH  15  18
BRANCH  17  20
ATOM     20  O   UNL     1      -3.843  91.640 -19.434  1.00  0.00    -0.504 OA
ATOM     21  H   UNL     1      -2.987  92.144 -19.611  1.00  0.00     0.293 HD
ENDBRANCH  17  20
ENDBRANCH   1  12
BRANCH   2  22
ATOM     22  O   UNL     1      -4.172  93.685 -14.344  1.00  0.00    -0.502 OA
ATOM     23  H   UNL     1      -4.590  94.356 -14.977  1.00  0.00     0.293 HD
ENDBRANCH   2  22
BRANCH   9  24
ATOM     24  O   UNL     1      -7.733  87.556 -11.168  1.00  0.00    -0.508 OA
ATOM     25  H   UNL     1      -7.379  86.621 -11.337  1.00  0.00     0.293 HD
ENDBRANCH   9  24
TORSDOF 5
ENDMDL
MODEL 7
REMARK VINA RESULT:    -5.127      4.528      6.392
REMARK INTER + INTRA:          -6.314
REMARK INTER:                  -5.997
REMARK INTRA:                  -0.317
REMARK UNBOUND:                -0.288
REMARK SMILES O=c1c(O)c(-c2ccc(O)c(O)c2)oc2cc(O)ccc12
REMARK SMILES IDX 5 1 3 2 2 3 1 4 21 5 15 6 14 7 16 8 17 9 19 10 20 11 6 12
REMARK SMILES IDX 7 13 8 14 9 15 13 16 11 17 10 18 12 20 4 22 18 24
REMARK H PARENT 10 19 12 21 4 23 18 25
REMARK Flexibility Score: inf
ROOT
ATOM      1  C   UNL     1      -4.112  92.066 -15.602  1.00  0.00     0.180 A 
ATOM      2  C   UNL     1      -3.001  91.463 -16.227  1.00  0.00     0.208 A 
ATOM      3  C   UNL     1      -2.867  91.572 -17.619  1.00  0.00     0.235 A 
ATOM      4  O   UNL     1      -1.876  91.049 -18.200  1.00  0.00    -0.285 OA
ATOM      5  C   UNL     1      -3.847  92.256 -18.356  1.00  0.00     0.069 A 
ATOM      6  C   UNL     1      -4.941  92.813 -17.659  1.00  0.00     0.142 A 
ATOM      7  O   UNL     1      -5.026  92.695 -16.338  1.00  0.00    -0.452 OA
ATOM      8  C   UNL     1      -5.943  93.494 -18.358  1.00  0.00     0.094 A 
ATOM      9  C   UNL     1      -5.865  93.631 -19.748  1.00  0.00     0.119 A 
ATOM     10  C   UNL     1      -4.779  93.081 -20.444  1.00  0.00     0.047 A 
ATOM     11  C   UNL     1      -3.773  92.397 -19.754  1.00  0.00     0.020 A 
ENDROOT
BRANCH   1  12
ATOM     12  C   UNL     1      -4.315  92.012 -14.136  1.00  0.00     0.025 A 
ATOM     13  C   UNL     1      -5.014  90.934 -13.576  1.00  0.00     0.016 A 
ATOM     14  C   UNL     1      -5.234  90.874 -12.199  1.00  0.00     0.051 A 
ATOM     15  C   UNL     1      -4.774  91.892 -11.357  1.00  0.00     0.157 A 
ATOM     16  C   UNL     1      -3.871  93.049 -13.297  1.00  0.00     0.062 A 
ATOM     17  C   UNL     1      -4.090  92.999 -11.914  1.00  0.00     0.158 A 
BRANCH  15  18
ATOM     18  O   UNL     1      -5.020  91.768  -9.988  1.00  0.00    -0.504 OA
ATOM     19  H   UNL     1      -4.816  92.489  -9.310  1.00  0.00     0.293 HD
ENDBRANCH  15  18
BRANCH  17  20
ATOM     20  O   UNL     1      -3.621  94.062 -11.141  1.00  0.00    -0.504 OA
ATOM     21  H   UNL     1      -2.644  94.285 -11.019  1.00  0.00     0.293 HD
ENDBRANCH  17  20
ENDBRANCH   1  12
BRANCH   2  22
ATOM     22  O   UNL     1      -2.069  90.745 -15.473  1.00  0.00    -0.502 OA
ATOM     23  H   UNL     1      -1.510  89.999 -15.871  1.00  0.00     0.293 HD
ENDBRANCH   2  22
BRANCH   9  24
ATOM     24  O   UNL     1      -6.871  94.313 -20.428  1.00  0.00    -0.508 OA
ATOM     25  H   UNL     1      -7.777  93.890 -20.596  1.00  0.00     0.293 HD
ENDBRANCH   9  24
TORSDOF 5
ENDMDL
MODEL 8
REMARK VINA RESULT:    -5.078      8.154     11.046
REMARK INTER + INTRA:          -6.257
REMARK INTER:                  -6.117
REMARK INTRA:                  -0.140
REMARK UNBOUND:                -0.288
REMARK SMILES O=c1c(O)c(-c2ccc(O)c(O)c2)oc2cc(O)ccc12
REMARK SMILES IDX 5 1 3 2 2 3 1 4 21 5 15 6 14 7 16 8 17 9 19 10 20 11 6 12
REMARK SMILES IDX 7 13 8 14 9 15 13 16 11 17 10 18 12 20 4 22 18 24
REMARK H PARENT 10 19 12 21 4 23 18 25
REMARK Flexibility Score: inf
ROOT
ATOM      1  C   UNL     1      -7.558  84.018  -8.834  1.00  0.00     0.180 A 
ATOM      2  C   UNL     1      -8.047  85.326  -8.644  1.00  0.00     0.208 A 
ATOM      3  C   UNL     1      -9.431  85.547  -8.713  1.00  0.00     0.235 A 
ATOM      4  O   UNL     1      -9.894  86.708  -8.536  1.00  0.00    -0.285 OA
ATOM      5  C   UNL     1     -10.289  84.471  -8.989  1.00  0.00     0.069 A 
ATOM      6  C   UNL     1      -9.719  83.195  -9.190  1.00  0.00     0.142 A 
ATOM      7  O   UNL     1      -8.404  83.027  -9.108  1.00  0.00    -0.452 OA
ATOM      8  C   UNL     1     -10.541  82.100  -9.477  1.00  0.00     0.094 A 
ATOM      9  C   UNL     1     -11.927  82.260  -9.563  1.00  0.00     0.119 A 
ATOM     10  C   UNL     1     -12.497  83.525  -9.362  1.00  0.00     0.047 A 
ATOM     11  C   UNL     1     -11.685  84.627  -9.077  1.00  0.00     0.020 A 
ENDROOT
BRANCH   1  12
ATOM     12  C   UNL     1      -6.114  83.699  -8.758  1.00  0.00     0.025 A 
ATOM     13  C   UNL     1      -5.426  83.898  -7.552  1.00  0.00     0.016 A 
ATOM     14  C   UNL     1      -4.060  83.623  -7.465  1.00  0.00     0.051 A 
ATOM     15  C   UNL     1      -3.352  83.160  -8.579  1.00  0.00     0.157 A 
ATOM     16  C   UNL     1      -5.401  83.256  -9.885  1.00  0.00     0.062 A 
ATOM     17  C   UNL     1      -4.030  82.981  -9.808  1.00  0.00     0.158 A 
BRANCH  15  18
ATOM     18  O   UNL     1      -1.989  82.896  -8.423  1.00  0.00    -0.504 OA
ATOM     19  H   UNL     1      -1.579  82.524  -7.579  1.00  0.00     0.293 HD
ENDBRANCH  15  18
BRANCH  17  20
ATOM     20  O   UNL     1      -3.386  82.543 -10.967  1.00  0.00    -0.504 OA
ATOM     21  H   UNL     1      -3.848  82.055 -11.721  1.00  0.00     0.293 HD
ENDBRANCH  17  20
ENDBRANCH   1  12
BRANCH   2  22
ATOM     22  O   UNL     1      -7.165  86.386  -8.420  1.00  0.00    -0.502 OA
ATOM     23  H   UNL     1      -6.476  86.672  -9.107  1.00  0.00     0.293 HD
ENDBRANCH   2  22
BRANCH   9  24
ATOM     24  O   UNL     1     -12.730  81.158  -9.849  1.00  0.00    -0.508 OA
ATOM     25  H   UNL     1     -13.456  81.202 -10.555  1.00  0.00     0.293 HD
ENDBRANCH   9  24
TORSDOF 5
ENDMDL
MODEL 9
REMARK VINA RESULT:    -5.014      4.093      6.575
REMARK INTER + INTRA:          -6.181
REMARK INTER:                  -6.083
REMARK INTRA:                  -0.098
REMARK UNBOUND:                -0.288
REMARK SMILES O=c1c(O)c(-c2ccc(O)c(O)c2)oc2cc(O)ccc12
REMARK SMILES IDX 5 1 3 2 2 3 1 4 21 5 15 6 14 7 16 8 17 9 19 10 20 11 6 12
REMARK SMILES IDX 7 13 8 14 9 15 13 16 11 17 10 18 12 20 4 22 18 24
REMARK H PARENT 10 19 12 21 4 23 18 25
REMARK Flexibility Score: inf
ROOT
ATOM      1  C   UNL     1      -4.654  91.815 -15.001  1.00  0.00     0.180 A 
ATOM      2  C   UNL     1      -5.257  90.675 -14.433  1.00  0.00     0.208 A 
ATOM      3  C   UNL     1      -5.452  90.633 -13.044  1.00  0.00     0.235 A 
ATOM      4  O   UNL     1      -6.000  89.627 -12.514  1.00  0.00    -0.285 OA
ATOM      5  C   UNL     1      -5.026  91.713 -12.254  1.00  0.00     0.069 A 
ATOM      6  C   UNL     1      -4.409  92.808 -12.897  1.00  0.00     0.142 A 
ATOM      7  O   UNL     1      -4.251  92.812 -14.215  1.00  0.00    -0.452 OA
ATOM      8  C   UNL     1      -3.961  93.899 -12.143  1.00  0.00     0.094 A 
ATOM      9  C   UNL     1      -4.125  93.912 -10.754  1.00  0.00     0.119 A 
ATOM     10  C   UNL     1      -4.738  92.827 -10.113  1.00  0.00     0.047 A 
ATOM     11  C   UNL     1      -5.188  91.731 -10.857  1.00  0.00     0.020 A 
ENDROOT
BRANCH   1  12
ATOM     12  C   UNL     1      -4.431  91.943 -16.459  1.00  0.00     0.025 A 
ATOM     13  C   UNL     1      -3.144  92.225 -16.937  1.00  0.00     0.016 A 
ATOM     14  C   UNL     1      -2.915  92.370 -18.307  1.00  0.00     0.051 A 
ATOM     15  C   UNL     1      -3.966  92.250 -19.223  1.00  0.00     0.157 A 
ATOM     16  C   UNL     1      -5.493  91.845 -17.374  1.00  0.00     0.062 A 
ATOM     17  C   UNL     1      -5.274  91.991 -18.749  1.00  0.00     0.158 A 
BRANCH  15  18
ATOM     18  O   UNL     1      -3.669  92.398 -20.580  1.00  0.00    -0.504 OA
ATOM     19  H   UNL     1      -3.097  91.753 -21.106  1.00  0.00     0.293 HD
ENDBRANCH  15  18
BRANCH  17  20
ATOM     20  O   UNL     1      -6.375  91.880 -19.601  1.00  0.00    -0.504 OA
ATOM     21  H   UNL     1      -6.695  91.010 -20.001  1.00  0.00     0.293 HD
ENDBRANCH  17  20
ENDBRANCH   1  12
BRANCH   2  22
ATOM     22  O   UNL     1      -5.626  89.594 -15.238  1.00  0.00    -0.502 OA
ATOM     23  H   UNL     1      -5.506  88.632 -14.943  1.00  0.00     0.293 HD
ENDBRANCH   2  22
BRANCH   9  24
ATOM     24  O   UNL     1      -3.674  95.007 -10.020  1.00  0.00    -0.508 OA
ATOM     25  H   UNL     1      -4.311  95.723  -9.692  1.00  0.00     0.293 HD
ENDBRANCH   9  24
TORSDOF 5
ENDMDL
