MODEL 1
REMARK VINA RESULT:    -4.433      0.000      0.000
REMARK INTER + INTRA:          -9.493
REMARK INTER:                  -6.765
REMARK INTRA:                  -2.727
REMARK UNBOUND:                -2.727
REMARK SMILES CC(=O)CCC=C(C)CCC=C(C)CCC=C(C)C
REMARK SMILES IDX 10 1 11 2 12 3 13 4 14 5 15 6 16 7 18 8 17 9 19 10 9 11 7 12
REMARK SMILES IDX 6 13 8 14 5 15 4 16 2 17 3 18 1 19
REMARK H PARENT
REMARK Flexibility Score: inf
ROOT
ATOM      1  C   UNL     1      -1.733  31.287  53.631  1.00  0.00     0.032 C 
ENDROOT
BRANCH   1   2
ATOM      2  C   UNL     1      -2.568  31.546  52.398  1.00  0.00    -0.028 C 
ATOM      3  C   UNL     1      -2.352  30.950  51.204  1.00  0.00    -0.077 C 
ATOM      4  C   UNL     1      -3.285  31.272  50.065  1.00  0.00     0.039 C 
BRANCH   3   5
ATOM      5  C   UNL     1      -1.197  29.994  50.960  1.00  0.00     0.034 C 
BRANCH   5   6
ATOM      6  C   UNL     1      -1.588  28.844  50.020  1.00  0.00     0.032 C 
BRANCH   6   7
ATOM      7  C   UNL     1      -1.772  27.552  50.783  1.00  0.00    -0.028 C 
ATOM      8  C   UNL     1      -4.235  27.881  51.107  1.00  0.00     0.039 C 
ATOM      9  C   UNL     1      -2.944  27.121  51.300  1.00  0.00    -0.080 C 
ATOM     10  C   UNL     1      -2.949  25.843  52.097  1.00  0.00     0.039 C 
ENDBRANCH   6   7
ENDBRANCH   5   6
ENDBRANCH   3   5
ENDBRANCH   1   2
BRANCH   1  11
ATOM     11  C   UNL     1      -2.525  30.565  54.730  1.00  0.00     0.034 C 
BRANCH  11  12
ATOM     12  C   UNL     1      -2.288  29.070  54.711  1.00  0.00    -0.077 C 
ATOM     13  C   UNL     1      -1.044  28.593  54.483  1.00  0.00    -0.028 C 
ATOM     14  C   UNL     1      -3.447  28.143  54.983  1.00  0.00     0.039 C 
BRANCH  13  15
ATOM     15  C   UNL     1      -0.711  27.118  54.479  1.00  0.00     0.035 C 
BRANCH  15  16
ATOM     16  C   UNL     1       0.470  26.799  53.553  1.00  0.00     0.079 C 
BRANCH  16  17
ATOM     17  C   UNL     1       1.789  26.922  54.274  1.00  0.00     0.130 C 
ATOM     18  O   UNL     1       2.796  27.205  53.643  1.00  0.00    -0.300 OA
ATOM     19  C   UNL     1       1.895  26.691  55.752  1.00  0.00     0.087 C 
ENDBRANCH  16  17
ENDBRANCH  15  16
ENDBRANCH  13  15
ENDBRANCH  11  12
ENDBRANCH   1  11
TORSDOF 9
ENDMDL
MODEL 2
REMARK VINA RESULT:    -4.352      1.737      3.560
REMARK INTER + INTRA:          -9.369
REMARK INTER:                  -6.892
REMARK INTRA:                  -2.477
REMARK UNBOUND:                -2.727
REMARK SMILES CC(=O)CCC=C(C)CCC=C(C)CCC=C(C)C
REMARK SMILES IDX 10 1 11 2 12 3 13 4 14 5 15 6 16 7 18 8 17 9 19 10 9 11 7 12
REMARK SMILES IDX 6 13 8 14 5 15 4 16 2 17 3 18 1 19
REMARK H PARENT
REMARK Flexibility Score: inf
ROOT
ATOM      1  C   UNL     1      -3.750  27.869  54.194  1.00  0.00     0.032 C 
ENDROOT
BRANCH   1   2
ATOM      2  C   UNL     1      -4.595  29.123  54.178  1.00  0.00    -0.028 C 
ATOM      3  C   UNL     1      -4.085  30.375  54.167  1.00  0.00    -0.077 C 
ATOM      4  C   UNL     1      -5.043  31.537  54.113  1.00  0.00     0.039 C 
BRANCH   3   5
ATOM      5  C   UNL     1      -2.593  30.655  54.232  1.00  0.00     0.034 C 
BRANCH   5   6
ATOM      6  C   UNL     1      -2.097  31.432  53.005  1.00  0.00     0.032 C 
BRANCH   6   7
ATOM      7  C   UNL     1      -2.197  30.598  51.750  1.00  0.00    -0.028 C 
ATOM      8  C   UNL     1       0.245  30.035  51.710  1.00  0.00     0.039 C 
ATOM      9  C   UNL     1      -1.154  29.989  51.142  1.00  0.00    -0.080 C 
ATOM     10  C   UNL     1      -1.407  29.249  49.855  1.00  0.00     0.039 C 
ENDBRANCH   6   7
ENDBRANCH   5   6
ENDBRANCH   3   5
ENDBRANCH   1   2
BRANCH   1  11
ATOM     11  C   UNL     1      -3.423  27.370  52.780  1.00  0.00     0.034 C 
BRANCH  11  12
ATOM     12  C   UNL     1      -2.019  26.810  52.686  1.00  0.00    -0.077 C 
ATOM     13  C   UNL     1      -1.115  27.108  53.645  1.00  0.00    -0.028 C 
ATOM     14  C   UNL     1      -1.672  25.898  51.534  1.00  0.00     0.039 C 
BRANCH  13  15
ATOM     15  C   UNL     1       0.297  26.566  53.648  1.00  0.00     0.035 C 
BRANCH  15  16
ATOM     16  C   UNL     1       1.008  26.827  54.983  1.00  0.00     0.079 C 
BRANCH  16  17
ATOM     17  C   UNL     1       0.336  26.100  56.120  1.00  0.00     0.130 C 
ATOM     18  O   UNL     1      -0.312  26.734  56.940  1.00  0.00    -0.300 OA
ATOM     19  C   UNL     1       0.456  24.613  56.277  1.00  0.00     0.087 C 
ENDBRANCH  16  17
ENDBRANCH  15  16
ENDBRANCH  13  15
ENDBRANCH  11  12
ENDBRANCH   1  11
TORSDOF 9
ENDMDL
MODEL 3
REMARK VINA RESULT:    -4.339      1.569      3.603
REMARK INTER + INTRA:          -9.349
REMARK INTER:                  -7.448
REMARK INTRA:                  -1.901
REMARK UNBOUND:                -2.727
REMARK SMILES CC(=O)CCC=C(C)CCC=C(C)CCC=C(C)C
REMARK SMILES IDX 10 1 11 2 12 3 13 4 14 5 15 6 16 7 18 8 17 9 19 10 9 11 7 12
REMARK SMILES IDX 6 13 8 14 5 15 4 16 2 17 3 18 1 19
REMARK H PARENT
REMARK Flexibility Score: inf
ROOT
ATOM      1  C   UNL     1      -2.723  27.184  51.367  1.00  0.00     0.032 C 
ENDROOT
BRANCH   1   2
ATOM      2  C   UNL     1      -1.641  27.908  50.597  1.00  0.00    -0.028 C 
ATOM      3  C   UNL     1      -1.860  29.015  49.852  1.00  0.00    -0.077 C 
ATOM      4  C   UNL     1      -0.682  29.659  49.168  1.00  0.00     0.039 C 
BRANCH   3   5
ATOM      5  C   UNL     1      -3.241  29.617  49.660  1.00  0.00     0.034 C 
BRANCH   5   6
ATOM      6  C   UNL     1      -3.314  31.068  50.156  1.00  0.00     0.032 C 
BRANCH   6   7
ATOM      7  C   UNL     1      -3.870  31.139  51.559  1.00  0.00    -0.028 C 
ATOM      8  C   UNL     1      -1.653  31.659  52.607  1.00  0.00     0.039 C 
ATOM      9  C   UNL     1      -3.135  31.375  52.670  1.00  0.00    -0.080 C 
ATOM     10  C   UNL     1      -3.828  31.345  54.007  1.00  0.00     0.039 C 
ENDBRANCH   6   7
ENDBRANCH   5   6
ENDBRANCH   3   5
ENDBRANCH   1   2
BRANCH   1  11
ATOM     11  C   UNL     1      -2.152  26.311  52.492  1.00  0.00     0.034 C 
BRANCH  11  12
ATOM     12  C   UNL     1      -1.250  27.099  53.419  1.00  0.00    -0.077 C 
ATOM     13  C   UNL     1       0.066  26.799  53.489  1.00  0.00    -0.028 C 
ATOM     14  C   UNL     1      -1.841  28.232  54.224  1.00  0.00     0.039 C 
BRANCH  13  15
ATOM     15  C   UNL     1       1.042  27.554  54.361  1.00  0.00     0.035 C 
BRANCH  15  16
ATOM     16  C   UNL     1       1.632  26.665  55.465  1.00  0.00     0.079 C 
BRANCH  16  17
ATOM     17  C   UNL     1       0.551  25.991  56.271  1.00  0.00     0.130 C 
ATOM     18  O   UNL     1      -0.220  26.671  56.931  1.00  0.00    -0.300 OA
ATOM     19  C   UNL     1       0.408  24.498  56.292  1.00  0.00     0.087 C 
ENDBRANCH  16  17
ENDBRANCH  15  16
ENDBRANCH  13  15
ENDBRANCH  11  12
ENDBRANCH   1  11
TORSDOF 9
ENDMDL
MODEL 4
REMARK VINA RESULT:    -4.313      1.725      2.959
REMARK INTER + INTRA:          -9.310
REMARK INTER:                  -6.858
REMARK INTRA:                  -2.452
REMARK UNBOUND:                -2.727
REMARK SMILES CC(=O)CCC=C(C)CCC=C(C)CCC=C(C)C
REMARK SMILES IDX 10 1 11 2 12 3 13 4 14 5 15 6 16 7 18 8 17 9 19 10 9 11 7 12
REMARK SMILES IDX 6 13 8 14 5 15 4 16 2 17 3 18 1 19
REMARK H PARENT
REMARK Flexibility Score: inf
ROOT
ATOM      1  C   UNL     1      -1.192  29.598  49.729  1.00  0.00     0.032 C 
ENDROOT
BRANCH   1   2
ATOM      2  C   UNL     1      -2.310  30.204  48.911  1.00  0.00    -0.028 C 
ATOM      3  C   UNL     1      -3.225  31.065  49.410  1.00  0.00    -0.077 C 
ATOM      4  C   UNL     1      -4.265  31.624  48.472  1.00  0.00     0.039 C 
BRANCH   3   5
ATOM      5  C   UNL     1      -3.261  31.471  50.873  1.00  0.00     0.034 C 
BRANCH   5   6
ATOM      6  C   UNL     1      -4.607  31.138  51.532  1.00  0.00     0.032 C 
BRANCH   6   7
ATOM      7  C   UNL     1      -4.475  29.981  52.494  1.00  0.00    -0.028 C 
ATOM      8  C   UNL     1      -5.125  28.257  50.795  1.00  0.00     0.039 C 
ATOM      9  C   UNL     1      -4.731  28.689  52.188  1.00  0.00    -0.080 C 
ATOM     10  C   UNL     1      -4.619  27.658  53.280  1.00  0.00     0.039 C 
ENDBRANCH   6   7
ENDBRANCH   5   6
ENDBRANCH   3   5
ENDBRANCH   1   2
BRANCH   1  11
ATOM     11  C   UNL     1      -1.554  28.209  50.271  1.00  0.00     0.034 C 
BRANCH  11  12
ATOM     12  C   UNL     1      -1.192  28.058  51.734  1.00  0.00    -0.077 C 
ATOM     13  C   UNL     1      -1.148  26.827  52.290  1.00  0.00    -0.028 C 
ATOM     14  C   UNL     1      -0.852  29.293  52.533  1.00  0.00     0.039 C 
BRANCH  13  15
ATOM     15  C   UNL     1      -0.764  26.583  53.731  1.00  0.00     0.035 C 
BRANCH  15  16
ATOM     16  C   UNL     1       0.734  26.288  53.883  1.00  0.00     0.079 C 
BRANCH  16  17
ATOM     17  C   UNL     1       1.143  26.229  55.333  1.00  0.00     0.130 C 
ATOM     18  O   UNL     1       2.019  26.977  55.742  1.00  0.00    -0.300 OA
ATOM     19  C   UNL     1       0.507  25.261  56.286  1.00  0.00     0.087 C 
ENDBRANCH  16  17
ENDBRANCH  15  16
ENDBRANCH  13  15
ENDBRANCH  11  12
ENDBRANCH   1  11
TORSDOF 9
ENDMDL
MODEL 5
REMARK VINA RESULT:    -4.165      1.659      3.586
REMARK INTER + INTRA:          -9.083
REMARK INTER:                  -7.158
REMARK INTRA:                  -1.925
REMARK UNBOUND:                -2.727
REMARK SMILES CC(=O)CCC=C(C)CCC=C(C)CCC=C(C)C
REMARK SMILES IDX 10 1 11 2 12 3 13 4 14 5 15 6 16 7 18 8 17 9 19 10 9 11 7 12
REMARK SMILES IDX 6 13 8 14 5 15 4 16 2 17 3 18 1 19
REMARK H PARENT
REMARK Flexibility Score: inf
ROOT
ATOM      1  C   UNL     1      -1.624  29.094  50.445  1.00  0.00     0.032 C 
ENDROOT
BRANCH   1   2
ATOM      2  C   UNL     1      -0.867  30.046  51.344  1.00  0.00    -0.028 C 
ATOM      3  C   UNL     1      -1.443  31.070  52.011  1.00  0.00    -0.077 C 
ATOM      4  C   UNL     1      -0.575  31.919  52.904  1.00  0.00     0.039 C 
BRANCH   3   5
ATOM      5  C   UNL     1      -2.917  31.412  51.878  1.00  0.00     0.034 C 
BRANCH   5   6
ATOM      6  C   UNL     1      -3.631  31.434  53.238  1.00  0.00     0.032 C 
BRANCH   6   7
ATOM      7  C   UNL     1      -3.896  30.034  53.739  1.00  0.00    -0.028 C 
ATOM      8  C   UNL     1      -2.290  30.218  55.655  1.00  0.00     0.039 C 
ATOM      9  C   UNL     1      -3.284  29.465  54.802  1.00  0.00    -0.080 C 
ATOM     10  C   UNL     1      -3.609  28.031  55.134  1.00  0.00     0.039 C 
ENDBRANCH   6   7
ENDBRANCH   5   6
ENDBRANCH   3   5
ENDBRANCH   1   2
BRANCH   1  11
ATOM     11  C   UNL     1      -2.460  28.083  51.242  1.00  0.00     0.034 C 
BRANCH  11  12
ATOM     12  C   UNL     1      -1.602  26.996  51.856  1.00  0.00    -0.077 C 
ATOM     13  C   UNL     1      -0.783  27.294  52.889  1.00  0.00    -0.028 C 
ATOM     14  C   UNL     1      -1.708  25.590  51.316  1.00  0.00     0.039 C 
BRANCH  13  15
ATOM     15  C   UNL     1       0.082  26.265  53.581  1.00  0.00     0.035 C 
BRANCH  15  16
ATOM     16  C   UNL     1       0.720  26.821  54.862  1.00  0.00     0.079 C 
BRANCH  16  17
ATOM     17  C   UNL     1       0.134  26.183  56.095  1.00  0.00     0.130 C 
ATOM     18  O   UNL     1      -0.662  26.811  56.777  1.00  0.00    -0.300 OA
ATOM     19  C   UNL     1       0.517  24.795  56.514  1.00  0.00     0.087 C 
ENDBRANCH  16  17
ENDBRANCH  15  16
ENDBRANCH  13  15
ENDBRANCH  11  12
ENDBRANCH   1  11
TORSDOF 9
ENDMDL
MODEL 6
REMARK VINA RESULT:    -4.117      2.328      4.724
REMARK INTER + INTRA:          -9.010
REMARK INTER:                  -7.027
REMARK INTRA:                  -1.983
REMARK UNBOUND:                -2.727
REMARK SMILES CC(=O)CCC=C(C)CCC=C(C)CCC=C(C)C
REMARK SMILES IDX 10 1 11 2 12 3 13 4 14 5 15 6 16 7 18 8 17 9 19 10 9 11 7 12
REMARK SMILES IDX 6 13 8 14 5 15 4 16 2 17 3 18 1 19
REMARK H PARENT
REMARK Flexibility Score: inf
ROOT
ATOM      1  C   UNL     1      -0.923  29.361  50.709  1.00  0.00     0.032 C 
ENDROOT
BRANCH   1   2
ATOM      2  C   UNL     1      -2.353  28.922  50.933  1.00  0.00    -0.028 C 
ATOM      3  C   UNL     1      -2.709  27.663  51.273  1.00  0.00    -0.077 C 
ATOM      4  C   UNL     1      -4.170  27.371  51.502  1.00  0.00     0.039 C 
BRANCH   3   5
ATOM      5  C   UNL     1      -1.704  26.532  51.407  1.00  0.00     0.034 C 
BRANCH   5   6
ATOM      6  C   UNL     1      -1.376  26.221  52.874  1.00  0.00     0.032 C 
BRANCH   6   7
ATOM      7  C   UNL     1       0.066  26.540  53.193  1.00  0.00    -0.028 C 
ATOM      8  C   UNL     1      -0.357  26.866  55.642  1.00  0.00     0.039 C 
ATOM      9  C   UNL     1       0.533  26.859  54.421  1.00  0.00    -0.080 C 
ATOM     10  C   UNL     1       1.988  27.221  54.563  1.00  0.00     0.039 C 
ENDBRANCH   6   7
ENDBRANCH   5   6
ENDBRANCH   3   5
ENDBRANCH   1   2
BRANCH   1  11
ATOM     11  C   UNL     1      -0.263  29.871  51.998  1.00  0.00     0.034 C 
BRANCH  11  12
ATOM     12  C   UNL     1      -1.254  30.571  52.905  1.00  0.00    -0.077 C 
ATOM     13  C   UNL     1      -1.660  29.968  54.044  1.00  0.00    -0.028 C 
ATOM     14  C   UNL     1      -1.742  31.948  52.527  1.00  0.00     0.039 C 
BRANCH  13  15
ATOM     15  C   UNL     1      -2.620  30.607  55.021  1.00  0.00     0.035 C 
BRANCH  15  16
ATOM     16  C   UNL     1      -2.688  29.835  56.346  1.00  0.00     0.079 C 
BRANCH  16  17
ATOM     17  C   UNL     1      -2.471  30.744  57.529  1.00  0.00     0.130 C 
ATOM     18  O   UNL     1      -2.781  30.361  58.647  1.00  0.00    -0.300 OA
ATOM     19  C   UNL     1      -1.893  32.118  57.363  1.00  0.00     0.087 C 
ENDBRANCH  16  17
ENDBRANCH  15  16
ENDBRANCH  13  15
ENDBRANCH  11  12
ENDBRANCH   1  11
TORSDOF 9
ENDMDL
MODEL 7
REMARK VINA RESULT:    -4.083      1.790      4.119
REMARK INTER + INTRA:          -8.959
REMARK INTER:                  -6.614
REMARK INTRA:                  -2.345
REMARK UNBOUND:                -2.727
REMARK SMILES CC(=O)CCC=C(C)CCC=C(C)CCC=C(C)C
REMARK SMILES IDX 10 1 11 2 12 3 13 4 14 5 15 6 16 7 18 8 17 9 19 10 9 11 7 12
REMARK SMILES IDX 6 13 8 14 5 15 4 16 2 17 3 18 1 19
REMARK H PARENT
REMARK Flexibility Score: inf
ROOT
ATOM      1  C   UNL     1      -3.151  27.786  53.805  1.00  0.00     0.032 C 
ENDROOT
BRANCH   1   2
ATOM      2  C   UNL     1      -2.674  28.713  54.900  1.00  0.00    -0.028 C 
ATOM      3  C   UNL     1      -3.372  29.785  55.335  1.00  0.00    -0.077 C 
ATOM      4  C   UNL     1      -2.796  30.604  56.462  1.00  0.00     0.039 C 
BRANCH   3   5
ATOM      5  C   UNL     1      -4.695  30.209  54.721  1.00  0.00     0.034 C 
BRANCH   5   6
ATOM      6  C   UNL     1      -4.550  31.460  53.842  1.00  0.00     0.032 C 
BRANCH   6   7
ATOM      7  C   UNL     1      -4.226  31.091  52.413  1.00  0.00    -0.028 C 
ATOM      8  C   UNL     1      -1.853  31.886  52.553  1.00  0.00     0.039 C 
ATOM      9  C   UNL     1      -3.033  31.301  51.813  1.00  0.00    -0.080 C 
ATOM     10  C   UNL     1      -2.890  30.940  50.358  1.00  0.00     0.039 C 
ENDBRANCH   6   7
ENDBRANCH   5   6
ENDBRANCH   3   5
ENDBRANCH   1   2
BRANCH   1  11
ATOM     11  C   UNL     1      -2.224  27.805  52.581  1.00  0.00     0.034 C 
BRANCH  11  12
ATOM     12  C   UNL     1      -0.767  27.670  52.972  1.00  0.00    -0.077 C 
ATOM     13  C   UNL     1      -0.289  26.471  53.373  1.00  0.00    -0.028 C 
ATOM     14  C   UNL     1       0.130  28.880  52.871  1.00  0.00     0.039 C 
BRANCH  13  15
ATOM     15  C   UNL     1       1.157  26.241  53.748  1.00  0.00     0.035 C 
BRANCH  15  16
ATOM     16  C   UNL     1       1.426  26.571  55.223  1.00  0.00     0.079 C 
BRANCH  16  17
ATOM     17  C   UNL     1       0.502  25.809  56.139  1.00  0.00     0.130 C 
ATOM     18  O   UNL     1       0.578  24.591  56.192  1.00  0.00    -0.300 OA
ATOM     19  C   UNL     1      -0.520  26.514  56.980  1.00  0.00     0.087 C 
ENDBRANCH  16  17
ENDBRANCH  15  16
ENDBRANCH  13  15
ENDBRANCH  11  12
ENDBRANCH   1  11
TORSDOF 9
ENDMDL
MODEL 8
REMARK VINA RESULT:    -4.080      1.995      4.989
REMARK INTER + INTRA:          -8.954
REMARK INTER:                  -7.131
REMARK INTRA:                  -1.823
REMARK UNBOUND:                -2.727
REMARK SMILES CC(=O)CCC=C(C)CCC=C(C)CCC=C(C)C
REMARK SMILES IDX 10 1 11 2 12 3 13 4 14 5 15 6 16 7 18 8 17 9 19 10 9 11 7 12
REMARK SMILES IDX 6 13 8 14 5 15 4 16 2 17 3 18 1 19
REMARK H PARENT
REMARK Flexibility Score: inf
ROOT
ATOM      1  C   UNL     1      -1.288  29.634  50.434  1.00  0.00     0.032 C 
ENDROOT
BRANCH   1   2
ATOM      2  C   UNL     1      -1.590  28.153  50.399  1.00  0.00    -0.028 C 
ATOM      3  C   UNL     1      -1.716  27.385  51.504  1.00  0.00    -0.077 C 
ATOM      4  C   UNL     1      -2.056  25.927  51.326  1.00  0.00     0.039 C 
BRANCH   3   5
ATOM      5  C   UNL     1      -1.505  27.923  52.909  1.00  0.00     0.034 C 
BRANCH   5   6
ATOM      6  C   UNL     1      -0.130  27.540  53.474  1.00  0.00     0.032 C 
BRANCH   6   7
ATOM      7  C   UNL     1      -0.248  26.442  54.504  1.00  0.00    -0.028 C 
ATOM      8  C   UNL     1       2.003  26.892  55.510  1.00  0.00     0.039 C 
ATOM      9  C   UNL     1       0.709  26.120  55.404  1.00  0.00    -0.080 C 
ATOM     10  C   UNL     1       0.467  24.949  56.320  1.00  0.00     0.039 C 
ENDBRANCH   6   7
ENDBRANCH   5   6
ENDBRANCH   3   5
ENDBRANCH   1   2
BRANCH   1  11
ATOM     11  C   UNL     1      -2.560  30.485  50.555  1.00  0.00     0.034 C 
BRANCH  11  12
ATOM     12  C   UNL     1      -2.736  31.048  51.949  1.00  0.00    -0.077 C 
ATOM     13  C   UNL     1      -3.887  30.826  52.621  1.00  0.00    -0.028 C 
ATOM     14  C   UNL     1      -1.599  31.822  52.573  1.00  0.00     0.039 C 
BRANCH  13  15
ATOM     15  C   UNL     1      -4.134  31.322  54.027  1.00  0.00     0.035 C 
BRANCH  15  16
ATOM     16  C   UNL     1      -4.200  30.170  55.039  1.00  0.00     0.079 C 
BRANCH  16  17
ATOM     17  C   UNL     1      -2.916  30.042  55.818  1.00  0.00     0.130 C 
ATOM     18  O   UNL     1      -2.187  31.015  55.941  1.00  0.00    -0.300 OA
ATOM     19  C   UNL     1      -2.503  28.739  56.437  1.00  0.00     0.087 C 
ENDBRANCH  16  17
ENDBRANCH  15  16
ENDBRANCH  13  15
ENDBRANCH  11  12
ENDBRANCH   1  11
TORSDOF 9
ENDMDL
MODEL 9
REMARK VINA RESULT:    -4.034      0.788      1.500
REMARK INTER + INTRA:          -8.883
REMARK INTER:                  -6.395
REMARK INTRA:                  -2.488
REMARK UNBOUND:                -2.727
REMARK SMILES CC(=O)CCC=C(C)CCC=C(C)CCC=C(C)C
REMARK SMILES IDX 10 1 11 2 12 3 13 4 14 5 15 6 16 7 18 8 17 9 19 10 9 11 7 12
REMARK SMILES IDX 6 13 8 14 5 15 4 16 2 17 3 18 1 19
REMARK H PARENT
REMARK Flexibility Score: inf
ROOT
ATOM      1  C   UNL     1      -3.560  31.071  53.848  1.00  0.00     0.032 C 
ENDROOT
BRANCH   1   2
ATOM      2  C   UNL     1      -3.170  31.468  52.442  1.00  0.00    -0.028 C 
ATOM      3  C   UNL     1      -3.797  31.019  51.332  1.00  0.00    -0.077 C 
ATOM      4  C   UNL     1      -3.328  31.527  49.992  1.00  0.00     0.039 C 
BRANCH   3   5
ATOM      5  C   UNL     1      -4.932  30.011  51.380  1.00  0.00     0.034 C 
BRANCH   5   6
ATOM      6  C   UNL     1      -4.702  28.835  50.420  1.00  0.00     0.032 C 
BRANCH   6   7
ATOM      7  C   UNL     1      -4.296  27.587  51.169  1.00  0.00    -0.028 C 
ATOM      8  C   UNL     1      -1.847  27.908  50.745  1.00  0.00     0.039 C 
ATOM      9  C   UNL     1      -3.025  27.143  51.299  1.00  0.00    -0.080 C 
ATOM     10  C   UNL     1      -2.791  25.841  52.019  1.00  0.00     0.039 C 
ENDBRANCH   6   7
ENDBRANCH   5   6
ENDBRANCH   3   5
ENDBRANCH   1   2
BRANCH   1  11
ATOM     11  C   UNL     1      -2.352  30.621  54.682  1.00  0.00     0.034 C 
BRANCH  11  12
ATOM     12  C   UNL     1      -2.179  29.116  54.663  1.00  0.00    -0.077 C 
ATOM     13  C   UNL     1      -0.948  28.586  54.491  1.00  0.00    -0.028 C 
ATOM     14  C   UNL     1      -3.390  28.239  54.872  1.00  0.00     0.039 C 
BRANCH  13  15
ATOM     15  C   UNL     1      -0.681  27.098  54.491  1.00  0.00     0.035 C 
BRANCH  15  16
ATOM     16  C   UNL     1       0.446  26.718  53.521  1.00  0.00     0.079 C 
BRANCH  16  17
ATOM     17  C   UNL     1       1.793  26.745  54.197  1.00  0.00     0.130 C 
ATOM     18  O   UNL     1       2.808  26.748  53.516  1.00  0.00    -0.300 OA
ATOM     19  C   UNL     1       1.917  26.755  55.691  1.00  0.00     0.087 C 
ENDBRANCH  16  17
ENDBRANCH  15  16
ENDBRANCH  13  15
ENDBRANCH  11  12
ENDBRANCH   1  11
TORSDOF 9
ENDMDL
