MODEL 1
REMARK VINA RESULT:    -1.920      0.000      0.000
REMARK INTER + INTRA:          -2.469
REMARK INTER:                  -2.931
REMARK INTRA:                   0.462
REMARK UNBOUND:                 0.462
REMARK SMILES CC1=CCC[C@H](C)C(=O)C[C@H](C(C)C)C(=O)C1
REMARK SMILES IDX 8 1 9 2 6 3 7 4 5 5 4 6 3 7 2 8 1 9 10 11 11 12 15 13 16 14
REMARK SMILES IDX 17 15 12 17 13 18 14 19
REMARK H PARENT
REMARK Flexibility Score: 70.00
ROOT
ATOM      1  C   UNL     1      87.226  31.199  66.639  1.00  0.00     0.136 C 
ATOM      2  O   UNL     1      86.902  31.425  67.796  1.00  0.00    -0.299 OA
ENDROOT
BRANCH   1   3
ATOM      3  C   UNL     1      88.688  31.206  66.248  1.00  0.00     0.053 C 
ATOM      4  C   UNL     1      88.966  30.032  65.303  1.00  0.00     0.016 C 
BRANCH   3   5
ATOM      5  C   UNL     1      89.125  32.536  65.592  1.00  0.00     0.015 C 
BRANCH   5   6
ATOM      6  C   UNL     1      88.593  33.788  66.316  1.00  0.00     0.028 C 
BRANCH   6   7
ATOM      7  C   UNL     1      88.096  34.830  65.338  1.00  0.00    -0.028 C 
ATOM      8  C   UNL     1      87.282  34.616  64.278  1.00  0.00    -0.070 CG0
ATOM      9  C   UNL     1      86.882  35.807  63.445  1.00  0.00     0.039 C 
ATOM     10  G   UNL     1      86.810  33.244  63.841  1.00  0.00     0.000 G0
ENDBRANCH   6   7
ENDBRANCH   5   6
ENDBRANCH   3   5
ENDBRANCH   1   3
BRANCH   1  11
ATOM     11  C   UNL     1      86.156  30.948  65.603  1.00  0.00     0.087 C 
BRANCH  11  12
ATOM     12  C   UNL     1      85.139  32.112  65.525  1.00  0.00     0.066 C 
BRANCH  12  13
ATOM     13  C   UNL     1      85.407  32.975  64.307  1.00  0.00     0.140 C 
ATOM     14  O   UNL     1      84.472  33.448  63.677  1.00  0.00    -0.299 OA
BRANCH  13  15
ATOM     15  C   UNL     1      86.810  33.241  63.829  1.00  0.00     0.106 CG0
ATOM     16  G   UNL     1      87.260  34.616  64.277  1.00  0.00     0.000 G0
ENDBRANCH  13  15
ENDBRANCH  12  13
BRANCH  12  17
ATOM     17  C   UNL     1      83.648  31.650  65.570  1.00  0.00    -0.006 C 
ATOM     18  C   UNL     1      83.144  31.512  67.015  1.00  0.00     0.008 C 
ATOM     19  C   UNL     1      83.369  30.351  64.794  1.00  0.00     0.008 C 
ENDBRANCH  12  17
ENDBRANCH  11  12
ENDBRANCH   1  11
TORSDOF 1
ENDMDL
MODEL 2
REMARK VINA RESULT:    -1.833      1.921      4.186
REMARK INTER + INTRA:          -2.336
REMARK INTER:                  -2.819
REMARK INTRA:                   0.483
REMARK UNBOUND:                 0.462
REMARK SMILES CC1=CCC[C@H](C)C(=O)C[C@H](C(C)C)C(=O)C1
REMARK SMILES IDX 8 1 9 2 6 3 7 4 5 5 4 6 3 7 2 8 1 9 10 11 11 12 15 13 16 14
REMARK SMILES IDX 17 15 12 17 13 18 14 19
REMARK H PARENT
REMARK Flexibility Score: 70.00
ROOT
ATOM      1  C   UNL     1      85.207  29.563  64.754  1.00  0.00     0.136 C 
ATOM      2  O   UNL     1      84.739  28.543  64.267  1.00  0.00    -0.299 OA
ENDROOT
BRANCH   1   3
ATOM      3  C   UNL     1      84.618  30.910  64.396  1.00  0.00     0.053 C 
ATOM      4  C   UNL     1      83.934  31.508  65.630  1.00  0.00     0.016 C 
BRANCH   3   5
ATOM      5  C   UNL     1      85.672  31.895  63.839  1.00  0.00     0.015 C 
BRANCH   5   6
ATOM      6  C   UNL     1      85.539  33.325  64.398  1.00  0.00     0.028 C 
BRANCH   6   7
ATOM      7  C   UNL     1      86.892  33.941  64.681  1.00  0.00    -0.028 C 
ATOM      8  C   UNL     1      87.767  33.556  65.640  1.00  0.00    -0.070 CG0
ATOM      9  C   UNL     1      89.080  34.291  65.731  1.00  0.00     0.039 C 
ATOM     10  G   UNL     1      87.474  32.481  66.666  1.00  0.00     0.000 G0
ENDBRANCH   6   7
ENDBRANCH   5   6
ENDBRANCH   3   5
ENDBRANCH   1   3
BRANCH   1  11
ATOM     11  C   UNL     1      86.394  29.466  65.681  1.00  0.00     0.087 C 
BRANCH  11  12
ATOM     12  C   UNL     1      87.590  30.313  65.185  1.00  0.00     0.066 C 
BRANCH  12  13
ATOM     13  C   UNL     1      88.131  31.181  66.306  1.00  0.00     0.140 C 
ATOM     14  O   UNL     1      89.110  30.815  66.941  1.00  0.00    -0.299 OA
BRANCH  13  15
ATOM     15  C   UNL     1      87.468  32.478  66.681  1.00  0.00     0.106 CG0
ATOM     16  G   UNL     1      87.779  33.539  65.646  1.00  0.00     0.000 G0
ENDBRANCH  13  15
ENDBRANCH  12  13
BRANCH  12  17
ATOM     17  C   UNL     1      88.728  29.471  64.526  1.00  0.00    -0.006 C 
ATOM     18  C   UNL     1      89.012  29.935  63.088  1.00  0.00     0.008 C 
ATOM     19  C   UNL     1      88.476  27.953  64.543  1.00  0.00     0.008 C 
ENDBRANCH  12  17
ENDBRANCH  11  12
ENDBRANCH   1  11
TORSDOF 1
ENDMDL
MODEL 3
REMARK VINA RESULT:    -1.681      2.261      4.326
REMARK INTER + INTRA:          -2.103
REMARK INTER:                  -3.541
REMARK INTRA:                   1.438
REMARK UNBOUND:                 0.462
REMARK SMILES CC1=CCC[C@H](C)C(=O)C[C@H](C(C)C)C(=O)C1
REMARK SMILES IDX 8 1 9 2 6 3 7 4 5 5 4 6 3 7 2 8 1 9 10 11 11 12 15 13 16 14
REMARK SMILES IDX 17 15 12 17 13 18 14 19
REMARK H PARENT
REMARK Flexibility Score: 70.00
ROOT
ATOM      1  C   UNL     1      88.566  31.533  66.503  1.00  0.00     0.136 C 
ATOM      2  O   UNL     1      88.728  31.011  67.597  1.00  0.00    -0.299 OA
ENDROOT
BRANCH   1   3
ATOM      3  C   UNL     1      88.189  32.996  66.413  1.00  0.00     0.053 C 
ATOM      4  C   UNL     1      89.003  33.661  65.298  1.00  0.00     0.016 C 
BRANCH   3   5
ATOM      5  C   UNL     1      86.677  33.210  66.171  1.00  0.00     0.015 C 
BRANCH   5   6
ATOM      6  C   UNL     1      85.777  32.366  67.095  1.00  0.00     0.028 C 
BRANCH   6   7
ATOM      7  C   UNL     1      84.608  31.768  66.342  1.00  0.00    -0.028 C 
ATOM      8  C   UNL     1      84.674  31.035  65.205  1.00  0.00    -0.070 CG0
ATOM      9  C   UNL     1      83.383  30.506  64.633  1.00  0.00     0.039 C 
ATOM     10  G   UNL     1      85.955  30.777  64.441  1.00  0.00     0.000 G0
ENDBRANCH   6   7
ENDBRANCH   5   6
ENDBRANCH   3   5
ENDBRANCH   1   3
BRANCH   1  11
ATOM     11  C   UNL     1      88.712  30.700  65.254  1.00  0.00     0.087 C 
BRANCH  11  12
ATOM     12  C   UNL     1      87.983  29.340  65.373  1.00  0.00     0.066 C 
BRANCH  12  13
ATOM     13  C   UNL     1      86.561  29.448  64.858  1.00  0.00     0.140 C 
ATOM     14  O   UNL     1      85.877  28.441  64.742  1.00  0.00    -0.299 OA
BRANCH  13  15
ATOM     15  C   UNL     1      85.974  30.772  64.449  1.00  0.00     0.106 CG0
ATOM     16  G   UNL     1      84.687  31.026  65.205  1.00  0.00     0.000 G0
ENDBRANCH  13  15
ENDBRANCH  12  13
BRANCH  12  17
ATOM     17  C   UNL     1      88.741  28.157  64.692  1.00  0.00    -0.006 C 
ATOM     18  C   UNL     1      89.106  28.484  63.235  1.00  0.00     0.008 C 
ATOM     19  C   UNL     1      87.992  26.814  64.753  1.00  0.00     0.008 C 
ENDBRANCH  12  17
ENDBRANCH  11  12
ENDBRANCH   1  11
TORSDOF 1
ENDMDL
MODEL 4
REMARK VINA RESULT:    -1.548      2.046      4.390
REMARK INTER + INTRA:          -1.901
REMARK INTER:                  -3.211
REMARK INTRA:                   1.310
REMARK UNBOUND:                 0.462
REMARK SMILES CC1=CCC[C@H](C)C(=O)C[C@H](C(C)C)C(=O)C1
REMARK SMILES IDX 8 1 9 2 6 3 7 4 5 5 4 6 3 7 2 8 1 9 10 11 11 12 15 13 16 14
REMARK SMILES IDX 17 15 12 17 13 18 14 19
REMARK H PARENT
REMARK Flexibility Score: 70.00
ROOT
ATOM      1  C   UNL     1      88.610  30.199  64.177  1.00  0.00     0.136 C 
ATOM      2  O   UNL     1      89.085  30.454  63.079  1.00  0.00    -0.299 OA
ENDROOT
BRANCH   1   3
ATOM      3  C   UNL     1      87.768  28.957  64.366  1.00  0.00     0.053 C 
ATOM      4  C   UNL     1      88.611  27.870  65.040  1.00  0.00     0.016 C 
BRANCH   3   5
ATOM      5  C   UNL     1      86.484  29.224  65.186  1.00  0.00     0.015 C 
BRANCH   5   6
ATOM      6  C   UNL     1      85.360  29.899  64.376  1.00  0.00     0.028 C 
BRANCH   6   7
ATOM      7  C   UNL     1      84.414  30.670  65.269  1.00  0.00    -0.028 C 
ATOM      8  C   UNL     1      84.751  31.638  66.154  1.00  0.00    -0.070 CG0
ATOM      9  C   UNL     1      83.641  32.304  66.926  1.00  0.00     0.039 C 
ATOM     10  G   UNL     1      86.179  32.039  66.462  1.00  0.00     0.000 G0
ENDBRANCH   6   7
ENDBRANCH   5   6
ENDBRANCH   3   5
ENDBRANCH   1   3
BRANCH   1  11
ATOM     11  C   UNL     1      88.844  31.150  65.326  1.00  0.00     0.087 C 
BRANCH  11  12
ATOM     12  C   UNL     1      88.332  32.576  65.014  1.00  0.00     0.066 C 
BRANCH  12  13
ATOM     13  C   UNL     1      86.834  32.666  65.231  1.00  0.00     0.140 C 
ATOM     14  O   UNL     1      86.133  33.240  64.410  1.00  0.00    -0.299 OA
BRANCH  13  15
ATOM     15  C   UNL     1      86.184  32.089  66.460  1.00  0.00     0.106 CG0
ATOM     16  G   UNL     1      84.777  31.632  66.138  1.00  0.00     0.000 G0
ENDBRANCH  13  15
ENDBRANCH  12  13
BRANCH  12  17
ATOM     17  C   UNL     1      89.082  33.700  65.796  1.00  0.00    -0.006 C 
ATOM     18  C   UNL     1      88.930  33.529  67.316  1.00  0.00     0.008 C 
ATOM     19  C   UNL     1      88.676  35.127  65.389  1.00  0.00     0.008 C 
ENDBRANCH  12  17
ENDBRANCH  11  12
ENDBRANCH   1  11
TORSDOF 1
ENDMDL
MODEL 5
REMARK VINA RESULT:    -1.449      1.785      2.395
REMARK INTER + INTRA:          -1.749
REMARK INTER:                  -3.171
REMARK INTRA:                   1.422
REMARK UNBOUND:                 0.462
REMARK SMILES CC1=CCC[C@H](C)C(=O)C[C@H](C(C)C)C(=O)C1
REMARK SMILES IDX 8 1 9 2 6 3 7 4 5 5 4 6 3 7 2 8 1 9 10 11 11 12 15 13 16 14
REMARK SMILES IDX 17 15 12 17 13 18 14 19
REMARK H PARENT
REMARK Flexibility Score: 70.00
ROOT
ATOM      1  C   UNL     1      86.559  28.929  64.828  1.00  0.00     0.136 C 
ATOM      2  O   UNL     1      85.844  28.013  65.209  1.00  0.00    -0.299 OA
ENDROOT
BRANCH   1   3
ATOM      3  C   UNL     1      88.058  28.846  65.018  1.00  0.00     0.053 C 
ATOM      4  C   UNL     1      88.704  28.321  63.731  1.00  0.00     0.016 C 
BRANCH   3   5
ATOM      5  C   UNL     1      88.686  30.203  65.416  1.00  0.00     0.015 C 
BRANCH   5   6
ATOM      6  C   UNL     1      88.902  31.158  64.226  1.00  0.00     0.028 C 
BRANCH   6   7
ATOM      7  C   UNL     1      89.117  32.583  64.686  1.00  0.00    -0.028 C 
ATOM      8  C   UNL     1      88.404  33.239  65.633  1.00  0.00    -0.070 CG0
ATOM      9  C   UNL     1      88.807  34.654  65.963  1.00  0.00     0.039 C 
ATOM     10  G   UNL     1      87.189  32.659  66.326  1.00  0.00     0.000 G0
ENDBRANCH   6   7
ENDBRANCH   5   6
ENDBRANCH   3   5
ENDBRANCH   1   3
BRANCH   1  11
ATOM     11  C   UNL     1      85.931  30.151  64.202  1.00  0.00     0.087 C 
BRANCH  11  12
ATOM     12  C   UNL     1      85.339  31.108  65.263  1.00  0.00     0.066 C 
BRANCH  12  13
ATOM     13  C   UNL     1      86.105  32.417  65.289  1.00  0.00     0.140 C 
ATOM     14  O   UNL     1      85.888  33.268  64.438  1.00  0.00    -0.299 OA
BRANCH  13  15
ATOM     15  C   UNL     1      87.162  32.685  66.327  1.00  0.00     0.106 CG0
ATOM     16  G   UNL     1      88.410  33.235  65.668  1.00  0.00     0.000 G0
ENDBRANCH  13  15
ENDBRANCH  12  13
BRANCH  12  17
ATOM     17  C   UNL     1      83.806  31.357  65.103  1.00  0.00    -0.006 C 
ATOM     18  C   UNL     1      83.194  31.957  66.379  1.00  0.00     0.008 C 
ATOM     19  C   UNL     1      83.009  30.111  64.678  1.00  0.00     0.008 C 
ENDBRANCH  12  17
ENDBRANCH  11  12
ENDBRANCH   1  11
TORSDOF 1
ENDMDL
MODEL 6
REMARK VINA RESULT:    -1.356      2.227      3.383
REMARK INTER + INTRA:          -1.608
REMARK INTER:                  -3.446
REMARK INTRA:                   1.838
REMARK UNBOUND:                 0.462
REMARK SMILES CC1=CCC[C@H](C)C(=O)C[C@H](C(C)C)C(=O)C1
REMARK SMILES IDX 8 1 9 2 6 3 7 4 5 5 4 6 3 7 2 8 1 9 10 11 11 12 15 13 16 14
REMARK SMILES IDX 17 15 12 17 13 18 14 19
REMARK H PARENT
REMARK Flexibility Score: 70.00
ROOT
ATOM      1  C   UNL     1      87.499  32.398  64.379  1.00  0.00     0.136 C 
ATOM      2  O   UNL     1      88.383  33.241  64.318  1.00  0.00    -0.299 OA
ENDROOT
BRANCH   1   3
ATOM      3  C   UNL     1      87.791  30.968  63.978  1.00  0.00     0.053 C 
ATOM      4  C   UNL     1      89.111  30.918  63.202  1.00  0.00     0.016 C 
BRANCH   3   5
ATOM      5  C   UNL     1      87.846  30.007  65.190  1.00  0.00     0.015 C 
BRANCH   5   6
ATOM      6  C   UNL     1      89.072  30.226  66.098  1.00  0.00     0.028 C 
BRANCH   6   7
ATOM      7  C   UNL     1      89.081  31.613  66.700  1.00  0.00    -0.028 C 
ATOM      8  C   UNL     1      88.145  32.137  67.527  1.00  0.00    -0.070 CG0
ATOM      9  C   UNL     1      88.364  33.538  68.041  1.00  0.00     0.039 C 
ATOM     10  G   UNL     1      86.863  31.427  67.907  1.00  0.00     0.000 G0
ENDBRANCH   6   7
ENDBRANCH   5   6
ENDBRANCH   3   5
ENDBRANCH   1   3
BRANCH   1  11
ATOM     11  C   UNL     1      86.114  32.803  64.822  1.00  0.00     0.087 C 
BRANCH  11  12
ATOM     12  C   UNL     1      85.447  31.724  65.706  1.00  0.00     0.066 C 
BRANCH  12  13
ATOM     13  C   UNL     1      85.687  32.014  67.176  1.00  0.00     0.140 C 
ATOM     14  O   UNL     1      84.930  32.759  67.781  1.00  0.00    -0.299 OA
BRANCH  13  15
ATOM     15  C   UNL     1      86.864  31.427  67.908  1.00  0.00     0.106 CG0
ATOM     16  G   UNL     1      88.131  32.163  67.527  1.00  0.00     0.000 G0
ENDBRANCH  13  15
ENDBRANCH  12  13
BRANCH  12  17
ATOM     17  C   UNL     1      83.927  31.520  65.413  1.00  0.00    -0.006 C 
ATOM     18  C   UNL     1      83.679  30.256  64.574  1.00  0.00     0.008 C 
ATOM     19  C   UNL     1      83.248  32.729  64.748  1.00  0.00     0.008 C 
ENDBRANCH  12  17
ENDBRANCH  11  12
ENDBRANCH   1  11
TORSDOF 1
ENDMDL
MODEL 7
REMARK VINA RESULT:    -1.135      1.870      4.265
REMARK INTER + INTRA:          -1.270
REMARK INTER:                  -2.094
REMARK INTRA:                   0.824
REMARK UNBOUND:                 0.462
REMARK SMILES CC1=CCC[C@H](C)C(=O)C[C@H](C(C)C)C(=O)C1
REMARK SMILES IDX 8 1 9 2 6 3 7 4 5 5 4 6 3 7 2 8 1 9 10 11 11 12 15 13 16 14
REMARK SMILES IDX 17 15 12 17 13 18 14 19
REMARK H PARENT
REMARK Flexibility Score: 70.00
ROOT
ATOM      1  C   UNL     1      88.232  29.588  65.923  1.00  0.00     0.136 C 
ATOM      2  O   UNL     1      89.124  29.082  66.590  1.00  0.00    -0.299 OA
ENDROOT
BRANCH   1   3
ATOM      3  C   UNL     1      87.683  28.857  64.717  1.00  0.00     0.053 C 
ATOM      4  C   UNL     1      88.678  27.776  64.283  1.00  0.00     0.016 C 
BRANCH   3   5
ATOM      5  C   UNL     1      86.294  28.230  64.979  1.00  0.00     0.015 C 
BRANCH   5   6
ATOM      6  C   UNL     1      85.140  28.961  64.265  1.00  0.00     0.028 C 
BRANCH   6   7
ATOM      7  C   UNL     1      84.475  29.974  65.171  1.00  0.00    -0.028 C 
ATOM      8  C   UNL     1      84.598  31.321  65.099  1.00  0.00    -0.070 CG0
ATOM      9  C   UNL     1      83.820  32.153  66.087  1.00  0.00     0.039 C 
ATOM     10  G   UNL     1      85.522  32.033  64.133  1.00  0.00     0.000 G0
ENDBRANCH   6   7
ENDBRANCH   5   6
ENDBRANCH   3   5
ENDBRANCH   1   3
BRANCH   1  11
ATOM     11  C   UNL     1      87.712  30.955  66.295  1.00  0.00     0.087 C 
BRANCH  11  12
ATOM     12  C   UNL     1      87.937  31.989  65.166  1.00  0.00     0.066 C 
BRANCH  12  13
ATOM     13  C   UNL     1      86.648  32.722  64.847  1.00  0.00     0.140 C 
ATOM     14  O   UNL     1      86.501  33.881  65.206  1.00  0.00    -0.299 OA
BRANCH  13  15
ATOM     15  C   UNL     1      85.519  32.040  64.121  1.00  0.00     0.106 CG0
ATOM     16  G   UNL     1      84.626  31.320  65.110  1.00  0.00     0.000 G0
ENDBRANCH  13  15
ENDBRANCH  12  13
BRANCH  12  17
ATOM     17  C   UNL     1      89.099  32.993  65.453  1.00  0.00    -0.006 C 
ATOM     18  C   UNL     1      89.092  33.461  66.917  1.00  0.00     0.008 C 
ATOM     19  C   UNL     1      89.120  34.213  64.515  1.00  0.00     0.008 C 
ENDBRANCH  12  17
ENDBRANCH  11  12
ENDBRANCH   1  11
TORSDOF 1
ENDMDL
MODEL 8
REMARK VINA RESULT:    -0.447      1.920      3.552
REMARK INTER + INTRA:          -0.220
REMARK INTER:                  -0.447
REMARK INTRA:                   0.227
REMARK UNBOUND:                 0.462
REMARK SMILES CC1=CCC[C@H](C)C(=O)C[C@H](C(C)C)C(=O)C1
REMARK SMILES IDX 8 1 9 2 6 3 7 4 5 5 4 6 3 7 2 8 1 9 10 11 11 12 15 13 16 14
REMARK SMILES IDX 17 15 12 17 13 18 14 19
REMARK H PARENT
REMARK Flexibility Score: 70.00
ROOT
ATOM      1  C   UNL     1      85.755  33.310  63.908  1.00  0.00     0.136 C 
ATOM      2  O   UNL     1      85.565  34.047  62.951  1.00  0.00    -0.299 OA
ENDROOT
BRANCH   1   3
ATOM      3  C   UNL     1      87.166  32.922  64.295  1.00  0.00     0.053 C 
ATOM      4  C   UNL     1      87.846  32.233  63.107  1.00  0.00     0.016 C 
BRANCH   3   5
ATOM      5  C   UNL     1      88.009  34.129  64.768  1.00  0.00     0.015 C 
BRANCH   5   6
ATOM      6  C   UNL     1      88.482  34.019  66.230  1.00  0.00     0.028 C 
BRANCH   6   7
ATOM      7  C   UNL     1      88.462  32.587  66.717  1.00  0.00    -0.028 C 
ATOM      8  C   UNL     1      87.419  31.950  67.301  1.00  0.00    -0.070 CG0
ATOM      9  C   UNL     1      87.603  30.504  67.685  1.00  0.00     0.039 C 
ATOM     10  G   UNL     1      86.109  32.624  67.652  1.00  0.00     0.000 G0
ENDBRANCH   6   7
ENDBRANCH   5   6
ENDBRANCH   3   5
ENDBRANCH   1   3
BRANCH   1  11
ATOM     11  C   UNL     1      84.573  32.767  64.673  1.00  0.00     0.087 C 
BRANCH  11  12
ATOM     12  C   UNL     1      84.961  31.565  65.567  1.00  0.00     0.066 C 
BRANCH  12  13
ATOM     13  C   UNL     1      84.936  31.959  67.032  1.00  0.00     0.140 C 
ATOM     14  O   UNL     1      83.938  31.743  67.704  1.00  0.00    -0.299 OA
BRANCH  13  15
ATOM     15  C   UNL     1      86.109  32.646  67.677  1.00  0.00     0.106 CG0
ATOM     16  G   UNL     1      87.397  31.950  67.288  1.00  0.00     0.000 G0
ENDBRANCH  13  15
ENDBRANCH  12  13
BRANCH  12  17
ATOM     17  C   UNL     1      84.101  30.287  65.313  1.00  0.00    -0.006 C 
ATOM     18  C   UNL     1      84.946  29.144  64.729  1.00  0.00     0.008 C 
ATOM     19  C   UNL     1      82.865  30.527  64.427  1.00  0.00     0.008 C 
ENDBRANCH  12  17
ENDBRANCH  11  12
ENDBRANCH   1  11
TORSDOF 1
ENDMDL
MODEL 9
REMARK VINA RESULT:    -0.151      2.266      3.040
REMARK INTER + INTRA:           0.231
REMARK INTER:                  -2.024
REMARK INTRA:                   2.255
REMARK UNBOUND:                 0.462
REMARK SMILES CC1=CCC[C@H](C)C(=O)C[C@H](C(C)C)C(=O)C1
REMARK SMILES IDX 8 1 9 2 6 3 7 4 5 5 4 6 3 7 2 8 1 9 10 11 11 12 15 13 16 14
REMARK SMILES IDX 17 15 12 17 13 18 14 19
REMARK H PARENT
REMARK Flexibility Score: 70.00
ROOT
ATOM      1  C   UNL     1      88.347  29.695  65.216  1.00  0.00     0.136 C 
ATOM      2  O   UNL     1      88.885  28.601  65.309  1.00  0.00    -0.299 OA
ENDROOT
BRANCH   1   3
ATOM      3  C   UNL     1      88.884  30.870  66.005  1.00  0.00     0.053 C 
ATOM      4  C   UNL     1      89.111  32.055  65.059  1.00  0.00     0.016 C 
BRANCH   3   5
ATOM      5  C   UNL     1      87.953  31.285  67.168  1.00  0.00     0.015 C 
BRANCH   5   6
ATOM      6  C   UNL     1      87.498  32.756  67.102  1.00  0.00     0.028 C 
BRANCH   6   7
ATOM      7  C   UNL     1      86.928  33.104  65.744  1.00  0.00    -0.028 C 
ATOM      8  C   UNL     1      85.763  32.654  65.222  1.00  0.00    -0.070 CG0
ATOM      9  C   UNL     1      85.364  33.153  63.856  1.00  0.00     0.039 C 
ATOM     10  G   UNL     1      84.875  31.629  65.897  1.00  0.00     0.000 G0
ENDBRANCH   6   7
ENDBRANCH   5   6
ENDBRANCH   3   5
ENDBRANCH   1   3
BRANCH   1  11
ATOM     11  C   UNL     1      87.129  29.852  64.340  1.00  0.00     0.087 C 
BRANCH  11  12
ATOM     12  C   UNL     1      85.845  29.337  65.031  1.00  0.00     0.066 C 
BRANCH  12  13
ATOM     13  C   UNL     1      84.761  30.398  65.005  1.00  0.00     0.140 C 
ATOM     14  O   UNL     1      83.808  30.278  64.249  1.00  0.00    -0.299 OA
BRANCH  13  15
ATOM     15  C   UNL     1      84.847  31.626  65.872  1.00  0.00     0.106 CG0
ATOM     16  G   UNL     1      85.759  32.651  65.231  1.00  0.00     0.000 G0
ENDBRANCH  13  15
ENDBRANCH  12  13
BRANCH  12  17
ATOM     17  C   UNL     1      85.319  27.983  64.458  1.00  0.00    -0.006 C 
ATOM     18  C   UNL     1      84.138  27.443  65.279  1.00  0.00     0.008 C 
ATOM     19  C   UNL     1      86.401  26.897  64.323  1.00  0.00     0.008 C 
ENDBRANCH  12  17
ENDBRANCH  11  12
ENDBRANCH   1  11
TORSDOF 1
ENDMDL
