MODEL 1
REMARK VINA RESULT:    -3.131      0.000      0.000
REMARK INTER + INTRA:          -4.711
REMARK INTER:                  -4.779
REMARK INTRA:                   0.068
REMARK UNBOUND:                 0.068
REMARK SMILES CC1=CCC[C@H](C)C(=O)C[C@@H](C(C)C)C(=O)C1
REMARK SMILES IDX 8 1 9 2 6 3 7 4 5 5 4 6 3 7 2 8 1 9 10 11 11 12 15 13 16 14
REMARK SMILES IDX 17 15 12 17 13 18 14 19
REMARK H PARENT
REMARK Flexibility Score: 70.00
ROOT
ATOM      1  C   UNL     1      -6.225  29.230  58.029  1.00  0.00     0.136 C 
ATOM      2  O   UNL     1      -5.118  28.748  57.847  1.00  0.00    -0.299 OA
ENDROOT
BRANCH   1   3
ATOM      3  C   UNL     1      -6.340  30.410  58.984  1.00  0.00     0.053 C 
ATOM      4  C   UNL     1      -5.006  31.119  59.264  1.00  0.00     0.016 C 
BRANCH   3   5
ATOM      5  C   UNL     1      -7.474  31.374  58.571  1.00  0.00     0.015 C 
BRANCH   5   6
ATOM      6  C   UNL     1      -7.049  32.506  57.615  1.00  0.00     0.028 C 
BRANCH   6   7
ATOM      7  C   UNL     1      -8.212  32.924  56.752  1.00  0.00    -0.028 C 
ATOM      8  C   UNL     1      -8.575  32.308  55.603  1.00  0.00    -0.070 CG0
ATOM      9  C   UNL     1      -9.835  32.773  54.917  1.00  0.00     0.039 C 
ATOM     10  G   UNL     1      -7.743  31.212  54.957  1.00  0.00     0.000 G0
ENDBRANCH   6   7
ENDBRANCH   5   6
ENDBRANCH   3   5
ENDBRANCH   1   3
BRANCH   1  11
ATOM     11  C   UNL     1      -7.408  28.636  57.288  1.00  0.00     0.087 C 
BRANCH  11  12
ATOM     12  C   UNL     1      -7.351  28.731  55.731  1.00  0.00     0.066 C 
BRANCH  12  13
ATOM     13  C   UNL     1      -8.248  29.818  55.148  1.00  0.00     0.140 C 
ATOM     14  O   UNL     1      -9.382  29.546  54.781  1.00  0.00    -0.299 OA
BRANCH  13  15
ATOM     15  C   UNL     1      -7.717  31.217  54.932  1.00  0.00     0.106 CG0
ATOM     16  G   UNL     1      -8.566  32.281  55.610  1.00  0.00     0.000 G0
ENDBRANCH  13  15
ENDBRANCH  12  13
BRANCH  12  17
ATOM     17  C   UNL     1      -7.509  27.375  54.968  1.00  0.00    -0.006 C 
ATOM     18  C   UNL     1      -7.909  26.186  55.856  1.00  0.00     0.008 C 
ATOM     19  C   UNL     1      -6.244  27.021  54.167  1.00  0.00     0.008 C 
ENDBRANCH  12  17
ENDBRANCH  11  12
ENDBRANCH   1  11
TORSDOF 1
ENDMDL
MODEL 2
REMARK VINA RESULT:    -3.049      1.856      4.085
REMARK INTER + INTRA:          -4.584
REMARK INTER:                  -4.539
REMARK INTRA:                  -0.045
REMARK UNBOUND:                 0.068
REMARK SMILES CC1=CCC[C@H](C)C(=O)C[C@@H](C(C)C)C(=O)C1
REMARK SMILES IDX 8 1 9 2 6 3 7 4 5 5 4 6 3 7 2 8 1 9 10 11 11 12 15 13 16 14
REMARK SMILES IDX 17 15 12 17 13 18 14 19
REMARK H PARENT
REMARK Flexibility Score: 70.00
ROOT
ATOM      1  C   UNL     1      -7.279  28.248  57.126  1.00  0.00     0.136 C 
ATOM      2  O   UNL     1      -7.121  27.457  58.044  1.00  0.00    -0.299 OA
ENDROOT
BRANCH   1   3
ATOM      3  C   UNL     1      -8.181  27.830  55.973  1.00  0.00     0.053 C 
ATOM      4  C   UNL     1      -7.791  26.492  55.327  1.00  0.00     0.016 C 
BRANCH   3   5
ATOM      5  C   UNL     1      -9.675  27.917  56.353  1.00  0.00     0.015 C 
BRANCH   5   6
ATOM      6  C   UNL     1     -10.538  28.774  55.405  1.00  0.00     0.028 C 
BRANCH   6   7
ATOM      7  C   UNL     1     -10.896  30.082  56.065  1.00  0.00    -0.028 C 
ATOM      8  C   UNL     1     -10.204  31.234  55.910  1.00  0.00    -0.070 CG0
ATOM      9  C   UNL     1     -10.760  32.485  56.542  1.00  0.00     0.039 C 
ATOM     10  G   UNL     1      -8.875  31.305  55.174  1.00  0.00     0.000 G0
ENDBRANCH   6   7
ENDBRANCH   5   6
ENDBRANCH   3   5
ENDBRANCH   1   3
BRANCH   1  11
ATOM     11  C   UNL     1      -6.581  29.593  57.197  1.00  0.00     0.087 C 
BRANCH  11  12
ATOM     12  C   UNL     1      -7.513  30.832  57.386  1.00  0.00     0.066 C 
BRANCH  12  13
ATOM     13  C   UNL     1      -7.722  31.643  56.112  1.00  0.00     0.140 C 
ATOM     14  O   UNL     1      -7.006  32.605  55.872  1.00  0.00    -0.299 OA
BRANCH  13  15
ATOM     15  C   UNL     1      -8.870  31.327  55.181  1.00  0.00     0.106 CG0
ATOM     16  G   UNL     1     -10.206  31.236  55.902  1.00  0.00     0.000 G0
ENDBRANCH  13  15
ENDBRANCH  12  13
BRANCH  12  17
ATOM     17  C   UNL     1      -7.176  31.745  58.610  1.00  0.00    -0.006 C 
ATOM     18  C   UNL     1      -5.932  31.317  59.403  1.00  0.00     0.008 C 
ATOM     19  C   UNL     1      -8.376  31.887  59.562  1.00  0.00     0.008 C 
ENDBRANCH  12  17
ENDBRANCH  11  12
ENDBRANCH   1  11
TORSDOF 1
ENDMDL
MODEL 3
REMARK VINA RESULT:    -3.047     12.775     14.555
REMARK INTER + INTRA:          -4.582
REMARK INTER:                  -4.641
REMARK INTRA:                   0.059
REMARK UNBOUND:                 0.068
REMARK SMILES CC1=CCC[C@H](C)C(=O)C[C@@H](C(C)C)C(=O)C1
REMARK SMILES IDX 8 1 9 2 6 3 7 4 5 5 4 6 3 7 2 8 1 9 10 11 11 12 15 13 16 14
REMARK SMILES IDX 17 15 12 17 13 18 14 19
REMARK H PARENT
REMARK Flexibility Score: 70.00
ROOT
ATOM      1  C   UNL     1      -7.141  34.330  44.063  1.00  0.00     0.136 C 
ATOM      2  O   UNL     1      -8.110  33.787  43.555  1.00  0.00    -0.299 OA
ENDROOT
BRANCH   1   3
ATOM      3  C   UNL     1      -5.770  33.710  43.824  1.00  0.00     0.053 C 
ATOM      4  C   UNL     1      -5.580  32.339  44.491  1.00  0.00     0.016 C 
BRANCH   3   5
ATOM      5  C   UNL     1      -5.387  33.724  42.328  1.00  0.00     0.015 C 
BRANCH   5   6
ATOM      6  C   UNL     1      -4.376  34.816  41.927  1.00  0.00     0.028 C 
BRANCH   6   7
ATOM      7  C   UNL     1      -3.338  34.989  43.007  1.00  0.00    -0.028 C 
ATOM      8  C   UNL     1      -3.305  36.021  43.882  1.00  0.00    -0.070 CG0
ATOM      9  C   UNL     1      -2.272  35.987  44.980  1.00  0.00     0.039 C 
ATOM     10  G   UNL     1      -4.226  37.226  43.770  1.00  0.00     0.000 G0
ENDBRANCH   6   7
ENDBRANCH   5   6
ENDBRANCH   3   5
ENDBRANCH   1   3
BRANCH   1  11
ATOM     11  C   UNL     1      -7.358  35.586  44.885  1.00  0.00     0.087 C 
BRANCH  11  12
ATOM     12  C   UNL     1      -6.782  36.903  44.277  1.00  0.00     0.066 C 
BRANCH  12  13
ATOM     13  C   UNL     1      -5.372  37.234  44.755  1.00  0.00     0.140 C 
ATOM     14  O   UNL     1      -5.177  37.550  45.920  1.00  0.00    -0.299 OA
BRANCH  13  15
ATOM     15  C   UNL     1      -4.218  37.267  43.778  1.00  0.00     0.106 CG0
ATOM     16  G   UNL     1      -3.329  36.037  43.875  1.00  0.00     0.000 G0
ENDBRANCH  13  15
ENDBRANCH  12  13
BRANCH  12  17
ATOM     17  C   UNL     1      -7.728  38.146  44.348  1.00  0.00    -0.006 C 
ATOM     18  C   UNL     1      -7.074  39.470  43.923  1.00  0.00     0.008 C 
ATOM     19  C   UNL     1      -8.359  38.303  45.742  1.00  0.00     0.008 C 
ENDBRANCH  12  17
ENDBRANCH  11  12
ENDBRANCH   1  11
TORSDOF 1
ENDMDL
MODEL 4
REMARK VINA RESULT:    -2.876      2.301      4.365
REMARK INTER + INTRA:          -4.321
REMARK INTER:                  -4.046
REMARK INTRA:                  -0.274
REMARK UNBOUND:                 0.068
REMARK SMILES CC1=CCC[C@H](C)C(=O)C[C@@H](C(C)C)C(=O)C1
REMARK SMILES IDX 8 1 9 2 6 3 7 4 5 5 4 6 3 7 2 8 1 9 10 11 11 12 15 13 16 14
REMARK SMILES IDX 17 15 12 17 13 18 14 19
REMARK H PARENT
REMARK Flexibility Score: 70.00
ROOT
ATOM      1  C   UNL     1      -9.415  29.402  55.922  1.00  0.00     0.136 C 
ATOM      2  O   UNL     1      -9.421  28.280  56.405  1.00  0.00    -0.299 OA
ENDROOT
BRANCH   1   3
ATOM      3  C   UNL     1     -10.724  29.945  55.365  1.00  0.00     0.053 C 
ATOM      4  C   UNL     1     -11.227  29.205  54.116  1.00  0.00     0.016 C 
BRANCH   3   5
ATOM      5  C   UNL     1     -11.797  30.094  56.465  1.00  0.00     0.015 C 
BRANCH   5   6
ATOM      6  C   UNL     1     -11.663  31.358  57.337  1.00  0.00     0.028 C 
BRANCH   6   7
ATOM      7  C   UNL     1     -11.452  32.572  56.467  1.00  0.00    -0.028 C 
ATOM      8  C   UNL     1     -10.349  33.355  56.498  1.00  0.00    -0.070 CG0
ATOM      9  C   UNL     1     -10.238  34.463  55.480  1.00  0.00     0.039 C 
ATOM     10  G   UNL     1      -9.252  33.195  57.539  1.00  0.00     0.000 G0
ENDBRANCH   6   7
ENDBRANCH   5   6
ENDBRANCH   3   5
ENDBRANCH   1   3
BRANCH   1  11
ATOM     11  C   UNL     1      -8.115  30.185  55.916  1.00  0.00     0.087 C 
BRANCH  11  12
ATOM     12  C   UNL     1      -7.822  31.022  57.200  1.00  0.00     0.066 C 
BRANCH  12  13
ATOM     13  C   UNL     1      -8.010  32.523  57.011  1.00  0.00     0.140 C 
ATOM     14  O   UNL     1      -7.125  33.193  56.499  1.00  0.00    -0.299 OA
BRANCH  13  15
ATOM     15  C   UNL     1      -9.249  33.213  57.537  1.00  0.00     0.106 CG0
ATOM     16  G   UNL     1     -10.340  33.347  56.487  1.00  0.00     0.000 G0
ENDBRANCH  13  15
ENDBRANCH  12  13
BRANCH  12  17
ATOM     17  C   UNL     1      -6.476  30.690  57.925  1.00  0.00    -0.006 C 
ATOM     18  C   UNL     1      -6.169  29.190  58.046  1.00  0.00     0.008 C 
ATOM     19  C   UNL     1      -6.401  31.349  59.314  1.00  0.00     0.008 C 
ENDBRANCH  12  17
ENDBRANCH  11  12
ENDBRANCH   1  11
TORSDOF 1
ENDMDL
MODEL 5
REMARK VINA RESULT:    -2.868     12.803     14.616
REMARK INTER + INTRA:          -4.309
REMARK INTER:                  -4.449
REMARK INTRA:                   0.140
REMARK UNBOUND:                 0.068
REMARK SMILES CC1=CCC[C@H](C)C(=O)C[C@@H](C(C)C)C(=O)C1
REMARK SMILES IDX 8 1 9 2 6 3 7 4 5 5 4 6 3 7 2 8 1 9 10 11 11 12 15 13 16 14
REMARK SMILES IDX 17 15 12 17 13 18 14 19
REMARK H PARENT
REMARK Flexibility Score: 70.00
ROOT
ATOM      1  C   UNL     1      -4.613  37.575  43.751  1.00  0.00     0.136 C 
ATOM      2  O   UNL     1      -4.096  38.556  43.239  1.00  0.00    -0.299 OA
ENDROOT
BRANCH   1   3
ATOM      3  C   UNL     1      -5.822  37.794  44.650  1.00  0.00     0.053 C 
ATOM      4  C   UNL     1      -6.978  38.546  43.970  1.00  0.00     0.016 C 
BRANCH   3   5
ATOM      5  C   UNL     1      -6.263  36.490  45.347  1.00  0.00     0.015 C 
BRANCH   5   6
ATOM      6  C   UNL     1      -7.571  35.876  44.811  1.00  0.00     0.028 C 
BRANCH   6   7
ATOM      7  C   UNL     1      -7.628  34.404  45.134  1.00  0.00    -0.028 C 
ATOM      8  C   UNL     1      -7.175  33.422  44.321  1.00  0.00    -0.070 CG0
ATOM      9  C   UNL     1      -7.195  32.006  44.841  1.00  0.00     0.039 C 
ATOM     10  G   UNL     1      -6.699  33.682  42.900  1.00  0.00     0.000 G0
ENDBRANCH   6   7
ENDBRANCH   5   6
ENDBRANCH   3   5
ENDBRANCH   1   3
BRANCH   1  11
ATOM     11  C   UNL     1      -4.031  36.206  43.451  1.00  0.00     0.087 C 
BRANCH  11  12
ATOM     12  C   UNL     1      -4.766  35.383  42.348  1.00  0.00     0.066 C 
BRANCH  12  13
ATOM     13  C   UNL     1      -5.224  34.005  42.813  1.00  0.00     0.140 C 
ATOM     14  O   UNL     1      -4.401  33.137  43.066  1.00  0.00    -0.299 OA
BRANCH  13  15
ATOM     15  C   UNL     1      -6.697  33.667  42.877  1.00  0.00     0.106 CG0
ATOM     16  G   UNL     1      -7.188  33.436  44.298  1.00  0.00     0.000 G0
ENDBRANCH  13  15
ENDBRANCH  12  13
BRANCH  12  17
ATOM     17  C   UNL     1      -4.043  35.319  40.963  1.00  0.00    -0.006 C 
ATOM     18  C   UNL     1      -2.633  34.713  41.006  1.00  0.00     0.008 C 
ATOM     19  C   UNL     1      -3.994  36.698  40.282  1.00  0.00     0.008 C 
ENDBRANCH  12  17
ENDBRANCH  11  12
ENDBRANCH   1  11
TORSDOF 1
ENDMDL
MODEL 6
REMARK VINA RESULT:    -2.843     13.488     15.492
REMARK INTER + INTRA:          -4.270
REMARK INTER:                  -4.159
REMARK INTRA:                  -0.112
REMARK UNBOUND:                 0.068
REMARK SMILES CC1=CCC[C@H](C)C(=O)C[C@@H](C(C)C)C(=O)C1
REMARK SMILES IDX 8 1 9 2 6 3 7 4 5 5 4 6 3 7 2 8 1 9 10 11 11 12 15 13 16 14
REMARK SMILES IDX 17 15 12 17 13 18 14 19
REMARK H PARENT
REMARK Flexibility Score: 70.00
ROOT
ATOM      1  C   UNL     1      -6.604  34.973  44.298  1.00  0.00     0.136 C 
ATOM      2  O   UNL     1      -7.737  35.398  44.461  1.00  0.00    -0.299 OA
ENDROOT
BRANCH   1   3
ATOM      3  C   UNL     1      -6.444  33.550  43.780  1.00  0.00     0.053 C 
ATOM      4  C   UNL     1      -7.659  33.031  42.995  1.00  0.00     0.016 C 
BRANCH   3   5
ATOM      5  C   UNL     1      -5.104  33.357  43.038  1.00  0.00     0.015 C 
BRANCH   5   6
ATOM      6  C   UNL     1      -5.027  34.024  41.651  1.00  0.00     0.028 C 
BRANCH   6   7
ATOM      7  C   UNL     1      -3.609  34.441  41.350  1.00  0.00    -0.028 C 
ATOM      8  C   UNL     1      -3.160  35.716  41.392  1.00  0.00    -0.070 CG0
ATOM      9  C   UNL     1      -1.686  35.956  41.183  1.00  0.00     0.039 C 
ATOM     10  G   UNL     1      -4.082  36.910  41.591  1.00  0.00     0.000 G0
ENDBRANCH   6   7
ENDBRANCH   5   6
ENDBRANCH   3   5
ENDBRANCH   1   3
BRANCH   1  11
ATOM     11  C   UNL     1      -5.433  35.886  44.609  1.00  0.00     0.087 C 
BRANCH  11  12
ATOM     12  C   UNL     1      -5.399  37.236  43.826  1.00  0.00     0.066 C 
BRANCH  12  13
ATOM     13  C   UNL     1      -4.142  37.426  42.983  1.00  0.00     0.140 C 
ATOM     14  O   UNL     1      -3.195  38.060  43.426  1.00  0.00    -0.299 OA
BRANCH  13  15
ATOM     15  C   UNL     1      -4.088  36.915  41.561  1.00  0.00     0.106 CG0
ATOM     16  G   UNL     1      -3.149  35.730  41.395  1.00  0.00     0.000 G0
ENDBRANCH  13  15
ENDBRANCH  12  13
BRANCH  12  17
ATOM     17  C   UNL     1      -5.732  38.511  44.669  1.00  0.00    -0.006 C 
ATOM     18  C   UNL     1      -5.540  38.342  46.184  1.00  0.00     0.008 C 
ATOM     19  C   UNL     1      -7.152  39.029  44.381  1.00  0.00     0.008 C 
ENDBRANCH  12  17
ENDBRANCH  11  12
ENDBRANCH   1  11
TORSDOF 1
ENDMDL
MODEL 7
REMARK VINA RESULT:    -2.810     14.403     15.942
REMARK INTER + INTRA:          -4.220
REMARK INTER:                  -4.133
REMARK INTRA:                  -0.087
REMARK UNBOUND:                 0.068
REMARK SMILES CC1=CCC[C@H](C)C(=O)C[C@@H](C(C)C)C(=O)C1
REMARK SMILES IDX 8 1 9 2 6 3 7 4 5 5 4 6 3 7 2 8 1 9 10 11 11 12 15 13 16 14
REMARK SMILES IDX 17 15 12 17 13 18 14 19
REMARK H PARENT
REMARK Flexibility Score: 70.00
ROOT
ATOM      1  C   UNL     1      -4.563  33.804  42.600  1.00  0.00     0.136 C 
ATOM      2  O   UNL     1      -4.083  32.964  43.345  1.00  0.00    -0.299 OA
ENDROOT
BRANCH   1   3
ATOM      3  C   UNL     1      -5.923  34.384  42.963  1.00  0.00     0.053 C 
ATOM      4  C   UNL     1      -7.017  33.325  43.174  1.00  0.00     0.016 C 
BRANCH   3   5
ATOM      5  C   UNL     1      -5.823  35.404  44.118  1.00  0.00     0.015 C 
BRANCH   5   6
ATOM      6  C   UNL     1      -6.154  36.859  43.730  1.00  0.00     0.028 C 
BRANCH   6   7
ATOM      7  C   UNL     1      -4.918  37.718  43.824  1.00  0.00    -0.028 C 
ATOM      8  C   UNL     1      -4.139  38.059  42.771  1.00  0.00    -0.070 CG0
ATOM      9  C   UNL     1      -3.005  39.023  43.011  1.00  0.00     0.039 C 
ATOM     10  G   UNL     1      -4.331  37.474  41.380  1.00  0.00     0.000 G0
ENDBRANCH   6   7
ENDBRANCH   5   6
ENDBRANCH   3   5
ENDBRANCH   1   3
BRANCH   1  11
ATOM     11  C   UNL     1      -3.775  34.225  41.374  1.00  0.00     0.087 C 
BRANCH  11  12
ATOM     12  C   UNL     1      -2.739  35.372  41.594  1.00  0.00     0.066 C 
BRANCH  12  13
ATOM     13  C   UNL     1      -3.115  36.680  40.906  1.00  0.00     0.140 C 
ATOM     14  O   UNL     1      -2.410  37.130  40.014  1.00  0.00    -0.299 OA
BRANCH  13  15
ATOM     15  C   UNL     1      -4.308  37.480  41.379  1.00  0.00     0.106 CG0
ATOM     16  G   UNL     1      -4.123  38.044  42.779  1.00  0.00     0.000 G0
ENDBRANCH  13  15
ENDBRANCH  12  13
BRANCH  12  17
ATOM     17  C   UNL     1      -1.245  34.987  41.336  1.00  0.00    -0.006 C 
ATOM     18  C   UNL     1      -1.021  34.084  40.114  1.00  0.00     0.008 C 
ATOM     19  C   UNL     1      -0.599  34.350  42.578  1.00  0.00     0.008 C 
ENDBRANCH  12  17
ENDBRANCH  11  12
ENDBRANCH   1  11
TORSDOF 1
ENDMDL
MODEL 8
REMARK VINA RESULT:    -2.771     11.773     13.700
REMARK INTER + INTRA:          -4.160
REMARK INTER:                  -3.989
REMARK INTRA:                  -0.171
REMARK UNBOUND:                 0.068
REMARK SMILES CC1=CCC[C@H](C)C(=O)C[C@@H](C(C)C)C(=O)C1
REMARK SMILES IDX 8 1 9 2 6 3 7 4 5 5 4 6 3 7 2 8 1 9 10 11 11 12 15 13 16 14
REMARK SMILES IDX 17 15 12 17 13 18 14 19
REMARK H PARENT
REMARK Flexibility Score: 70.00
ROOT
ATOM      1  C   UNL     1      -5.403  38.447  43.932  1.00  0.00     0.136 C 
ATOM      2  O   UNL     1      -5.659  39.198  43.004  1.00  0.00    -0.299 OA
ENDROOT
BRANCH   1   3
ATOM      3  C   UNL     1      -6.045  38.737  45.282  1.00  0.00     0.053 C 
ATOM      4  C   UNL     1      -5.536  40.023  45.953  1.00  0.00     0.016 C 
BRANCH   3   5
ATOM      5  C   UNL     1      -7.585  38.647  45.216  1.00  0.00     0.015 C 
BRANCH   5   6
ATOM      6  C   UNL     1      -8.160  37.225  45.372  1.00  0.00     0.028 C 
BRANCH   6   7
ATOM      7  C   UNL     1      -7.737  36.633  46.692  1.00  0.00    -0.028 C 
ATOM      8  C   UNL     1      -6.920  35.563  46.827  1.00  0.00    -0.070 CG0
ATOM      9  C   UNL     1      -6.496  35.165  48.218  1.00  0.00     0.039 C 
ATOM     10  G   UNL     1      -6.459  34.723  45.645  1.00  0.00     0.000 G0
ENDBRANCH   6   7
ENDBRANCH   5   6
ENDBRANCH   3   5
ENDBRANCH   1   3
BRANCH   1  11
ATOM     11  C   UNL     1      -4.477  37.271  43.683  1.00  0.00     0.087 C 
BRANCH  11  12
ATOM     12  C   UNL     1      -5.152  35.864  43.679  1.00  0.00     0.066 C 
BRANCH  12  13
ATOM     13  C   UNL     1      -5.155  35.180  45.042  1.00  0.00     0.140 C 
ATOM     14  O   UNL     1      -4.099  34.950  45.616  1.00  0.00    -0.299 OA
BRANCH  13  15
ATOM     15  C   UNL     1      -6.449  34.697  45.656  1.00  0.00     0.106 CG0
ATOM     16  G   UNL     1      -6.913  35.565  46.816  1.00  0.00     0.000 G0
ENDBRANCH  13  15
ENDBRANCH  12  13
BRANCH  12  17
ATOM     17  C   UNL     1      -4.684  34.897  42.543  1.00  0.00    -0.006 C 
ATOM     18  C   UNL     1      -4.233  35.598  41.253  1.00  0.00     0.008 C 
ATOM     19  C   UNL     1      -5.756  33.844  42.214  1.00  0.00     0.008 C 
ENDBRANCH  12  17
ENDBRANCH  11  12
ENDBRANCH   1  11
TORSDOF 1
ENDMDL
MODEL 9
REMARK VINA RESULT:    -2.740     12.900     14.620
REMARK INTER + INTRA:          -4.113
REMARK INTER:                  -3.995
REMARK INTRA:                  -0.118
REMARK UNBOUND:                 0.068
REMARK SMILES CC1=CCC[C@H](C)C(=O)C[C@@H](C(C)C)C(=O)C1
REMARK SMILES IDX 8 1 9 2 6 3 7 4 5 5 4 6 3 7 2 8 1 9 10 11 11 12 15 13 16 14
REMARK SMILES IDX 17 15 12 17 13 18 14 19
REMARK H PARENT
REMARK Flexibility Score: 70.00
ROOT
ATOM      1  C   UNL     1      -2.248  29.219  44.074  1.00  0.00     0.136 C 
ATOM      2  O   UNL     1      -1.992  28.175  44.654  1.00  0.00    -0.299 OA
ENDROOT
BRANCH   1   3
ATOM      3  C   UNL     1      -3.030  30.282  44.832  1.00  0.00     0.053 C 
ATOM      4  C   UNL     1      -4.542  30.016  44.899  1.00  0.00     0.016 C 
BRANCH   3   5
ATOM      5  C   UNL     1      -2.398  30.588  46.207  1.00  0.00     0.015 C 
BRANCH   5   6
ATOM      6  C   UNL     1      -0.940  31.087  46.156  1.00  0.00     0.028 C 
BRANCH   6   7
ATOM      7  C   UNL     1      -0.895  32.518  45.684  1.00  0.00    -0.028 C 
ATOM      8  C   UNL     1      -0.267  32.935  44.560  1.00  0.00    -0.070 CG0
ATOM      9  C   UNL     1      -0.415  34.382  44.160  1.00  0.00     0.039 C 
ATOM     10  G   UNL     1       0.613  32.023  43.720  1.00  0.00     0.000 G0
ENDBRANCH   6   7
ENDBRANCH   5   6
ENDBRANCH   3   5
ENDBRANCH   1   3
BRANCH   1  11
ATOM     11  C   UNL     1      -1.763  29.396  42.647  1.00  0.00     0.087 C 
BRANCH  11  12
ATOM     12  C   UNL     1      -0.284  29.869  42.487  1.00  0.00     0.066 C 
BRANCH  12  13
ATOM     13  C   UNL     1      -0.113  31.384  42.550  1.00  0.00     0.140 C 
ATOM     14  O   UNL     1      -0.496  32.084  41.624  1.00  0.00    -0.299 OA
BRANCH  13  15
ATOM     15  C   UNL     1       0.612  32.026  43.711  1.00  0.00     0.106 CG0
ATOM     16  G   UNL     1      -0.287  32.929  44.542  1.00  0.00     0.000 G0
ENDBRANCH  13  15
ENDBRANCH  12  13
BRANCH  12  17
ATOM     17  C   UNL     1       0.495  29.245  41.283  1.00  0.00    -0.006 C 
ATOM     18  C   UNL     1       0.207  27.756  41.040  1.00  0.00     0.008 C 
ATOM     19  C   UNL     1       2.012  29.466  41.411  1.00  0.00     0.008 C 
ENDBRANCH  12  17
ENDBRANCH  11  12
ENDBRANCH   1  11
TORSDOF 1
ENDMDL
