MODEL 1
REMARK VINA RESULT:    -5.553      0.000      0.000
REMARK INTER + INTRA:          -5.966
REMARK INTER:                  -6.202
REMARK INTRA:                   0.236
REMARK UNBOUND:                 0.236
REMARK SMILES O=C([O-])c1ccccc1C(=O)[O-]
REMARK SMILES IDX 4 1 9 2 5 3 8 4 6 5 7 6 2 7 1 8 3 9 10 10 11 11 12 12
REMARK H PARENT
REMARK Flexibility Score: inf
ROOT
ATOM      1  C   UNL     1      16.429  33.705  25.893  1.00  0.00     0.006 A 
ATOM      2  C   UNL     1      16.120  33.538  27.270  1.00  0.00     0.006 A 
ATOM      3  C   UNL     1      17.665  33.241  25.407  1.00  0.00     0.010 A 
ATOM      4  C   UNL     1      17.085  32.971  28.124  1.00  0.00     0.010 A 
ATOM      5  C   UNL     1      18.598  32.662  26.267  1.00  0.00     0.001 A 
ATOM      6  C   UNL     1      18.313  32.538  27.624  1.00  0.00     0.001 A 
ENDROOT
BRANCH   1   7
ATOM      7  C   UNL     1      15.531  34.417  24.954  1.00  0.00     0.072 C 
ATOM      8  O   UNL     1      14.292  34.192  24.966  1.00  0.00    -0.545 OA
ATOM      9  O   UNL     1      16.049  35.292  24.006  1.00  0.00    -0.545 OA
ENDBRANCH   1   7
BRANCH   2  10
ATOM     10  C   UNL     1      14.792  33.869  27.837  1.00  0.00     0.072 C 
ATOM     11  O   UNL     1      14.504  35.061  28.124  1.00  0.00    -0.545 OA
ATOM     12  O   UNL     1      13.873  32.865  28.121  1.00  0.00    -0.545 OA
ENDBRANCH   2  10
TORSDOF 2
ENDMDL
MODEL 2
REMARK VINA RESULT:    -5.039      1.311      1.870
REMARK INTER + INTRA:          -5.392
REMARK INTER:                  -5.621
REMARK INTRA:                   0.229
REMARK UNBOUND:                 0.236
REMARK SMILES O=C([O-])c1ccccc1C(=O)[O-]
REMARK SMILES IDX 4 1 9 2 5 3 8 4 6 5 7 6 2 7 1 8 3 9 10 10 11 11 12 12
REMARK H PARENT
REMARK Flexibility Score: inf
ROOT
ATOM      1  C   UNL     1      17.115  34.264  24.994  1.00  0.00     0.006 A 
ATOM      2  C   UNL     1      16.098  34.054  25.965  1.00  0.00     0.006 A 
ATOM      3  C   UNL     1      18.344  33.593  25.133  1.00  0.00     0.010 A 
ATOM      4  C   UNL     1      16.370  33.231  27.073  1.00  0.00     0.010 A 
ATOM      5  C   UNL     1      18.585  32.765  26.229  1.00  0.00     0.001 A 
ATOM      6  C   UNL     1      17.604  32.593  27.203  1.00  0.00     0.001 A 
ENDROOT
BRANCH   1   7
ATOM      7  C   UNL     1      16.964  35.221  23.874  1.00  0.00     0.072 C 
ATOM      8  O   UNL     1      16.053  35.060  23.019  1.00  0.00    -0.545 OA
ATOM      9  O   UNL     1      17.862  36.270  23.712  1.00  0.00    -0.545 OA
ENDBRANCH   1   7
BRANCH   2  10
ATOM     10  C   UNL     1      14.731  34.607  25.823  1.00  0.00     0.072 C 
ATOM     11  O   UNL     1      14.301  35.455  26.648  1.00  0.00    -0.545 OA
ATOM     12  O   UNL     1      13.883  34.150  24.820  1.00  0.00    -0.545 OA
ENDBRANCH   2  10
TORSDOF 2
ENDMDL
MODEL 3
REMARK VINA RESULT:    -5.022      2.238      3.329
REMARK INTER + INTRA:          -5.372
REMARK INTER:                  -5.618
REMARK INTRA:                   0.245
REMARK UNBOUND:                 0.236
REMARK SMILES O=C([O-])c1ccccc1C(=O)[O-]
REMARK SMILES IDX 4 1 9 2 5 3 8 4 6 5 7 6 2 7 1 8 3 9 10 10 11 11 12 12
REMARK H PARENT
REMARK Flexibility Score: inf
ROOT
ATOM      1  C   UNL     1      16.380  34.482  25.304  1.00  0.00     0.006 A 
ATOM      2  C   UNL     1      16.114  33.848  26.547  1.00  0.00     0.006 A 
ATOM      3  C   UNL     1      15.327  35.118  24.620  1.00  0.00     0.010 A 
ATOM      4  C   UNL     1      14.793  33.817  27.031  1.00  0.00     0.010 A 
ATOM      5  C   UNL     1      14.028  35.094  25.129  1.00  0.00     0.001 A 
ATOM      6  C   UNL     1      13.760  34.435  26.325  1.00  0.00     0.001 A 
ENDROOT
BRANCH   1   7
ATOM      7  C   UNL     1      17.711  34.440  24.654  1.00  0.00     0.072 C 
ATOM      8  O   UNL     1      18.431  33.411  24.749  1.00  0.00    -0.545 OA
ATOM      9  O   UNL     1      18.209  35.554  23.988  1.00  0.00    -0.545 OA
ENDBRANCH   1   7
BRANCH   2  10
ATOM     10  C   UNL     1      17.184  33.278  27.399  1.00  0.00     0.072 C 
ATOM     11  O   UNL     1      17.885  34.031  28.125  1.00  0.00    -0.545 OA
ATOM     12  O   UNL     1      17.473  31.919  27.359  1.00  0.00    -0.545 OA
ENDBRANCH   2  10
TORSDOF 2
ENDMDL
MODEL 4
REMARK VINA RESULT:    -5.001      1.925      3.592
REMARK INTER + INTRA:          -5.350
REMARK INTER:                  -5.406
REMARK INTRA:                   0.057
REMARK UNBOUND:                 0.236
REMARK SMILES O=C([O-])c1ccccc1C(=O)[O-]
REMARK SMILES IDX 4 1 9 2 5 3 8 4 6 5 7 6 2 7 1 8 3 9 10 10 11 11 12 12
REMARK H PARENT
REMARK Flexibility Score: inf
ROOT
ATOM      1  C   UNL     1      15.548  34.227  26.243  1.00  0.00     0.006 A 
ATOM      2  C   UNL     1      16.914  33.867  26.080  1.00  0.00     0.006 A 
ATOM      3  C   UNL     1      14.880  34.874  25.188  1.00  0.00     0.010 A 
ATOM      4  C   UNL     1      17.578  34.224  24.892  1.00  0.00     0.010 A 
ATOM      5  C   UNL     1      15.552  35.200  24.010  1.00  0.00     0.001 A 
ATOM      6  C   UNL     1      16.902  34.885  23.867  1.00  0.00     0.001 A 
ENDROOT
BRANCH   1   7
ATOM      7  C   UNL     1      14.813  34.017  27.512  1.00  0.00     0.072 C 
ATOM      8  O   UNL     1      14.293  34.994  28.113  1.00  0.00    -0.545 OA
ATOM      9  O   UNL     1      14.743  32.754  28.089  1.00  0.00    -0.545 OA
ENDBRANCH   1   7
BRANCH   2  10
ATOM     10  C   UNL     1      17.653  33.062  27.081  1.00  0.00     0.072 C 
ATOM     11  O   UNL     1      18.101  33.605  28.125  1.00  0.00    -0.545 OA
ATOM     12  O   UNL     1      17.918  31.717  26.852  1.00  0.00    -0.545 OA
ENDBRANCH   2  10
TORSDOF 2
ENDMDL
MODEL 5
REMARK VINA RESULT:    -4.952     16.561     18.056
REMARK INTER + INTRA:          -5.295
REMARK INTER:                  -5.062
REMARK INTRA:                  -0.233
REMARK UNBOUND:                 0.236
REMARK SMILES O=C([O-])c1ccccc1C(=O)[O-]
REMARK SMILES IDX 4 1 9 2 5 3 8 4 6 5 7 6 2 7 1 8 3 9 10 10 11 11 12 12
REMARK H PARENT
REMARK Flexibility Score: inf
ROOT
ATOM      1  C   UNL     1      21.274  31.159  10.013  1.00  0.00     0.006 A 
ATOM      2  C   UNL     1      21.465  29.751  10.014  1.00  0.00     0.006 A 
ATOM      3  C   UNL     1      21.336  31.860  11.231  1.00  0.00     0.010 A 
ATOM      4  C   UNL     1      21.649  29.087  11.242  1.00  0.00     0.010 A 
ATOM      5  C   UNL     1      21.541  31.185  12.434  1.00  0.00     0.001 A 
ATOM      6  C   UNL     1      21.686  29.800  12.440  1.00  0.00     0.001 A 
ENDROOT
BRANCH   1   7
ATOM      7  C   UNL     1      20.935  31.917   8.786  1.00  0.00     0.072 C 
ATOM      8  O   UNL     1      19.739  31.994   8.397  1.00  0.00    -0.545 OA
ATOM      9  O   UNL     1      21.934  32.497   8.013  1.00  0.00    -0.545 OA
ENDBRANCH   1   7
BRANCH   2  10
ATOM     10  C   UNL     1      21.555  28.955   8.768  1.00  0.00     0.072 C 
ATOM     11  O   UNL     1      22.658  28.831   8.173  1.00  0.00    -0.545 OA
ATOM     12  O   UNL     1      20.417  28.390   8.205  1.00  0.00    -0.545 OA
ENDBRANCH   2  10
TORSDOF 2
ENDMDL
MODEL 6
REMARK VINA RESULT:    -4.939     16.514     18.080
REMARK INTER + INTRA:          -5.280
REMARK INTER:                  -5.047
REMARK INTRA:                  -0.233
REMARK UNBOUND:                 0.236
REMARK SMILES O=C([O-])c1ccccc1C(=O)[O-]
REMARK SMILES IDX 4 1 9 2 5 3 8 4 6 5 7 6 2 7 1 8 3 9 10 10 11 11 12 12
REMARK H PARENT
REMARK Flexibility Score: inf
ROOT
ATOM      1  C   UNL     1      21.484  29.749  10.040  1.00  0.00     0.006 A 
ATOM      2  C   UNL     1      21.281  31.155  10.062  1.00  0.00     0.006 A 
ATOM      3  C   UNL     1      21.694  29.068  11.253  1.00  0.00     0.010 A 
ATOM      4  C   UNL     1      21.360  31.839  11.290  1.00  0.00     0.010 A 
ATOM      5  C   UNL     1      21.747  29.762  12.462  1.00  0.00     0.001 A 
ATOM      6  C   UNL     1      21.591  31.146  12.478  1.00  0.00     0.001 A 
ENDROOT
BRANCH   1   7
ATOM      7  C   UNL     1      21.558  28.972   8.781  1.00  0.00     0.072 C 
ATOM      8  O   UNL     1      22.653  28.856   8.170  1.00  0.00    -0.545 OA
ATOM      9  O   UNL     1      20.412  28.417   8.222  1.00  0.00    -0.545 OA
ENDBRANCH   1   7
BRANCH   2  10
ATOM     10  C   UNL     1      20.915  31.929   8.853  1.00  0.00     0.072 C 
ATOM     11  O   UNL     1      19.713  32.001   8.486  1.00  0.00    -0.545 OA
ATOM     12  O   UNL     1      21.896  32.529   8.072  1.00  0.00    -0.545 OA
ENDBRANCH   2  10
TORSDOF 2
ENDMDL
MODEL 7
REMARK VINA RESULT:    -4.930      2.205      4.433
REMARK INTER + INTRA:          -5.270
REMARK INTER:                  -5.393
REMARK INTRA:                   0.123
REMARK UNBOUND:                 0.236
REMARK SMILES O=C([O-])c1ccccc1C(=O)[O-]
REMARK SMILES IDX 4 1 9 2 5 3 8 4 6 5 7 6 2 7 1 8 3 9 10 10 11 11 12 12
REMARK H PARENT
REMARK Flexibility Score: inf
ROOT
ATOM      1  C   UNL     1      16.078  33.982  26.604  1.00  0.00     0.006 A 
ATOM      2  C   UNL     1      16.366  34.517  25.319  1.00  0.00     0.006 A 
ATOM      3  C   UNL     1      14.749  33.988  27.066  1.00  0.00     0.010 A 
ATOM      4  C   UNL     1      15.325  35.095  24.569  1.00  0.00     0.010 A 
ATOM      5  C   UNL     1      13.728  34.548  26.297  1.00  0.00     0.001 A 
ATOM      6  C   UNL     1      14.018  35.111  25.056  1.00  0.00     0.001 A 
ENDROOT
BRANCH   1   7
ATOM      7  C   UNL     1      17.133  33.483  27.516  1.00  0.00     0.072 C 
ATOM      8  O   UNL     1      17.882  34.293  28.124  1.00  0.00    -0.545 OA
ATOM      9  O   UNL     1      17.354  32.118  27.663  1.00  0.00    -0.545 OA
ENDBRANCH   1   7
BRANCH   2  10
ATOM     10  C   UNL     1      17.708  34.425  24.698  1.00  0.00     0.072 C 
ATOM     11  O   UNL     1      18.151  35.376  24.002  1.00  0.00    -0.545 OA
ATOM     12  O   UNL     1      18.466  33.266  24.818  1.00  0.00    -0.545 OA
ENDBRANCH   2  10
TORSDOF 2
ENDMDL
MODEL 8
REMARK VINA RESULT:    -4.704     15.273     17.199
REMARK INTER + INTRA:          -5.018
REMARK INTER:                  -5.020
REMARK INTRA:                   0.003
REMARK UNBOUND:                 0.236
REMARK SMILES O=C([O-])c1ccccc1C(=O)[O-]
REMARK SMILES IDX 4 1 9 2 5 3 8 4 6 5 7 6 2 7 1 8 3 9 10 10 11 11 12 12
REMARK H PARENT
REMARK Flexibility Score: inf
ROOT
ATOM      1  C   UNL     1      18.336  34.750  10.525  1.00  0.00     0.006 A 
ATOM      2  C   UNL     1      18.450  34.861   9.113  1.00  0.00     0.006 A 
ATOM      3  C   UNL     1      19.349  34.091  11.245  1.00  0.00     0.010 A 
ATOM      4  C   UNL     1      19.542  34.253   8.465  1.00  0.00     0.010 A 
ATOM      5  C   UNL     1      20.434  33.514  10.585  1.00  0.00     0.001 A 
ATOM      6  C   UNL     1      20.524  33.585   9.197  1.00  0.00     0.001 A 
ENDROOT
BRANCH   1   7
ATOM      7  C   UNL     1      17.152  35.236  11.271  1.00  0.00     0.072 C 
ATOM      8  O   UNL     1      16.457  34.435  11.951  1.00  0.00    -0.545 OA
ATOM      9  O   UNL     1      16.752  36.565  11.178  1.00  0.00    -0.545 OA
ENDBRANCH   1   7
BRANCH   2  10
ATOM     10  C   UNL     1      17.505  35.655   8.294  1.00  0.00     0.072 C 
ATOM     11  O   UNL     1      16.437  35.136   7.875  1.00  0.00    -0.545 OA
ATOM     12  O   UNL     1      17.813  36.959   7.922  1.00  0.00    -0.545 OA
ENDBRANCH   2  10
TORSDOF 2
ENDMDL
