MODEL 1
REMARK VINA RESULT:    -2.820      0.000      0.000
REMARK INTER + INTRA:          -3.195
REMARK INTER:                  -3.150
REMARK INTRA:                  -0.045
REMARK UNBOUND:                -0.045
REMARK SMILES CCCC(=O)[O-]
REMARK SMILES IDX 3 1 4 2 5 3 6 4 2 5 1 6
REMARK H PARENT
REMARK Flexibility Score: inf
ROOT
ATOM      1  C   UNL     1      19.874   8.255  29.746  1.00  0.00     0.052 C 
ENDROOT
BRANCH   1   2
ATOM      2  C   UNL     1      19.240   7.836  28.458  1.00  0.00     0.041 C 
ATOM      3  O   UNL     1      19.623   6.788  27.875  1.00  0.00    -0.550 OA
ATOM      4  O   UNL     1      18.259   8.629  27.876  1.00  0.00    -0.550 OA
ENDBRANCH   1   2
BRANCH   1   5
ATOM      5  C   UNL     1      20.145   9.763  29.744  1.00  0.00     0.003 C 
ATOM      6  C   UNL     1      21.245  10.123  28.751  1.00  0.00     0.004 C 
ENDBRANCH   1   5
TORSDOF 2
ENDMDL
MODEL 2
REMARK VINA RESULT:    -2.478      2.160      3.321
REMARK INTER + INTRA:          -2.814
REMARK INTER:                  -2.803
REMARK INTRA:                  -0.010
REMARK UNBOUND:                -0.045
REMARK SMILES CCCC(=O)[O-]
REMARK SMILES IDX 3 1 4 2 5 3 6 4 2 5 1 6
REMARK H PARENT
REMARK Flexibility Score: inf
ROOT
ATOM      1  C   UNL     1      19.132   8.848  28.046  1.00  0.00     0.052 C 
ENDROOT
BRANCH   1   2
ATOM      2  C   UNL     1      20.081   9.593  28.931  1.00  0.00     0.041 C 
ATOM      3  O   UNL     1      19.801   9.781  30.144  1.00  0.00    -0.550 OA
ATOM      4  O   UNL     1      21.253  10.122  28.404  1.00  0.00    -0.550 OA
ENDBRANCH   1   2
BRANCH   1   5
ATOM      5  C   UNL     1      19.083   7.369  28.438  1.00  0.00     0.003 C 
ATOM      6  C   UNL     1      17.776   6.723  27.990  1.00  0.00     0.004 C 
ENDBRANCH   1   5
TORSDOF 2
ENDMDL
MODEL 3
REMARK VINA RESULT:    -2.341     22.857     23.480
REMARK INTER + INTRA:          -2.660
REMARK INTER:                  -2.647
REMARK INTRA:                  -0.013
REMARK UNBOUND:                -0.045
REMARK SMILES CCCC(=O)[O-]
REMARK SMILES IDX 3 1 4 2 5 3 6 4 2 5 1 6
REMARK H PARENT
REMARK Flexibility Score: inf
ROOT
ATOM      1  C   UNL     1      19.134  23.331  47.703  1.00  0.00     0.052 C 
ENDROOT
BRANCH   1   2
ATOM      2  C   UNL     1      20.251  22.460  47.223  1.00  0.00     0.041 C 
ATOM      3  O   UNL     1      20.833  21.679  48.021  1.00  0.00    -0.550 OA
ATOM      4  O   UNL     1      20.683  22.545  45.905  1.00  0.00    -0.550 OA
ENDBRANCH   1   2
BRANCH   1   5
ATOM      5  C   UNL     1      18.536  24.125  46.537  1.00  0.00     0.003 C 
ATOM      6  C   UNL     1      17.054  24.407  46.766  1.00  0.00     0.004 C 
ENDBRANCH   1   5
TORSDOF 2
ENDMDL
MODEL 4
REMARK VINA RESULT:    -2.230     22.935     23.772
REMARK INTER + INTRA:          -2.536
REMARK INTER:                  -2.535
REMARK INTRA:                  -0.001
REMARK UNBOUND:                -0.045
REMARK SMILES CCCC(=O)[O-]
REMARK SMILES IDX 3 1 4 2 5 3 6 4 2 5 1 6
REMARK H PARENT
REMARK Flexibility Score: inf
ROOT
ATOM      1  C   UNL     1      19.833  23.407  48.109  1.00  0.00     0.052 C 
ENDROOT
BRANCH   1   2
ATOM      2  C   UNL     1      18.618  23.894  47.384  1.00  0.00     0.041 C 
ATOM      3  O   UNL     1      17.529  24.039  47.998  1.00  0.00    -0.550 OA
ATOM      4  O   UNL     1      18.677  24.141  46.018  1.00  0.00    -0.550 OA
ENDBRANCH   1   2
BRANCH   1   5
ATOM      5  C   UNL     1      20.249  22.027  47.590  1.00  0.00     0.003 C 
ATOM      6  C   UNL     1      21.374  22.140  46.566  1.00  0.00     0.004 C 
ENDBRANCH   1   5
TORSDOF 2
ENDMDL
MODEL 5
REMARK VINA RESULT:    -1.965     19.507     20.353
REMARK INTER + INTRA:          -2.240
REMARK INTER:                  -2.229
REMARK INTRA:                  -0.011
REMARK UNBOUND:                -0.045
REMARK SMILES CCCC(=O)[O-]
REMARK SMILES IDX 3 1 4 2 5 3 6 4 2 5 1 6
REMARK H PARENT
REMARK Flexibility Score: inf
ROOT
ATOM      1  C   UNL     1      30.872  24.783  32.559  1.00  0.00     0.052 C 
ENDROOT
BRANCH   1   2
ATOM      2  C   UNL     1      31.203  24.576  31.115  1.00  0.00     0.041 C 
ATOM      3  O   UNL     1      32.287  25.010  30.645  1.00  0.00    -0.550 OA
ATOM      4  O   UNL     1      30.292  23.945  30.277  1.00  0.00    -0.550 OA
ENDBRANCH   1   2
BRANCH   1   5
ATOM      5  C   UNL     1      32.136  25.125  33.354  1.00  0.00     0.003 C 
ATOM      6  C   UNL     1      31.859  25.125  34.854  1.00  0.00     0.004 C 
ENDBRANCH   1   5
TORSDOF 2
ENDMDL
MODEL 6
REMARK VINA RESULT:    -1.919     22.681     23.240
REMARK INTER + INTRA:          -2.189
REMARK INTER:                  -2.162
REMARK INTRA:                  -0.027
REMARK UNBOUND:                -0.045
REMARK SMILES CCCC(=O)[O-]
REMARK SMILES IDX 3 1 4 2 5 3 6 4 2 5 1 6
REMARK H PARENT
REMARK Flexibility Score: inf
ROOT
ATOM      1  C   UNL     1      19.099  24.381  47.015  1.00  0.00     0.052 C 
ENDROOT
BRANCH   1   2
ATOM      2  C   UNL     1      18.768  24.510  45.561  1.00  0.00     0.041 C 
ATOM      3  O   UNL     1      19.582  25.057  44.773  1.00  0.00    -0.550 OA
ATOM      4  O   UNL     1      17.540  24.068  45.087  1.00  0.00    -0.550 OA
ENDBRANCH   1   2
BRANCH   1   5
ATOM      5  C   UNL     1      19.403  22.922  47.368  1.00  0.00     0.003 C 
ATOM      6  C   UNL     1      20.657  22.432  46.651  1.00  0.00     0.004 C 
ENDBRANCH   1   5
TORSDOF 2
ENDMDL
MODEL 7
REMARK VINA RESULT:    -1.837     18.556     19.024
REMARK INTER + INTRA:          -2.097
REMARK INTER:                  -2.091
REMARK INTRA:                  -0.007
REMARK UNBOUND:                -0.045
REMARK SMILES CCCC(=O)[O-]
REMARK SMILES IDX 3 1 4 2 5 3 6 4 2 5 1 6
REMARK H PARENT
REMARK Flexibility Score: inf
ROOT
ATOM      1  C   UNL     1      30.641  24.804  30.106  1.00  0.00     0.052 C 
ENDROOT
BRANCH   1   2
ATOM      2  C   UNL     1      30.706  23.746  29.050  1.00  0.00     0.041 C 
ATOM      3  O   UNL     1      29.743  23.585  28.255  1.00  0.00    -0.550 OA
ATOM      4  O   UNL     1      31.810  22.907  28.974  1.00  0.00    -0.550 OA
ENDBRANCH   1   2
BRANCH   1   5
ATOM      5  C   UNL     1      30.393  24.174  31.480  1.00  0.00     0.003 C 
ATOM      6  C   UNL     1      29.595  25.113  32.379  1.00  0.00     0.004 C 
ENDBRANCH   1   5
TORSDOF 2
ENDMDL
MODEL 8
REMARK VINA RESULT:    -1.821     20.251     21.165
REMARK INTER + INTRA:          -2.079
REMARK INTER:                  -2.070
REMARK INTRA:                  -0.009
REMARK UNBOUND:                -0.045
REMARK SMILES CCCC(=O)[O-]
REMARK SMILES IDX 3 1 4 2 5 3 6 4 2 5 1 6
REMARK H PARENT
REMARK Flexibility Score: inf
ROOT
ATOM      1  C   UNL     1      32.404  25.125  32.017  1.00  0.00     0.052 C 
ENDROOT
BRANCH   1   2
ATOM      2  C   UNL     1      33.092  25.013  33.341  1.00  0.00     0.041 C 
ATOM      3  O   UNL     1      34.335  24.818  33.394  1.00  0.00    -0.550 OA
ATOM      4  O   UNL     1      32.354  25.075  34.516  1.00  0.00    -0.550 OA
ENDBRANCH   1   2
BRANCH   1   5
ATOM      5  C   UNL     1      30.907  24.837  32.167  1.00  0.00     0.003 C 
ATOM      6  C   UNL     1      30.245  24.642  30.806  1.00  0.00     0.004 C 
ENDBRANCH   1   5
TORSDOF 2
ENDMDL
MODEL 9
REMARK VINA RESULT:    -1.688     19.035     19.877
REMARK INTER + INTRA:          -1.931
REMARK INTER:                  -1.912
REMARK INTRA:                  -0.020
REMARK UNBOUND:                -0.045
REMARK SMILES CCCC(=O)[O-]
REMARK SMILES IDX 3 1 4 2 5 3 6 4 2 5 1 6
REMARK H PARENT
REMARK Flexibility Score: inf
ROOT
ATOM      1  C   UNL     1      31.252  25.110  31.025  1.00  0.00     0.052 C 
ENDROOT
BRANCH   1   2
ATOM      2  C   UNL     1      30.635  25.021  32.385  1.00  0.00     0.041 C 
ATOM      3  O   UNL     1      29.388  24.905  32.508  1.00  0.00    -0.550 OA
ATOM      4  O   UNL     1      31.434  25.113  33.518  1.00  0.00    -0.550 OA
ENDBRANCH   1   2
BRANCH   1   5
ATOM      5  C   UNL     1      30.373  24.402  29.991  1.00  0.00     0.003 C 
ATOM      6  C   UNL     1      31.165  23.347  29.225  1.00  0.00     0.004 C 
ENDBRANCH   1   5
TORSDOF 2
ENDMDL
