MODEL 1
REMARK VINA RESULT:    -2.587      0.000      0.000
REMARK INTER + INTRA:          -9.771
REMARK INTER:                  -6.518
REMARK INTRA:                  -3.252
REMARK UNBOUND:                -3.252
REMARK SMILES CCCCCCCCCCCCCCCCCCCCCCCCCCCC(=O)[O-]
REMARK SMILES IDX 15 1 16 2 17 3 18 4 19 5 20 6 21 7 22 8 23 9 24 10 25 11
REMARK SMILES IDX 26 12 27 13 28 14 29 15 30 16 14 17 13 18 12 19 11 20 10 21
REMARK SMILES IDX 9 22 8 23 7 24 6 25 5 26 4 27 3 28 2 29 1 30
REMARK H PARENT
REMARK Flexibility Score: inf
ROOT
ATOM      1  C   UNL     1      41.245  10.310  11.216  1.00  0.00     0.000 C 
ENDROOT
BRANCH   1   2
ATOM      2  C   UNL     1      40.113   9.276  11.309  1.00  0.00     0.000 C 
BRANCH   2   3
ATOM      3  C   UNL     1      38.742   9.967  11.355  1.00  0.00     0.000 C 
BRANCH   3   4
ATOM      4  C   UNL     1      38.033   9.800  12.712  1.00  0.00     0.000 C 
BRANCH   4   5
ATOM      5  C   UNL     1      38.490   8.583  13.541  1.00  0.00     0.000 C 
BRANCH   5   6
ATOM      6  C   UNL     1      38.223   8.687  15.055  1.00  0.00     0.000 C 
BRANCH   6   7
ATOM      7  C   UNL     1      38.320  10.113  15.634  1.00  0.00     0.000 C 
BRANCH   7   8
ATOM      8  C   UNL     1      38.092  10.216  17.156  1.00  0.00     0.000 C 
BRANCH   8   9
ATOM      9  C   UNL     1      38.386   8.930  17.947  1.00  0.00     0.000 C 
BRANCH   9  10
ATOM     10  C   UNL     1      39.835   8.856  18.453  1.00  0.00     0.000 C 
BRANCH  10  11
ATOM     11  C   UNL     1      40.411  10.259  18.674  1.00  0.00     0.000 C 
BRANCH  11  12
ATOM     12  C   UNL     1      41.691  10.464  17.849  1.00  0.00     0.006 C 
BRANCH  12  13
ATOM     13  C   UNL     1      41.789  11.882  17.272  1.00  0.00     0.053 C 
BRANCH  13  14
ATOM     14  C   UNL     1      42.221  12.874  18.308  1.00  0.00     0.041 C 
ATOM     15  O   UNL     1      41.523  13.897  18.536  1.00  0.00    -0.550 OA
ATOM     16  O   UNL     1      43.377  12.652  19.043  1.00  0.00    -0.550 OA
ENDBRANCH  13  14
ENDBRANCH  12  13
ENDBRANCH  11  12
ENDBRANCH  10  11
ENDBRANCH   9  10
ENDBRANCH   8   9
ENDBRANCH   7   8
ENDBRANCH   6   7
ENDBRANCH   5   6
ENDBRANCH   4   5
ENDBRANCH   3   4
ENDBRANCH   2   3
ENDBRANCH   1   2
BRANCH   1  17
ATOM     17  C   UNL     1      42.120  10.349  12.479  1.00  0.00     0.000 C 
BRANCH  17  18
ATOM     18  C   UNL     1      42.089  11.720  13.179  1.00  0.00     0.000 C 
BRANCH  18  19
ATOM     19  C   UNL     1      40.797  12.501  12.890  1.00  0.00     0.000 C 
BRANCH  19  20
ATOM     20  C   UNL     1      39.753  12.354  14.012  1.00  0.00     0.000 C 
BRANCH  20  21
ATOM     21  C   UNL     1      38.501  13.213  13.769  1.00  0.00     0.000 C 
BRANCH  21  22
ATOM     22  C   UNL     1      37.875  13.729  15.077  1.00  0.00    -0.000 C 
BRANCH  22  23
ATOM     23  C   UNL     1      38.900  13.840  16.216  1.00  0.00    -0.000 C 
BRANCH  23  24
ATOM     24  C   UNL     1      38.241  14.076  17.588  1.00  0.00    -0.000 C 
BRANCH  24  25
ATOM     25  C   UNL     1      38.334  15.540  18.047  1.00  0.00    -0.000 C 
BRANCH  25  26
ATOM     26  C   UNL     1      38.404  16.525  16.866  1.00  0.00    -0.000 C 
BRANCH  26  27
ATOM     27  C   UNL     1      38.272  17.991  17.312  1.00  0.00    -0.000 C 
BRANCH  27  28
ATOM     28  C   UNL     1      38.926  18.252  18.679  1.00  0.00    -0.000 C 
BRANCH  28  29
ATOM     29  C   UNL     1      40.419  18.593  18.562  1.00  0.00    -0.003 C 
ATOM     30  C   UNL     1      41.198  17.572  17.732  1.00  0.00     0.004 C 
ENDBRANCH  28  29
ENDBRANCH  27  28
ENDBRANCH  26  27
ENDBRANCH  25  26
ENDBRANCH  24  25
ENDBRANCH  23  24
ENDBRANCH  22  23
ENDBRANCH  21  22
ENDBRANCH  20  21
ENDBRANCH  19  20
ENDBRANCH  18  19
ENDBRANCH  17  18
ENDBRANCH   1  17
TORSDOF 26
ENDMDL
MODEL 2
REMARK VINA RESULT:    -2.489      1.175      6.166
REMARK INTER + INTRA:          -9.524
REMARK INTER:                  -6.078
REMARK INTRA:                  -3.446
REMARK UNBOUND:                -3.252
REMARK SMILES CCCCCCCCCCCCCCCCCCCCCCCCCCCC(=O)[O-]
REMARK SMILES IDX 15 1 16 2 17 3 18 4 19 5 20 6 21 7 22 8 23 9 24 10 25 11
REMARK SMILES IDX 26 12 27 13 28 14 29 15 30 16 14 17 13 18 12 19 11 20 10 21
REMARK SMILES IDX 9 22 8 23 7 24 6 25 5 26 4 27 3 28 2 29 1 30
REMARK H PARENT
REMARK Flexibility Score: inf
ROOT
ATOM      1  C   UNL     1      40.823  12.819  14.301  1.00  0.00     0.000 C 
ENDROOT
BRANCH   1   2
ATOM      2  C   UNL     1      39.410  13.157  13.800  1.00  0.00     0.000 C 
BRANCH   2   3
ATOM      3  C   UNL     1      38.432  13.294  14.976  1.00  0.00     0.000 C 
BRANCH   3   4
ATOM      4  C   UNL     1      38.842  12.452  16.198  1.00  0.00     0.000 C 
BRANCH   4   5
ATOM      5  C   UNL     1      38.878  13.218  17.536  1.00  0.00     0.000 C 
BRANCH   5   6
ATOM      6  C   UNL     1      38.095  14.545  17.548  1.00  0.00     0.000 C 
BRANCH   6   7
ATOM      7  C   UNL     1      37.875  15.155  18.946  1.00  0.00     0.000 C 
BRANCH   7   8
ATOM      8  C   UNL     1      38.029  16.688  19.021  1.00  0.00     0.000 C 
BRANCH   8   9
ATOM      9  C   UNL     1      37.884  17.424  17.678  1.00  0.00     0.000 C 
BRANCH   9  10
ATOM     10  C   UNL     1      38.547  18.810  17.680  1.00  0.00     0.000 C 
BRANCH  10  11
ATOM     11  C   UNL     1      39.583  18.921  18.805  1.00  0.00     0.000 C 
BRANCH  11  12
ATOM     12  C   UNL     1      40.978  18.511  18.309  1.00  0.00     0.006 C 
BRANCH  12  13
ATOM     13  C   UNL     1      41.531  17.299  19.070  1.00  0.00     0.053 C 
BRANCH  13  14
ATOM     14  C   UNL     1      41.375  16.033  18.287  1.00  0.00     0.041 C 
ATOM     15  O   UNL     1      41.386  14.918  18.873  1.00  0.00    -0.550 OA
ATOM     16  O   UNL     1      41.184  16.084  16.912  1.00  0.00    -0.550 OA
ENDBRANCH  13  14
ENDBRANCH  12  13
ENDBRANCH  11  12
ENDBRANCH  10  11
ENDBRANCH   9  10
ENDBRANCH   8   9
ENDBRANCH   7   8
ENDBRANCH   6   7
ENDBRANCH   5   6
ENDBRANCH   4   5
ENDBRANCH   3   4
ENDBRANCH   2   3
ENDBRANCH   1   2
BRANCH   1  17
ATOM     17  C   UNL     1      41.554  11.821  13.389  1.00  0.00     0.000 C 
BRANCH  17  18
ATOM     18  C   UNL     1      40.839  11.616  12.041  1.00  0.00     0.000 C 
BRANCH  18  19
ATOM     19  C   UNL     1      40.424  10.154  11.809  1.00  0.00     0.000 C 
BRANCH  19  20
ATOM     20  C   UNL     1      39.038  10.030  11.151  1.00  0.00     0.000 C 
BRANCH  20  21
ATOM     21  C   UNL     1      37.921   9.768  12.176  1.00  0.00     0.000 C 
BRANCH  21  22
ATOM     22  C   UNL     1      38.402   8.929  13.373  1.00  0.00    -0.000 C 
BRANCH  22  23
ATOM     23  C   UNL     1      37.876   9.462  14.715  1.00  0.00    -0.000 C 
BRANCH  23  24
ATOM     24  C   UNL     1      38.865   9.240  15.873  1.00  0.00    -0.000 C 
BRANCH  24  25
ATOM     25  C   UNL     1      38.173   8.771  17.163  1.00  0.00    -0.000 C 
BRANCH  25  26
ATOM     26  C   UNL     1      38.925   9.214  18.431  1.00  0.00    -0.000 C 
BRANCH  26  27
ATOM     27  C   UNL     1      40.221   8.418  18.656  1.00  0.00    -0.000 C 
BRANCH  27  28
ATOM     28  C   UNL     1      41.461   9.142  18.107  1.00  0.00    -0.000 C 
BRANCH  28  29
ATOM     29  C   UNL     1      42.030  10.168  19.099  1.00  0.00    -0.003 C 
ATOM     30  C   UNL     1      41.946  11.604  18.583  1.00  0.00     0.004 C 
ENDBRANCH  28  29
ENDBRANCH  27  28
ENDBRANCH  26  27
ENDBRANCH  25  26
ENDBRANCH  24  25
ENDBRANCH  23  24
ENDBRANCH  22  23
ENDBRANCH  21  22
ENDBRANCH  20  21
ENDBRANCH  19  20
ENDBRANCH  18  19
ENDBRANCH  17  18
ENDBRANCH   1  17
TORSDOF 26
ENDMDL
MODEL 3
REMARK VINA RESULT:    -2.140      1.458      6.482
REMARK INTER + INTRA:          -8.645
REMARK INTER:                  -6.065
REMARK INTRA:                  -2.580
REMARK UNBOUND:                -3.252
REMARK SMILES CCCCCCCCCCCCCCCCCCCCCCCCCCCC(=O)[O-]
REMARK SMILES IDX 15 1 16 2 17 3 18 4 19 5 20 6 21 7 22 8 23 9 24 10 25 11
REMARK SMILES IDX 26 12 27 13 28 14 29 15 30 16 14 17 13 18 12 19 11 20 10 21
REMARK SMILES IDX 9 22 8 23 7 24 6 25 5 26 4 27 3 28 2 29 1 30
REMARK H PARENT
REMARK Flexibility Score: inf
ROOT
ATOM      1  C   UNL     1      40.751  14.877  15.520  1.00  0.00     0.000 C 
ENDROOT
BRANCH   1   2
ATOM      2  C   UNL     1      40.342  16.332  15.797  1.00  0.00     0.000 C 
BRANCH   2   3
ATOM      3  C   UNL     1      39.153  16.744  14.917  1.00  0.00     0.000 C 
BRANCH   3   4
ATOM      4  C   UNL     1      37.897  17.099  15.735  1.00  0.00     0.000 C 
BRANCH   4   5
ATOM      5  C   UNL     1      38.040  18.335  16.646  1.00  0.00     0.000 C 
BRANCH   5   6
ATOM      6  C   UNL     1      38.698  18.066  18.013  1.00  0.00     0.000 C 
BRANCH   6   7
ATOM      7  C   UNL     1      37.880  17.166  18.960  1.00  0.00     0.000 C 
BRANCH   7   8
ATOM      8  C   UNL     1      38.419  15.731  19.124  1.00  0.00     0.000 C 
BRANCH   8   9
ATOM      9  C   UNL     1      38.283  14.837  17.879  1.00  0.00     0.000 C 
BRANCH   9  10
ATOM     10  C   UNL     1      38.217  13.341  18.221  1.00  0.00     0.000 C 
BRANCH  10  11
ATOM     11  C   UNL     1      39.488  12.887  18.949  1.00  0.00     0.000 C 
BRANCH  11  12
ATOM     12  C   UNL     1      40.725  13.610  18.396  1.00  0.00     0.006 C 
BRANCH  12  13
ATOM     13  C   UNL     1      42.006  12.784  18.569  1.00  0.00     0.053 C 
BRANCH  13  14
ATOM     14  C   UNL     1      41.871  11.417  17.973  1.00  0.00     0.041 C 
ATOM     15  O   UNL     1      42.135  11.226  16.756  1.00  0.00    -0.550 OA
ATOM     16  O   UNL     1      41.483  10.347  18.768  1.00  0.00    -0.550 OA
ENDBRANCH  13  14
ENDBRANCH  12  13
ENDBRANCH  11  12
ENDBRANCH  10  11
ENDBRANCH   9  10
ENDBRANCH   8   9
ENDBRANCH   7   8
ENDBRANCH   6   7
ENDBRANCH   5   6
ENDBRANCH   4   5
ENDBRANCH   3   4
ENDBRANCH   2   3
ENDBRANCH   1   2
BRANCH   1  17
ATOM     17  C   UNL     1      39.876  14.208  14.448  1.00  0.00     0.000 C 
BRANCH  17  18
ATOM     18  C   UNL     1      40.110  12.689  14.356  1.00  0.00     0.000 C 
BRANCH  18  19
ATOM     19  C   UNL     1      40.644  12.256  12.980  1.00  0.00     0.000 C 
BRANCH  19  20
ATOM     20  C   UNL     1      41.401  10.917  13.034  1.00  0.00     0.000 C 
BRANCH  20  21
ATOM     21  C   UNL     1      41.375  10.171  11.689  1.00  0.00     0.000 C 
BRANCH  21  22
ATOM     22  C   UNL     1      40.352   9.021  11.670  1.00  0.00    -0.000 C 
BRANCH  22  23
ATOM     23  C   UNL     1      38.959   9.480  11.215  1.00  0.00    -0.000 C 
BRANCH  23  24
ATOM     24  C   UNL     1      37.876   9.243  12.283  1.00  0.00    -0.000 C 
BRANCH  24  25
ATOM     25  C   UNL     1      38.456   9.139  13.703  1.00  0.00    -0.000 C 
BRANCH  25  26
ATOM     26  C   UNL     1      37.957  10.263  14.628  1.00  0.00    -0.000 C 
BRANCH  26  27
ATOM     27  C   UNL     1      38.782  10.373  15.921  1.00  0.00    -0.000 C 
BRANCH  27  28
ATOM     28  C   UNL     1      39.163   8.999  16.496  1.00  0.00    -0.000 C 
BRANCH  28  29
ATOM     29  C   UNL     1      38.188   8.525  17.584  1.00  0.00    -0.003 C 
ATOM     30  C   UNL     1      38.011   9.543  18.710  1.00  0.00     0.004 C 
ENDBRANCH  28  29
ENDBRANCH  27  28
ENDBRANCH  26  27
ENDBRANCH  25  26
ENDBRANCH  24  25
ENDBRANCH  23  24
ENDBRANCH  22  23
ENDBRANCH  21  22
ENDBRANCH  20  21
ENDBRANCH  19  20
ENDBRANCH  18  19
ENDBRANCH  17  18
ENDBRANCH   1  17
TORSDOF 26
ENDMDL
MODEL 4
REMARK VINA RESULT:    -2.027      1.508      6.585
REMARK INTER + INTRA:          -8.360
REMARK INTER:                  -5.439
REMARK INTRA:                  -2.921
REMARK UNBOUND:                -3.252
REMARK SMILES CCCCCCCCCCCCCCCCCCCCCCCCCCCC(=O)[O-]
REMARK SMILES IDX 15 1 16 2 17 3 18 4 19 5 20 6 21 7 22 8 23 9 24 10 25 11
REMARK SMILES IDX 26 12 27 13 28 14 29 15 30 16 14 17 13 18 12 19 11 20 10 21
REMARK SMILES IDX 9 22 8 23 7 24 6 25 5 26 4 27 3 28 2 29 1 30
REMARK H PARENT
REMARK Flexibility Score: inf
ROOT
ATOM      1  C   UNL     1      40.301  12.140  12.624  1.00  0.00     0.000 C 
ENDROOT
BRANCH   1   2
ATOM      2  C   UNL     1      40.203  13.655  12.386  1.00  0.00     0.000 C 
BRANCH   2   3
ATOM      3  C   UNL     1      40.713  14.435  13.606  1.00  0.00     0.000 C 
BRANCH   3   4
ATOM      4  C   UNL     1      39.713  14.436  14.778  1.00  0.00     0.000 C 
BRANCH   4   5
ATOM      5  C   UNL     1      40.350  14.533  16.178  1.00  0.00     0.000 C 
BRANCH   5   6
ATOM      6  C   UNL     1      39.543  13.868  17.310  1.00  0.00     0.000 C 
BRANCH   6   7
ATOM      7  C   UNL     1      38.126  14.439  17.518  1.00  0.00     0.000 C 
BRANCH   7   8
ATOM      8  C   UNL     1      37.879  15.085  18.896  1.00  0.00     0.000 C 
BRANCH   8   9
ATOM      9  C   UNL     1      38.234  16.579  18.989  1.00  0.00     0.000 C 
BRANCH   9  10
ATOM     10  C   UNL     1      37.875  17.360  17.716  1.00  0.00     0.000 C 
BRANCH  10  11
ATOM     11  C   UNL     1      38.965  18.382  17.373  1.00  0.00     0.000 C 
BRANCH  11  12
ATOM     12  C   UNL     1      39.330  19.228  18.601  1.00  0.00     0.006 C 
BRANCH  12  13
ATOM     13  C   UNL     1      40.738  18.914  19.125  1.00  0.00     0.053 C 
BRANCH  13  14
ATOM     14  C   UNL     1      41.447  17.925  18.252  1.00  0.00     0.041 C 
ATOM     15  O   UNL     1      41.392  16.694  18.512  1.00  0.00    -0.550 OA
ATOM     16  O   UNL     1      42.143  18.360  17.132  1.00  0.00    -0.550 OA
ENDBRANCH  13  14
ENDBRANCH  12  13
ENDBRANCH  11  12
ENDBRANCH  10  11
ENDBRANCH   9  10
ENDBRANCH   8   9
ENDBRANCH   7   8
ENDBRANCH   6   7
ENDBRANCH   5   6
ENDBRANCH   4   5
ENDBRANCH   3   4
ENDBRANCH   2   3
ENDBRANCH   1   2
BRANCH   1  17
ATOM     17  C   UNL     1      41.548  11.744  13.432  1.00  0.00     0.000 C 
BRANCH  17  18
ATOM     18  C   UNL     1      41.212  11.348  14.881  1.00  0.00     0.000 C 
BRANCH  18  19
ATOM     19  C   UNL     1      42.350  11.678  15.862  1.00  0.00     0.000 C 
BRANCH  19  20
ATOM     20  C   UNL     1      41.932  11.504  17.333  1.00  0.00     0.000 C 
BRANCH  20  21
ATOM     21  C   UNL     1      41.947  10.033  17.780  1.00  0.00     0.000 C 
BRANCH  21  22
ATOM     22  C   UNL     1      40.600   9.579  18.370  1.00  0.00    -0.000 C 
BRANCH  22  23
ATOM     23  C   UNL     1      39.809  10.741  18.991  1.00  0.00    -0.000 C 
BRANCH  23  24
ATOM     24  C   UNL     1      38.436  10.949  18.324  1.00  0.00    -0.000 C 
BRANCH  24  25
ATOM     25  C   UNL     1      37.961   9.711  17.547  1.00  0.00    -0.000 C 
BRANCH  25  26
ATOM     26  C   UNL     1      37.884   9.960  16.030  1.00  0.00    -0.000 C 
BRANCH  26  27
ATOM     27  C   UNL     1      38.542   8.836  15.213  1.00  0.00    -0.000 C 
BRANCH  27  28
ATOM     28  C   UNL     1      38.775   9.231  13.746  1.00  0.00    -0.000 C 
BRANCH  28  29
ATOM     29  C   UNL     1      39.416   8.101  12.927  1.00  0.00    -0.003 C 
ATOM     30  C   UNL     1      39.923   8.569  11.562  1.00  0.00     0.004 C 
ENDBRANCH  28  29
ENDBRANCH  27  28
ENDBRANCH  26  27
ENDBRANCH  25  26
ENDBRANCH  24  25
ENDBRANCH  23  24
ENDBRANCH  22  23
ENDBRANCH  21  22
ENDBRANCH  20  21
ENDBRANCH  19  20
ENDBRANCH  18  19
ENDBRANCH  17  18
ENDBRANCH   1  17
TORSDOF 26
ENDMDL
MODEL 5
REMARK VINA RESULT:    -1.991      1.912      4.780
REMARK INTER + INTRA:          -8.270
REMARK INTER:                  -5.433
REMARK INTRA:                  -2.837
REMARK UNBOUND:                -3.252
REMARK SMILES CCCCCCCCCCCCCCCCCCCCCCCCCCCC(=O)[O-]
REMARK SMILES IDX 15 1 16 2 17 3 18 4 19 5 20 6 21 7 22 8 23 9 24 10 25 11
REMARK SMILES IDX 26 12 27 13 28 14 29 15 30 16 14 17 13 18 12 19 11 20 10 21
REMARK SMILES IDX 9 22 8 23 7 24 6 25 5 26 4 27 3 28 2 29 1 30
REMARK H PARENT
REMARK Flexibility Score: inf
ROOT
ATOM      1  C   UNL     1      42.385  11.661  13.056  1.00  0.00     0.000 C 
ENDROOT
BRANCH   1   2
ATOM      2  C   UNL     1      41.358  11.777  14.193  1.00  0.00     0.000 C 
BRANCH   2   3
ATOM      3  C   UNL     1      42.038  11.627  15.562  1.00  0.00     0.000 C 
BRANCH   3   4
ATOM      4  C   UNL     1      41.148  10.916  16.598  1.00  0.00     0.000 C 
BRANCH   4   5
ATOM      5  C   UNL     1      41.753  10.808  18.012  1.00  0.00     0.000 C 
BRANCH   5   6
ATOM      6  C   UNL     1      40.751  10.441  19.124  1.00  0.00     0.000 C 
BRANCH   6   7
ATOM      7  C   UNL     1      39.356  10.015  18.625  1.00  0.00     0.000 C 
BRANCH   7   8
ATOM      8  C   UNL     1      38.465  11.166  18.117  1.00  0.00     0.000 C 
BRANCH   8   9
ATOM      9  C   UNL     1      38.234  12.306  19.125  1.00  0.00     0.000 C 
BRANCH   9  10
ATOM     10  C   UNL     1      38.450  13.698  18.514  1.00  0.00     0.000 C 
BRANCH  10  11
ATOM     11  C   UNL     1      39.688  14.375  19.113  1.00  0.00     0.000 C 
BRANCH  11  12
ATOM     12  C   UNL     1      39.695  15.879  18.806  1.00  0.00     0.006 C 
BRANCH  12  13
ATOM     13  C   UNL     1      40.993  16.326  18.120  1.00  0.00     0.053 C 
BRANCH  13  14
ATOM     14  C   UNL     1      41.160  17.814  18.163  1.00  0.00     0.041 C 
ATOM     15  O   UNL     1      40.452  18.510  18.940  1.00  0.00    -0.550 OA
ATOM     16  O   UNL     1      42.119  18.429  17.370  1.00  0.00    -0.550 OA
ENDBRANCH  13  14
ENDBRANCH  12  13
ENDBRANCH  11  12
ENDBRANCH  10  11
ENDBRANCH   9  10
ENDBRANCH   8   9
ENDBRANCH   7   8
ENDBRANCH   6   7
ENDBRANCH   5   6
ENDBRANCH   4   5
ENDBRANCH   3   4
ENDBRANCH   2   3
ENDBRANCH   1   2
BRANCH   1  17
ATOM     17  C   UNL     1      42.134  10.446  12.149  1.00  0.00     0.000 C 
BRANCH  17  18
ATOM     18  C   UNL     1      40.911  10.632  11.234  1.00  0.00     0.000 C 
BRANCH  18  19
ATOM     19  C   UNL     1      40.104   9.336  11.055  1.00  0.00     0.000 C 
BRANCH  19  20
ATOM     20  C   UNL     1      38.590   9.550  11.235  1.00  0.00     0.000 C 
BRANCH  20  21
ATOM     21  C   UNL     1      37.932   8.437  12.067  1.00  0.00     0.000 C 
BRANCH  21  22
ATOM     22  C   UNL     1      38.829   7.950  13.219  1.00  0.00    -0.000 C 
BRANCH  22  23
ATOM     23  C   UNL     1      39.229   9.086  14.173  1.00  0.00    -0.000 C 
BRANCH  23  24
ATOM     24  C   UNL     1      38.047   9.601  15.014  1.00  0.00    -0.000 C 
BRANCH  24  25
ATOM     25  C   UNL     1      37.877  11.127  14.927  1.00  0.00    -0.000 C 
BRANCH  25  26
ATOM     26  C   UNL     1      38.201  11.678  13.526  1.00  0.00    -0.000 C 
BRANCH  26  27
ATOM     27  C   UNL     1      38.801  13.092  13.573  1.00  0.00    -0.000 C 
BRANCH  27  28
ATOM     28  C   UNL     1      38.329  13.893  14.798  1.00  0.00    -0.000 C 
BRANCH  28  29
ATOM     29  C   UNL     1      39.455  14.733  15.421  1.00  0.00    -0.003 C 
ATOM     30  C   UNL     1      40.604  15.000  14.450  1.00  0.00     0.004 C 
ENDBRANCH  28  29
ENDBRANCH  27  28
ENDBRANCH  26  27
ENDBRANCH  25  26
ENDBRANCH  24  25
ENDBRANCH  23  24
ENDBRANCH  22  23
ENDBRANCH  21  22
ENDBRANCH  20  21
ENDBRANCH  19  20
ENDBRANCH  18  19
ENDBRANCH  17  18
ENDBRANCH   1  17
TORSDOF 26
ENDMDL
MODEL 6
REMARK VINA RESULT:    -1.828      1.838      6.288
REMARK INTER + INTRA:          -7.859
REMARK INTER:                  -5.417
REMARK INTRA:                  -2.442
REMARK UNBOUND:                -3.252
REMARK SMILES CCCCCCCCCCCCCCCCCCCCCCCCCCCC(=O)[O-]
REMARK SMILES IDX 15 1 16 2 17 3 18 4 19 5 20 6 21 7 22 8 23 9 24 10 25 11
REMARK SMILES IDX 26 12 27 13 28 14 29 15 30 16 14 17 13 18 12 19 11 20 10 21
REMARK SMILES IDX 9 22 8 23 7 24 6 25 5 26 4 27 3 28 2 29 1 30
REMARK H PARENT
REMARK Flexibility Score: inf
ROOT
ATOM      1  C   UNL     1      41.065  14.935  14.205  1.00  0.00     0.000 C 
ENDROOT
BRANCH   1   2
ATOM      2  C   UNL     1      40.432  16.141  14.915  1.00  0.00     0.000 C 
BRANCH   2   3
ATOM      3  C   UNL     1      38.900  16.084  14.830  1.00  0.00     0.000 C 
BRANCH   3   4
ATOM      4  C   UNL     1      38.208  16.647  16.085  1.00  0.00     0.000 C 
BRANCH   4   5
ATOM      5  C   UNL     1      37.977  15.624  17.216  1.00  0.00     0.000 C 
BRANCH   5   6
ATOM      6  C   UNL     1      37.876  14.157  16.757  1.00  0.00     0.000 C 
BRANCH   6   7
ATOM      7  C   UNL     1      38.240  13.115  17.833  1.00  0.00     0.000 C 
BRANCH   7   8
ATOM      8  C   UNL     1      39.444  13.487  18.722  1.00  0.00     0.000 C 
BRANCH   8   9
ATOM      9  C   UNL     1      40.687  12.598  18.542  1.00  0.00     0.000 C 
BRANCH   9  10
ATOM     10  C   UNL     1      41.906  13.373  18.020  1.00  0.00     0.000 C 
BRANCH  10  11
ATOM     11  C   UNL     1      42.391  14.395  19.055  1.00  0.00     0.000 C 
BRANCH  11  12
ATOM     12  C   UNL     1      41.440  15.599  19.125  1.00  0.00     0.006 C 
BRANCH  12  13
ATOM     13  C   UNL     1      42.192  16.936  19.086  1.00  0.00     0.053 C 
BRANCH  13  14
ATOM     14  C   UNL     1      41.417  17.988  18.355  1.00  0.00     0.041 C 
ATOM     15  O   UNL     1      41.550  18.123  17.109  1.00  0.00    -0.550 OA
ATOM     16  O   UNL     1      40.524  18.798  19.043  1.00  0.00    -0.550 OA
ENDBRANCH  13  14
ENDBRANCH  12  13
ENDBRANCH  11  12
ENDBRANCH  10  11
ENDBRANCH   9  10
ENDBRANCH   8   9
ENDBRANCH   7   8
ENDBRANCH   6   7
ENDBRANCH   5   6
ENDBRANCH   4   5
ENDBRANCH   3   4
ENDBRANCH   2   3
ENDBRANCH   1   2
BRANCH   1  17
ATOM     17  C   UNL     1      40.769  13.604  14.914  1.00  0.00     0.000 C 
BRANCH  17  18
ATOM     18  C   UNL     1      40.009  12.611  14.016  1.00  0.00     0.000 C 
BRANCH  18  19
ATOM     19  C   UNL     1      40.482  12.657  12.554  1.00  0.00     0.000 C 
BRANCH  19  20
ATOM     20  C   UNL     1      39.814  11.578  11.682  1.00  0.00     0.000 C 
BRANCH  20  21
ATOM     21  C   UNL     1      40.457  10.193  11.863  1.00  0.00     0.000 C 
BRANCH  21  22
ATOM     22  C   UNL     1      39.735   9.096  11.059  1.00  0.00    -0.000 C 
BRANCH  22  23
ATOM     23  C   UNL     1      38.225   9.058  11.340  1.00  0.00    -0.000 C 
BRANCH  23  24
ATOM     24  C   UNL     1      37.876   8.261  12.609  1.00  0.00    -0.000 C 
BRANCH  24  25
ATOM     25  C   UNL     1      38.980   8.330  13.676  1.00  0.00    -0.000 C 
BRANCH  25  26
ATOM     26  C   UNL     1      38.419   8.296  15.109  1.00  0.00    -0.000 C 
BRANCH  26  27
ATOM     27  C   UNL     1      38.572   9.644  15.834  1.00  0.00    -0.000 C 
BRANCH  27  28
ATOM     28  C   UNL     1      38.756   9.480  17.351  1.00  0.00    -0.000 C 
BRANCH  28  29
ATOM     29  C   UNL     1      40.162   8.984  17.723  1.00  0.00    -0.003 C 
ATOM     30  C   UNL     1      40.622   9.476  19.095  1.00  0.00     0.004 C 
ENDBRANCH  28  29
ENDBRANCH  27  28
ENDBRANCH  26  27
ENDBRANCH  25  26
ENDBRANCH  24  25
ENDBRANCH  23  24
ENDBRANCH  22  23
ENDBRANCH  21  22
ENDBRANCH  20  21
ENDBRANCH  19  20
ENDBRANCH  18  19
ENDBRANCH  17  18
ENDBRANCH   1  17
TORSDOF 26
ENDMDL
MODEL 7
REMARK VINA RESULT:    -1.662      1.913      5.615
REMARK INTER + INTRA:          -7.441
REMARK INTER:                  -4.403
REMARK INTRA:                  -3.038
REMARK UNBOUND:                -3.252
REMARK SMILES CCCCCCCCCCCCCCCCCCCCCCCCCCCC(=O)[O-]
REMARK SMILES IDX 15 1 16 2 17 3 18 4 19 5 20 6 21 7 22 8 23 9 24 10 25 11
REMARK SMILES IDX 26 12 27 13 28 14 29 15 30 16 14 17 13 18 12 19 11 20 10 21
REMARK SMILES IDX 9 22 8 23 7 24 6 25 5 26 4 27 3 28 2 29 1 30
REMARK H PARENT
REMARK Flexibility Score: inf
ROOT
ATOM      1  C   UNL     1      38.332  12.681  13.459  1.00  0.00     0.000 C 
ENDROOT
BRANCH   1   2
ATOM      2  C   UNL     1      38.953  13.750  14.371  1.00  0.00     0.000 C 
BRANCH   2   3
ATOM      3  C   UNL     1      37.970  14.906  14.608  1.00  0.00     0.000 C 
BRANCH   3   4
ATOM      4  C   UNL     1      38.676  16.252  14.853  1.00  0.00     0.000 C 
BRANCH   4   5
ATOM      5  C   UNL     1      40.117  16.144  15.391  1.00  0.00     0.000 C 
BRANCH   5   6
ATOM      6  C   UNL     1      40.283  16.483  16.885  1.00  0.00     0.000 C 
BRANCH   6   7
ATOM      7  C   UNL     1      38.964  16.717  17.647  1.00  0.00     0.000 C 
BRANCH   7   8
ATOM      8  C   UNL     1      38.116  15.452  17.889  1.00  0.00     0.000 C 
BRANCH   8   9
ATOM      9  C   UNL     1      38.517  14.626  19.125  1.00  0.00     0.000 C 
BRANCH   9  10
ATOM     10  C   UNL     1      38.133  13.144  19.003  1.00  0.00     0.000 C 
BRANCH  10  11
ATOM     11  C   UNL     1      37.907  12.753  17.538  1.00  0.00     0.000 C 
BRANCH  11  12
ATOM     12  C   UNL     1      38.211  11.265  17.312  1.00  0.00     0.006 C 
BRANCH  12  13
ATOM     13  C   UNL     1      38.966  10.641  18.493  1.00  0.00     0.053 C 
BRANCH  13  14
ATOM     14  C   UNL     1      39.449   9.259  18.175  1.00  0.00     0.041 C 
ATOM     15  O   UNL     1      40.563   9.089  17.613  1.00  0.00    -0.550 OA
ATOM     16  O   UNL     1      38.682   8.157  18.529  1.00  0.00    -0.550 OA
ENDBRANCH  13  14
ENDBRANCH  12  13
ENDBRANCH  11  12
ENDBRANCH  10  11
ENDBRANCH   9  10
ENDBRANCH   8   9
ENDBRANCH   7   8
ENDBRANCH   6   7
ENDBRANCH   5   6
ENDBRANCH   4   5
ENDBRANCH   3   4
ENDBRANCH   2   3
ENDBRANCH   1   2
BRANCH   1  17
ATOM     17  C   UNL     1      38.158  11.326  14.163  1.00  0.00     0.000 C 
BRANCH  17  18
ATOM     18  C   UNL     1      37.883  10.177  13.176  1.00  0.00     0.000 C 
BRANCH  18  19
ATOM     19  C   UNL     1      39.029   9.152  13.129  1.00  0.00     0.000 C 
BRANCH  19  20
ATOM     20  C   UNL     1      39.636   9.007  11.722  1.00  0.00     0.000 C 
BRANCH  20  21
ATOM     21  C   UNL     1      39.644  10.333  10.944  1.00  0.00     0.000 C 
BRANCH  21  22
ATOM     22  C   UNL     1      40.849  11.222  11.302  1.00  0.00    -0.000 C 
BRANCH  22  23
ATOM     23  C   UNL     1      41.974  10.436  11.993  1.00  0.00    -0.000 C 
BRANCH  23  24
ATOM     24  C   UNL     1      42.379  11.044  13.348  1.00  0.00    -0.000 C 
BRANCH  24  25
ATOM     25  C   UNL     1      41.313  11.998  13.912  1.00  0.00    -0.000 C 
BRANCH  25  26
ATOM     26  C   UNL     1      41.880  12.950  14.981  1.00  0.00    -0.000 C 
BRANCH  26  27
ATOM     27  C   UNL     1      41.941  12.303  16.374  1.00  0.00    -0.000 C 
BRANCH  27  28
ATOM     28  C   UNL     1      41.755  13.325  17.508  1.00  0.00    -0.000 C 
BRANCH  28  29
ATOM     29  C   UNL     1      41.741  12.667  18.896  1.00  0.00    -0.003 C 
ATOM     30  C   UNL     1      42.842  11.621  19.070  1.00  0.00     0.004 C 
ENDBRANCH  28  29
ENDBRANCH  27  28
ENDBRANCH  26  27
ENDBRANCH  25  26
ENDBRANCH  24  25
ENDBRANCH  23  24
ENDBRANCH  22  23
ENDBRANCH  21  22
ENDBRANCH  20  21
ENDBRANCH  19  20
ENDBRANCH  18  19
ENDBRANCH  17  18
ENDBRANCH   1  17
TORSDOF 26
ENDMDL
MODEL 8
REMARK VINA RESULT:    -1.032      2.369      6.080
REMARK INTER + INTRA:          -5.852
REMARK INTER:                  -2.825
REMARK INTRA:                  -3.027
REMARK UNBOUND:                -3.252
REMARK SMILES CCCCCCCCCCCCCCCCCCCCCCCCCCCC(=O)[O-]
REMARK SMILES IDX 15 1 16 2 17 3 18 4 19 5 20 6 21 7 22 8 23 9 24 10 25 11
REMARK SMILES IDX 26 12 27 13 28 14 29 15 30 16 14 17 13 18 12 19 11 20 10 21
REMARK SMILES IDX 9 22 8 23 7 24 6 25 5 26 4 27 3 28 2 29 1 30
REMARK H PARENT
REMARK Flexibility Score: inf
ROOT
ATOM      1  C   UNL     1      41.723  13.715  17.857  1.00  0.00     0.000 C 
ENDROOT
BRANCH   1   2
ATOM      2  C   UNL     1      42.738  12.639  18.274  1.00  0.00     0.000 C 
BRANCH   2   3
ATOM      3  C   UNL     1      42.214  11.234  17.944  1.00  0.00     0.000 C 
BRANCH   3   4
ATOM      4  C   UNL     1      40.677  11.174  17.857  1.00  0.00     0.000 C 
BRANCH   4   5
ATOM      5  C   UNL     1      39.993  10.356  18.971  1.00  0.00     0.000 C 
BRANCH   5   6
ATOM      6  C   UNL     1      40.227   8.835  18.901  1.00  0.00     0.000 C 
BRANCH   6   7
ATOM      7  C   UNL     1      39.269   8.074  17.964  1.00  0.00     0.000 C 
BRANCH   7   8
ATOM      8  C   UNL     1      38.280   8.961  17.181  1.00  0.00     0.000 C 
BRANCH   8   9
ATOM      9  C   UNL     1      37.876   8.423  15.798  1.00  0.00     0.000 C 
BRANCH   9  10
ATOM     10  C   UNL     1      38.702   9.031  14.654  1.00  0.00     0.000 C 
BRANCH  10  11
ATOM     11  C   UNL     1      37.886   9.090  13.358  1.00  0.00     0.000 C 
BRANCH  11  12
ATOM     12  C   UNL     1      38.120  10.417  12.621  1.00  0.00     0.006 C 
BRANCH  12  13
ATOM     13  C   UNL     1      38.820  10.216  11.271  1.00  0.00     0.053 C 
BRANCH  13  14
ATOM     14  C   UNL     1      40.302  10.068  11.430  1.00  0.00     0.041 C 
ATOM     15  O   UNL     1      40.819   8.924  11.527  1.00  0.00    -0.550 OA
ATOM     16  O   UNL     1      41.115  11.193  11.440  1.00  0.00    -0.550 OA
ENDBRANCH  13  14
ENDBRANCH  12  13
ENDBRANCH  11  12
ENDBRANCH  10  11
ENDBRANCH   9  10
ENDBRANCH   8   9
ENDBRANCH   7   8
ENDBRANCH   6   7
ENDBRANCH   5   6
ENDBRANCH   4   5
ENDBRANCH   3   4
ENDBRANCH   2   3
ENDBRANCH   1   2
BRANCH   1  17
ATOM     17  C   UNL     1      41.491  14.769  18.950  1.00  0.00     0.000 C 
BRANCH  17  18
ATOM     18  C   UNL     1      42.692  15.716  19.125  1.00  0.00     0.000 C 
BRANCH  18  19
ATOM     19  C   UNL     1      42.340  17.180  18.814  1.00  0.00     0.000 C 
BRANCH  19  20
ATOM     20  C   UNL     1      41.152  17.311  17.844  1.00  0.00     0.000 C 
BRANCH  20  21
ATOM     21  C   UNL     1      40.214  18.472  18.214  1.00  0.00     0.000 C 
BRANCH  21  22
ATOM     22  C   UNL     1      38.840  17.987  18.710  1.00  0.00    -0.000 C 
BRANCH  22  23
ATOM     23  C   UNL     1      38.414  16.661  18.061  1.00  0.00    -0.000 C 
BRANCH  23  24
ATOM     24  C   UNL     1      37.875  16.846  16.630  1.00  0.00    -0.000 C 
BRANCH  24  25
ATOM     25  C   UNL     1      38.947  16.600  15.556  1.00  0.00    -0.000 C 
BRANCH  25  26
ATOM     26  C   UNL     1      39.631  15.229  15.709  1.00  0.00    -0.000 C 
BRANCH  26  27
ATOM     27  C   UNL     1      38.625  14.067  15.731  1.00  0.00    -0.000 C 
BRANCH  27  28
ATOM     28  C   UNL     1      39.067  12.887  14.852  1.00  0.00    -0.000 C 
BRANCH  28  29
ATOM     29  C   UNL     1      40.540  12.989  14.426  1.00  0.00    -0.003 C 
ATOM     30  C   UNL     1      41.256  11.639  14.436  1.00  0.00     0.004 C 
ENDBRANCH  28  29
ENDBRANCH  27  28
ENDBRANCH  26  27
ENDBRANCH  25  26
ENDBRANCH  24  25
ENDBRANCH  23  24
ENDBRANCH  22  23
ENDBRANCH  21  22
ENDBRANCH  20  21
ENDBRANCH  19  20
ENDBRANCH  18  19
ENDBRANCH  17  18
ENDBRANCH   1  17
TORSDOF 26
ENDMDL
MODEL 9
REMARK VINA RESULT:     0.218      1.830      5.872
REMARK INTER + INTRA:          -2.702
REMARK INTER:                  -0.044
REMARK INTRA:                  -2.658
REMARK UNBOUND:                -3.252
REMARK SMILES CCCCCCCCCCCCCCCCCCCCCCCCCCCC(=O)[O-]
REMARK SMILES IDX 15 1 16 2 17 3 18 4 19 5 20 6 21 7 22 8 23 9 24 10 25 11
REMARK SMILES IDX 26 12 27 13 28 14 29 15 30 16 14 17 13 18 12 19 11 20 10 21
REMARK SMILES IDX 9 22 8 23 7 24 6 25 5 26 4 27 3 28 2 29 1 30
REMARK H PARENT
REMARK Flexibility Score: inf
ROOT
ATOM      1  C   UNL     1      39.744  14.604  14.906  1.00  0.00     0.000 C 
ENDROOT
BRANCH   1   2
ATOM      2  C   UNL     1      38.471  13.952  14.344  1.00  0.00     0.000 C 
BRANCH   2   3
ATOM      3  C   UNL     1      38.583  12.421  14.372  1.00  0.00     0.000 C 
BRANCH   3   4
ATOM      4  C   UNL     1      38.758  11.859  15.795  1.00  0.00     0.000 C 
BRANCH   4   5
ATOM      5  C   UNL     1      37.875  10.639  16.127  1.00  0.00     0.000 C 
BRANCH   5   6
ATOM      6  C   UNL     1      38.622   9.294  16.200  1.00  0.00     0.000 C 
BRANCH   6   7
ATOM      7  C   UNL     1      38.668   8.505  14.876  1.00  0.00     0.000 C 
BRANCH   7   8
ATOM      8  C   UNL     1      37.980   9.196  13.681  1.00  0.00     0.000 C 
BRANCH   8   9
ATOM      9  C   UNL     1      38.140   8.474  12.331  1.00  0.00     0.000 C 
BRANCH   9  10
ATOM     10  C   UNL     1      39.609   8.256  11.941  1.00  0.00     0.000 C 
BRANCH  10  11
ATOM     11  C   UNL     1      40.074   9.316  10.936  1.00  0.00     0.000 C 
BRANCH  11  12
ATOM     12  C   UNL     1      40.341  10.656  11.635  1.00  0.00     0.006 C 
BRANCH  12  13
ATOM     13  C   UNL     1      41.170  10.488  12.916  1.00  0.00     0.053 C 
BRANCH  13  14
ATOM     14  C   UNL     1      41.683  11.801  13.421  1.00  0.00     0.041 C 
ATOM     15  O   UNL     1      41.602  12.834  12.703  1.00  0.00    -0.550 OA
ATOM     16  O   UNL     1      42.221  11.892  14.698  1.00  0.00    -0.550 OA
ENDBRANCH  13  14
ENDBRANCH  12  13
ENDBRANCH  11  12
ENDBRANCH  10  11
ENDBRANCH   9  10
ENDBRANCH   8   9
ENDBRANCH   7   8
ENDBRANCH   6   7
ENDBRANCH   5   6
ENDBRANCH   4   5
ENDBRANCH   3   4
ENDBRANCH   2   3
ENDBRANCH   1   2
BRANCH   1  17
ATOM     17  C   UNL     1      39.578  16.111  15.159  1.00  0.00     0.000 C 
BRANCH  17  18
ATOM     18  C   UNL     1      40.739  16.706  15.976  1.00  0.00     0.000 C 
BRANCH  18  19
ATOM     19  C   UNL     1      40.298  17.887  16.856  1.00  0.00     0.000 C 
BRANCH  19  20
ATOM     20  C   UNL     1      39.864  17.445  18.265  1.00  0.00     0.000 C 
BRANCH  20  21
ATOM     21  C   UNL     1      38.486  16.762  18.270  1.00  0.00     0.000 C 
BRANCH  21  22
ATOM     22  C   UNL     1      38.586  15.226  18.247  1.00  0.00    -0.000 C 
BRANCH  22  23
ATOM     23  C   UNL     1      39.733  14.698  19.123  1.00  0.00    -0.000 C 
BRANCH  23  24
ATOM     24  C   UNL     1      41.026  14.452  18.325  1.00  0.00    -0.000 C 
BRANCH  24  25
ATOM     25  C   UNL     1      41.958  13.436  19.005  1.00  0.00    -0.000 C 
BRANCH  25  26
ATOM     26  C   UNL     1      42.173  12.171  18.154  1.00  0.00    -0.000 C 
BRANCH  26  27
ATOM     27  C   UNL     1      41.303  10.992  18.619  1.00  0.00    -0.000 C 
BRANCH  27  28
ATOM     28  C   UNL     1      41.550   9.716  17.799  1.00  0.00    -0.000 C 
BRANCH  28  29
ATOM     29  C   UNL     1      41.634   8.458  18.677  1.00  0.00    -0.003 C 
ATOM     30  C   UNL     1      40.262   7.875  19.013  1.00  0.00     0.004 C 
ENDBRANCH  28  29
ENDBRANCH  27  28
ENDBRANCH  26  27
ENDBRANCH  25  26
ENDBRANCH  24  25
ENDBRANCH  23  24
ENDBRANCH  22  23
ENDBRANCH  21  22
ENDBRANCH  20  21
ENDBRANCH  19  20
ENDBRANCH  18  19
ENDBRANCH  17  18
ENDBRANCH   1  17
TORSDOF 26
ENDMDL
