MODEL 1
REMARK VINA RESULT:    -8.965      0.000      0.000
REMARK INTER + INTRA:         -12.046
REMARK INTER:                 -11.848
REMARK INTRA:                  -0.199
REMARK UNBOUND:                -0.199
REMARK SMILES CC[C@@H](C=C[C@@H](C)[C@@H]1CC[C@@H]2[C@@H]3CC=C4C[C@@H](O)CC[C@]4(C)[C@@H]3CC[C@]21C)C(C)C
REMARK SMILES IDX 6 1 7 2 5 3 4 4 3 5 2 6 1 7 28 8 29 9 30 10 8 11 9 12 26 13
REMARK SMILES IDX 10 14 11 15 25 16 27 17 12 18 24 19 23 20 13 21 21 22 14 23
REMARK SMILES IDX 15 24 20 25 22 26 16 27 19 28 17 29 18 30
REMARK H PARENT 18 31
REMARK Flexibility Score: inf
ROOT
ATOM      1  C   UNL     1     131.859 132.797 150.012  1.00  0.00     0.012 C 
ATOM      2  C   UNL     1     132.705 133.852 149.288  1.00  0.00     0.012 C 
ENDROOT
BRANCH   1   3
ATOM      3  C   UNL     1     130.404 132.966 149.621  1.00  0.00    -0.028 C 
ATOM      4  C   UNL     1     129.867 132.288 148.590  1.00  0.00    -0.027 C 
BRANCH   4   5
ATOM      5  C   UNL     1     128.412 132.422 148.186  1.00  0.00     0.014 C 
BRANCH   5   6
ATOM      6  C   UNL     1     127.508 132.381 149.453  1.00  0.00     0.004 C 
ATOM      7  C   UNL     1     126.767 131.049 149.641  1.00  0.00     0.004 C 
ENDBRANCH   5   6
BRANCH   5   8
ATOM      8  C   UNL     1     128.035 131.343 147.123  1.00  0.00    -0.011 C 
ATOM      9  C   UNL     1     127.586 131.969 145.793  1.00  0.00     0.008 C 
ATOM     10  C   UNL     1     129.218 130.394 146.840  1.00  0.00     0.008 C 
ENDBRANCH   5   8
ENDBRANCH   4   5
ENDBRANCH   1   3
BRANCH   1  11
ATOM     11  C   UNL     1     132.014 132.816 151.573  1.00  0.00     0.002 C 
ATOM     12  C   UNL     1     131.276 131.708 152.360  1.00  0.00     0.005 C 
ATOM     13  C   UNL     1     131.599 134.121 152.307  1.00  0.00    -0.026 C 
ATOM     14  C   UNL     1     131.080 132.251 153.787  1.00  0.00     0.005 C 
ATOM     15  C   UNL     1     131.725 133.639 153.760  1.00  0.00    -0.001 C 
ATOM     16  C   UNL     1     132.572 135.294 152.125  1.00  0.00     0.007 C 
ATOM     17  C   UNL     1     130.157 134.559 151.908  1.00  0.00     0.012 C 
ATOM     18  C   UNL     1     131.383 134.683 154.848  1.00  0.00     0.000 C 
ATOM     19  C   UNL     1     132.252 136.439 153.107  1.00  0.00     0.005 C 
ATOM     20  C   UNL     1     132.190 136.010 154.613  1.00  0.00     0.003 C 
ATOM     21  C   UNL     1     129.868 134.862 155.136  1.00  0.00     0.031 C 
ATOM     22  C   UNL     1     131.707 137.159 155.585  1.00  0.00    -0.008 C 
ATOM     23  C   UNL     1     129.390 136.285 155.237  1.00  0.00    -0.027 C 
ATOM     24  C   UNL     1     130.193 137.339 155.469  1.00  0.00    -0.065 C 
ATOM     25  C   UNL     1     132.434 138.508 155.264  1.00  0.00     0.014 C 
ATOM     26  C   UNL     1     132.038 136.763 157.048  1.00  0.00     0.016 C 
ATOM     27  C   UNL     1     129.543 138.631 155.940  1.00  0.00     0.063 C 
ATOM     28  C   UNL     1     131.829 139.721 155.977  1.00  0.00     0.033 C 
ATOM     29  C   UNL     1     130.359 139.879 155.575  1.00  0.00     0.118 C 
BRANCH  29  30
ATOM     30  O   UNL     1     129.803 141.025 156.169  1.00  0.00    -0.393 OA
ATOM     31  H   UNL     1     130.231 141.817 155.755  1.00  0.00     0.210 HD
ENDBRANCH  29  30
ENDBRANCH   1  11
TORSDOF 6
ENDMDL
MODEL 2
REMARK VINA RESULT:    -8.837      0.620      1.461
REMARK INTER + INTRA:         -11.878
REMARK INTER:                 -11.652
REMARK INTRA:                  -0.226
REMARK UNBOUND:                -0.199
REMARK SMILES CC[C@@H](C=C[C@@H](C)[C@@H]1CC[C@@H]2[C@@H]3CC=C4C[C@@H](O)CC[C@]4(C)[C@@H]3CC[C@]21C)C(C)C
REMARK SMILES IDX 6 1 7 2 5 3 4 4 3 5 2 6 1 7 28 8 29 9 30 10 8 11 9 12 26 13
REMARK SMILES IDX 10 14 11 15 25 16 27 17 12 18 24 19 23 20 13 21 21 22 14 23
REMARK SMILES IDX 15 24 20 25 22 26 16 27 19 28 17 29 18 30
REMARK H PARENT 18 31
REMARK Flexibility Score: inf
ROOT
ATOM      1  C   UNL     1     131.880 132.457 150.296  1.00  0.00     0.012 C 
ATOM      2  C   UNL     1     131.980 133.808 149.576  1.00  0.00     0.012 C 
ENDROOT
BRANCH   1   3
ATOM      3  C   UNL     1     130.585 131.775 149.903  1.00  0.00    -0.028 C 
ATOM      4  C   UNL     1     130.120 131.816 148.640  1.00  0.00    -0.027 C 
BRANCH   4   5
ATOM      5  C   UNL     1     128.839 131.128 148.213  1.00  0.00     0.014 C 
BRANCH   5   6
ATOM      6  C   UNL     1     129.117 130.209 146.989  1.00  0.00     0.004 C 
ATOM      7  C   UNL     1     128.684 130.818 145.647  1.00  0.00     0.004 C 
ENDBRANCH   5   6
BRANCH   5   8
ATOM      8  C   UNL     1     127.713 132.179 147.955  1.00  0.00    -0.011 C 
ATOM      9  C   UNL     1     126.512 131.988 148.895  1.00  0.00     0.008 C 
ATOM     10  C   UNL     1     128.238 133.620 148.120  1.00  0.00     0.008 C 
ENDBRANCH   5   8
ENDBRANCH   4   5
ENDBRANCH   1   3
BRANCH   1  11
ATOM     11  C   UNL     1     131.998 132.556 151.857  1.00  0.00     0.002 C 
ATOM     12  C   UNL     1     131.247 131.485 152.681  1.00  0.00     0.005 C 
ATOM     13  C   UNL     1     131.559 133.894 152.514  1.00  0.00    -0.026 C 
ATOM     14  C   UNL     1     131.015 132.098 154.074  1.00  0.00     0.005 C 
ATOM     15  C   UNL     1     131.653 133.486 153.992  1.00  0.00    -0.001 C 
ATOM     16  C   UNL     1     132.530 135.062 152.296  1.00  0.00     0.007 C 
ATOM     17  C   UNL     1     130.125 134.302 152.060  1.00  0.00     0.012 C 
ATOM     18  C   UNL     1     131.280 134.581 155.018  1.00  0.00     0.000 C 
ATOM     19  C   UNL     1     132.181 136.254 153.211  1.00  0.00     0.005 C 
ATOM     20  C   UNL     1     132.086 135.901 154.735  1.00  0.00     0.003 C 
ATOM     21  C   UNL     1     129.758 134.766 155.261  1.00  0.00     0.031 C 
ATOM     22  C   UNL     1     131.574 137.094 155.637  1.00  0.00    -0.008 C 
ATOM     23  C   UNL     1     129.271 136.189 155.278  1.00  0.00    -0.027 C 
ATOM     24  C   UNL     1     130.062 137.258 155.476  1.00  0.00    -0.065 C 
ATOM     25  C   UNL     1     132.302 138.429 155.265  1.00  0.00     0.014 C 
ATOM     26  C   UNL     1     131.872 136.774 157.125  1.00  0.00     0.016 C 
ATOM     27  C   UNL     1     129.395 138.568 155.865  1.00  0.00     0.063 C 
ATOM     28  C   UNL     1     131.673 139.673 155.901  1.00  0.00     0.033 C 
ATOM     29  C   UNL     1     130.213 139.801 155.457  1.00  0.00     0.118 C 
BRANCH  29  30
ATOM     30  O   UNL     1     129.636 140.972 155.979  1.00  0.00    -0.393 OA
ATOM     31  H   UNL     1     129.300 140.763 156.888  1.00  0.00     0.210 HD
ENDBRANCH  29  30
ENDBRANCH   1  11
TORSDOF 6
ENDMDL
MODEL 3
REMARK VINA RESULT:    -8.432      3.071      8.488
REMARK INTER + INTRA:         -11.342
REMARK INTER:                  -9.952
REMARK INTRA:                  -1.391
REMARK UNBOUND:                -0.199
REMARK SMILES CC[C@@H](C=C[C@@H](C)[C@@H]1CC[C@@H]2[C@@H]3CC=C4C[C@@H](O)CC[C@]4(C)[C@@H]3CC[C@]21C)C(C)C
REMARK SMILES IDX 6 1 7 2 5 3 4 4 3 5 2 6 1 7 28 8 29 9 30 10 8 11 9 12 26 13
REMARK SMILES IDX 10 14 11 15 25 16 27 17 12 18 24 19 23 20 13 21 21 22 14 23
REMARK SMILES IDX 15 24 20 25 22 26 16 27 19 28 17 29 18 30
REMARK H PARENT 18 31
REMARK Flexibility Score: inf
ROOT
ATOM      1  C   UNL     1     132.165 135.572 153.386  1.00  0.00     0.012 C 
ATOM      2  C   UNL     1     133.497 135.361 154.115  1.00  0.00     0.012 C 
ENDROOT
BRANCH   1   3
ATOM      3  C   UNL     1     131.427 136.736 154.017  1.00  0.00    -0.028 C 
ATOM      4  C   UNL     1     130.167 136.608 154.474  1.00  0.00    -0.027 C 
BRANCH   4   5
ATOM      5  C   UNL     1     129.410 137.748 155.126  1.00  0.00     0.014 C 
BRANCH   5   6
ATOM      6  C   UNL     1     130.411 138.839 155.604  1.00  0.00     0.004 C 
ATOM      7  C   UNL     1     129.739 140.157 156.019  1.00  0.00     0.004 C 
ENDBRANCH   5   6
BRANCH   5   8
ATOM      8  C   UNL     1     128.488 137.213 156.267  1.00  0.00    -0.011 C 
ATOM      9  C   UNL     1     127.001 137.254 155.881  1.00  0.00     0.008 C 
ATOM     10  C   UNL     1     128.852 135.764 156.653  1.00  0.00     0.008 C 
ENDBRANCH   5   8
ENDBRANCH   4   5
ENDBRANCH   1   3
BRANCH   1  11
ATOM     11  C   UNL     1     131.250 134.298 153.345  1.00  0.00     0.002 C 
ATOM     12  C   UNL     1     131.783 133.036 154.063  1.00  0.00     0.005 C 
ATOM     13  C   UNL     1     130.836 133.772 151.944  1.00  0.00    -0.026 C 
ATOM     14  C   UNL     1     131.067 131.837 153.414  1.00  0.00     0.005 C 
ATOM     15  C   UNL     1     130.148 132.464 152.364  1.00  0.00    -0.001 C 
ATOM     16  C   UNL     1     129.790 134.631 151.221  1.00  0.00     0.007 C 
ATOM     17  C   UNL     1     132.080 133.566 151.027  1.00  0.00     0.012 C 
ATOM     18  C   UNL     1     129.572 131.606 151.214  1.00  0.00     0.000 C 
ATOM     19  C   UNL     1     129.221 133.897 149.990  1.00  0.00     0.005 C 
ATOM     20  C   UNL     1     128.643 132.472 150.289  1.00  0.00     0.003 C 
ATOM     21  C   UNL     1     130.608 130.715 150.475  1.00  0.00     0.031 C 
ATOM     22  C   UNL     1     128.210 131.673 148.996  1.00  0.00    -0.008 C 
ATOM     23  C   UNL     1     130.528 130.734 148.974  1.00  0.00    -0.027 C 
ATOM     24  C   UNL     1     129.447 131.132 148.278  1.00  0.00    -0.065 C 
ATOM     25  C   UNL     1     127.382 132.582 148.026  1.00  0.00     0.014 C 
ATOM     26  C   UNL     1     127.325 130.469 149.410  1.00  0.00     0.016 C 
ATOM     27  C   UNL     1     129.360 130.725 146.815  1.00  0.00     0.063 C 
ATOM     28  C   UNL     1     127.160 131.968 146.641  1.00  0.00     0.033 C 
ATOM     29  C   UNL     1     128.511 131.688 145.975  1.00  0.00     0.118 C 
BRANCH  29  30
ATOM     30  O   UNL     1     128.328 131.183 144.676  1.00  0.00    -0.393 OA
ATOM     31  H   UNL     1     128.676 131.858 144.039  1.00  0.00     0.210 HD
ENDBRANCH  29  30
ENDBRANCH   1  11
TORSDOF 6
ENDMDL
MODEL 4
REMARK VINA RESULT:    -8.431      1.798      3.517
REMARK INTER + INTRA:         -11.341
REMARK INTER:                 -10.613
REMARK INTRA:                  -0.728
REMARK UNBOUND:                -0.199
REMARK SMILES CC[C@@H](C=C[C@@H](C)[C@@H]1CC[C@@H]2[C@@H]3CC=C4C[C@@H](O)CC[C@]4(C)[C@@H]3CC[C@]21C)C(C)C
REMARK SMILES IDX 6 1 7 2 5 3 4 4 3 5 2 6 1 7 28 8 29 9 30 10 8 11 9 12 26 13
REMARK SMILES IDX 10 14 11 15 25 16 27 17 12 18 24 19 23 20 13 21 21 22 14 23
REMARK SMILES IDX 15 24 20 25 22 26 16 27 19 28 17 29 18 30
REMARK H PARENT 18 31
REMARK Flexibility Score: inf
ROOT
ATOM      1  C   UNL     1     129.209 131.853 148.222  1.00  0.00     0.012 C 
ATOM      2  C   UNL     1     127.883 131.240 148.693  1.00  0.00     0.012 C 
ENDROOT
BRANCH   1   3
ATOM      3  C   UNL     1     129.632 131.193 146.924  1.00  0.00    -0.028 C 
ATOM      4  C   UNL     1     128.746 130.931 145.944  1.00  0.00    -0.027 C 
BRANCH   4   5
ATOM      5  C   UNL     1     129.142 130.290 144.629  1.00  0.00     0.014 C 
BRANCH   5   6
ATOM      6  C   UNL     1     130.679 130.047 144.604  1.00  0.00     0.004 C 
ATOM      7  C   UNL     1     131.418 130.865 143.534  1.00  0.00     0.004 C 
ENDBRANCH   5   6
BRANCH   5   8
ATOM      8  C   UNL     1     128.632 131.144 143.426  1.00  0.00    -0.011 C 
ATOM      9  C   UNL     1     128.024 130.276 142.313  1.00  0.00     0.008 C 
ATOM     10  C   UNL     1     127.573 132.173 143.876  1.00  0.00     0.008 C 
ENDBRANCH   5   8
ENDBRANCH   4   5
ENDBRANCH   1   3
BRANCH   1  11
ATOM     11  C   UNL     1     130.362 131.770 149.282  1.00  0.00     0.002 C 
ATOM     12  C   UNL     1     130.436 130.480 150.132  1.00  0.00     0.005 C 
ATOM     13  C   UNL     1     130.429 132.906 150.340  1.00  0.00    -0.026 C 
ATOM     14  C   UNL     1     131.194 130.854 151.418  1.00  0.00     0.005 C 
ATOM     15  C   UNL     1     131.532 132.336 151.245  1.00  0.00    -0.001 C 
ATOM     16  C   UNL     1     130.926 134.254 149.801  1.00  0.00     0.007 C 
ATOM     17  C   UNL     1     129.057 133.093 151.056  1.00  0.00     0.012 C 
ATOM     18  C   UNL     1     131.913 133.201 152.469  1.00  0.00     0.000 C 
ATOM     19  C   UNL     1     131.243 135.231 150.952  1.00  0.00     0.005 C 
ATOM     20  C   UNL     1     132.238 134.673 152.026  1.00  0.00     0.003 C 
ATOM     21  C   UNL     1     130.966 133.064 153.693  1.00  0.00     0.031 C 
ATOM     22  C   UNL     1     132.427 135.623 153.275  1.00  0.00    -0.008 C 
ATOM     23  C   UNL     1     130.555 134.355 154.344  1.00  0.00    -0.027 C 
ATOM     24  C   UNL     1     131.212 135.520 154.199  1.00  0.00    -0.065 C 
ATOM     25  C   UNL     1     132.634 137.108 152.824  1.00  0.00     0.014 C 
ATOM     26  C   UNL     1     133.681 135.176 154.072  1.00  0.00     0.016 C 
ATOM     27  C   UNL     1     130.931 136.620 155.210  1.00  0.00     0.063 C 
ATOM     28  C   UNL     1     132.554 138.119 153.972  1.00  0.00     0.033 C 
ATOM     29  C   UNL     1     131.184 138.027 154.651  1.00  0.00     0.118 C 
BRANCH  29  30
ATOM     30  O   UNL     1     131.067 138.992 155.666  1.00  0.00    -0.393 OA
ATOM     31  H   UNL     1     130.586 139.771 155.287  1.00  0.00     0.210 HD
ENDBRANCH  29  30
ENDBRANCH   1  11
TORSDOF 6
ENDMDL
MODEL 5
REMARK VINA RESULT:    -8.259      2.818      8.079
REMARK INTER + INTRA:         -11.114
REMARK INTER:                 -10.595
REMARK INTRA:                  -0.519
REMARK UNBOUND:                -0.199
REMARK SMILES CC[C@@H](C=C[C@@H](C)[C@@H]1CC[C@@H]2[C@@H]3CC=C4C[C@@H](O)CC[C@]4(C)[C@@H]3CC[C@]21C)C(C)C
REMARK SMILES IDX 6 1 7 2 5 3 4 4 3 5 2 6 1 7 28 8 29 9 30 10 8 11 9 12 26 13
REMARK SMILES IDX 10 14 11 15 25 16 27 17 12 18 24 19 23 20 13 21 21 22 14 23
REMARK SMILES IDX 15 24 20 25 22 26 16 27 19 28 17 29 18 30
REMARK H PARENT 18 31
REMARK Flexibility Score: inf
ROOT
ATOM      1  C   UNL     1     131.389 134.943 156.649  1.00  0.00     0.012 C 
ATOM      2  C   UNL     1     130.313 133.862 156.812  1.00  0.00     0.012 C 
ENDROOT
BRANCH   1   3
ATOM      3  C   UNL     1     130.734 136.310 156.679  1.00  0.00    -0.028 C 
ATOM      4  C   UNL     1     129.455 136.471 157.067  1.00  0.00    -0.027 C 
BRANCH   4   5
ATOM      5  C   UNL     1     128.778 137.826 157.125  1.00  0.00     0.014 C 
BRANCH   5   6
ATOM      6  C   UNL     1     127.235 137.649 157.022  1.00  0.00     0.004 C 
ATOM      7  C   UNL     1     126.804 136.274 156.491  1.00  0.00     0.004 C 
ENDBRANCH   5   6
BRANCH   5   8
ATOM      8  C   UNL     1     129.365 138.779 156.037  1.00  0.00    -0.011 C 
ATOM      9  C   UNL     1     128.585 138.702 154.715  1.00  0.00     0.008 C 
ATOM     10  C   UNL     1     129.369 140.246 156.516  1.00  0.00     0.008 C 
ENDBRANCH   5   8
ENDBRANCH   4   5
ENDBRANCH   1   3
BRANCH   1  11
ATOM     11  C   UNL     1     132.265 134.782 155.357  1.00  0.00     0.002 C 
ATOM     12  C   UNL     1     133.073 136.020 154.905  1.00  0.00     0.005 C 
ATOM     13  C   UNL     1     131.535 134.331 154.062  1.00  0.00    -0.026 C 
ATOM     14  C   UNL     1     133.341 135.833 153.400  1.00  0.00     0.005 C 
ATOM     15  C   UNL     1     132.687 134.492 153.060  1.00  0.00    -0.001 C 
ATOM     16  C   UNL     1     131.114 132.855 154.046  1.00  0.00     0.007 C 
ATOM     17  C   UNL     1     130.304 135.239 153.762  1.00  0.00     0.012 C 
ATOM     18  C   UNL     1     132.360 134.131 151.592  1.00  0.00     0.000 C 
ATOM     19  C   UNL     1     130.671 132.419 152.635  1.00  0.00     0.005 C 
ATOM     20  C   UNL     1     131.721 132.698 151.505  1.00  0.00     0.003 C 
ATOM     21  C   UNL     1     131.628 135.240 150.789  1.00  0.00     0.031 C 
ATOM     22  C   UNL     1     131.189 132.391 150.049  1.00  0.00    -0.008 C 
ATOM     23  C   UNL     1     130.456 134.781 149.966  1.00  0.00    -0.027 C 
ATOM     24  C   UNL     1     130.248 133.505 149.591  1.00  0.00    -0.065 C 
ATOM     25  C   UNL     1     130.451 131.011 150.001  1.00  0.00     0.014 C 
ATOM     26  C   UNL     1     132.389 132.336 149.067  1.00  0.00     0.016 C 
ATOM     27  C   UNL     1     129.272 133.256 148.451  1.00  0.00     0.063 C 
ATOM     28  C   UNL     1     129.678 130.769 148.700  1.00  0.00     0.033 C 
ATOM     29  C   UNL     1     128.626 131.865 148.510  1.00  0.00     0.118 C 
BRANCH  29  30
ATOM     30  O   UNL     1     127.862 131.625 147.354  1.00  0.00    -0.393 OA
ATOM     31  H   UNL     1     128.492 131.469 146.604  1.00  0.00     0.210 HD
ENDBRANCH  29  30
ENDBRANCH   1  11
TORSDOF 6
ENDMDL
MODEL 6
REMARK VINA RESULT:    -8.201      2.251      5.005
REMARK INTER + INTRA:         -11.036
REMARK INTER:                 -10.824
REMARK INTRA:                  -0.212
REMARK UNBOUND:                -0.199
REMARK SMILES CC[C@@H](C=C[C@@H](C)[C@@H]1CC[C@@H]2[C@@H]3CC=C4C[C@@H](O)CC[C@]4(C)[C@@H]3CC[C@]21C)C(C)C
REMARK SMILES IDX 6 1 7 2 5 3 4 4 3 5 2 6 1 7 28 8 29 9 30 10 8 11 9 12 26 13
REMARK SMILES IDX 10 14 11 15 25 16 27 17 12 18 24 19 23 20 13 21 21 22 14 23
REMARK SMILES IDX 15 24 20 25 22 26 16 27 19 28 17 29 18 30
REMARK H PARENT 18 31
REMARK Flexibility Score: inf
ROOT
ATOM      1  C   UNL     1     127.892 131.860 147.220  1.00  0.00     0.012 C 
ATOM      2  C   UNL     1     127.552 130.479 147.795  1.00  0.00     0.012 C 
ENDROOT
BRANCH   1   3
ATOM      3  C   UNL     1     127.843 131.798 145.706  1.00  0.00    -0.028 C 
ATOM      4  C   UNL     1     128.449 130.811 145.020  1.00  0.00    -0.027 C 
BRANCH   4   5
ATOM      5  C   UNL     1     128.403 130.711 143.509  1.00  0.00     0.014 C 
BRANCH   5   6
ATOM      6  C   UNL     1     129.830 130.430 142.955  1.00  0.00     0.004 C 
ATOM      7  C   UNL     1     130.932 130.498 144.021  1.00  0.00     0.004 C 
ENDBRANCH   5   6
BRANCH   5   8
ATOM      8  C   UNL     1     127.741 131.986 142.895  1.00  0.00    -0.011 C 
ATOM      9  C   UNL     1     128.661 132.689 141.884  1.00  0.00     0.008 C 
ATOM     10  C   UNL     1     126.411 131.647 142.191  1.00  0.00     0.008 C 
ENDBRANCH   5   8
ENDBRANCH   4   5
ENDBRANCH   1   3
BRANCH   1  11
ATOM     11  C   UNL     1     129.271 132.430 147.702  1.00  0.00     0.002 C 
ATOM     12  C   UNL     1     130.531 131.614 147.330  1.00  0.00     0.005 C 
ATOM     13  C   UNL     1     129.437 132.678 149.227  1.00  0.00    -0.026 C 
ATOM     14  C   UNL     1     131.613 132.001 148.354  1.00  0.00     0.005 C 
ATOM     15  C   UNL     1     130.932 133.029 149.259  1.00  0.00    -0.001 C 
ATOM     16  C   UNL     1     128.667 133.892 149.765  1.00  0.00     0.007 C 
ATOM     17  C   UNL     1     129.068 131.407 150.050  1.00  0.00     0.012 C 
ATOM     18  C   UNL     1     131.518 133.355 150.653  1.00  0.00     0.000 C 
ATOM     19  C   UNL     1     129.112 134.241 151.200  1.00  0.00     0.005 C 
ATOM     20  C   UNL     1     130.655 134.454 151.372  1.00  0.00     0.003 C 
ATOM     21  C   UNL     1     131.884 132.119 151.519  1.00  0.00     0.031 C 
ATOM     22  C   UNL     1     131.109 134.654 152.872  1.00  0.00    -0.008 C 
ATOM     23  C   UNL     1     131.437 132.177 152.954  1.00  0.00    -0.027 C 
ATOM     24  C   UNL     1     131.111 133.310 153.601  1.00  0.00    -0.065 C 
ATOM     25  C   UNL     1     130.170 135.665 153.613  1.00  0.00     0.014 C 
ATOM     26  C   UNL     1     132.553 135.222 152.899  1.00  0.00     0.016 C 
ATOM     27  C   UNL     1     131.073 133.269 155.121  1.00  0.00     0.063 C 
ATOM     28  C   UNL     1     130.378 135.705 155.130  1.00  0.00     0.033 C 
ATOM     29  C   UNL     1     130.126 134.316 155.725  1.00  0.00     0.118 C 
BRANCH  29  30
ATOM     30  O   UNL     1     130.249 134.346 157.125  1.00  0.00    -0.393 OA
ATOM     31  H   UNL     1     131.060 133.830 157.367  1.00  0.00     0.210 HD
ENDBRANCH  29  30
ENDBRANCH   1  11
TORSDOF 6
ENDMDL
MODEL 7
REMARK VINA RESULT:    -7.816      3.250      8.907
REMARK INTER + INTRA:         -10.527
REMARK INTER:                  -9.877
REMARK INTRA:                  -0.651
REMARK UNBOUND:                -0.199
REMARK SMILES CC[C@@H](C=C[C@@H](C)[C@@H]1CC[C@@H]2[C@@H]3CC=C4C[C@@H](O)CC[C@]4(C)[C@@H]3CC[C@]21C)C(C)C
REMARK SMILES IDX 6 1 7 2 5 3 4 4 3 5 2 6 1 7 28 8 29 9 30 10 8 11 9 12 26 13
REMARK SMILES IDX 10 14 11 15 25 16 27 17 12 18 24 19 23 20 13 21 21 22 14 23
REMARK SMILES IDX 15 24 20 25 22 26 16 27 19 28 17 29 18 30
REMARK H PARENT 18 31
REMARK Flexibility Score: inf
ROOT
ATOM      1  C   UNL     1     131.651 135.685 152.173  1.00  0.00     0.012 C 
ATOM      2  C   UNL     1     133.107 135.405 151.780  1.00  0.00     0.012 C 
ENDROOT
BRANCH   1   3
ATOM      3  C   UNL     1     131.616 136.310 153.554  1.00  0.00    -0.028 C 
ATOM      4  C   UNL     1     130.453 136.566 154.183  1.00  0.00    -0.027 C 
BRANCH   4   5
ATOM      5  C   UNL     1     130.386 137.172 155.571  1.00  0.00     0.014 C 
BRANCH   5   6
ATOM      6  C   UNL     1     130.397 136.042 156.640  1.00  0.00     0.004 C 
ATOM      7  C   UNL     1     129.695 134.754 156.187  1.00  0.00     0.004 C 
ENDBRANCH   5   6
BRANCH   5   8
ATOM      8  C   UNL     1     129.157 138.128 155.694  1.00  0.00    -0.011 C 
ATOM      9  C   UNL     1     129.575 139.604 155.782  1.00  0.00     0.008 C 
ATOM     10  C   UNL     1     128.195 137.964 154.498  1.00  0.00     0.008 C 
ENDBRANCH   5   8
ENDBRANCH   4   5
ENDBRANCH   1   3
BRANCH   1  11
ATOM     11  C   UNL     1     130.720 134.423 152.116  1.00  0.00     0.002 C 
ATOM     12  C   UNL     1     131.145 133.206 152.970  1.00  0.00     0.005 C 
ATOM     13  C   UNL     1     130.451 133.809 150.715  1.00  0.00    -0.026 C 
ATOM     14  C   UNL     1     130.480 131.976 152.326  1.00  0.00     0.005 C 
ATOM     15  C   UNL     1     129.694 132.542 151.142  1.00  0.00    -0.001 C 
ATOM     16  C   UNL     1     129.508 134.631 149.827  1.00  0.00     0.007 C 
ATOM     17  C   UNL     1     131.783 133.525 149.957  1.00  0.00     0.012 C 
ATOM     18  C   UNL     1     129.231 131.615 149.994  1.00  0.00     0.000 C 
ATOM     19  C   UNL     1     129.062 133.822 148.591  1.00  0.00     0.005 C 
ATOM     20  C   UNL     1     128.425 132.429 148.918  1.00  0.00     0.003 C 
ATOM     21  C   UNL     1     130.322 130.663 149.435  1.00  0.00     0.031 C 
ATOM     22  C   UNL     1     128.121 131.550 147.640  1.00  0.00    -0.008 C 
ATOM     23  C   UNL     1     130.407 130.581 147.936  1.00  0.00    -0.027 C 
ATOM     24  C   UNL     1     129.417 130.945 147.100  1.00  0.00    -0.065 C 
ATOM     25  C   UNL     1     127.422 132.402 146.527  1.00  0.00     0.014 C 
ATOM     26  C   UNL     1     127.171 130.388 148.033  1.00  0.00     0.016 C 
ATOM     27  C   UNL     1     129.482 130.441 145.667  1.00  0.00     0.063 C 
ATOM     28  C   UNL     1     127.341 131.698 145.169  1.00  0.00     0.033 C 
ATOM     29  C   UNL     1     128.750 131.356 144.677  1.00  0.00     0.118 C 
BRANCH  29  30
ATOM     30  O   UNL     1     128.700 130.766 143.401  1.00  0.00    -0.393 OA
ATOM     31  H   UNL     1     129.053 131.426 142.751  1.00  0.00     0.210 HD
ENDBRANCH  29  30
ENDBRANCH   1  11
TORSDOF 6
ENDMDL
MODEL 8
REMARK VINA RESULT:    -7.501      4.080      6.490
REMARK INTER + INTRA:         -10.112
REMARK INTER:                  -9.187
REMARK INTRA:                  -0.924
REMARK UNBOUND:                -0.199
REMARK SMILES CC[C@@H](C=C[C@@H](C)[C@@H]1CC[C@@H]2[C@@H]3CC=C4C[C@@H](O)CC[C@]4(C)[C@@H]3CC[C@]21C)C(C)C
REMARK SMILES IDX 6 1 7 2 5 3 4 4 3 5 2 6 1 7 28 8 29 9 30 10 8 11 9 12 26 13
REMARK SMILES IDX 10 14 11 15 25 16 27 17 12 18 24 19 23 20 13 21 21 22 14 23
REMARK SMILES IDX 15 24 20 25 22 26 16 27 19 28 17 29 18 30
REMARK H PARENT 18 31
REMARK Flexibility Score: inf
ROOT
ATOM      1  C   UNL     1     130.832 136.342 154.272  1.00  0.00     0.012 C 
ATOM      2  C   UNL     1     129.382 136.068 154.694  1.00  0.00     0.012 C 
ENDROOT
BRANCH   1   3
ATOM      3  C   UNL     1     131.411 135.095 153.633  1.00  0.00    -0.028 C 
ATOM      4  C   UNL     1     131.296 134.861 152.312  1.00  0.00    -0.027 C 
BRANCH   4   5
ATOM      5  C   UNL     1     131.881 133.634 151.641  1.00  0.00     0.014 C 
BRANCH   5   6
ATOM      6  C   UNL     1     132.629 134.050 150.341  1.00  0.00     0.004 C 
ATOM      7  C   UNL     1     133.164 135.489 150.369  1.00  0.00     0.004 C 
ENDBRANCH   5   6
BRANCH   5   8
ATOM      8  C   UNL     1     130.773 132.560 151.400  1.00  0.00    -0.011 C 
ATOM      9  C   UNL     1     129.566 133.132 150.639  1.00  0.00     0.008 C 
ATOM     10  C   UNL     1     131.321 131.353 150.610  1.00  0.00     0.008 C 
ENDBRANCH   5   8
ENDBRANCH   4   5
ENDBRANCH   1   3
BRANCH   1  11
ATOM     11  C   UNL     1     131.753 136.840 155.440  1.00  0.00     0.002 C 
ATOM     12  C   UNL     1     131.194 137.971 156.334  1.00  0.00     0.005 C 
ATOM     13  C   UNL     1     133.168 137.350 155.052  1.00  0.00    -0.026 C 
ATOM     14  C   UNL     1     132.415 138.664 156.965  1.00  0.00     0.005 C 
ATOM     15  C   UNL     1     133.617 137.894 156.416  1.00  0.00    -0.001 C 
ATOM     16  C   UNL     1     134.157 136.248 154.648  1.00  0.00     0.007 C 
ATOM     17  C   UNL     1     133.092 138.432 153.933  1.00  0.00     0.012 C 
ATOM     18  C   UNL     1     135.033 138.517 156.461  1.00  0.00     0.000 C 
ATOM     19  C   UNL     1     135.597 136.794 154.568  1.00  0.00     0.005 C 
ATOM     20  C   UNL     1     136.093 137.523 155.863  1.00  0.00     0.003 C 
ATOM     21  C   UNL     1     135.125 139.980 155.950  1.00  0.00     0.031 C 
ATOM     22  C   UNL     1     137.506 138.212 155.708  1.00  0.00    -0.008 C 
ATOM     23  C   UNL     1     136.268 140.272 155.017  1.00  0.00    -0.027 C 
ATOM     24  C   UNL     1     137.370 139.508 154.908  1.00  0.00    -0.065 C 
ATOM     25  C   UNL     1     138.524 137.252 155.004  1.00  0.00     0.014 C 
ATOM     26  C   UNL     1     138.061 138.565 157.113  1.00  0.00     0.016 C 
ATOM     27  C   UNL     1     138.592 140.124 154.245  1.00  0.00     0.063 C 
ATOM     28  C   UNL     1     139.826 137.937 154.577  1.00  0.00     0.033 C 
ATOM     29  C   UNL     1     139.516 139.079 153.604  1.00  0.00     0.118 C 
BRANCH  29  30
ATOM     30  O   UNL     1     140.703 139.679 153.150  1.00  0.00    -0.393 OA
ATOM     31  H   UNL     1     140.775 140.569 153.581  1.00  0.00     0.210 HD
ENDBRANCH  29  30
ENDBRANCH   1  11
TORSDOF 6
ENDMDL
MODEL 9
REMARK VINA RESULT:    -7.284      3.359      9.351
REMARK INTER + INTRA:          -9.824
REMARK INTER:                  -9.946
REMARK INTRA:                   0.121
REMARK UNBOUND:                -0.199
REMARK SMILES CC[C@@H](C=C[C@@H](C)[C@@H]1CC[C@@H]2[C@@H]3CC=C4C[C@@H](O)CC[C@]4(C)[C@@H]3CC[C@]21C)C(C)C
REMARK SMILES IDX 6 1 7 2 5 3 4 4 3 5 2 6 1 7 28 8 29 9 30 10 8 11 9 12 26 13
REMARK SMILES IDX 10 14 11 15 25 16 27 17 12 18 24 19 23 20 13 21 21 22 14 23
REMARK SMILES IDX 15 24 20 25 22 26 16 27 19 28 17 29 18 30
REMARK H PARENT 18 31
REMARK Flexibility Score: inf
ROOT
ATOM      1  C   UNL     1     131.877 135.654 151.717  1.00  0.00     0.012 C 
ATOM      2  C   UNL     1     133.133 135.388 150.876  1.00  0.00     0.012 C 
ENDROOT
BRANCH   1   3
ATOM      3  C   UNL     1     132.288 136.004 153.133  1.00  0.00    -0.028 C 
ATOM      4  C   UNL     1     132.493 137.280 153.514  1.00  0.00    -0.027 C 
BRANCH   4   5
ATOM      5  C   UNL     1     132.886 137.663 154.926  1.00  0.00     0.014 C 
BRANCH   5   6
ATOM      6  C   UNL     1     131.784 138.564 155.554  1.00  0.00     0.004 C 
ATOM      7  C   UNL     1     130.353 138.094 155.252  1.00  0.00     0.004 C 
ENDBRANCH   5   6
BRANCH   5   8
ATOM      8  C   UNL     1     134.303 138.318 154.943  1.00  0.00    -0.011 C 
ATOM      9  C   UNL     1     134.468 139.319 156.097  1.00  0.00     0.008 C 
ATOM     10  C   UNL     1     135.414 137.253 155.058  1.00  0.00     0.008 C 
ENDBRANCH   5   8
ENDBRANCH   4   5
ENDBRANCH   1   3
BRANCH   1  11
ATOM     11  C   UNL     1     130.849 134.469 151.720  1.00  0.00     0.002 C 
ATOM     12  C   UNL     1     131.168 133.273 152.647  1.00  0.00     0.005 C 
ATOM     13  C   UNL     1     130.543 133.798 150.353  1.00  0.00    -0.026 C 
ATOM     14  C   UNL     1     130.411 132.064 152.066  1.00  0.00     0.005 C 
ATOM     15  C   UNL     1     129.683 132.622 150.841  1.00  0.00    -0.001 C 
ATOM     16  C   UNL     1     129.676 134.640 149.407  1.00  0.00     0.007 C 
ATOM     17  C   UNL     1     131.854 133.365 149.629  1.00  0.00     0.012 C 
ATOM     18  C   UNL     1     129.156 131.670 149.742  1.00  0.00     0.000 C 
ATOM     19  C   UNL     1     129.177 133.800 148.214  1.00  0.00     0.005 C 
ATOM     20  C   UNL     1     128.428 132.482 148.611  1.00  0.00     0.003 C 
ATOM     21  C   UNL     1     130.173 130.603 149.252  1.00  0.00     0.031 C 
ATOM     22  C   UNL     1     128.064 131.558 147.381  1.00  0.00    -0.008 C 
ATOM     23  C   UNL     1     130.262 130.429 147.761  1.00  0.00    -0.027 C 
ATOM     24  C   UNL     1     129.312 130.822 146.894  1.00  0.00    -0.065 C 
ATOM     25  C   UNL     1     127.445 132.398 146.213  1.00  0.00     0.014 C 
ATOM     26  C   UNL     1     127.021 130.501 147.827  1.00  0.00     0.016 C 
ATOM     27  C   UNL     1     129.348 130.232 145.493  1.00  0.00     0.063 C 
ATOM     28  C   UNL     1     127.319 131.625 144.897  1.00  0.00     0.033 C 
ATOM     29  C   UNL     1     128.700 131.144 144.442  1.00  0.00     0.118 C 
BRANCH  29  30
ATOM     30  O   UNL     1     128.614 130.488 143.202  1.00  0.00    -0.393 OA
ATOM     31  H   UNL     1     127.748 130.007 143.176  1.00  0.00     0.210 HD
ENDBRANCH  29  30
ENDBRANCH   1  11
TORSDOF 6
ENDMDL
