MODEL 1
REMARK VINA RESULT:    -0.692      0.000      0.000
REMARK INTER + INTRA:          -0.712
REMARK INTER:                  -0.712
REMARK INTRA:                   0.000
REMARK UNBOUND:                 0.000
REMARK SMILES Cc1ccccc1O
REMARK SMILES IDX 1 1 2 2 3 3 4 4 5 5 6 6 7 7 8 8
REMARK H PARENT 8 9
REMARK Flexibility Score: inf
ROOT
ATOM      1  C   UNL     1      -1.520   5.886 -11.452  1.00  0.00     0.048 C 
ATOM      2  C   UNL     1      -0.579   5.882 -10.280  1.00  0.00    -0.009 A 
ATOM      3  C   UNL     1       0.761   5.501 -10.466  1.00  0.00     0.007 A 
ATOM      4  C   UNL     1       1.651   5.489  -9.390  1.00  0.00     0.001 A 
ATOM      5  C   UNL     1       1.214   5.858  -8.117  1.00  0.00     0.004 A 
ATOM      6  C   UNL     1      -0.115   6.238  -7.917  1.00  0.00     0.046 A 
ATOM      7  C   UNL     1      -1.018   6.253  -8.987  1.00  0.00     0.118 A 
ENDROOT
BRANCH   7   8
ATOM      8  O   UNL     1      -2.336   6.642  -8.737  1.00  0.00    -0.508 OA
ATOM      9  H   UNL     1      -2.660   7.594  -8.844  1.00  0.00     0.293 HD
ENDBRANCH   7   8
TORSDOF 1
ENDMDL
MODEL 2
REMARK VINA RESULT:    -0.629      1.808      2.438
REMARK INTER + INTRA:          -0.647
REMARK INTER:                  -0.647
REMARK INTRA:                   0.000
REMARK UNBOUND:                 0.000
REMARK SMILES Cc1ccccc1O
REMARK SMILES IDX 1 1 2 2 3 3 4 4 5 5 6 6 7 7 8 8
REMARK H PARENT 8 9
REMARK Flexibility Score: inf
ROOT
ATOM      1  C   UNL     1      -0.988   5.602 -11.490  1.00  0.00     0.048 C 
ATOM      2  C   UNL     1      -0.444   5.828 -10.107  1.00  0.00    -0.009 A 
ATOM      3  C   UNL     1      -1.126   6.684  -9.224  1.00  0.00     0.007 A 
ATOM      4  C   UNL     1      -0.636   6.908  -7.935  1.00  0.00     0.001 A 
ATOM      5  C   UNL     1       0.537   6.281  -7.514  1.00  0.00     0.004 A 
ATOM      6  C   UNL     1       1.224   5.429  -8.380  1.00  0.00     0.046 A 
ATOM      7  C   UNL     1       0.745   5.195  -9.675  1.00  0.00     0.118 A 
ENDROOT
BRANCH   7   8
ATOM      8  O   UNL     1       1.468   4.334 -10.504  1.00  0.00    -0.508 OA
ATOM      9  H   UNL     1       1.414   3.327 -10.433  1.00  0.00     0.293 HD
ENDBRANCH   7   8
TORSDOF 1
ENDMDL
MODEL 3
REMARK VINA RESULT:    -0.569      0.688      2.491
REMARK INTER + INTRA:          -0.586
REMARK INTER:                  -0.586
REMARK INTRA:                   0.000
REMARK UNBOUND:                 0.000
REMARK SMILES Cc1ccccc1O
REMARK SMILES IDX 1 1 2 2 3 3 4 4 5 5 6 6 7 7 8 8
REMARK H PARENT 8 9
REMARK Flexibility Score: inf
ROOT
ATOM      1  C   UNL     1       0.125   6.806  -6.930  1.00  0.00     0.048 C 
ATOM      2  C   UNL     1       0.043   6.325  -8.352  1.00  0.00    -0.009 A 
ATOM      3  C   UNL     1       1.206   5.875  -9.002  1.00  0.00     0.007 A 
ATOM      4  C   UNL     1       1.151   5.425 -10.323  1.00  0.00     0.001 A 
ATOM      5  C   UNL     1      -0.064   5.419 -11.009  1.00  0.00     0.004 A 
ATOM      6  C   UNL     1      -1.227   5.863 -10.377  1.00  0.00     0.046 A 
ATOM      7  C   UNL     1      -1.186   6.317  -9.053  1.00  0.00     0.118 A 
ENDROOT
BRANCH   7   8
ATOM      8  O   UNL     1      -2.376   6.751  -8.464  1.00  0.00    -0.508 OA
ATOM      9  H   UNL     1      -3.209   6.962  -8.997  1.00  0.00     0.293 HD
ENDBRANCH   7   8
TORSDOF 1
ENDMDL
MODEL 4
REMARK VINA RESULT:    -0.315      1.619      2.597
REMARK INTER + INTRA:          -0.324
REMARK INTER:                  -0.324
REMARK INTRA:                   0.000
REMARK UNBOUND:                 0.000
REMARK SMILES Cc1ccccc1O
REMARK SMILES IDX 1 1 2 2 3 3 4 4 5 5 6 6 7 7 8 8
REMARK H PARENT 8 9
REMARK Flexibility Score: inf
ROOT
ATOM      1  C   UNL     1      -1.795   7.486  -7.712  1.00  0.00     0.048 C 
ATOM      2  C   UNL     1      -0.766   6.694  -8.469  1.00  0.00    -0.009 A 
ATOM      3  C   UNL     1      -1.025   6.306  -9.796  1.00  0.00     0.007 A 
ATOM      4  C   UNL     1      -0.081   5.569 -10.515  1.00  0.00     0.001 A 
ATOM      5  C   UNL     1       1.130   5.213  -9.921  1.00  0.00     0.004 A 
ATOM      6  C   UNL     1       1.401   5.592  -8.605  1.00  0.00     0.046 A 
ATOM      7  C   UNL     1       0.464   6.330  -7.871  1.00  0.00     0.118 A 
ENDROOT
BRANCH   7   8
ATOM      8  O   UNL     1       0.782   6.686  -6.558  1.00  0.00    -0.508 OA
ATOM      9  H   UNL     1       0.621   6.075  -5.768  1.00  0.00     0.293 HD
ENDBRANCH   7   8
TORSDOF 1
ENDMDL
MODEL 5
REMARK VINA RESULT:     0.286      1.349      2.311
REMARK INTER + INTRA:           0.294
REMARK INTER:                   0.294
REMARK INTRA:                   0.000
REMARK UNBOUND:                 0.000
REMARK SMILES Cc1ccccc1O
REMARK SMILES IDX 1 1 2 2 3 3 4 4 5 5 6 6 7 7 8 8
REMARK H PARENT 8 9
REMARK Flexibility Score: inf
ROOT
ATOM      1  C   UNL     1       1.182   4.708 -10.133  1.00  0.00     0.048 C 
ATOM      2  C   UNL     1       0.499   5.632  -9.164  1.00  0.00    -0.009 A 
ATOM      3  C   UNL     1       1.127   5.952  -7.948  1.00  0.00     0.007 A 
ATOM      4  C   UNL     1       0.508   6.808  -7.034  1.00  0.00     0.001 A 
ATOM      5  C   UNL     1      -0.743   7.354  -7.324  1.00  0.00     0.004 A 
ATOM      6  C   UNL     1      -1.379   7.044  -8.528  1.00  0.00     0.046 A 
ATOM      7  C   UNL     1      -0.770   6.187  -9.453  1.00  0.00     0.118 A 
ENDROOT
BRANCH   7   8
ATOM      8  O   UNL     1      -1.446   5.909 -10.643  1.00  0.00    -0.508 OA
ATOM      9  H   UNL     1      -1.386   6.501 -11.462  1.00  0.00     0.293 HD
ENDBRANCH   7   8
TORSDOF 1
ENDMDL
MODEL 6
REMARK VINA RESULT:     0.950      1.719      3.082
REMARK INTER + INTRA:           0.977
REMARK INTER:                   0.977
REMARK INTRA:                   0.000
REMARK UNBOUND:                 0.000
REMARK SMILES Cc1ccccc1O
REMARK SMILES IDX 1 1 2 2 3 3 4 4 5 5 6 6 7 7 8 8
REMARK H PARENT 8 9
REMARK Flexibility Score: inf
ROOT
ATOM      1  C   UNL     1      -0.814   7.132  -7.297  1.00  0.00     0.048 C 
ATOM      2  C   UNL     1      -0.431   6.432  -8.571  1.00  0.00    -0.009 A 
ATOM      3  C   UNL     1      -1.302   6.469  -9.674  1.00  0.00     0.007 A 
ATOM      4  C   UNL     1      -0.965   5.824 -10.866  1.00  0.00     0.001 A 
ATOM      5  C   UNL     1       0.245   5.136 -10.970  1.00  0.00     0.004 A 
ATOM      6  C   UNL     1       1.120   5.090  -9.883  1.00  0.00     0.046 A 
ATOM      7  C   UNL     1       0.794   5.732  -8.682  1.00  0.00     0.118 A 
ENDROOT
BRANCH   7   8
ATOM      8  O   UNL     1       1.702   5.658  -7.624  1.00  0.00    -0.508 OA
ATOM      9  H   UNL     1       1.611   6.207  -6.779  1.00  0.00     0.293 HD
ENDBRANCH   7   8
TORSDOF 1
ENDMDL
MODEL 7
REMARK VINA RESULT:     1.429      1.337      2.737
REMARK INTER + INTRA:           1.471
REMARK INTER:                   1.471
REMARK INTRA:                   0.000
REMARK UNBOUND:                 0.000
REMARK SMILES Cc1ccccc1O
REMARK SMILES IDX 1 1 2 2 3 3 4 4 5 5 6 6 7 7 8 8
REMARK H PARENT 8 9
REMARK Flexibility Score: inf
ROOT
ATOM      1  C   UNL     1       2.271   5.236  -9.251  1.00  0.00     0.048 C 
ATOM      2  C   UNL     1       0.846   5.564  -9.599  1.00  0.00    -0.009 A 
ATOM      3  C   UNL     1       0.398   5.402 -10.922  1.00  0.00     0.007 A 
ATOM      4  C   UNL     1      -0.922   5.702 -11.265  1.00  0.00     0.001 A 
ATOM      5  C   UNL     1      -1.809   6.167 -10.294  1.00  0.00     0.004 A 
ATOM      6  C   UNL     1      -1.378   6.334  -8.976  1.00  0.00     0.046 A 
ATOM      7  C   UNL     1      -0.058   6.037  -8.618  1.00  0.00     0.118 A 
ENDROOT
BRANCH   7   8
ATOM      8  O   UNL     1       0.325   6.219  -7.287  1.00  0.00    -0.508 OA
ATOM      9  H   UNL     1       0.750   5.489  -6.730  1.00  0.00     0.293 HD
ENDBRANCH   7   8
TORSDOF 1
ENDMDL
MODEL 8
REMARK VINA RESULT:     1.978      1.056      1.531
REMARK INTER + INTRA:           2.036
REMARK INTER:                   2.036
REMARK INTRA:                   0.000
REMARK UNBOUND:                 0.000
REMARK SMILES Cc1ccccc1O
REMARK SMILES IDX 1 1 2 2 3 3 4 4 5 5 6 6 7 7 8 8
REMARK H PARENT 8 9
REMARK Flexibility Score: inf
ROOT
ATOM      1  C   UNL     1       0.394   5.346 -11.762  1.00  0.00     0.048 C 
ATOM      2  C   UNL     1       0.137   5.754 -10.338  1.00  0.00    -0.009 A 
ATOM      3  C   UNL     1       1.196   5.752  -9.413  1.00  0.00     0.007 A 
ATOM      4  C   UNL     1       0.977   6.127  -8.085  1.00  0.00     0.001 A 
ATOM      5  C   UNL     1      -0.298   6.509  -7.667  1.00  0.00     0.004 A 
ATOM      6  C   UNL     1      -1.359   6.516  -8.575  1.00  0.00     0.046 A 
ATOM      7  C   UNL     1      -1.154   6.142  -9.909  1.00  0.00     0.118 A 
ENDROOT
BRANCH   7   8
ATOM      8  O   UNL     1      -2.247   6.166 -10.778  1.00  0.00    -0.508 OA
ATOM      9  H   UNL     1      -2.981   5.470 -10.760  1.00  0.00     0.293 HD
ENDBRANCH   7   8
TORSDOF 1
ENDMDL
