MODEL 1
REMARK VINA RESULT:    -5.439      0.000      0.000
REMARK INTER + INTRA:         -18.221
REMARK INTER:                 -14.341
REMARK INTRA:                  -3.879
REMARK UNBOUND:                -3.879
REMARK SMILES CCCCCCCCCCCCCCCCCCCCCCCCCCCCCC(=O)[O-]
REMARK SMILES IDX 16 1 17 2 18 3 19 4 20 5 21 6 22 7 23 8 24 9 25 10 26 11
REMARK SMILES IDX 27 12 28 13 29 14 30 15 31 16 32 17 15 18 14 19 13 20 12 21
REMARK SMILES IDX 11 22 10 23 9 24 8 25 7 26 6 27 5 28 4 29 3 30 2 31 1 32
REMARK H PARENT
REMARK Flexibility Score: inf
ROOT
ATOM      1  C   UNL     1     -13.968  -9.717  10.021  1.00  0.00     0.000 C 
ENDROOT
BRANCH   1   2
ATOM      2  C   UNL     1     -12.825  -9.400  10.999  1.00  0.00     0.000 C 
BRANCH   2   3
ATOM      3  C   UNL     1     -12.087  -8.095  10.650  1.00  0.00     0.000 C 
BRANCH   3   4
ATOM      4  C   UNL     1     -11.610  -8.055   9.187  1.00  0.00     0.000 C 
BRANCH   4   5
ATOM      5  C   UNL     1     -10.079  -8.067   8.994  1.00  0.00     0.000 C 
BRANCH   5   6
ATOM      6  C   UNL     1      -9.599  -8.148   7.533  1.00  0.00     0.000 C 
BRANCH   6   7
ATOM      7  C   UNL     1      -8.308  -8.969   7.374  1.00  0.00     0.000 C 
BRANCH   7   8
ATOM      8  C   UNL     1      -8.407 -10.373   7.999  1.00  0.00     0.000 C 
BRANCH   8   9
ATOM      9  C   UNL     1      -9.243 -11.394   7.205  1.00  0.00     0.000 C 
BRANCH   9  10
ATOM     10  C   UNL     1     -10.636 -11.633   7.814  1.00  0.00     0.000 C 
BRANCH  10  11
ATOM     11  C   UNL     1     -10.598 -11.836   9.340  1.00  0.00     0.000 C 
BRANCH  11  12
ATOM     12  C   UNL     1     -10.644 -13.303   9.814  1.00  0.00     0.000 C 
BRANCH  12  13
ATOM     13  C   UNL     1     -10.536 -14.356   8.698  1.00  0.00     0.006 C 
BRANCH  13  14
ATOM     14  C   UNL     1     -10.178 -15.751   9.227  1.00  0.00     0.053 C 
BRANCH  14  15
ATOM     15  C   UNL     1     -11.341 -16.681   9.075  1.00  0.00     0.041 C 
ATOM     16  O   UNL     1     -11.302 -17.831   9.588  1.00  0.00    -0.550 OA
ATOM     17  O   UNL     1     -12.488 -16.260   8.416  1.00  0.00    -0.550 OA
ENDBRANCH  14  15
ENDBRANCH  13  14
ENDBRANCH  12  13
ENDBRANCH  11  12
ENDBRANCH  10  11
ENDBRANCH   9  10
ENDBRANCH   8   9
ENDBRANCH   7   8
ENDBRANCH   6   7
ENDBRANCH   5   6
ENDBRANCH   4   5
ENDBRANCH   3   4
ENDBRANCH   2   3
ENDBRANCH   1   2
BRANCH   1  18
ATOM     18  C   UNL     1     -15.325  -9.168  10.495  1.00  0.00     0.000 C 
BRANCH  18  19
ATOM     19  C   UNL     1     -16.107  -8.462   9.373  1.00  0.00     0.000 C 
BRANCH  19  20
ATOM     20  C   UNL     1     -15.793  -6.962   9.199  1.00  0.00     0.000 C 
BRANCH  20  21
ATOM     21  C   UNL     1     -15.726  -6.150  10.508  1.00  0.00     0.000 C 
BRANCH  21  22
ATOM     22  C   UNL     1     -15.037  -4.775  10.386  1.00  0.00     0.000 C 
BRANCH  22  23
ATOM     23  C   UNL     1     -13.564  -4.821   9.933  1.00  0.00     0.000 C 
BRANCH  23  24
ATOM     24  C   UNL     1     -12.954  -3.456   9.571  1.00  0.00    -0.000 C 
BRANCH  24  25
ATOM     25  C   UNL     1     -13.958  -2.520   8.881  1.00  0.00    -0.000 C 
BRANCH  25  26
ATOM     26  C   UNL     1     -13.404  -2.013   7.541  1.00  0.00    -0.000 C 
BRANCH  26  27
ATOM     27  C   UNL     1     -14.205  -2.527   6.334  1.00  0.00    -0.000 C 
BRANCH  27  28
ATOM     28  C   UNL     1     -15.548  -3.155   6.738  1.00  0.00    -0.000 C 
BRANCH  28  29
ATOM     29  C   UNL     1     -15.583  -4.652   6.392  1.00  0.00    -0.000 C 
BRANCH  29  30
ATOM     30  C   UNL     1     -14.692  -5.009   5.188  1.00  0.00    -0.000 C 
BRANCH  30  31
ATOM     31  C   UNL     1     -15.366  -4.848   3.814  1.00  0.00    -0.003 C 
ATOM     32  C   UNL     1     -14.627  -3.877   2.895  1.00  0.00     0.004 C 
ENDBRANCH  30  31
ENDBRANCH  29  30
ENDBRANCH  28  29
ENDBRANCH  27  28
ENDBRANCH  26  27
ENDBRANCH  25  26
ENDBRANCH  24  25
ENDBRANCH  23  24
ENDBRANCH  22  23
ENDBRANCH  21  22
ENDBRANCH  20  21
ENDBRANCH  19  20
ENDBRANCH  18  19
ENDBRANCH   1  18
TORSDOF 28
ENDMDL
MODEL 2
REMARK VINA RESULT:    -5.340      2.642      4.181
REMARK INTER + INTRA:         -17.960
REMARK INTER:                 -14.018
REMARK INTRA:                  -3.942
REMARK UNBOUND:                -3.879
REMARK SMILES CCCCCCCCCCCCCCCCCCCCCCCCCCCCCC(=O)[O-]
REMARK SMILES IDX 16 1 17 2 18 3 19 4 20 5 21 6 22 7 23 8 24 9 25 10 26 11
REMARK SMILES IDX 27 12 28 13 29 14 30 15 31 16 32 17 15 18 14 19 13 20 12 21
REMARK SMILES IDX 11 22 10 23 9 24 8 25 7 26 6 27 5 28 4 29 3 30 2 31 1 32
REMARK H PARENT
REMARK Flexibility Score: inf
ROOT
ATOM      1  C   UNL     1     -12.264  -7.404   8.989  1.00  0.00     0.000 C 
ENDROOT
BRANCH   1   2
ATOM      2  C   UNL     1     -12.754  -8.488   9.963  1.00  0.00     0.000 C 
BRANCH   2   3
ATOM      3  C   UNL     1     -11.755  -8.763  11.100  1.00  0.00     0.000 C 
BRANCH   3   4
ATOM      4  C   UNL     1     -12.044 -10.081  11.840  1.00  0.00     0.000 C 
BRANCH   4   5
ATOM      5  C   UNL     1     -12.967 -11.066  11.093  1.00  0.00     0.000 C 
BRANCH   5   6
ATOM      6  C   UNL     1     -12.301 -12.378  10.637  1.00  0.00     0.000 C 
BRANCH   6   7
ATOM      7  C   UNL     1     -13.204 -13.216   9.716  1.00  0.00     0.000 C 
BRANCH   7   8
ATOM      8  C   UNL     1     -12.417 -13.999   8.649  1.00  0.00     0.000 C 
BRANCH   8   9
ATOM      9  C   UNL     1     -10.958 -14.332   9.014  1.00  0.00     0.000 C 
BRANCH   9  10
ATOM     10  C   UNL     1      -9.937 -13.455   8.268  1.00  0.00     0.000 C 
BRANCH  10  11
ATOM     11  C   UNL     1     -10.596 -12.465   7.290  1.00  0.00     0.000 C 
BRANCH  11  12
ATOM     12  C   UNL     1     -10.291 -10.976   7.548  1.00  0.00     0.000 C 
BRANCH  12  13
ATOM     13  C   UNL     1      -9.418 -10.690   8.782  1.00  0.00     0.006 C 
BRANCH  13  14
ATOM     14  C   UNL     1      -9.019  -9.214   8.901  1.00  0.00     0.053 C 
BRANCH  14  15
ATOM     15  C   UNL     1      -8.362  -8.748   7.640  1.00  0.00     0.041 C 
ATOM     16  O   UNL     1      -8.809  -7.742   7.028  1.00  0.00    -0.550 OA
ATOM     17  O   UNL     1      -7.223  -9.388   7.170  1.00  0.00    -0.550 OA
ENDBRANCH  14  15
ENDBRANCH  13  14
ENDBRANCH  12  13
ENDBRANCH  11  12
ENDBRANCH  10  11
ENDBRANCH   9  10
ENDBRANCH   8   9
ENDBRANCH   7   8
ENDBRANCH   6   7
ENDBRANCH   5   6
ENDBRANCH   4   5
ENDBRANCH   3   4
ENDBRANCH   2   3
ENDBRANCH   1   2
BRANCH   1  18
ATOM     18  C   UNL     1     -13.227  -6.208   8.898  1.00  0.00     0.000 C 
BRANCH  18  19
ATOM     19  C   UNL     1     -14.677  -6.631   8.600  1.00  0.00     0.000 C 
BRANCH  19  20
ATOM     20  C   UNL     1     -15.736  -6.069   9.570  1.00  0.00     0.000 C 
BRANCH  20  21
ATOM     21  C   UNL     1     -15.203  -5.069  10.615  1.00  0.00     0.000 C 
BRANCH  21  22
ATOM     22  C   UNL     1     -16.082  -3.820  10.830  1.00  0.00     0.000 C 
BRANCH  22  23
ATOM     23  C   UNL     1     -15.590  -2.545  10.116  1.00  0.00     0.000 C 
BRANCH  23  24
ATOM     24  C   UNL     1     -14.213  -2.669   9.442  1.00  0.00    -0.000 C 
BRANCH  24  25
ATOM     25  C   UNL     1     -13.822  -1.411   8.651  1.00  0.00    -0.000 C 
BRANCH  25  26
ATOM     26  C   UNL     1     -14.041  -1.618   7.146  1.00  0.00    -0.000 C 
BRANCH  26  27
ATOM     27  C   UNL     1     -15.528  -1.706   6.767  1.00  0.00    -0.000 C 
BRANCH  27  28
ATOM     28  C   UNL     1     -15.928  -3.099   6.256  1.00  0.00    -0.000 C 
BRANCH  28  29
ATOM     29  C   UNL     1     -14.686  -3.955   5.962  1.00  0.00    -0.000 C 
BRANCH  29  30
ATOM     30  C   UNL     1     -15.004  -5.199   5.112  1.00  0.00    -0.000 C 
BRANCH  30  31
ATOM     31  C   UNL     1     -15.381  -4.904   3.649  1.00  0.00    -0.003 C 
ATOM     32  C   UNL     1     -14.512  -3.819   3.014  1.00  0.00     0.004 C 
ENDBRANCH  30  31
ENDBRANCH  29  30
ENDBRANCH  28  29
ENDBRANCH  27  28
ENDBRANCH  26  27
ENDBRANCH  25  26
ENDBRANCH  24  25
ENDBRANCH  23  24
ENDBRANCH  22  23
ENDBRANCH  21  22
ENDBRANCH  20  21
ENDBRANCH  19  20
ENDBRANCH  18  19
ENDBRANCH   1  18
TORSDOF 28
ENDMDL
MODEL 3
REMARK VINA RESULT:    -5.259      3.665      9.859
REMARK INTER + INTRA:         -17.747
REMARK INTER:                 -13.951
REMARK INTRA:                  -3.796
REMARK UNBOUND:                -3.879
REMARK SMILES CCCCCCCCCCCCCCCCCCCCCCCCCCCCCC(=O)[O-]
REMARK SMILES IDX 16 1 17 2 18 3 19 4 20 5 21 6 22 7 23 8 24 9 25 10 26 11
REMARK SMILES IDX 27 12 28 13 29 14 30 15 31 16 32 17 15 18 14 19 13 20 12 21
REMARK SMILES IDX 11 22 10 23 9 24 8 25 7 26 6 27 5 28 4 29 3 30 2 31 1 32
REMARK H PARENT
REMARK Flexibility Score: inf
ROOT
ATOM      1  C   UNL     1     -10.961  -7.066  10.051  1.00  0.00     0.000 C 
ENDROOT
BRANCH   1   2
ATOM      2  C   UNL     1     -12.353  -6.561   9.640  1.00  0.00     0.000 C 
BRANCH   2   3
ATOM      3  C   UNL     1     -13.458  -7.607   9.869  1.00  0.00     0.000 C 
BRANCH   3   4
ATOM      4  C   UNL     1     -14.767  -7.259   9.138  1.00  0.00     0.000 C 
BRANCH   4   5
ATOM      5  C   UNL     1     -14.765  -5.909   8.392  1.00  0.00     0.000 C 
BRANCH   5   6
ATOM      6  C   UNL     1     -15.589  -4.788   9.053  1.00  0.00     0.000 C 
BRANCH   6   7
ATOM      7  C   UNL     1     -14.756  -3.923  10.014  1.00  0.00     0.000 C 
BRANCH   7   8
ATOM      8  C   UNL     1     -13.654  -3.119   9.299  1.00  0.00     0.000 C 
BRANCH   8   9
ATOM      9  C   UNL     1     -14.137  -1.881   8.521  1.00  0.00     0.000 C 
BRANCH   9  10
ATOM     10  C   UNL     1     -13.343  -1.638   7.225  1.00  0.00     0.000 C 
BRANCH  10  11
ATOM     11  C   UNL     1     -14.180  -1.877   5.954  1.00  0.00     0.000 C 
BRANCH  11  12
ATOM     12  C   UNL     1     -15.634  -2.330   6.196  1.00  0.00     0.000 C 
BRANCH  12  13
ATOM     13  C   UNL     1     -16.017  -3.675   5.556  1.00  0.00     0.006 C 
BRANCH  13  14
ATOM     14  C   UNL     1     -14.823  -4.386   4.905  1.00  0.00     0.053 C 
BRANCH  14  15
ATOM     15  C   UNL     1     -15.023  -4.494   3.426  1.00  0.00     0.041 C 
ATOM     16  O   UNL     1     -14.326  -3.797   2.642  1.00  0.00    -0.550 OA
ATOM     17  O   UNL     1     -15.938  -5.402   2.911  1.00  0.00    -0.550 OA
ENDBRANCH  14  15
ENDBRANCH  13  14
ENDBRANCH  12  13
ENDBRANCH  11  12
ENDBRANCH  10  11
ENDBRANCH   9  10
ENDBRANCH   8   9
ENDBRANCH   7   8
ENDBRANCH   6   7
ENDBRANCH   5   6
ENDBRANCH   4   5
ENDBRANCH   3   4
ENDBRANCH   2   3
ENDBRANCH   1   2
BRANCH   1  18
ATOM     18  C   UNL     1     -10.570  -8.374   9.341  1.00  0.00     0.000 C 
BRANCH  18  19
ATOM     19  C   UNL     1     -10.474  -8.217   7.813  1.00  0.00     0.000 C 
BRANCH  19  20
ATOM     20  C   UNL     1      -9.062  -8.414   7.221  1.00  0.00     0.000 C 
BRANCH  20  21
ATOM     21  C   UNL     1      -8.192  -9.466   7.938  1.00  0.00     0.000 C 
BRANCH  21  22
ATOM     22  C   UNL     1      -8.177 -10.859   7.277  1.00  0.00     0.000 C 
BRANCH  22  23
ATOM     23  C   UNL     1      -9.545 -11.568   7.218  1.00  0.00     0.000 C 
BRANCH  23  24
ATOM     24  C   UNL     1      -9.965 -12.277   8.517  1.00  0.00    -0.000 C 
BRANCH  24  25
ATOM     25  C   UNL     1      -9.737 -13.796   8.467  1.00  0.00    -0.000 C 
BRANCH  25  26
ATOM     26  C   UNL     1     -11.008 -14.555   8.872  1.00  0.00    -0.000 C 
BRANCH  26  27
ATOM     27  C   UNL     1     -12.240 -14.132   8.056  1.00  0.00    -0.000 C 
BRANCH  27  28
ATOM     28  C   UNL     1     -13.378 -13.594   8.937  1.00  0.00    -0.000 C 
BRANCH  28  29
ATOM     29  C   UNL     1     -12.825 -12.939  10.212  1.00  0.00    -0.000 C 
BRANCH  29  30
ATOM     30  C   UNL     1     -13.170 -11.442  10.315  1.00  0.00    -0.000 C 
BRANCH  30  31
ATOM     31  C   UNL     1     -13.126 -10.864  11.741  1.00  0.00    -0.003 C 
ATOM     32  C   UNL     1     -11.809 -10.158  12.059  1.00  0.00     0.004 C 
ENDBRANCH  30  31
ENDBRANCH  29  30
ENDBRANCH  28  29
ENDBRANCH  27  28
ENDBRANCH  26  27
ENDBRANCH  25  26
ENDBRANCH  24  25
ENDBRANCH  23  24
ENDBRANCH  22  23
ENDBRANCH  21  22
ENDBRANCH  20  21
ENDBRANCH  19  20
ENDBRANCH  18  19
ENDBRANCH   1  18
TORSDOF 28
ENDMDL
MODEL 4
REMARK VINA RESULT:    -5.153      2.582      8.734
REMARK INTER + INTRA:         -17.466
REMARK INTER:                 -13.789
REMARK INTRA:                  -3.677
REMARK UNBOUND:                -3.879
REMARK SMILES CCCCCCCCCCCCCCCCCCCCCCCCCCCCCC(=O)[O-]
REMARK SMILES IDX 16 1 17 2 18 3 19 4 20 5 21 6 22 7 23 8 24 9 25 10 26 11
REMARK SMILES IDX 27 12 28 13 29 14 30 15 31 16 32 17 15 18 14 19 13 20 12 21
REMARK SMILES IDX 11 22 10 23 9 24 8 25 7 26 6 27 5 28 4 29 3 30 2 31 1 32
REMARK H PARENT
REMARK Flexibility Score: inf
ROOT
ATOM      1  C   UNL     1     -15.032  -6.891   7.288  1.00  0.00     0.000 C 
ENDROOT
BRANCH   1   2
ATOM      2  C   UNL     1     -15.616  -5.548   6.821  1.00  0.00     0.000 C 
BRANCH   2   3
ATOM      3  C   UNL     1     -15.018  -5.070   5.486  1.00  0.00     0.000 C 
BRANCH   3   4
ATOM      4  C   UNL     1     -15.666  -3.770   4.975  1.00  0.00     0.000 C 
BRANCH   4   5
ATOM      5  C   UNL     1     -15.911  -2.691   6.051  1.00  0.00     0.000 C 
BRANCH   5   6
ATOM      6  C   UNL     1     -15.041  -1.426   5.925  1.00  0.00     0.000 C 
BRANCH   6   7
ATOM      7  C   UNL     1     -14.152  -1.189   7.158  1.00  0.00     0.000 C 
BRANCH   7   8
ATOM      8  C   UNL     1     -13.537  -2.486   7.717  1.00  0.00     0.000 C 
BRANCH   8   9
ATOM      9  C   UNL     1     -13.546  -2.615   9.251  1.00  0.00     0.000 C 
BRANCH   9  10
ATOM     10  C   UNL     1     -14.680  -3.516   9.772  1.00  0.00     0.000 C 
BRANCH  10  11
ATOM     11  C   UNL     1     -14.192  -4.919  10.180  1.00  0.00     0.000 C 
BRANCH  11  12
ATOM     12  C   UNL     1     -12.796  -5.313   9.657  1.00  0.00     0.000 C 
BRANCH  12  13
ATOM     13  C   UNL     1     -12.358  -6.752   9.977  1.00  0.00     0.006 C 
BRANCH  13  14
ATOM     14  C   UNL     1     -10.877  -7.008   9.665  1.00  0.00     0.053 C 
BRANCH  14  15
ATOM     15  C   UNL     1     -10.743  -7.917   8.484  1.00  0.00     0.041 C 
ATOM     16  O   UNL     1      -9.621  -8.409   8.189  1.00  0.00    -0.550 OA
ATOM     17  O   UNL     1     -11.864  -8.266   7.742  1.00  0.00    -0.550 OA
ENDBRANCH  14  15
ENDBRANCH  13  14
ENDBRANCH  12  13
ENDBRANCH  11  12
ENDBRANCH  10  11
ENDBRANCH   9  10
ENDBRANCH   8   9
ENDBRANCH   7   8
ENDBRANCH   6   7
ENDBRANCH   5   6
ENDBRANCH   4   5
ENDBRANCH   3   4
ENDBRANCH   2   3
ENDBRANCH   1   2
BRANCH   1  18
ATOM     18  C   UNL     1     -16.055  -7.751   8.050  1.00  0.00     0.000 C 
BRANCH  18  19
ATOM     19  C   UNL     1     -15.816  -7.757   9.570  1.00  0.00     0.000 C 
BRANCH  19  20
ATOM     20  C   UNL     1     -15.583  -9.150  10.192  1.00  0.00     0.000 C 
BRANCH  20  21
ATOM     21  C   UNL     1     -14.109  -9.599  10.259  1.00  0.00     0.000 C 
BRANCH  21  22
ATOM     22  C   UNL     1     -13.830 -10.770  11.222  1.00  0.00     0.000 C 
BRANCH  22  23
ATOM     23  C   UNL     1     -12.404 -10.808  11.807  1.00  0.00     0.000 C 
BRANCH  23  24
ATOM     24  C   UNL     1     -11.282 -10.487  10.804  1.00  0.00    -0.000 C 
BRANCH  24  25
ATOM     25  C   UNL     1     -10.446 -11.721  10.431  1.00  0.00    -0.000 C 
BRANCH  25  26
ATOM     26  C   UNL     1     -10.220 -11.792   8.913  1.00  0.00    -0.000 C 
BRANCH  26  27
ATOM     27  C   UNL     1     -11.303 -12.604   8.187  1.00  0.00    -0.000 C 
BRANCH  27  28
ATOM     28  C   UNL     1     -11.913 -13.702   9.071  1.00  0.00    -0.000 C 
BRANCH  28  29
ATOM     29  C   UNL     1     -12.426 -14.874   8.220  1.00  0.00    -0.000 C 
BRANCH  29  30
ATOM     30  C   UNL     1     -11.922 -16.241   8.717  1.00  0.00    -0.000 C 
BRANCH  30  31
ATOM     31  C   UNL     1     -10.600 -16.196   9.504  1.00  0.00    -0.003 C 
ATOM     32  C   UNL     1      -9.399 -15.828   8.635  1.00  0.00     0.004 C 
ENDBRANCH  30  31
ENDBRANCH  29  30
ENDBRANCH  28  29
ENDBRANCH  27  28
ENDBRANCH  26  27
ENDBRANCH  25  26
ENDBRANCH  24  25
ENDBRANCH  23  24
ENDBRANCH  22  23
ENDBRANCH  21  22
ENDBRANCH  20  21
ENDBRANCH  19  20
ENDBRANCH  18  19
ENDBRANCH   1  18
TORSDOF 28
ENDMDL
MODEL 5
REMARK VINA RESULT:    -5.040      1.253      2.901
REMARK INTER + INTRA:         -17.168
REMARK INTER:                 -13.852
REMARK INTRA:                  -3.316
REMARK UNBOUND:                -3.879
REMARK SMILES CCCCCCCCCCCCCCCCCCCCCCCCCCCCCC(=O)[O-]
REMARK SMILES IDX 16 1 17 2 18 3 19 4 20 5 21 6 22 7 23 8 24 9 25 10 26 11
REMARK SMILES IDX 27 12 28 13 29 14 30 15 31 16 32 17 15 18 14 19 13 20 12 21
REMARK SMILES IDX 11 22 10 23 9 24 8 25 7 26 6 27 5 28 4 29 3 30 2 31 1 32
REMARK H PARENT
REMARK Flexibility Score: inf
ROOT
ATOM      1  C   UNL     1     -12.041  -8.118  10.977  1.00  0.00     0.000 C 
ENDROOT
BRANCH   1   2
ATOM      2  C   UNL     1     -11.291  -7.227   9.974  1.00  0.00     0.000 C 
BRANCH   2   3
ATOM      3  C   UNL     1     -11.031  -7.930   8.631  1.00  0.00     0.000 C 
BRANCH   3   4
ATOM      4  C   UNL     1      -9.579  -7.768   8.145  1.00  0.00     0.000 C 
BRANCH   4   5
ATOM      5  C   UNL     1      -9.131  -8.772   7.063  1.00  0.00     0.000 C 
BRANCH   5   6
ATOM      6  C   UNL     1      -7.940  -9.670   7.448  1.00  0.00     0.000 C 
BRANCH   6   7
ATOM      7  C   UNL     1      -8.307 -11.163   7.487  1.00  0.00     0.000 C 
BRANCH   7   8
ATOM      8  C   UNL     1      -9.750 -11.442   7.024  1.00  0.00     0.000 C 
BRANCH   8   9
ATOM      9  C   UNL     1     -10.809 -11.471   8.141  1.00  0.00     0.000 C 
BRANCH   9  10
ATOM     10  C   UNL     1     -10.475 -12.473   9.261  1.00  0.00     0.000 C 
BRANCH  10  11
ATOM     11  C   UNL     1     -11.729 -13.088   9.909  1.00  0.00     0.000 C 
BRANCH  11  12
ATOM     12  C   UNL     1     -12.814 -13.572   8.925  1.00  0.00     0.000 C 
BRANCH  12  13
ATOM     13  C   UNL     1     -12.439 -14.812   8.095  1.00  0.00     0.006 C 
BRANCH  13  14
ATOM     14  C   UNL     1     -12.665 -16.127   8.853  1.00  0.00     0.053 C 
BRANCH  14  15
ATOM     15  C   UNL     1     -11.360 -16.814   9.104  1.00  0.00     0.041 C 
ATOM     16  O   UNL     1     -10.290 -16.150   9.132  1.00  0.00    -0.550 OA
ATOM     17  O   UNL     1     -11.329 -18.179   9.361  1.00  0.00    -0.550 OA
ENDBRANCH  14  15
ENDBRANCH  13  14
ENDBRANCH  12  13
ENDBRANCH  11  12
ENDBRANCH  10  11
ENDBRANCH   9  10
ENDBRANCH   8   9
ENDBRANCH   7   8
ENDBRANCH   6   7
ENDBRANCH   5   6
ENDBRANCH   4   5
ENDBRANCH   3   4
ENDBRANCH   2   3
ENDBRANCH   1   2
BRANCH   1  18
ATOM     18  C   UNL     1     -11.452  -9.536  11.069  1.00  0.00     0.000 C 
BRANCH  18  19
ATOM     19  C   UNL     1     -12.226 -10.442  12.043  1.00  0.00     0.000 C 
BRANCH  19  20
ATOM     20  C   UNL     1     -13.730 -10.598  11.739  1.00  0.00     0.000 C 
BRANCH  20  21
ATOM     21  C   UNL     1     -14.184 -10.037  10.376  1.00  0.00     0.000 C 
BRANCH  21  22
ATOM     22  C   UNL     1     -15.565  -9.349  10.383  1.00  0.00     0.000 C 
BRANCH  22  23
ATOM     23  C   UNL     1     -15.583  -7.917   9.814  1.00  0.00     0.000 C 
BRANCH  23  24
ATOM     24  C   UNL     1     -15.735  -6.803  10.866  1.00  0.00    -0.000 C 
BRANCH  24  25
ATOM     25  C   UNL     1     -15.815  -5.402  10.240  1.00  0.00    -0.000 C 
BRANCH  25  26
ATOM     26  C   UNL     1     -14.417  -4.778  10.114  1.00  0.00    -0.000 C 
BRANCH  26  27
ATOM     27  C   UNL     1     -14.099  -4.316   8.683  1.00  0.00    -0.000 C 
BRANCH  27  28
ATOM     28  C   UNL     1     -13.986  -5.486   7.694  1.00  0.00    -0.000 C 
BRANCH  28  29
ATOM     29  C   UNL     1     -15.099  -5.423   6.636  1.00  0.00    -0.000 C 
BRANCH  29  30
ATOM     30  C   UNL     1     -14.557  -5.254   5.206  1.00  0.00    -0.000 C 
BRANCH  30  31
ATOM     31  C   UNL     1     -14.368  -3.795   4.753  1.00  0.00    -0.003 C 
ATOM     32  C   UNL     1     -14.568  -3.604   3.250  1.00  0.00     0.004 C 
ENDBRANCH  30  31
ENDBRANCH  29  30
ENDBRANCH  28  29
ENDBRANCH  27  28
ENDBRANCH  26  27
ENDBRANCH  25  26
ENDBRANCH  24  25
ENDBRANCH  23  24
ENDBRANCH  22  23
ENDBRANCH  21  22
ENDBRANCH  20  21
ENDBRANCH  19  20
ENDBRANCH  18  19
ENDBRANCH   1  18
TORSDOF 28
ENDMDL
MODEL 6
REMARK VINA RESULT:    -5.029      3.554      9.465
REMARK INTER + INTRA:         -17.140
REMARK INTER:                 -14.236
REMARK INTRA:                  -2.904
REMARK UNBOUND:                -3.879
REMARK SMILES CCCCCCCCCCCCCCCCCCCCCCCCCCCCCC(=O)[O-]
REMARK SMILES IDX 16 1 17 2 18 3 19 4 20 5 21 6 22 7 23 8 24 9 25 10 26 11
REMARK SMILES IDX 27 12 28 13 29 14 30 15 31 16 32 17 15 18 14 19 13 20 12 21
REMARK SMILES IDX 11 22 10 23 9 24 8 25 7 26 6 27 5 28 4 29 3 30 2 31 1 32
REMARK H PARENT
REMARK Flexibility Score: inf
ROOT
ATOM      1  C   UNL     1     -12.553 -11.328  11.352  1.00  0.00     0.000 C 
ENDROOT
BRANCH   1   2
ATOM      2  C   UNL     1     -13.836 -10.513  11.585  1.00  0.00     0.000 C 
BRANCH   2   3
ATOM      3  C   UNL     1     -14.186  -9.602  10.395  1.00  0.00     0.000 C 
BRANCH   3   4
ATOM      4  C   UNL     1     -15.663  -9.167  10.394  1.00  0.00     0.000 C 
BRANCH   4   5
ATOM      5  C   UNL     1     -15.984  -7.931   9.528  1.00  0.00     0.000 C 
BRANCH   5   6
ATOM      6  C   UNL     1     -15.819  -6.571  10.231  1.00  0.00     0.000 C 
BRANCH   6   7
ATOM      7  C   UNL     1     -14.435  -5.941   9.994  1.00  0.00     0.000 C 
BRANCH   7   8
ATOM      8  C   UNL     1     -14.464  -4.402  10.009  1.00  0.00     0.000 C 
BRANCH   8   9
ATOM      9  C   UNL     1     -13.261  -3.711   9.339  1.00  0.00     0.000 C 
BRANCH   9  10
ATOM     10  C   UNL     1     -13.531  -2.236   8.993  1.00  0.00     0.000 C 
BRANCH  10  11
ATOM     11  C   UNL     1     -13.711  -1.998   7.482  1.00  0.00     0.000 C 
BRANCH  11  12
ATOM     12  C   UNL     1     -15.171  -1.950   6.988  1.00  0.00     0.000 C 
BRANCH  12  13
ATOM     13  C   UNL     1     -15.587  -3.104   6.060  1.00  0.00     0.006 C 
BRANCH  13  14
ATOM     14  C   UNL     1     -14.388  -3.830   5.437  1.00  0.00     0.053 C 
BRANCH  14  15
ATOM     15  C   UNL     1     -14.654  -4.138   3.997  1.00  0.00     0.041 C 
ATOM     16  O   UNL     1     -14.020  -3.533   3.093  1.00  0.00    -0.550 OA
ATOM     17  O   UNL     1     -15.562  -5.131   3.654  1.00  0.00    -0.550 OA
ENDBRANCH  14  15
ENDBRANCH  13  14
ENDBRANCH  12  13
ENDBRANCH  11  12
ENDBRANCH  10  11
ENDBRANCH   9  10
ENDBRANCH   8   9
ENDBRANCH   7   8
ENDBRANCH   6   7
ENDBRANCH   5   6
ENDBRANCH   4   5
ENDBRANCH   3   4
ENDBRANCH   2   3
ENDBRANCH   1   2
BRANCH   1  18
ATOM     18  C   UNL     1     -12.470 -11.913   9.932  1.00  0.00     0.000 C 
BRANCH  18  19
ATOM     19  C   UNL     1     -13.256 -13.228   9.781  1.00  0.00     0.000 C 
BRANCH  19  20
ATOM     20  C   UNL     1     -12.979 -14.012   8.482  1.00  0.00     0.000 C 
BRANCH  20  21
ATOM     21  C   UNL     1     -12.776 -15.530   8.663  1.00  0.00     0.000 C 
BRANCH  21  22
ATOM     22  C   UNL     1     -11.313 -16.007   8.566  1.00  0.00     0.000 C 
BRANCH  22  23
ATOM     23  C   UNL     1     -10.270 -15.040   9.161  1.00  0.00     0.000 C 
BRANCH  23  24
ATOM     24  C   UNL     1      -9.560 -14.140   8.135  1.00  0.00    -0.000 C 
BRANCH  24  25
ATOM     25  C   UNL     1      -9.829 -12.645   8.369  1.00  0.00    -0.000 C 
BRANCH  25  26
ATOM     26  C   UNL     1      -9.412 -11.815   7.146  1.00  0.00    -0.000 C 
BRANCH  26  27
ATOM     27  C   UNL     1      -8.306 -10.797   7.467  1.00  0.00    -0.000 C 
BRANCH  27  28
ATOM     28  C   UNL     1      -8.864  -9.421   7.863  1.00  0.00    -0.000 C 
BRANCH  28  29
ATOM     29  C   UNL     1      -9.184  -9.368   9.365  1.00  0.00    -0.000 C 
BRANCH  29  30
ATOM     30  C   UNL     1     -10.562  -8.748   9.662  1.00  0.00    -0.000 C 
BRANCH  30  31
ATOM     31  C   UNL     1     -11.057  -7.738   8.611  1.00  0.00    -0.003 C 
ATOM     32  C   UNL     1     -12.280  -8.231   7.839  1.00  0.00     0.004 C 
ENDBRANCH  30  31
ENDBRANCH  29  30
ENDBRANCH  28  29
ENDBRANCH  27  28
ENDBRANCH  26  27
ENDBRANCH  25  26
ENDBRANCH  24  25
ENDBRANCH  23  24
ENDBRANCH  22  23
ENDBRANCH  21  22
ENDBRANCH  20  21
ENDBRANCH  19  20
ENDBRANCH  18  19
ENDBRANCH   1  18
TORSDOF 28
ENDMDL
MODEL 7
REMARK VINA RESULT:    -4.946      2.498      4.921
REMARK INTER + INTRA:         -16.922
REMARK INTER:                 -13.146
REMARK INTRA:                  -3.776
REMARK UNBOUND:                -3.879
REMARK SMILES CCCCCCCCCCCCCCCCCCCCCCCCCCCCCC(=O)[O-]
REMARK SMILES IDX 16 1 17 2 18 3 19 4 20 5 21 6 22 7 23 8 24 9 25 10 26 11
REMARK SMILES IDX 27 12 28 13 29 14 30 15 31 16 32 17 15 18 14 19 13 20 12 21
REMARK SMILES IDX 11 22 10 23 9 24 8 25 7 26 6 27 5 28 4 29 3 30 2 31 1 32
REMARK H PARENT
REMARK Flexibility Score: inf
ROOT
ATOM      1  C   UNL     1     -14.117 -10.440  11.092  1.00  0.00     0.000 C 
ENDROOT
BRANCH   1   2
ATOM      2  C   UNL     1     -12.671 -10.828  11.441  1.00  0.00     0.000 C 
BRANCH   2   3
ATOM      3  C   UNL     1     -12.280 -12.215  10.903  1.00  0.00     0.000 C 
BRANCH   3   4
ATOM      4  C   UNL     1     -12.761 -12.451   9.459  1.00  0.00     0.000 C 
BRANCH   4   5
ATOM      5  C   UNL     1     -13.355 -13.847   9.183  1.00  0.00     0.000 C 
BRANCH   5   6
ATOM      6  C   UNL     1     -12.647 -14.660   8.083  1.00  0.00     0.000 C 
BRANCH   6   7
ATOM      7  C   UNL     1     -11.660 -15.696   8.649  1.00  0.00     0.000 C 
BRANCH   7   8
ATOM      8  C   UNL     1     -10.318 -15.076   9.082  1.00  0.00     0.000 C 
BRANCH   8   9
ATOM      9  C   UNL     1      -9.659 -14.139   8.054  1.00  0.00     0.000 C 
BRANCH   9  10
ATOM     10  C   UNL     1      -9.599 -12.675   8.527  1.00  0.00     0.000 C 
BRANCH  10  11
ATOM     11  C   UNL     1      -9.774 -11.665   7.377  1.00  0.00     0.000 C 
BRANCH  11  12
ATOM     12  C   UNL     1      -8.769 -10.495   7.365  1.00  0.00     0.000 C 
BRANCH  12  13
ATOM     13  C   UNL     1      -8.875  -9.528   8.556  1.00  0.00     0.006 C 
BRANCH  13  14
ATOM     14  C   UNL     1     -10.289  -9.463   9.148  1.00  0.00     0.053 C 
BRANCH  14  15
ATOM     15  C   UNL     1     -11.102  -8.423   8.444  1.00  0.00     0.041 C 
ATOM     16  O   UNL     1     -11.112  -7.236   8.865  1.00  0.00    -0.550 OA
ATOM     17  O   UNL     1     -11.806  -8.751   7.292  1.00  0.00    -0.550 OA
ENDBRANCH  14  15
ENDBRANCH  13  14
ENDBRANCH  12  13
ENDBRANCH  11  12
ENDBRANCH  10  11
ENDBRANCH   9  10
ENDBRANCH   8   9
ENDBRANCH   7   8
ENDBRANCH   6   7
ENDBRANCH   5   6
ENDBRANCH   4   5
ENDBRANCH   3   4
ENDBRANCH   2   3
ENDBRANCH   1   2
BRANCH   1  18
ATOM     18  C   UNL     1     -14.200  -9.170  10.227  1.00  0.00     0.000 C 
BRANCH  18  19
ATOM     19  C   UNL     1     -15.643  -8.664  10.048  1.00  0.00     0.000 C 
BRANCH  19  20
ATOM     20  C   UNL     1     -15.771  -7.191   9.606  1.00  0.00     0.000 C 
BRANCH  20  21
ATOM     21  C   UNL     1     -16.095  -6.981   8.114  1.00  0.00     0.000 C 
BRANCH  21  22
ATOM     22  C   UNL     1     -14.867  -6.924   7.182  1.00  0.00     0.000 C 
BRANCH  22  23
ATOM     23  C   UNL     1     -14.715  -5.615   6.382  1.00  0.00     0.000 C 
BRANCH  23  24
ATOM     24  C   UNL     1     -16.017  -4.820   6.184  1.00  0.00    -0.000 C 
BRANCH  24  25
ATOM     25  C   UNL     1     -15.787  -3.461   5.506  1.00  0.00    -0.000 C 
BRANCH  25  26
ATOM     26  C   UNL     1     -14.288  -3.191   5.312  1.00  0.00    -0.000 C 
BRANCH  26  27
ATOM     27  C   UNL     1     -13.856  -1.817   5.848  1.00  0.00    -0.000 C 
BRANCH  27  28
ATOM     28  C   UNL     1     -14.694  -1.361   7.051  1.00  0.00    -0.000 C 
BRANCH  28  29
ATOM     29  C   UNL     1     -13.894  -1.482   8.358  1.00  0.00    -0.000 C 
BRANCH  29  30
ATOM     30  C   UNL     1     -14.726  -2.058   9.518  1.00  0.00    -0.000 C 
BRANCH  30  31
ATOM     31  C   UNL     1     -14.816  -3.594   9.549  1.00  0.00    -0.003 C 
ATOM     32  C   UNL     1     -13.448  -4.274   9.560  1.00  0.00     0.004 C 
ENDBRANCH  30  31
ENDBRANCH  29  30
ENDBRANCH  28  29
ENDBRANCH  27  28
ENDBRANCH  26  27
ENDBRANCH  25  26
ENDBRANCH  24  25
ENDBRANCH  23  24
ENDBRANCH  22  23
ENDBRANCH  21  22
ENDBRANCH  20  21
ENDBRANCH  19  20
ENDBRANCH  18  19
ENDBRANCH   1  18
TORSDOF 28
ENDMDL
MODEL 8
REMARK VINA RESULT:    -4.919     12.748     15.893
REMARK INTER + INTRA:         -16.849
REMARK INTER:                 -12.377
REMARK INTRA:                  -4.473
REMARK UNBOUND:                -3.879
REMARK SMILES CCCCCCCCCCCCCCCCCCCCCCCCCCCCCC(=O)[O-]
REMARK SMILES IDX 16 1 17 2 18 3 19 4 20 5 21 6 22 7 23 8 24 9 25 10 26 11
REMARK SMILES IDX 27 12 28 13 29 14 30 15 31 16 32 17 15 18 14 19 13 20 12 21
REMARK SMILES IDX 11 22 10 23 9 24 8 25 7 26 6 27 5 28 4 29 3 30 2 31 1 32
REMARK H PARENT
REMARK Flexibility Score: inf
ROOT
ATOM      1  C   UNL     1      -4.859 -13.203  15.718  1.00  0.00     0.000 C 
ENDROOT
BRANCH   1   2
ATOM      2  C   UNL     1      -3.776 -12.499  16.552  1.00  0.00     0.000 C 
BRANCH   2   3
ATOM      3  C   UNL     1      -4.134 -12.418  18.046  1.00  0.00     0.000 C 
BRANCH   3   4
ATOM      4  C   UNL     1      -4.016 -13.777  18.760  1.00  0.00     0.000 C 
BRANCH   4   5
ATOM      5  C   UNL     1      -2.796 -14.630  18.354  1.00  0.00     0.000 C 
BRANCH   5   6
ATOM      6  C   UNL     1      -2.872 -16.117  18.745  1.00  0.00     0.000 C 
BRANCH   6   7
ATOM      7  C   UNL     1      -2.361 -17.052  17.635  1.00  0.00     0.000 C 
BRANCH   7   8
ATOM      8  C   UNL     1      -0.918 -17.535  17.871  1.00  0.00     0.000 C 
BRANCH   8   9
ATOM      9  C   UNL     1      -0.547 -17.822  19.338  1.00  0.00     0.000 C 
BRANCH   9  10
ATOM     10  C   UNL     1       0.781 -17.168  19.761  1.00  0.00     0.000 C 
BRANCH  10  11
ATOM     11  C   UNL     1       0.791 -15.642  19.557  1.00  0.00     0.000 C 
BRANCH  11  12
ATOM     12  C   UNL     1       2.107 -15.057  19.005  1.00  0.00     0.000 C 
BRANCH  12  13
ATOM     13  C   UNL     1       1.941 -13.960  17.940  1.00  0.00     0.006 C 
BRANCH  13  14
ATOM     14  C   UNL     1       0.474 -13.715  17.560  1.00  0.00     0.053 C 
BRANCH  14  15
ATOM     15  C   UNL     1       0.216 -14.167  16.158  1.00  0.00     0.041 C 
ATOM     16  O   UNL     1       0.699 -15.255  15.745  1.00  0.00    -0.550 OA
ATOM     17  O   UNL     1      -0.604 -13.418  15.324  1.00  0.00    -0.550 OA
ENDBRANCH  14  15
ENDBRANCH  13  14
ENDBRANCH  12  13
ENDBRANCH  11  12
ENDBRANCH  10  11
ENDBRANCH   9  10
ENDBRANCH   8   9
ENDBRANCH   7   8
ENDBRANCH   6   7
ENDBRANCH   5   6
ENDBRANCH   4   5
ENDBRANCH   3   4
ENDBRANCH   2   3
ENDBRANCH   1   2
BRANCH   1  18
ATOM     18  C   UNL     1      -4.400 -14.568  15.177  1.00  0.00     0.000 C 
BRANCH  18  19
ATOM     19  C   UNL     1      -5.451 -15.674  15.378  1.00  0.00     0.000 C 
BRANCH  19  20
ATOM     20  C   UNL     1      -6.230 -15.602  16.708  1.00  0.00     0.000 C 
BRANCH  20  21
ATOM     21  C   UNL     1      -6.241 -16.905  17.532  1.00  0.00     0.000 C 
BRANCH  21  22
ATOM     22  C   UNL     1      -5.817 -18.170  16.757  1.00  0.00     0.000 C 
BRANCH  22  23
ATOM     23  C   UNL     1      -6.932 -18.826  15.919  1.00  0.00     0.000 C 
BRANCH  23  24
ATOM     24  C   UNL     1      -8.331 -18.788  16.558  1.00  0.00    -0.000 C 
BRANCH  24  25
ATOM     25  C   UNL     1      -9.287 -17.824  15.839  1.00  0.00    -0.000 C 
BRANCH  25  26
ATOM     26  C   UNL     1     -10.313 -17.237  16.819  1.00  0.00    -0.000 C 
BRANCH  26  27
ATOM     27  C   UNL     1      -9.791 -17.178  18.264  1.00  0.00    -0.000 C 
BRANCH  27  28
ATOM     28  C   UNL     1     -10.831 -16.618  19.246  1.00  0.00    -0.000 C 
BRANCH  28  29
ATOM     29  C   UNL     1     -11.752 -17.732  19.769  1.00  0.00    -0.000 C 
BRANCH  29  30
ATOM     30  C   UNL     1     -13.203 -17.589  19.276  1.00  0.00    -0.000 C 
BRANCH  30  31
ATOM     31  C   UNL     1     -13.603 -18.559  18.149  1.00  0.00    -0.003 C 
ATOM     32  C   UNL     1     -13.991 -17.845  16.855  1.00  0.00     0.004 C 
ENDBRANCH  30  31
ENDBRANCH  29  30
ENDBRANCH  28  29
ENDBRANCH  27  28
ENDBRANCH  26  27
ENDBRANCH  25  26
ENDBRANCH  24  25
ENDBRANCH  23  24
ENDBRANCH  22  23
ENDBRANCH  21  22
ENDBRANCH  20  21
ENDBRANCH  19  20
ENDBRANCH  18  19
ENDBRANCH   1  18
TORSDOF 28
ENDMDL
MODEL 9
REMARK VINA RESULT:    -4.856     13.644     17.051
REMARK INTER + INTRA:         -16.684
REMARK INTER:                 -10.936
REMARK INTRA:                  -5.749
REMARK UNBOUND:                -3.879
REMARK SMILES CCCCCCCCCCCCCCCCCCCCCCCCCCCCCC(=O)[O-]
REMARK SMILES IDX 16 1 17 2 18 3 19 4 20 5 21 6 22 7 23 8 24 9 25 10 26 11
REMARK SMILES IDX 27 12 28 13 29 14 30 15 31 16 32 17 15 18 14 19 13 20 12 21
REMARK SMILES IDX 11 22 10 23 9 24 8 25 7 26 6 27 5 28 4 29 3 30 2 31 1 32
REMARK H PARENT
REMARK Flexibility Score: inf
ROOT
ATOM      1  C   UNL     1      -2.445 -13.572  14.903  1.00  0.00     0.000 C 
ENDROOT
BRANCH   1   2
ATOM      2  C   UNL     1      -1.068 -14.096  15.342  1.00  0.00     0.000 C 
BRANCH   2   3
ATOM      3  C   UNL     1      -0.448 -13.264  16.478  1.00  0.00     0.000 C 
BRANCH   3   4
ATOM      4  C   UNL     1       0.874 -12.590  16.069  1.00  0.00     0.000 C 
BRANCH   4   5
ATOM      5  C   UNL     1       2.088 -12.929  16.959  1.00  0.00     0.000 C 
BRANCH   5   6
ATOM      6  C   UNL     1       1.822 -13.958  18.073  1.00  0.00     0.000 C 
BRANCH   6   7
ATOM      7  C   UNL     1       3.115 -14.520  18.688  1.00  0.00     0.000 C 
BRANCH   7   8
ATOM      8  C   UNL     1       2.857 -15.611  19.744  1.00  0.00     0.000 C 
BRANCH   8   9
ATOM      9  C   UNL     1       1.409 -16.131  19.818  1.00  0.00     0.000 C 
BRANCH   9  10
ATOM     10  C   UNL     1       1.299 -17.643  19.554  1.00  0.00     0.000 C 
BRANCH  10  11
ATOM     11  C   UNL     1       2.097 -18.096  18.317  1.00  0.00     0.000 C 
BRANCH  11  12
ATOM     12  C   UNL     1       1.257 -18.372  17.052  1.00  0.00     0.000 C 
BRANCH  12  13
ATOM     13  C   UNL     1       0.914 -17.132  16.209  1.00  0.00     0.006 C 
BRANCH  13  14
ATOM     14  C   UNL     1       2.129 -16.562  15.466  1.00  0.00     0.053 C 
BRANCH  14  15
ATOM     15  C   UNL     1       2.035 -16.864  14.004  1.00  0.00     0.041 C 
ATOM     16  O   UNL     1       2.219 -15.951  13.156  1.00  0.00    -0.550 OA
ATOM     17  O   UNL     1       1.801 -18.164  13.574  1.00  0.00    -0.550 OA
ENDBRANCH  14  15
ENDBRANCH  13  14
ENDBRANCH  12  13
ENDBRANCH  11  12
ENDBRANCH  10  11
ENDBRANCH   9  10
ENDBRANCH   8   9
ENDBRANCH   7   8
ENDBRANCH   6   7
ENDBRANCH   5   6
ENDBRANCH   4   5
ENDBRANCH   3   4
ENDBRANCH   2   3
ENDBRANCH   1   2
BRANCH   1  18
ATOM     18  C   UNL     1      -3.584 -14.556  15.221  1.00  0.00     0.000 C 
BRANCH  18  19
ATOM     19  C   UNL     1      -4.604 -13.984  16.223  1.00  0.00     0.000 C 
BRANCH  19  20
ATOM     20  C   UNL     1      -4.112 -12.769  17.037  1.00  0.00     0.000 C 
BRANCH  20  21
ATOM     21  C   UNL     1      -3.814 -13.053  18.523  1.00  0.00     0.000 C 
BRANCH  21  22
ATOM     22  C   UNL     1      -4.430 -14.355  19.073  1.00  0.00     0.000 C 
BRANCH  22  23
ATOM     23  C   UNL     1      -3.412 -15.409  19.551  1.00  0.00     0.000 C 
BRANCH  23  24
ATOM     24  C   UNL     1      -2.156 -15.544  18.672  1.00  0.00    -0.000 C 
BRANCH  24  25
ATOM     25  C   UNL     1      -2.047 -16.920  17.998  1.00  0.00    -0.000 C 
BRANCH  25  26
ATOM     26  C   UNL     1      -3.425 -17.413  17.531  1.00  0.00    -0.000 C 
BRANCH  26  27
ATOM     27  C   UNL     1      -3.732 -18.846  17.992  1.00  0.00    -0.000 C 
BRANCH  27  28
ATOM     28  C   UNL     1      -5.029 -18.940  18.811  1.00  0.00    -0.000 C 
BRANCH  28  29
ATOM     29  C   UNL     1      -5.990 -17.794  18.454  1.00  0.00    -0.000 C 
BRANCH  29  30
ATOM     30  C   UNL     1      -7.265 -18.283  17.743  1.00  0.00    -0.000 C 
BRANCH  30  31
ATOM     31  C   UNL     1      -7.176 -18.318  16.207  1.00  0.00    -0.003 C 
ATOM     32  C   UNL     1      -6.550 -17.057  15.615  1.00  0.00     0.004 C 
ENDBRANCH  30  31
ENDBRANCH  29  30
ENDBRANCH  28  29
ENDBRANCH  27  28
ENDBRANCH  26  27
ENDBRANCH  25  26
ENDBRANCH  24  25
ENDBRANCH  23  24
ENDBRANCH  22  23
ENDBRANCH  21  22
ENDBRANCH  20  21
ENDBRANCH  19  20
ENDBRANCH  18  19
ENDBRANCH   1  18
TORSDOF 28
ENDMDL
