MODEL 1
REMARK VINA RESULT:    -2.205      0.000      0.000
REMARK INTER + INTRA:          -5.149
REMARK INTER:                  -4.782
REMARK INTRA:                  -0.367
REMARK UNBOUND:                -0.367
REMARK SMILES CCCCCCCCCCCCCCCCCCCCCC(=O)[O-]
REMARK SMILES IDX 12 1 11 2 10 3 9 4 8 5 7 6 6 7 5 8 4 9 3 10 2 11 1 12 13 13
REMARK SMILES IDX 14 14 15 15 16 16 17 17 18 18 19 19 20 20 21 21 22 22 23 23
REMARK SMILES IDX 24 24
REMARK H PARENT
REMARK Flexibility Score: inf
ROOT
ATOM      1  C   UNL     1      35.043  28.610  19.514  1.00  0.00     0.000 C 
ENDROOT
BRANCH   1   2
ATOM      2  C   UNL     1      36.183  28.419  20.529  1.00  0.00     0.000 C 
BRANCH   2   3
ATOM      3  C   UNL     1      36.301  26.969  21.029  1.00  0.00     0.000 C 
BRANCH   3   4
ATOM      4  C   UNL     1      36.589  26.895  22.538  1.00  0.00    -0.000 C 
BRANCH   4   5
ATOM      5  C   UNL     1      36.794  28.280  23.168  1.00  0.00    -0.000 C 
BRANCH   5   6
ATOM      6  C   UNL     1      35.520  29.125  23.049  1.00  0.00    -0.000 C 
BRANCH   6   7
ATOM      7  C   UNL     1      35.208  29.889  24.348  1.00  0.00    -0.000 C 
BRANCH   7   8
ATOM      8  C   UNL     1      36.486  30.250  25.125  1.00  0.00    -0.000 C 
BRANCH   8   9
ATOM      9  C   UNL     1      37.125  31.568  24.655  1.00  0.00    -0.000 C 
BRANCH   9  10
ATOM     10  C   UNL     1      36.130  32.743  24.641  1.00  0.00    -0.000 C 
BRANCH  10  11
ATOM     11  C   UNL     1      36.786  34.065  24.210  1.00  0.00    -0.003 C 
ATOM     12  C   UNL     1      36.229  35.275  24.960  1.00  0.00     0.004 C 
ENDBRANCH  10  11
ENDBRANCH   9  10
ENDBRANCH   8   9
ENDBRANCH   7   8
ENDBRANCH   6   7
ENDBRANCH   5   6
ENDBRANCH   4   5
ENDBRANCH   3   4
ENDBRANCH   2   3
ENDBRANCH   1   2
BRANCH   1  13
ATOM     13  C   UNL     1      35.554  29.034  18.126  1.00  0.00     0.000 C 
BRANCH  13  14
ATOM     14  C   UNL     1      36.706  28.132  17.660  1.00  0.00     0.000 C 
BRANCH  14  15
ATOM     15  C   UNL     1      36.400  27.406  16.337  1.00  0.00     0.000 C 
BRANCH  15  16
ATOM     16  C   UNL     1      34.919  27.023  16.129  1.00  0.00     0.000 C 
BRANCH  16  17
ATOM     17  C   UNL     1      34.477  26.876  14.660  1.00  0.00     0.000 C 
BRANCH  17  18
ATOM     18  C   UNL     1      35.447  27.480  13.630  1.00  0.00     0.000 C 
BRANCH  18  19
ATOM     19  C   UNL     1      34.979  27.264  12.182  1.00  0.00     0.000 C 
BRANCH  19  20
ATOM     20  C   UNL     1      34.038  28.378  11.687  1.00  0.00     0.006 C 
BRANCH  20  21
ATOM     21  C   UNL     1      34.098  29.670  12.519  1.00  0.00     0.053 C 
BRANCH  21  22
ATOM     22  C   UNL     1      32.767  30.021  13.111  1.00  0.00     0.041 C 
ATOM     23  O   UNL     1      32.246  31.145  12.881  1.00  0.00    -0.550 OA
ATOM     24  O   UNL     1      32.095  29.101  13.908  1.00  0.00    -0.550 OA
ENDBRANCH  21  22
ENDBRANCH  20  21
ENDBRANCH  19  20
ENDBRANCH  18  19
ENDBRANCH  17  18
ENDBRANCH  16  17
ENDBRANCH  15  16
ENDBRANCH  14  15
ENDBRANCH  13  14
ENDBRANCH   1  13
TORSDOF 20
ENDMDL
MODEL 2
REMARK VINA RESULT:    -1.592      3.430     10.048
REMARK INTER + INTRA:          -3.820
REMARK INTER:                  -3.310
REMARK INTRA:                  -0.510
REMARK UNBOUND:                -0.367
REMARK SMILES CCCCCCCCCCCCCCCCCCCCCC(=O)[O-]
REMARK SMILES IDX 12 1 11 2 10 3 9 4 8 5 7 6 6 7 5 8 4 9 3 10 2 11 1 12 13 13
REMARK SMILES IDX 14 14 15 15 16 16 17 17 18 18 19 19 20 20 21 21 22 22 23 23
REMARK SMILES IDX 24 24
REMARK H PARENT
REMARK Flexibility Score: inf
ROOT
ATOM      1  C   UNL     1      35.952  27.496  15.384  1.00  0.00     0.000 C 
ENDROOT
BRANCH   1   2
ATOM      2  C   UNL     1      37.093  26.875  14.561  1.00  0.00     0.000 C 
BRANCH   2   3
ATOM      3  C   UNL     1      36.837  26.933  13.045  1.00  0.00     0.000 C 
BRANCH   3   4
ATOM      4  C   UNL     1      35.358  27.196  12.714  1.00  0.00    -0.000 C 
BRANCH   4   5
ATOM      5  C   UNL     1      35.014  26.875  11.253  1.00  0.00    -0.000 C 
BRANCH   5   6
ATOM      6  C   UNL     1      33.634  27.434  10.884  1.00  0.00    -0.000 C 
BRANCH   6   7
ATOM      7  C   UNL     1      33.318  28.739  11.635  1.00  0.00    -0.000 C 
BRANCH   7   8
ATOM      8  C   UNL     1      32.667  28.472  13.004  1.00  0.00    -0.000 C 
BRANCH   8   9
ATOM      9  C   UNL     1      32.070  29.738  13.644  1.00  0.00    -0.000 C 
BRANCH   9  10
ATOM     10  C   UNL     1      32.522  31.033  12.944  1.00  0.00    -0.000 C 
BRANCH  10  11
ATOM     11  C   UNL     1      31.581  32.215  13.228  1.00  0.00    -0.003 C 
ATOM     12  C   UNL     1      30.406  32.283  12.252  1.00  0.00     0.004 C 
ENDBRANCH  10  11
ENDBRANCH   9  10
ENDBRANCH   8   9
ENDBRANCH   7   8
ENDBRANCH   6   7
ENDBRANCH   5   6
ENDBRANCH   4   5
ENDBRANCH   3   4
ENDBRANCH   2   3
ENDBRANCH   1   2
BRANCH   1  13
ATOM     13  C   UNL     1      36.282  27.574  16.885  1.00  0.00     0.000 C 
BRANCH  13  14
ATOM     14  C   UNL     1      35.648  28.815  17.528  1.00  0.00     0.000 C 
BRANCH  14  15
ATOM     15  C   UNL     1      35.845  28.864  19.055  1.00  0.00     0.000 C 
BRANCH  15  16
ATOM     16  C   UNL     1      35.631  27.521  19.784  1.00  0.00     0.000 C 
BRANCH  16  17
ATOM     17  C   UNL     1      35.326  27.632  21.292  1.00  0.00     0.000 C 
BRANCH  17  18
ATOM     18  C   UNL     1      36.537  27.411  22.213  1.00  0.00     0.000 C 
BRANCH  18  19
ATOM     19  C   UNL     1      36.252  27.813  23.669  1.00  0.00     0.000 C 
BRANCH  19  20
ATOM     20  C   UNL     1      36.617  29.279  23.966  1.00  0.00     0.006 C 
BRANCH  20  21
ATOM     21  C   UNL     1      36.780  30.155  22.712  1.00  0.00     0.053 C 
BRANCH  21  22
ATOM     22  C   UNL     1      36.662  31.616  23.025  1.00  0.00     0.041 C 
ATOM     23  O   UNL     1      37.117  32.475  22.224  1.00  0.00    -0.550 OA
ATOM     24  O   UNL     1      36.037  32.028  24.197  1.00  0.00    -0.550 OA
ENDBRANCH  21  22
ENDBRANCH  20  21
ENDBRANCH  19  20
ENDBRANCH  18  19
ENDBRANCH  17  18
ENDBRANCH  16  17
ENDBRANCH  15  16
ENDBRANCH  14  15
ENDBRANCH  13  14
ENDBRANCH   1  13
TORSDOF 20
ENDMDL
MODEL 3
REMARK VINA RESULT:    -1.252      1.148      2.256
REMARK INTER + INTRA:          -3.083
REMARK INTER:                  -4.811
REMARK INTRA:                   1.728
REMARK UNBOUND:                -0.367
REMARK SMILES CCCCCCCCCCCCCCCCCCCCCC(=O)[O-]
REMARK SMILES IDX 12 1 11 2 10 3 9 4 8 5 7 6 6 7 5 8 4 9 3 10 2 11 1 12 13 13
REMARK SMILES IDX 14 14 15 15 16 16 17 17 18 18 19 19 20 20 21 21 22 22 23 23
REMARK SMILES IDX 24 24
REMARK H PARENT
REMARK Flexibility Score: inf
ROOT
ATOM      1  C   UNL     1      36.561  29.470  20.352  1.00  0.00     0.000 C 
ENDROOT
BRANCH   1   2
ATOM      2  C   UNL     1      36.859  30.439  21.509  1.00  0.00     0.000 C 
BRANCH   2   3
ATOM      3  C   UNL     1      37.107  29.717  22.845  1.00  0.00     0.000 C 
BRANCH   3   4
ATOM      4  C   UNL     1      35.875  28.923  23.314  1.00  0.00    -0.000 C 
BRANCH   4   5
ATOM      5  C   UNL     1      34.723  29.833  23.763  1.00  0.00    -0.000 C 
BRANCH   5   6
ATOM      6  C   UNL     1      35.077  30.554  25.069  1.00  0.00    -0.000 C 
BRANCH   6   7
ATOM      7  C   UNL     1      36.541  31.029  25.090  1.00  0.00    -0.000 C 
BRANCH   7   8
ATOM      8  C   UNL     1      36.743  32.307  24.259  1.00  0.00    -0.000 C 
BRANCH   8   9
ATOM      9  C   UNL     1      36.949  33.563  25.125  1.00  0.00    -0.000 C 
BRANCH   9  10
ATOM     10  C   UNL     1      36.512  34.857  24.416  1.00  0.00    -0.000 C 
BRANCH  10  11
ATOM     11  C   UNL     1      37.103  36.116  25.072  1.00  0.00    -0.003 C 
ATOM     12  C   UNL     1      36.441  37.404  24.583  1.00  0.00     0.004 C 
ENDBRANCH  10  11
ENDBRANCH   9  10
ENDBRANCH   8   9
ENDBRANCH   7   8
ENDBRANCH   6   7
ENDBRANCH   5   6
ENDBRANCH   4   5
ENDBRANCH   3   4
ENDBRANCH   2   3
ENDBRANCH   1   2
BRANCH   1  13
ATOM     13  C   UNL     1      35.521  28.401  20.732  1.00  0.00     0.000 C 
BRANCH  13  14
ATOM     14  C   UNL     1      35.007  27.662  19.489  1.00  0.00     0.000 C 
BRANCH  14  15
ATOM     15  C   UNL     1      35.461  28.318  18.172  1.00  0.00     0.000 C 
BRANCH  15  16
ATOM     16  C   UNL     1      36.666  27.640  17.485  1.00  0.00     0.000 C 
BRANCH  16  17
ATOM     17  C   UNL     1      36.351  26.927  16.155  1.00  0.00     0.000 C 
BRANCH  17  18
ATOM     18  C   UNL     1      36.524  27.798  14.899  1.00  0.00     0.000 C 
BRANCH  18  19
ATOM     19  C   UNL     1      36.139  27.056  13.609  1.00  0.00     0.000 C 
BRANCH  19  20
ATOM     20  C   UNL     1      34.628  27.112  13.317  1.00  0.00     0.006 C 
BRANCH  20  21
ATOM     21  C   UNL     1      34.155  28.434  12.689  1.00  0.00     0.053 C 
BRANCH  21  22
ATOM     22  C   UNL     1      33.302  29.231  13.629  1.00  0.00     0.041 C 
ATOM     23  O   UNL     1      33.251  28.929  14.851  1.00  0.00    -0.550 OA
ATOM     24  O   UNL     1      32.574  30.317  13.156  1.00  0.00    -0.550 OA
ENDBRANCH  21  22
ENDBRANCH  20  21
ENDBRANCH  19  20
ENDBRANCH  18  19
ENDBRANCH  17  18
ENDBRANCH  16  17
ENDBRANCH  15  16
ENDBRANCH  14  15
ENDBRANCH  13  14
ENDBRANCH   1  13
TORSDOF 20
ENDMDL
MODEL 4
REMARK VINA RESULT:    -1.101      1.975      3.670
REMARK INTER + INTRA:          -2.754
REMARK INTER:                  -2.318
REMARK INTRA:                  -0.437
REMARK UNBOUND:                -0.367
REMARK SMILES CCCCCCCCCCCCCCCCCCCCCC(=O)[O-]
REMARK SMILES IDX 12 1 11 2 10 3 9 4 8 5 7 6 6 7 5 8 4 9 3 10 2 11 1 12 13 13
REMARK SMILES IDX 14 14 15 15 16 16 17 17 18 18 19 19 20 20 21 21 22 22 23 23
REMARK SMILES IDX 24 24
REMARK H PARENT
REMARK Flexibility Score: inf
ROOT
ATOM      1  C   UNL     1      36.267  27.624  16.424  1.00  0.00     0.000 C 
ENDROOT
BRANCH   1   2
ATOM      2  C   UNL     1      37.045  28.578  17.347  1.00  0.00     0.000 C 
BRANCH   2   3
ATOM      3  C   UNL     1      36.125  29.438  18.230  1.00  0.00     0.000 C 
BRANCH   3   4
ATOM      4  C   UNL     1      34.824  28.705  18.601  1.00  0.00    -0.000 C 
BRANCH   4   5
ATOM      5  C   UNL     1      34.346  29.034  20.023  1.00  0.00    -0.000 C 
BRANCH   5   6
ATOM      6  C   UNL     1      35.521  29.017  21.008  1.00  0.00    -0.000 C 
BRANCH   6   7
ATOM      7  C   UNL     1      35.916  27.586  21.414  1.00  0.00    -0.000 C 
BRANCH   7   8
ATOM      8  C   UNL     1      36.455  27.524  22.853  1.00  0.00    -0.000 C 
BRANCH   8   9
ATOM      9  C   UNL     1      37.125  28.834  23.303  1.00  0.00    -0.000 C 
BRANCH   9  10
ATOM     10  C   UNL     1      36.126  29.842  23.901  1.00  0.00    -0.000 C 
BRANCH  10  11
ATOM     11  C   UNL     1      35.369  29.273  25.112  1.00  0.00    -0.003 C 
ATOM     12  C   UNL     1      33.878  29.078  24.839  1.00  0.00     0.004 C 
ENDBRANCH  10  11
ENDBRANCH   9  10
ENDBRANCH   8   9
ENDBRANCH   7   8
ENDBRANCH   6   7
ENDBRANCH   5   6
ENDBRANCH   4   5
ENDBRANCH   3   4
ENDBRANCH   2   3
ENDBRANCH   1   2
BRANCH   1  13
ATOM     13  C   UNL     1      36.658  27.787  14.944  1.00  0.00     0.000 C 
BRANCH  13  14
ATOM     14  C   UNL     1      35.674  27.047  14.027  1.00  0.00     0.000 C 
BRANCH  14  15
ATOM     15  C   UNL     1      36.183  26.926  12.578  1.00  0.00     0.000 C 
BRANCH  15  16
ATOM     16  C   UNL     1      35.082  26.941  11.496  1.00  0.00     0.000 C 
BRANCH  16  17
ATOM     17  C   UNL     1      33.963  27.981  11.708  1.00  0.00     0.000 C 
BRANCH  17  18
ATOM     18  C   UNL     1      33.022  27.685  12.888  1.00  0.00     0.000 C 
BRANCH  18  19
ATOM     19  C   UNL     1      32.219  28.920  13.326  1.00  0.00     0.000 C 
BRANCH  19  20
ATOM     20  C   UNL     1      32.968  30.241  13.068  1.00  0.00     0.006 C 
BRANCH  20  21
ATOM     21  C   UNL     1      32.253  31.488  13.615  1.00  0.00     0.053 C 
BRANCH  21  22
ATOM     22  C   UNL     1      31.117  31.917  12.737  1.00  0.00     0.041 C 
ATOM     23  O   UNL     1      31.125  33.057  12.200  1.00  0.00    -0.550 OA
ATOM     24  O   UNL     1      30.055  31.051  12.500  1.00  0.00    -0.550 OA
ENDBRANCH  21  22
ENDBRANCH  20  21
ENDBRANCH  19  20
ENDBRANCH  18  19
ENDBRANCH  17  18
ENDBRANCH  16  17
ENDBRANCH  15  16
ENDBRANCH  14  15
ENDBRANCH  13  14
ENDBRANCH   1  13
TORSDOF 20
ENDMDL
MODEL 5
REMARK VINA RESULT:    -0.829      3.981     10.336
REMARK INTER + INTRA:          -2.165
REMARK INTER:                  -1.162
REMARK INTRA:                  -1.003
REMARK UNBOUND:                -0.367
REMARK SMILES CCCCCCCCCCCCCCCCCCCCCC(=O)[O-]
REMARK SMILES IDX 12 1 11 2 10 3 9 4 8 5 7 6 6 7 5 8 4 9 3 10 2 11 1 12 13 13
REMARK SMILES IDX 14 14 15 15 16 16 17 17 18 18 19 19 20 20 21 21 22 22 23 23
REMARK SMILES IDX 24 24
REMARK H PARENT
REMARK Flexibility Score: inf
ROOT
ATOM      1  C   UNL     1      35.859  27.935  15.289  1.00  0.00     0.000 C 
ENDROOT
BRANCH   1   2
ATOM      2  C   UNL     1      36.099  26.937  14.144  1.00  0.00     0.000 C 
BRANCH   2   3
ATOM      3  C   UNL     1      35.928  27.572  12.753  1.00  0.00     0.000 C 
BRANCH   3   4
ATOM      4  C   UNL     1      34.732  26.982  11.987  1.00  0.00    -0.000 C 
BRANCH   4   5
ATOM      5  C   UNL     1      33.692  28.045  11.606  1.00  0.00    -0.000 C 
BRANCH   5   6
ATOM      6  C   UNL     1      33.761  29.240  12.566  1.00  0.00    -0.000 C 
BRANCH   6   7
ATOM      7  C   UNL     1      32.795  29.086  13.753  1.00  0.00    -0.000 C 
BRANCH   7   8
ATOM      8  C   UNL     1      31.684  30.150  13.732  1.00  0.00    -0.000 C 
BRANCH   8   9
ATOM      9  C   UNL     1      32.114  31.457  13.044  1.00  0.00    -0.000 C 
BRANCH   9  10
ATOM     10  C   UNL     1      30.929  32.238  12.447  1.00  0.00    -0.000 C 
BRANCH  10  11
ATOM     11  C   UNL     1      29.661  31.377  12.322  1.00  0.00    -0.003 C 
ATOM     12  C   UNL     1      28.480  32.146  11.730  1.00  0.00     0.004 C 
ENDBRANCH  10  11
ENDBRANCH   9  10
ENDBRANCH   8   9
ENDBRANCH   7   8
ENDBRANCH   6   7
ENDBRANCH   5   6
ENDBRANCH   4   5
ENDBRANCH   3   4
ENDBRANCH   2   3
ENDBRANCH   1   2
BRANCH   1  13
ATOM     13  C   UNL     1      35.544  27.236  16.624  1.00  0.00     0.000 C 
BRANCH  13  14
ATOM     14  C   UNL     1      35.640  28.218  17.800  1.00  0.00     0.000 C 
BRANCH  14  15
ATOM     15  C   UNL     1      34.565  27.972  18.874  1.00  0.00     0.000 C 
BRANCH  15  16
ATOM     16  C   UNL     1      34.009  29.245  19.546  1.00  0.00     0.000 C 
BRANCH  16  17
ATOM     17  C   UNL     1      34.829  29.772  20.741  1.00  0.00     0.000 C 
BRANCH  17  18
ATOM     18  C   UNL     1      35.115  28.730  21.836  1.00  0.00     0.000 C 
BRANCH  18  19
ATOM     19  C   UNL     1      36.584  28.740  22.290  1.00  0.00     0.000 C 
BRANCH  19  20
ATOM     20  C   UNL     1      36.797  29.512  23.605  1.00  0.00     0.006 C 
BRANCH  20  21
ATOM     21  C   UNL     1      36.457  28.707  24.871  1.00  0.00     0.053 C 
BRANCH  21  22
ATOM     22  C   UNL     1      34.991  28.414  24.976  1.00  0.00     0.041 C 
ATOM     23  O   UNL     1      34.590  27.228  25.116  1.00  0.00    -0.550 OA
ATOM     24  O   UNL     1      34.069  29.454  24.933  1.00  0.00    -0.550 OA
ENDBRANCH  21  22
ENDBRANCH  20  21
ENDBRANCH  19  20
ENDBRANCH  18  19
ENDBRANCH  17  18
ENDBRANCH  16  17
ENDBRANCH  15  16
ENDBRANCH  14  15
ENDBRANCH  13  14
ENDBRANCH   1  13
TORSDOF 20
ENDMDL
MODEL 6
REMARK VINA RESULT:    -0.441      3.578     10.007
REMARK INTER + INTRA:          -1.323
REMARK INTER:                   0.391
REMARK INTRA:                  -1.714
REMARK UNBOUND:                -0.367
REMARK SMILES CCCCCCCCCCCCCCCCCCCCCC(=O)[O-]
REMARK SMILES IDX 12 1 11 2 10 3 9 4 8 5 7 6 6 7 5 8 4 9 3 10 2 11 1 12 13 13
REMARK SMILES IDX 14 14 15 15 16 16 17 17 18 18 19 19 20 20 21 21 22 22 23 23
REMARK SMILES IDX 24 24
REMARK H PARENT
REMARK Flexibility Score: inf
ROOT
ATOM      1  C   UNL     1      36.023  27.803  14.894  1.00  0.00     0.000 C 
ENDROOT
BRANCH   1   2
ATOM      2  C   UNL     1      36.215  26.875  13.682  1.00  0.00     0.000 C 
BRANCH   2   3
ATOM      3  C   UNL     1      36.027  27.599  12.338  1.00  0.00     0.000 C 
BRANCH   3   4
ATOM      4  C   UNL     1      34.905  26.973  11.492  1.00  0.00    -0.000 C 
BRANCH   4   5
ATOM      5  C   UNL     1      33.570  27.715  11.638  1.00  0.00    -0.000 C 
BRANCH   5   6
ATOM      6  C   UNL     1      32.953  27.457  13.018  1.00  0.00    -0.000 C 
BRANCH   6   7
ATOM      7  C   UNL     1      32.667  28.764  13.779  1.00  0.00    -0.000 C 
BRANCH   7   8
ATOM      8  C   UNL     1      33.443  29.954  13.190  1.00  0.00    -0.000 C 
BRANCH   8   9
ATOM      9  C   UNL     1      32.643  31.268  13.218  1.00  0.00    -0.000 C 
BRANCH   9  10
ATOM     10  C   UNL     1      31.506  31.299  12.179  1.00  0.00    -0.000 C 
BRANCH  10  11
ATOM     11  C   UNL     1      30.317  32.160  12.634  1.00  0.00    -0.003 C 
ATOM     12  C   UNL     1      28.991  31.708  12.023  1.00  0.00     0.004 C 
ENDBRANCH  10  11
ENDBRANCH   9  10
ENDBRANCH   8   9
ENDBRANCH   7   8
ENDBRANCH   6   7
ENDBRANCH   5   6
ENDBRANCH   4   5
ENDBRANCH   3   4
ENDBRANCH   2   3
ENDBRANCH   1   2
BRANCH   1  13
ATOM     13  C   UNL     1      35.379  27.083  16.091  1.00  0.00     0.000 C 
BRANCH  13  14
ATOM     14  C   UNL     1      36.231  27.243  17.358  1.00  0.00     0.000 C 
BRANCH  14  15
ATOM     15  C   UNL     1      35.663  28.291  18.333  1.00  0.00     0.000 C 
BRANCH  15  16
ATOM     16  C   UNL     1      36.705  29.262  18.928  1.00  0.00     0.000 C 
BRANCH  16  17
ATOM     17  C   UNL     1      37.089  28.997  20.398  1.00  0.00     0.000 C 
BRANCH  17  18
ATOM     18  C   UNL     1      36.841  27.558  20.880  1.00  0.00     0.000 C 
BRANCH  18  19
ATOM     19  C   UNL     1      35.900  27.496  22.094  1.00  0.00     0.000 C 
BRANCH  19  20
ATOM     20  C   UNL     1      35.204  28.840  22.379  1.00  0.00     0.006 C 
BRANCH  20  21
ATOM     21  C   UNL     1      35.432  29.379  23.801  1.00  0.00     0.053 C 
BRANCH  21  22
ATOM     22  C   UNL     1      36.260  30.629  23.804  1.00  0.00     0.041 C 
ATOM     23  O   UNL     1      36.211  31.424  22.829  1.00  0.00    -0.550 OA
ATOM     24  O   UNL     1      37.075  30.921  24.892  1.00  0.00    -0.550 OA
ENDBRANCH  21  22
ENDBRANCH  20  21
ENDBRANCH  19  20
ENDBRANCH  18  19
ENDBRANCH  17  18
ENDBRANCH  16  17
ENDBRANCH  15  16
ENDBRANCH  14  15
ENDBRANCH  13  14
ENDBRANCH   1  13
TORSDOF 20
ENDMDL
