MODEL 1
REMARK VINA RESULT:    -3.600      0.000      0.000
REMARK INTER + INTRA:          -5.588
REMARK INTER:                  -5.284
REMARK INTRA:                  -0.304
REMARK UNBOUND:                -0.304
REMARK SMILES O=C([O-])CCCCCCCC(=O)[O-]
REMARK SMILES IDX 7 1 6 2 5 3 4 4 2 5 1 6 3 7 8 8 9 9 10 10 11 11 12 12 13 13
REMARK H PARENT
REMARK Flexibility Score: inf
ROOT
ATOM      1  C   UNL     1      27.009 159.669 117.059  1.00  0.00     0.000 C 
ENDROOT
BRANCH   1   2
ATOM      2  C   UNL     1      25.752 158.981 117.614  1.00  0.00     0.000 C 
BRANCH   2   3
ATOM      3  C   UNL     1      26.039 158.319 118.967  1.00  0.00     0.006 C 
BRANCH   3   4
ATOM      4  C   UNL     1      25.429 156.917 119.032  1.00  0.00     0.053 C 
BRANCH   4   5
ATOM      5  C   UNL     1      26.316 155.995 119.809  1.00  0.00     0.041 C 
ATOM      6  O   UNL     1      27.131 156.460 120.649  1.00  0.00    -0.550 OA
ATOM      7  O   UNL     1      26.207 154.621 119.643  1.00  0.00    -0.550 OA
ENDBRANCH   4   5
ENDBRANCH   3   4
ENDBRANCH   2   3
ENDBRANCH   1   2
BRANCH   1   8
ATOM      8  C   UNL     1      28.100 159.876 118.125  1.00  0.00     0.000 C 
BRANCH   8   9
ATOM      9  C   UNL     1      29.495 160.216 117.570  1.00  0.00     0.006 C 
BRANCH   9  10
ATOM     10  C   UNL     1      30.506 160.566 118.669  1.00  0.00     0.053 C 
BRANCH  10  11
ATOM     11  C   UNL     1      31.834 159.943 118.376  1.00  0.00     0.041 C 
ATOM     12  O   UNL     1      32.401 159.225 119.242  1.00  0.00    -0.550 OA
ATOM     13  O   UNL     1      32.470 160.196 117.168  1.00  0.00    -0.550 OA
ENDBRANCH  10  11
ENDBRANCH   9  10
ENDBRANCH   8   9
ENDBRANCH   1   8
TORSDOF 8
ENDMDL
MODEL 2
REMARK VINA RESULT:    -3.535      1.031      6.008
REMARK INTER + INTRA:          -5.492
REMARK INTER:                  -5.067
REMARK INTRA:                  -0.425
REMARK UNBOUND:                -0.304
REMARK SMILES O=C([O-])CCCCCCCC(=O)[O-]
REMARK SMILES IDX 7 1 6 2 5 3 4 4 2 5 1 6 3 7 8 8 9 9 10 10 11 11 12 12 13 13
REMARK H PARENT
REMARK Flexibility Score: inf
ROOT
ATOM      1  C   UNL     1      27.860 160.274 117.196  1.00  0.00     0.000 C 
ENDROOT
BRANCH   1   2
ATOM      2  C   UNL     1      28.152 159.879 118.652  1.00  0.00     0.000 C 
BRANCH   2   3
ATOM      3  C   UNL     1      29.655 159.941 118.948  1.00  0.00     0.006 C 
BRANCH   3   4
ATOM      4  C   UNL     1      30.451 160.268 117.681  1.00  0.00     0.053 C 
BRANCH   4   5
ATOM      5  C   UNL     1      31.920 160.156 117.941  1.00  0.00     0.041 C 
ATOM      6  O   UNL     1      32.739 160.228 116.987  1.00  0.00    -0.550 OA
ATOM      7  O   UNL     1      32.388 160.025 119.242  1.00  0.00    -0.550 OA
ENDBRANCH   4   5
ENDBRANCH   3   4
ENDBRANCH   2   3
ENDBRANCH   1   2
BRANCH   1   8
ATOM      8  C   UNL     1      26.579 159.625 116.643  1.00  0.00     0.000 C 
BRANCH   8   9
ATOM      9  C   UNL     1      25.658 158.996 117.703  1.00  0.00     0.006 C 
BRANCH   9  10
ATOM     10  C   UNL     1      25.543 157.472 117.568  1.00  0.00     0.053 C 
BRANCH  10  11
ATOM     11  C   UNL     1      25.571 156.823 118.916  1.00  0.00     0.041 C 
ATOM     12  O   UNL     1      25.375 157.509 119.953  1.00  0.00    -0.550 OA
ATOM     13  O   UNL     1      25.864 155.470 119.030  1.00  0.00    -0.550 OA
ENDBRANCH  10  11
ENDBRANCH   9  10
ENDBRANCH   8   9
ENDBRANCH   1   8
TORSDOF 8
ENDMDL
MODEL 3
REMARK VINA RESULT:    -3.506      2.742      3.763
REMARK INTER + INTRA:          -5.450
REMARK INTER:                  -4.926
REMARK INTRA:                  -0.524
REMARK UNBOUND:                -0.304
REMARK SMILES O=C([O-])CCCCCCCC(=O)[O-]
REMARK SMILES IDX 7 1 6 2 5 3 4 4 2 5 1 6 3 7 8 8 9 9 10 10 11 11 12 12 13 13
REMARK H PARENT
REMARK Flexibility Score: inf
ROOT
ATOM      1  C   UNL     1      25.530 156.995 117.950  1.00  0.00     0.000 C 
ENDROOT
BRANCH   1   2
ATOM      2  C   UNL     1      25.372 156.925 119.477  1.00  0.00     0.000 C 
BRANCH   2   3
ATOM      3  C   UNL     1      26.329 155.891 120.082  1.00  0.00     0.006 C 
BRANCH   3   4
ATOM      4  C   UNL     1      26.635 156.218 121.546  1.00  0.00     0.053 C 
BRANCH   4   5
ATOM      5  C   UNL     1      27.634 157.328 121.637  1.00  0.00     0.041 C 
ATOM      6  O   UNL     1      28.851 157.106 121.403  1.00  0.00    -0.550 OA
ATOM      7  O   UNL     1      27.215 158.619 121.931  1.00  0.00    -0.550 OA
ENDBRANCH   4   5
ENDBRANCH   3   4
ENDBRANCH   2   3
ENDBRANCH   1   2
BRANCH   1   8
ATOM      8  C   UNL     1      25.772 158.425 117.436  1.00  0.00     0.000 C 
BRANCH   8   9
ATOM      9  C   UNL     1      26.602 159.321 118.373  1.00  0.00     0.006 C 
BRANCH   9  10
ATOM     10  C   UNL     1      27.872 159.867 117.709  1.00  0.00     0.053 C 
BRANCH  10  11
ATOM     11  C   UNL     1      27.529 160.623 116.464  1.00  0.00     0.041 C 
ATOM     12  O   UNL     1      26.870 161.694 116.535  1.00  0.00    -0.550 OA
ATOM     13  O   UNL     1      27.892 160.119 115.222  1.00  0.00    -0.550 OA
ENDBRANCH  10  11
ENDBRANCH   9  10
ENDBRANCH   8   9
ENDBRANCH   1   8
TORSDOF 8
ENDMDL
MODEL 4
REMARK VINA RESULT:    -3.485      2.119      3.165
REMARK INTER + INTRA:          -5.418
REMARK INTER:                  -5.064
REMARK INTRA:                  -0.354
REMARK UNBOUND:                -0.304
REMARK SMILES O=C([O-])CCCCCCCC(=O)[O-]
REMARK SMILES IDX 7 1 6 2 5 3 4 4 2 5 1 6 3 7 8 8 9 9 10 10 11 11 12 12 13 13
REMARK H PARENT
REMARK Flexibility Score: inf
ROOT
ATOM      1  C   UNL     1      29.607 160.135 118.264  1.00  0.00     0.000 C 
ENDROOT
BRANCH   1   2
ATOM      2  C   UNL     1      28.686 160.175 117.035  1.00  0.00     0.000 C 
BRANCH   2   3
ATOM      3  C   UNL     1      27.214 160.277 117.455  1.00  0.00     0.006 C 
BRANCH   3   4
ATOM      4  C   UNL     1      26.380 159.173 116.800  1.00  0.00     0.053 C 
BRANCH   4   5
ATOM      5  C   UNL     1      25.992 158.140 117.811  1.00  0.00     0.041 C 
ATOM      6  O   UNL     1      26.287 158.300 119.024  1.00  0.00    -0.550 OA
ATOM      7  O   UNL     1      25.262 157.025 117.421  1.00  0.00    -0.550 OA
ENDBRANCH   4   5
ENDBRANCH   3   4
ENDBRANCH   2   3
ENDBRANCH   1   2
BRANCH   1   8
ATOM      8  C   UNL     1      31.099 160.235 117.901  1.00  0.00     0.000 C 
BRANCH   8   9
ATOM      9  C   UNL     1      32.069 159.764 118.999  1.00  0.00     0.006 C 
BRANCH   9  10
ATOM     10  C   UNL     1      31.351 159.282 120.265  1.00  0.00     0.053 C 
BRANCH  10  11
ATOM     11  C   UNL     1      31.838 157.923 120.659  1.00  0.00     0.041 C 
ATOM     12  O   UNL     1      33.009 157.561 120.367  1.00  0.00    -0.550 OA
ATOM     13  O   UNL     1      30.984 157.037 121.302  1.00  0.00    -0.550 OA
ENDBRANCH  10  11
ENDBRANCH   9  10
ENDBRANCH   8   9
ENDBRANCH   1   8
TORSDOF 8
ENDMDL
MODEL 5
REMARK VINA RESULT:    -3.437      2.547      3.995
REMARK INTER + INTRA:          -5.348
REMARK INTER:                  -4.756
REMARK INTRA:                  -0.592
REMARK UNBOUND:                -0.304
REMARK SMILES O=C([O-])CCCCCCCC(=O)[O-]
REMARK SMILES IDX 7 1 6 2 5 3 4 4 2 5 1 6 3 7 8 8 9 9 10 10 11 11 12 12 13 13
REMARK H PARENT
REMARK Flexibility Score: inf
ROOT
ATOM      1  C   UNL     1      25.282 156.769 119.298  1.00  0.00     0.000 C 
ENDROOT
BRANCH   1   2
ATOM      2  C   UNL     1      26.226 155.707 119.884  1.00  0.00     0.000 C 
BRANCH   2   3
ATOM      3  C   UNL     1      26.584 156.032 121.339  1.00  0.00     0.006 C 
BRANCH   3   4
ATOM      4  C   UNL     1      26.992 157.500 121.489  1.00  0.00     0.053 C 
BRANCH   4   5
ATOM      5  C   UNL     1      28.482 157.634 121.465  1.00  0.00     0.041 C 
ATOM      6  O   UNL     1      29.208 156.721 121.939  1.00  0.00    -0.550 OA
ATOM      7  O   UNL     1      29.071 158.745 120.874  1.00  0.00    -0.550 OA
ENDBRANCH   4   5
ENDBRANCH   3   4
ENDBRANCH   2   3
ENDBRANCH   1   2
BRANCH   1   8
ATOM      8  C   UNL     1      25.549 157.055 117.810  1.00  0.00     0.000 C 
BRANCH   8   9
ATOM      9  C   UNL     1      25.734 158.542 117.456  1.00  0.00     0.006 C 
BRANCH   9  10
ATOM     10  C   UNL     1      26.863 159.210 118.251  1.00  0.00     0.053 C 
BRANCH  10  11
ATOM     11  C   UNL     1      27.767 159.973 117.335  1.00  0.00     0.041 C 
ATOM     12  O   UNL     1      27.304 160.519 116.299  1.00  0.00    -0.550 OA
ATOM     13  O   UNL     1      29.129 160.038 117.597  1.00  0.00    -0.550 OA
ENDBRANCH  10  11
ENDBRANCH   9  10
ENDBRANCH   8   9
ENDBRANCH   1   8
TORSDOF 8
ENDMDL
MODEL 6
REMARK VINA RESULT:    -3.365      1.625      5.731
REMARK INTER + INTRA:          -5.243
REMARK INTER:                  -4.916
REMARK INTRA:                  -0.327
REMARK UNBOUND:                -0.304
REMARK SMILES O=C([O-])CCCCCCCC(=O)[O-]
REMARK SMILES IDX 7 1 6 2 5 3 4 4 2 5 1 6 3 7 8 8 9 9 10 10 11 11 12 12 13 13
REMARK H PARENT
REMARK Flexibility Score: inf
ROOT
ATOM      1  C   UNL     1      28.625 159.957 118.340  1.00  0.00     0.000 C 
ENDROOT
BRANCH   1   2
ATOM      2  C   UNL     1      30.010 160.183 117.715  1.00  0.00     0.000 C 
BRANCH   2   3
ATOM      3  C   UNL     1      31.012 160.680 118.763  1.00  0.00     0.006 C 
BRANCH   3   4
ATOM      4  C   UNL     1      32.171 159.693 118.926  1.00  0.00     0.053 C 
BRANCH   4   5
ATOM      5  C   UNL     1      32.032 158.927 120.203  1.00  0.00     0.041 C 
ATOM      6  O   UNL     1      31.289 159.360 121.123  1.00  0.00    -0.550 OA
ATOM      7  O   UNL     1      32.684 157.711 120.359  1.00  0.00    -0.550 OA
ENDBRANCH   4   5
ENDBRANCH   3   4
ENDBRANCH   2   3
ENDBRANCH   1   2
BRANCH   1   8
ATOM      8  C   UNL     1      27.470 160.313 117.388  1.00  0.00     0.000 C 
BRANCH   8   9
ATOM      9  C   UNL     1      26.410 159.211 117.209  1.00  0.00     0.006 C 
BRANCH   9  10
ATOM     10  C   UNL     1      25.881 158.669 118.543  1.00  0.00     0.053 C 
BRANCH  10  11
ATOM     11  C   UNL     1      25.601 157.203 118.437  1.00  0.00     0.041 C 
ATOM     12  O   UNL     1      25.734 156.458 119.444  1.00  0.00    -0.550 OA
ATOM     13  O   UNL     1      25.241 156.650 117.215  1.00  0.00    -0.550 OA
ENDBRANCH  10  11
ENDBRANCH   9  10
ENDBRANCH   8   9
ENDBRANCH   1   8
TORSDOF 8
ENDMDL
MODEL 7
REMARK VINA RESULT:    -3.331      2.551      5.340
REMARK INTER + INTRA:          -5.193
REMARK INTER:                  -4.594
REMARK INTRA:                  -0.598
REMARK UNBOUND:                -0.304
REMARK SMILES O=C([O-])CCCCCCCC(=O)[O-]
REMARK SMILES IDX 7 1 6 2 5 3 4 4 2 5 1 6 3 7 8 8 9 9 10 10 11 11 12 12 13 13
REMARK H PARENT
REMARK Flexibility Score: inf
ROOT
ATOM      1  C   UNL     1      30.406 160.218 118.127  1.00  0.00     0.000 C 
ENDROOT
BRANCH   1   2
ATOM      2  C   UNL     1      30.512 161.048 119.416  1.00  0.00     0.000 C 
BRANCH   2   3
ATOM      3  C   UNL     1      31.354 160.321 120.471  1.00  0.00     0.006 C 
BRANCH   3   4
ATOM      4  C   UNL     1      30.564 159.176 121.111  1.00  0.00     0.053 C 
BRANCH   4   5
ATOM      5  C   UNL     1      31.299 157.882 120.958  1.00  0.00     0.041 C 
ATOM      6  O   UNL     1      30.796 156.813 121.394  1.00  0.00    -0.550 OA
ATOM      7  O   UNL     1      32.516 157.848 120.290  1.00  0.00    -0.550 OA
ENDBRANCH   4   5
ENDBRANCH   3   4
ENDBRANCH   2   3
ENDBRANCH   1   2
BRANCH   1   8
ATOM      8  C   UNL     1      28.987 160.210 117.532  1.00  0.00     0.000 C 
BRANCH   8   9
ATOM      9  C   UNL     1      27.853 160.409 118.552  1.00  0.00     0.006 C 
BRANCH   9  10
ATOM     10  C   UNL     1      27.042 159.131 118.802  1.00  0.00     0.053 C 
BRANCH  10  11
ATOM     11  C   UNL     1      25.946 159.000 117.791  1.00  0.00     0.041 C 
ATOM     12  O   UNL     1      25.349 160.025 117.369  1.00  0.00    -0.550 OA
ATOM     13  O   UNL     1      25.549 157.743 117.354  1.00  0.00    -0.550 OA
ENDBRANCH  10  11
ENDBRANCH   9  10
ENDBRANCH   8   9
ENDBRANCH   1   8
TORSDOF 8
ENDMDL
MODEL 8
REMARK VINA RESULT:    -3.329      1.269      5.286
REMARK INTER + INTRA:          -5.190
REMARK INTER:                  -4.605
REMARK INTRA:                  -0.585
REMARK UNBOUND:                -0.304
REMARK SMILES O=C([O-])CCCCCCCC(=O)[O-]
REMARK SMILES IDX 7 1 6 2 5 3 4 4 2 5 1 6 3 7 8 8 9 9 10 10 11 11 12 12 13 13
REMARK H PARENT
REMARK Flexibility Score: inf
ROOT
ATOM      1  C   UNL     1      26.438 159.303 117.167  1.00  0.00     0.000 C 
ENDROOT
BRANCH   1   2
ATOM      2  C   UNL     1      27.260 160.478 116.617  1.00  0.00     0.000 C 
BRANCH   2   3
ATOM      3  C   UNL     1      28.233 161.012 117.675  1.00  0.00     0.006 C 
BRANCH   3   4
ATOM      4  C   UNL     1      29.528 160.194 117.691  1.00  0.00     0.053 C 
BRANCH   4   5
ATOM      5  C   UNL     1      29.894 159.821 119.094  1.00  0.00     0.041 C 
ATOM      6  O   UNL     1      31.104 159.738 119.431  1.00  0.00    -0.550 OA
ATOM      7  O   UNL     1      28.899 159.614 120.040  1.00  0.00    -0.550 OA
ENDBRANCH   4   5
ENDBRANCH   3   4
ENDBRANCH   2   3
ENDBRANCH   1   2
BRANCH   1   8
ATOM      8  C   UNL     1      25.698 159.647 118.472  1.00  0.00     0.000 C 
BRANCH   8   9
ATOM      9  C   UNL     1      25.606 158.497 119.491  1.00  0.00     0.006 C 
BRANCH   9  10
ATOM     10  C   UNL     1      25.653 157.111 118.834  1.00  0.00     0.053 C 
BRANCH  10  11
ATOM     11  C   UNL     1      26.271 156.113 119.761  1.00  0.00     0.041 C 
ATOM     12  O   UNL     1      27.070 156.492 120.658  1.00  0.00    -0.550 OA
ATOM     13  O   UNL     1      26.006 154.759 119.603  1.00  0.00    -0.550 OA
ENDBRANCH  10  11
ENDBRANCH   9  10
ENDBRANCH   8   9
ENDBRANCH   1   8
TORSDOF 8
ENDMDL
MODEL 9
REMARK VINA RESULT:    -3.325      2.856      4.269
REMARK INTER + INTRA:          -5.183
REMARK INTER:                  -4.699
REMARK INTRA:                  -0.484
REMARK UNBOUND:                -0.304
REMARK SMILES O=C([O-])CCCCCCCC(=O)[O-]
REMARK SMILES IDX 7 1 6 2 5 3 4 4 2 5 1 6 3 7 8 8 9 9 10 10 11 11 12 12 13 13
REMARK H PARENT
REMARK Flexibility Score: inf
ROOT
ATOM      1  C   UNL     1      26.361 155.888 119.989  1.00  0.00     0.000 C 
ENDROOT
BRANCH   1   2
ATOM      2  C   UNL     1      25.624 156.627 118.862  1.00  0.00     0.000 C 
BRANCH   2   3
ATOM      3  C   UNL     1      25.791 158.145 119.000  1.00  0.00     0.006 C 
BRANCH   3   4
ATOM      4  C   UNL     1      25.648 158.839 117.643  1.00  0.00     0.053 C 
BRANCH   4   5
ATOM      5  C   UNL     1      26.932 159.505 117.257  1.00  0.00     0.041 C 
ATOM      6  O   UNL     1      27.077 159.975 116.098  1.00  0.00    -0.550 OA
ATOM      7  O   UNL     1      27.947 159.652 118.193  1.00  0.00    -0.550 OA
ENDBRANCH   4   5
ENDBRANCH   3   4
ENDBRANCH   2   3
ENDBRANCH   1   2
BRANCH   1   8
ATOM      8  C   UNL     1      26.547 156.748 121.251  1.00  0.00     0.000 C 
BRANCH   8   9
ATOM      9  C   UNL     1      27.995 156.850 121.762  1.00  0.00     0.006 C 
BRANCH   9  10
ATOM     10  C   UNL     1      28.652 158.196 121.432  1.00  0.00     0.053 C 
BRANCH  10  11
ATOM     11  C   UNL     1      30.138 158.044 121.340  1.00  0.00     0.041 C 
ATOM     12  O   UNL     1      30.665 156.903 121.421  1.00  0.00    -0.550 OA
ATOM     13  O   UNL     1      30.946 159.167 121.217  1.00  0.00    -0.550 OA
ENDBRANCH  10  11
ENDBRANCH   9  10
ENDBRANCH   8   9
ENDBRANCH   1   8
TORSDOF 8
ENDMDL
