MODEL 1
REMARK VINA RESULT:    -5.512      0.000      0.000
REMARK INTER + INTRA:          -5.960
REMARK INTER:                  -5.834
REMARK INTRA:                  -0.126
REMARK UNBOUND:                -0.126
REMARK SMILES C=C(C)[C@H]1CC=C(C)CC1
REMARK SMILES IDX 8 1 7 2 6 3 5 4 4 5 10 6 9 7 2 8 1 9 3 10
REMARK H PARENT
REMARK Flexibility Score: inf
ROOT
ATOM      1  C   UNL     1       7.352   4.890  12.761  1.00  0.00     0.039 C 
ATOM      2  C   UNL     1       6.482   6.100  12.556  1.00  0.00    -0.077 C 
ATOM      3  C   UNL     1       7.050   7.254  12.149  1.00  0.00    -0.027 C 
ATOM      4  C   UNL     1       6.271   8.534  11.967  1.00  0.00     0.035 C 
ATOM      5  C   UNL     1       4.771   8.276  11.742  1.00  0.00     0.018 C 
ATOM      6  C   UNL     1       4.248   7.292  12.800  1.00  0.00     0.013 C 
ATOM      7  C   UNL     1       4.978   5.949  12.683  1.00  0.00     0.031 C 
ENDROOT
BRANCH   5   8
ATOM      8  C   UNL     1       3.973   9.573  11.733  1.00  0.00    -0.077 C 
ATOM      9  C   UNL     1       4.273  10.572  10.886  1.00  0.00     0.008 C 
ATOM     10  C   UNL     1       2.823   9.758  12.689  1.00  0.00     0.039 C 
ENDBRANCH   5   8
TORSDOF 1
ENDMDL
MODEL 2
REMARK VINA RESULT:    -4.798      0.994      4.269
REMARK INTER + INTRA:          -5.205
REMARK INTER:                  -5.075
REMARK INTRA:                  -0.129
REMARK UNBOUND:                -0.126
REMARK SMILES C=C(C)[C@H]1CC=C(C)CC1
REMARK SMILES IDX 8 1 7 2 6 3 5 4 4 5 10 6 9 7 2 8 1 9 3 10
REMARK H PARENT
REMARK Flexibility Score: inf
ROOT
ATOM      1  C   UNL     1       3.309  10.216  11.286  1.00  0.00     0.039 C 
ATOM      2  C   UNL     1       4.227   9.084  11.658  1.00  0.00    -0.077 C 
ATOM      3  C   UNL     1       5.467   9.043  11.124  1.00  0.00    -0.027 C 
ATOM      4  C   UNL     1       6.440   7.921  11.393  1.00  0.00     0.035 C 
ATOM      5  C   UNL     1       6.124   7.177  12.701  1.00  0.00     0.018 C 
ATOM      6  C   UNL     1       4.629   6.821  12.750  1.00  0.00     0.013 C 
ATOM      7  C   UNL     1       3.779   8.098  12.720  1.00  0.00     0.031 C 
ENDROOT
BRANCH   5   8
ATOM      8  C   UNL     1       7.002   5.944  12.872  1.00  0.00    -0.077 C 
ATOM      9  C   UNL     1       8.125   5.781  12.151  1.00  0.00     0.008 C 
ATOM     10  C   UNL     1       6.619   4.875  13.863  1.00  0.00     0.039 C 
ENDBRANCH   5   8
TORSDOF 1
ENDMDL
MODEL 3
REMARK VINA RESULT:    -4.722      0.972      4.410
REMARK INTER + INTRA:          -5.124
REMARK INTER:                  -4.995
REMARK INTRA:                  -0.129
REMARK UNBOUND:                -0.126
REMARK SMILES C=C(C)[C@H]1CC=C(C)CC1
REMARK SMILES IDX 8 1 7 2 6 3 5 4 4 5 10 6 9 7 2 8 1 9 3 10
REMARK H PARENT
REMARK Flexibility Score: inf
ROOT
ATOM      1  C   UNL     1       3.349  10.187  11.350  1.00  0.00     0.039 C 
ATOM      2  C   UNL     1       4.234   9.031  11.730  1.00  0.00    -0.077 C 
ATOM      3  C   UNL     1       5.506   9.004  11.277  1.00  0.00    -0.027 C 
ATOM      4  C   UNL     1       6.453   7.863  11.559  1.00  0.00     0.035 C 
ATOM      5  C   UNL     1       6.047   7.064  12.810  1.00  0.00     0.018 C 
ATOM      6  C   UNL     1       4.551   6.720  12.745  1.00  0.00     0.013 C 
ATOM      7  C   UNL     1       3.712   8.003  12.716  1.00  0.00     0.031 C 
ENDROOT
BRANCH   5   8
ATOM      8  C   UNL     1       6.905   5.818  12.983  1.00  0.00    -0.077 C 
ATOM      9  C   UNL     1       6.609   4.888  13.907  1.00  0.00     0.008 C 
ATOM     10  C   UNL     1       8.118   5.608  12.113  1.00  0.00     0.039 C 
ENDBRANCH   5   8
TORSDOF 1
ENDMDL
MODEL 4
REMARK VINA RESULT:    -4.667      1.045      4.632
REMARK INTER + INTRA:          -5.066
REMARK INTER:                  -4.937
REMARK INTRA:                  -0.128
REMARK UNBOUND:                -0.126
REMARK SMILES C=C(C)[C@H]1CC=C(C)CC1
REMARK SMILES IDX 8 1 7 2 6 3 5 4 4 5 10 6 9 7 2 8 1 9 3 10
REMARK H PARENT
REMARK Flexibility Score: inf
ROOT
ATOM      1  C   UNL     1       3.046  10.343  11.338  1.00  0.00     0.039 C 
ATOM      2  C   UNL     1       3.991   9.237  11.724  1.00  0.00    -0.077 C 
ATOM      3  C   UNL     1       3.619   8.363  12.684  1.00  0.00    -0.027 C 
ATOM      4  C   UNL     1       4.518   7.254  13.177  1.00  0.00     0.035 C 
ATOM      5  C   UNL     1       5.597   6.879  12.148  1.00  0.00     0.018 C 
ATOM      6  C   UNL     1       6.289   8.150  11.631  1.00  0.00     0.013 C 
ATOM      7  C   UNL     1       5.272   9.060  10.932  1.00  0.00     0.031 C 
ENDROOT
BRANCH   5   8
ATOM      8  C   UNL     1       6.599   5.885  12.722  1.00  0.00    -0.077 C 
ATOM      9  C   UNL     1       6.208   4.889  13.536  1.00  0.00     0.008 C 
ATOM     10  C   UNL     1       8.063   6.009  12.386  1.00  0.00     0.039 C 
ENDBRANCH   5   8
TORSDOF 1
ENDMDL
MODEL 5
REMARK VINA RESULT:    -3.717      1.397      5.146
REMARK INTER + INTRA:          -4.060
REMARK INTER:                  -3.933
REMARK INTRA:                  -0.127
REMARK UNBOUND:                -0.126
REMARK SMILES C=C(C)[C@H]1CC=C(C)CC1
REMARK SMILES IDX 8 1 7 2 6 3 5 4 4 5 10 6 9 7 2 8 1 9 3 10
REMARK H PARENT
REMARK Flexibility Score: inf
ROOT
ATOM      1  C   UNL     1       1.393  12.610  11.774  1.00  0.00     0.039 C 
ATOM      2  C   UNL     1       2.338  11.445  11.877  1.00  0.00    -0.077 C 
ATOM      3  C   UNL     1       2.085  10.473  12.779  1.00  0.00    -0.027 C 
ATOM      4  C   UNL     1       3.001   9.292  12.994  1.00  0.00     0.035 C 
ATOM      5  C   UNL     1       3.890   9.015  11.769  1.00  0.00     0.018 C 
ATOM      6  C   UNL     1       4.546  10.322  11.295  1.00  0.00     0.013 C 
ATOM      7  C   UNL     1       3.472  11.332  10.875  1.00  0.00     0.031 C 
ENDROOT
BRANCH   5   8
ATOM      8  C   UNL     1       4.927   7.938  12.061  1.00  0.00    -0.077 C 
ATOM      9  C   UNL     1       6.243   8.184  11.945  1.00  0.00     0.008 C 
ATOM     10  C   UNL     1       4.485   6.560  12.484  1.00  0.00     0.039 C 
ENDBRANCH   5   8
TORSDOF 1
ENDMDL
MODEL 6
REMARK VINA RESULT:    -3.690      3.546      6.868
REMARK INTER + INTRA:          -4.032
REMARK INTER:                  -3.907
REMARK INTRA:                  -0.125
REMARK UNBOUND:                -0.126
REMARK SMILES C=C(C)[C@H]1CC=C(C)CC1
REMARK SMILES IDX 8 1 7 2 6 3 5 4 4 5 10 6 9 7 2 8 1 9 3 10
REMARK H PARENT
REMARK Flexibility Score: inf
ROOT
ATOM      1  C   UNL     1       4.321  16.526  12.157  1.00  0.00     0.039 C 
ATOM      2  C   UNL     1       3.992  15.058  12.183  1.00  0.00    -0.077 C 
ATOM      3  C   UNL     1       3.610  14.493  13.348  1.00  0.00    -0.027 C 
ATOM      4  C   UNL     1       3.311  13.019  13.487  1.00  0.00     0.035 C 
ATOM      5  C   UNL     1       2.944  12.371  12.141  1.00  0.00     0.018 C 
ATOM      6  C   UNL     1       3.973  12.769  11.072  1.00  0.00     0.013 C 
ATOM      7  C   UNL     1       3.971  14.290  10.875  1.00  0.00     0.031 C 
ENDROOT
BRANCH   5   8
ATOM      8  C   UNL     1       2.815  10.858  12.264  1.00  0.00    -0.077 C 
ATOM      9  C   UNL     1       1.886  10.297  13.058  1.00  0.00     0.008 C 
ATOM     10  C   UNL     1       3.742   9.956  11.490  1.00  0.00     0.039 C 
ENDBRANCH   5   8
TORSDOF 1
ENDMDL
MODEL 7
REMARK VINA RESULT:    -2.599      0.334      1.623
REMARK INTER + INTRA:          -2.877
REMARK INTER:                  -2.750
REMARK INTRA:                  -0.127
REMARK UNBOUND:                -0.126
REMARK SMILES C=C(C)[C@H]1CC=C(C)CC1
REMARK SMILES IDX 8 1 7 2 6 3 5 4 4 5 10 6 9 7 2 8 1 9 3 10
REMARK H PARENT
REMARK Flexibility Score: inf
ROOT
ATOM      1  C   UNL     1       7.387   4.879  12.744  1.00  0.00     0.039 C 
ATOM      2  C   UNL     1       6.525   6.079  12.463  1.00  0.00    -0.077 C 
ATOM      3  C   UNL     1       5.191   5.986  12.645  1.00  0.00    -0.027 C 
ATOM      4  C   UNL     1       4.238   7.116  12.339  1.00  0.00     0.035 C 
ATOM      5  C   UNL     1       4.938   8.486  12.351  1.00  0.00     0.018 C 
ATOM      6  C   UNL     1       6.225   8.421  11.514  1.00  0.00     0.013 C 
ATOM      7  C   UNL     1       7.195   7.394  12.111  1.00  0.00     0.031 C 
ENDROOT
BRANCH   5   8
ATOM      8  C   UNL     1       4.009   9.595  11.873  1.00  0.00    -0.077 C 
ATOM      9  C   UNL     1       4.365  10.422  10.875  1.00  0.00     0.008 C 
ATOM     10  C   UNL     1       2.663   9.785  12.523  1.00  0.00     0.039 C 
ENDBRANCH   5   8
TORSDOF 1
ENDMDL
