MODEL 1
REMARK VINA RESULT:    -4.528      0.000      0.000
REMARK INTER + INTRA:          -7.480
REMARK INTER:                  -7.174
REMARK INTRA:                  -0.306
REMARK UNBOUND:                -0.306
REMARK SMILES CCCCCCCCCCCC(=O)[O-]
REMARK SMILES IDX 7 1 8 2 9 3 10 4 11 5 12 6 13 7 14 8 6 9 5 10 4 11 3 12 2 13
REMARK SMILES IDX 1 14
REMARK H PARENT
REMARK Flexibility Score: inf
ROOT
ATOM      1  C   UNL     1     -10.285 -12.591   5.918  1.00  0.00     0.000 C 
ENDROOT
BRANCH   1   2
ATOM      2  C   UNL     1     -10.521 -11.306   6.726  1.00  0.00     0.000 C 
BRANCH   2   3
ATOM      3  C   UNL     1     -11.236 -10.249   5.877  1.00  0.00     0.000 C 
BRANCH   3   4
ATOM      4  C   UNL     1     -12.400  -9.617   6.649  1.00  0.00     0.006 C 
BRANCH   4   5
ATOM      5  C   UNL     1     -13.452 -10.667   7.016  1.00  0.00     0.053 C 
BRANCH   5   6
ATOM      6  C   UNL     1     -14.622 -10.024   7.690  1.00  0.00     0.041 C 
ATOM      7  O   UNL     1     -14.526  -9.622   8.880  1.00  0.00    -0.550 OA
ATOM      8  O   UNL     1     -15.835  -9.914   7.024  1.00  0.00    -0.550 OA
ENDBRANCH   5   6
ENDBRANCH   4   5
ENDBRANCH   3   4
ENDBRANCH   2   3
ENDBRANCH   1   2
BRANCH   1   9
ATOM      9  C   UNL     1      -8.873 -13.174   6.117  1.00  0.00     0.000 C 
BRANCH   9  10
ATOM     10  C   UNL     1      -8.243 -13.797   4.857  1.00  0.00    -0.000 C 
BRANCH  10  11
ATOM     11  C   UNL     1      -6.773 -14.230   5.009  1.00  0.00    -0.000 C 
BRANCH  11  12
ATOM     12  C   UNL     1      -6.585 -15.511   5.848  1.00  0.00    -0.000 C 
BRANCH  12  13
ATOM     13  C   UNL     1      -6.083 -16.696   5.009  1.00  0.00    -0.003 C 
ATOM     14  C   UNL     1      -4.656 -16.462   4.524  1.00  0.00     0.004 C 
ENDBRANCH  12  13
ENDBRANCH  11  12
ENDBRANCH  10  11
ENDBRANCH   9  10
ENDBRANCH   1   9
TORSDOF 10
ENDMDL
MODEL 2
REMARK VINA RESULT:    -4.526      2.179      3.582
REMARK INTER + INTRA:          -7.477
REMARK INTER:                  -6.356
REMARK INTRA:                  -1.122
REMARK UNBOUND:                -0.306
REMARK SMILES CCCCCCCCCCCC(=O)[O-]
REMARK SMILES IDX 7 1 8 2 9 3 10 4 11 5 12 6 13 7 14 8 6 9 5 10 4 11 3 12 2 13
REMARK SMILES IDX 1 14
REMARK H PARENT
REMARK Flexibility Score: inf
ROOT
ATOM      1  C   UNL     1     -11.083  -9.221   7.901  1.00  0.00     0.000 C 
ENDROOT
BRANCH   1   2
ATOM      2  C   UNL     1     -12.156  -8.875   6.857  1.00  0.00     0.000 C 
BRANCH   2   3
ATOM      3  C   UNL     1     -12.690 -10.142   6.179  1.00  0.00     0.000 C 
BRANCH   3   4
ATOM      4  C   UNL     1     -13.627 -10.915   7.114  1.00  0.00     0.006 C 
BRANCH   4   5
ATOM      5  C   UNL     1     -14.950 -10.169   7.307  1.00  0.00     0.053 C 
BRANCH   5   6
ATOM      6  C   UNL     1     -15.174  -9.864   8.754  1.00  0.00     0.041 C 
ATOM      7  O   UNL     1     -16.186  -9.206   9.114  1.00  0.00    -0.550 OA
ATOM      8  O   UNL     1     -14.241 -10.262   9.703  1.00  0.00    -0.550 OA
ENDBRANCH   5   6
ENDBRANCH   4   5
ENDBRANCH   3   4
ENDBRANCH   2   3
ENDBRANCH   1   2
BRANCH   1   9
ATOM      9  C   UNL     1      -9.650  -8.969   7.394  1.00  0.00     0.000 C 
BRANCH   9  10
ATOM     10  C   UNL     1      -8.927 -10.212   6.843  1.00  0.00    -0.000 C 
BRANCH  10  11
ATOM     11  C   UNL     1      -9.008 -11.463   7.738  1.00  0.00    -0.000 C 
BRANCH  11  12
ATOM     12  C   UNL     1      -9.847 -12.609   7.132  1.00  0.00    -0.000 C 
BRANCH  12  13
ATOM     13  C   UNL     1      -9.754 -12.660   5.600  1.00  0.00    -0.003 C 
ATOM     14  C   UNL     1      -8.664 -13.625   5.146  1.00  0.00     0.004 C 
ENDBRANCH  12  13
ENDBRANCH  11  12
ENDBRANCH  10  11
ENDBRANCH   9  10
ENDBRANCH   1   9
TORSDOF 10
ENDMDL
MODEL 3
REMARK VINA RESULT:    -4.421      4.565      8.382
REMARK INTER + INTRA:          -7.311
REMARK INTER:                  -6.838
REMARK INTRA:                  -0.474
REMARK UNBOUND:                -0.306
REMARK SMILES CCCCCCCCCCCC(=O)[O-]
REMARK SMILES IDX 7 1 8 2 9 3 10 4 11 5 12 6 13 7 14 8 6 9 5 10 4 11 3 12 2 13
REMARK SMILES IDX 1 14
REMARK H PARENT
REMARK Flexibility Score: inf
ROOT
ATOM      1  C   UNL     1     -10.486 -11.975   5.858  1.00  0.00     0.000 C 
ENDROOT
BRANCH   1   2
ATOM      2  C   UNL     1      -9.726 -13.285   5.599  1.00  0.00     0.000 C 
BRANCH   2   3
ATOM      3  C   UNL     1      -8.266 -13.170   6.051  1.00  0.00     0.000 C 
BRANCH   3   4
ATOM      4  C   UNL     1      -7.337 -13.953   5.116  1.00  0.00     0.006 C 
BRANCH   4   5
ATOM      5  C   UNL     1      -6.476 -14.946   5.902  1.00  0.00     0.053 C 
BRANCH   5   6
ATOM      6  C   UNL     1      -6.181 -16.155   5.073  1.00  0.00     0.041 C 
ATOM      7  O   UNL     1      -6.988 -17.122   5.052  1.00  0.00    -0.550 OA
ATOM      8  O   UNL     1      -4.991 -16.238   4.361  1.00  0.00    -0.550 OA
ENDBRANCH   5   6
ENDBRANCH   4   5
ENDBRANCH   3   4
ENDBRANCH   2   3
ENDBRANCH   1   2
BRANCH   1   9
ATOM      9  C   UNL     1      -9.655 -10.945   6.646  1.00  0.00     0.000 C 
BRANCH   9  10
ATOM     10  C   UNL     1     -10.455  -9.750   7.199  1.00  0.00    -0.000 C 
BRANCH  10  11
ATOM     11  C   UNL     1     -11.778  -9.457   6.466  1.00  0.00    -0.000 C 
BRANCH  11  12
ATOM     12  C   UNL     1     -13.018  -9.484   7.385  1.00  0.00    -0.000 C 
BRANCH  12  13
ATOM     13  C   UNL     1     -14.119 -10.417   6.860  1.00  0.00    -0.003 C 
ATOM     14  C   UNL     1     -15.480 -10.044   7.441  1.00  0.00     0.004 C 
ENDBRANCH  12  13
ENDBRANCH  11  12
ENDBRANCH  10  11
ENDBRANCH   9  10
ENDBRANCH   1   9
TORSDOF 10
ENDMDL
MODEL 4
REMARK VINA RESULT:    -4.412      3.489      7.073
REMARK INTER + INTRA:          -7.297
REMARK INTER:                  -6.129
REMARK INTRA:                  -1.168
REMARK UNBOUND:                -0.306
REMARK SMILES CCCCCCCCCCCC(=O)[O-]
REMARK SMILES IDX 7 1 8 2 9 3 10 4 11 5 12 6 13 7 14 8 6 9 5 10 4 11 3 12 2 13
REMARK SMILES IDX 1 14
REMARK H PARENT
REMARK Flexibility Score: inf
ROOT
ATOM      1  C   UNL     1     -10.193  -9.272   6.142  1.00  0.00     0.000 C 
ENDROOT
BRANCH   1   2
ATOM      2  C   UNL     1      -9.440  -8.980   7.448  1.00  0.00     0.000 C 
BRANCH   2   3
ATOM      3  C   UNL     1      -8.749 -10.242   7.977  1.00  0.00     0.000 C 
BRANCH   3   4
ATOM      4  C   UNL     1      -9.623 -11.482   7.754  1.00  0.00     0.006 C 
BRANCH   4   5
ATOM      5  C   UNL     1      -8.773 -12.685   7.336  1.00  0.00     0.053 C 
BRANCH   5   6
ATOM      6  C   UNL     1      -9.020 -13.029   5.902  1.00  0.00     0.041 C 
ATOM      7  O   UNL     1     -10.161 -12.861   5.397  1.00  0.00    -0.550 OA
ATOM      8  O   UNL     1      -8.003 -13.581   5.133  1.00  0.00    -0.550 OA
ENDBRANCH   5   6
ENDBRANCH   4   5
ENDBRANCH   3   4
ENDBRANCH   2   3
ENDBRANCH   1   2
BRANCH   1   9
ATOM      9  C   UNL     1     -11.711  -9.035   6.259  1.00  0.00     0.000 C 
BRANCH   9  10
ATOM     10  C   UNL     1     -12.582 -10.289   6.055  1.00  0.00    -0.000 C 
BRANCH  10  11
ATOM     11  C   UNL     1     -13.858 -10.343   6.917  1.00  0.00    -0.000 C 
BRANCH  11  12
ATOM     12  C   UNL     1     -13.855  -9.346   8.095  1.00  0.00    -0.000 C 
BRANCH  12  13
ATOM     13  C   UNL     1     -13.619 -10.035   9.448  1.00  0.00    -0.003 C 
ATOM     14  C   UNL     1     -12.144  -9.998   9.835  1.00  0.00     0.004 C 
ENDBRANCH  12  13
ENDBRANCH  11  12
ENDBRANCH  10  11
ENDBRANCH   9  10
ENDBRANCH   1   9
TORSDOF 10
ENDMDL
MODEL 5
REMARK VINA RESULT:    -4.383      4.306      7.860
REMARK INTER + INTRA:          -7.252
REMARK INTER:                  -6.401
REMARK INTRA:                  -0.851
REMARK UNBOUND:                -0.306
REMARK SMILES CCCCCCCCCCCC(=O)[O-]
REMARK SMILES IDX 7 1 8 2 9 3 10 4 11 5 12 6 13 7 14 8 6 9 5 10 4 11 3 12 2 13
REMARK SMILES IDX 1 14
REMARK H PARENT
REMARK Flexibility Score: inf
ROOT
ATOM      1  C   UNL     1      -9.848 -10.789   6.608  1.00  0.00     0.000 C 
ENDROOT
BRANCH   1   2
ATOM      2  C   UNL     1     -10.348 -12.242   6.605  1.00  0.00     0.000 C 
BRANCH   2   3
ATOM      3  C   UNL     1      -9.605 -13.074   5.554  1.00  0.00     0.000 C 
BRANCH   3   4
ATOM      4  C   UNL     1      -8.142 -13.293   5.958  1.00  0.00     0.006 C 
BRANCH   4   5
ATOM      5  C   UNL     1      -7.372 -14.031   4.859  1.00  0.00     0.053 C 
BRANCH   5   6
ATOM      6  C   UNL     1      -6.447 -15.043   5.455  1.00  0.00     0.041 C 
ATOM      7  O   UNL     1      -5.678 -15.713   4.716  1.00  0.00    -0.550 OA
ATOM      8  O   UNL     1      -6.468 -15.285   6.823  1.00  0.00    -0.550 OA
ENDBRANCH   5   6
ENDBRANCH   4   5
ENDBRANCH   3   4
ENDBRANCH   2   3
ENDBRANCH   1   2
BRANCH   1   9
ATOM      9  C   UNL     1     -10.955  -9.773   6.268  1.00  0.00     0.000 C 
BRANCH   9  10
ATOM     10  C   UNL     1     -12.303 -10.393   5.854  1.00  0.00    -0.000 C 
BRANCH  10  11
ATOM     11  C   UNL     1     -13.406 -10.331   6.928  1.00  0.00    -0.000 C 
BRANCH  11  12
ATOM     12  C   UNL     1     -13.082  -9.378   8.098  1.00  0.00    -0.000 C 
BRANCH  12  13
ATOM     13  C   UNL     1     -12.890 -10.122   9.427  1.00  0.00    -0.003 C 
ATOM     14  C   UNL     1     -11.440 -10.045   9.896  1.00  0.00     0.004 C 
ENDBRANCH  12  13
ENDBRANCH  11  12
ENDBRANCH  10  11
ENDBRANCH   9  10
ENDBRANCH   1   9
TORSDOF 10
ENDMDL
MODEL 6
REMARK VINA RESULT:    -4.363      4.203      7.323
REMARK INTER + INTRA:          -7.220
REMARK INTER:                  -6.374
REMARK INTRA:                  -0.846
REMARK UNBOUND:                -0.306
REMARK SMILES CCCCCCCCCCCC(=O)[O-]
REMARK SMILES IDX 7 1 8 2 9 3 10 4 11 5 12 6 13 7 14 8 6 9 5 10 4 11 3 12 2 13
REMARK SMILES IDX 1 14
REMARK H PARENT
REMARK Flexibility Score: inf
ROOT
ATOM      1  C   UNL     1     -10.324  -8.983   6.083  1.00  0.00     0.000 C 
ENDROOT
BRANCH   1   2
ATOM      2  C   UNL     1      -9.219  -9.643   6.921  1.00  0.00     0.000 C 
BRANCH   2   3
ATOM      3  C   UNL     1      -9.255 -11.168   6.771  1.00  0.00     0.000 C 
BRANCH   3   4
ATOM      4  C   UNL     1      -9.104 -11.859   8.132  1.00  0.00     0.006 C 
BRANCH   4   5
ATOM      5  C   UNL     1     -10.014 -11.214   9.180  1.00  0.00     0.053 C 
BRANCH   5   6
ATOM      6  C   UNL     1      -9.604 -11.630  10.557  1.00  0.00     0.041 C 
ATOM      7  O   UNL     1      -8.419 -11.456  10.946  1.00  0.00    -0.550 OA
ATOM      8  O   UNL     1     -10.517 -12.256  11.397  1.00  0.00    -0.550 OA
ENDBRANCH   5   6
ENDBRANCH   4   5
ENDBRANCH   3   4
ENDBRANCH   2   3
ENDBRANCH   1   2
BRANCH   1   9
ATOM      9  C   UNL     1     -11.692  -8.978   6.791  1.00  0.00     0.000 C 
BRANCH   9  10
ATOM     10  C   UNL     1     -12.736  -9.942   6.197  1.00  0.00    -0.000 C 
BRANCH  10  11
ATOM     11  C   UNL     1     -13.648 -10.631   7.229  1.00  0.00    -0.000 C 
BRANCH  11  12
ATOM     12  C   UNL     1     -15.143 -10.284   7.068  1.00  0.00    -0.000 C 
BRANCH  12  13
ATOM     13  C   UNL     1     -15.710  -9.542   8.288  1.00  0.00    -0.003 C 
ATOM     14  C   UNL     1     -14.960  -9.922   9.560  1.00  0.00     0.004 C 
ENDBRANCH  12  13
ENDBRANCH  11  12
ENDBRANCH  10  11
ENDBRANCH   9  10
ENDBRANCH   1   9
TORSDOF 10
ENDMDL
MODEL 7
REMARK VINA RESULT:    -4.351     12.756     14.537
REMARK INTER + INTRA:          -7.200
REMARK INTER:                  -6.065
REMARK INTRA:                  -1.135
REMARK UNBOUND:                -0.306
REMARK SMILES CCCCCCCCCCCC(=O)[O-]
REMARK SMILES IDX 7 1 8 2 9 3 10 4 11 5 12 6 13 7 14 8 6 9 5 10 4 11 3 12 2 13
REMARK SMILES IDX 1 14
REMARK H PARENT
REMARK Flexibility Score: inf
ROOT
ATOM      1  C   UNL     1      -8.708 -19.725  14.245  1.00  0.00     0.000 C 
ENDROOT
BRANCH   1   2
ATOM      2  C   UNL     1      -7.979 -18.899  15.315  1.00  0.00     0.000 C 
BRANCH   2   3
ATOM      3  C   UNL     1      -7.732 -19.733  16.578  1.00  0.00     0.000 C 
BRANCH   3   4
ATOM      4  C   UNL     1      -7.859 -21.232  16.281  1.00  0.00     0.006 C 
BRANCH   4   5
ATOM      5  C   UNL     1      -6.481 -21.894  16.195  1.00  0.00     0.053 C 
BRANCH   5   6
ATOM      6  C   UNL     1      -6.580 -23.222  15.515  1.00  0.00     0.041 C 
ATOM      7  O   UNL     1      -7.026 -23.302  14.340  1.00  0.00    -0.550 OA
ATOM      8  O   UNL     1      -6.225 -24.381  16.194  1.00  0.00    -0.550 OA
ENDBRANCH   5   6
ENDBRANCH   4   5
ENDBRANCH   3   4
ENDBRANCH   2   3
ENDBRANCH   1   2
BRANCH   1   9
ATOM      9  C   UNL     1      -9.949 -19.011  13.678  1.00  0.00     0.000 C 
BRANCH   9  10
ATOM     10  C   UNL     1     -11.289 -19.721  13.950  1.00  0.00    -0.000 C 
BRANCH  10  11
ATOM     11  C   UNL     1     -11.283 -20.685  15.152  1.00  0.00    -0.000 C 
BRANCH  11  12
ATOM     12  C   UNL     1     -11.717 -20.027  16.479  1.00  0.00    -0.000 C 
BRANCH  12  13
ATOM     13  C   UNL     1     -11.120 -20.730  17.707  1.00  0.00    -0.003 C 
ATOM     14  C   UNL     1     -11.467 -19.983  18.991  1.00  0.00     0.004 C 
ENDBRANCH  12  13
ENDBRANCH  11  12
ENDBRANCH  10  11
ENDBRANCH   9  10
ENDBRANCH   1   9
TORSDOF 10
ENDMDL
MODEL 8
REMARK VINA RESULT:    -4.342      4.106      5.008
REMARK INTER + INTRA:          -7.186
REMARK INTER:                  -6.118
REMARK INTRA:                  -1.068
REMARK UNBOUND:                -0.306
REMARK SMILES CCCCCCCCCCCC(=O)[O-]
REMARK SMILES IDX 7 1 8 2 9 3 10 4 11 5 12 6 13 7 14 8 6 9 5 10 4 11 3 12 2 13
REMARK SMILES IDX 1 14
REMARK H PARENT
REMARK Flexibility Score: inf
ROOT
ATOM      1  C   UNL     1     -10.726  -8.940   5.880  1.00  0.00     0.000 C 
ENDROOT
BRANCH   1   2
ATOM      2  C   UNL     1     -11.356 -10.340   5.929  1.00  0.00     0.000 C 
BRANCH   2   3
ATOM      3  C   UNL     1     -12.804 -10.273   6.429  1.00  0.00     0.000 C 
BRANCH   3   4
ATOM      4  C   UNL     1     -12.916  -9.383   7.673  1.00  0.00     0.006 C 
BRANCH   4   5
ATOM      5  C   UNL     1     -13.506 -10.160   8.853  1.00  0.00     0.053 C 
BRANCH   5   6
ATOM      6  C   UNL     1     -14.950  -9.815   9.039  1.00  0.00     0.041 C 
ATOM      7  O   UNL     1     -15.771  -9.997   8.101  1.00  0.00    -0.550 OA
ATOM      8  O   UNL     1     -15.382  -9.246  10.229  1.00  0.00    -0.550 OA
ENDBRANCH   5   6
ENDBRANCH   4   5
ENDBRANCH   3   4
ENDBRANCH   2   3
ENDBRANCH   1   2
BRANCH   1   9
ATOM      9  C   UNL     1      -9.353  -8.875   6.576  1.00  0.00     0.000 C 
BRANCH   9  10
ATOM     10  C   UNL     1      -8.981 -10.123   7.398  1.00  0.00    -0.000 C 
BRANCH  10  11
ATOM     11  C   UNL     1      -9.410 -10.081   8.878  1.00  0.00    -0.000 C 
BRANCH  11  12
ATOM     12  C   UNL     1      -9.791 -11.461   9.455  1.00  0.00    -0.000 C 
BRANCH  12  13
ATOM     13  C   UNL     1     -10.333 -11.369  10.889  1.00  0.00    -0.003 C 
ATOM     14  C   UNL     1      -9.556 -10.343  11.707  1.00  0.00     0.004 C 
ENDBRANCH  12  13
ENDBRANCH  11  12
ENDBRANCH  10  11
ENDBRANCH   9  10
ENDBRANCH   1   9
TORSDOF 10
ENDMDL
MODEL 9
REMARK VINA RESULT:    -4.286      5.563      9.311
REMARK INTER + INTRA:          -7.098
REMARK INTER:                  -6.801
REMARK INTRA:                  -0.297
REMARK UNBOUND:                -0.306
REMARK SMILES CCCCCCCCCCCC(=O)[O-]
REMARK SMILES IDX 7 1 8 2 9 3 10 4 11 5 12 6 13 7 14 8 6 9 5 10 4 11 3 12 2 13
REMARK SMILES IDX 1 14
REMARK H PARENT
REMARK Flexibility Score: inf
ROOT
ATOM      1  C   UNL     1      -8.327 -14.098   5.001  1.00  0.00     0.000 C 
ENDROOT
BRANCH   1   2
ATOM      2  C   UNL     1      -6.815 -14.360   5.071  1.00  0.00     0.000 C 
BRANCH   2   3
ATOM      3  C   UNL     1      -6.514 -15.624   5.886  1.00  0.00     0.000 C 
BRANCH   3   4
ATOM      4  C   UNL     1      -5.009 -15.913   5.918  1.00  0.00     0.006 C 
BRANCH   4   5
ATOM      5  C   UNL     1      -4.541 -16.543   4.603  1.00  0.00     0.053 C 
BRANCH   5   6
ATOM      6  C   UNL     1      -3.062 -16.387   4.444  1.00  0.00     0.041 C 
ATOM      7  O   UNL     1      -2.403 -15.707   5.274  1.00  0.00    -0.550 OA
ATOM      8  O   UNL     1      -2.416 -16.952   3.352  1.00  0.00    -0.550 OA
ENDBRANCH   5   6
ENDBRANCH   4   5
ENDBRANCH   3   4
ENDBRANCH   2   3
ENDBRANCH   1   2
BRANCH   1   9
ATOM      9  C   UNL     1      -8.800 -13.043   6.019  1.00  0.00     0.000 C 
BRANCH   9  10
ATOM     10  C   UNL     1     -10.265 -12.596   5.857  1.00  0.00    -0.000 C 
BRANCH  10  11
ATOM     11  C   UNL     1     -10.701 -11.445   6.784  1.00  0.00    -0.000 C 
BRANCH  11  12
ATOM     12  C   UNL     1     -11.121 -10.165   6.031  1.00  0.00    -0.000 C 
BRANCH  12  13
ATOM     13  C   UNL     1     -12.469  -9.612   6.515  1.00  0.00    -0.003 C 
ATOM     14  C   UNL     1     -13.407 -10.738   6.936  1.00  0.00     0.004 C 
ENDBRANCH  12  13
ENDBRANCH  11  12
ENDBRANCH  10  11
ENDBRANCH   9  10
ENDBRANCH   1   9
TORSDOF 10
ENDMDL
