MODEL 1
REMARK VINA RESULT:    -5.114      0.000      0.000
REMARK INTER + INTRA:          -5.114
REMARK INTER:                  -5.114
REMARK INTRA:                   0.000
REMARK UNBOUND:                 0.000
REMARK SMILES CC1=CC[C@@H]2C[C@H]1C2(C)C
REMARK SMILES IDX 1 1 2 2 3 3 4 4 5 5 6 6 7 7 8 8 9 9 10 10
REMARK H PARENT
REMARK Flexibility Score: inf
ROOT
ATOM      1  C   UNL     1       7.902   9.563  13.278  1.00  0.00     0.039 C 
ATOM      2  C   UNL     1       7.734   8.082  13.120  1.00  0.00    -0.074 C 
ATOM      3  C   UNL     1       8.197   7.210  14.062  1.00  0.00    -0.027 C 
ATOM      4  C   UNL     1       7.965   5.699  13.851  1.00  0.00     0.031 C 
ATOM      5  C   UNL     1       7.231   5.453  12.487  1.00  0.00    -0.000 C 
ATOM      6  C   UNL     1       7.975   6.319  11.450  1.00  0.00     0.013 C 
ATOM      7  C   UNL     1       7.051   7.472  11.888  1.00  0.00     0.021 C 
ATOM      8  C   UNL     1       6.015   6.411  12.348  1.00  0.00    -0.026 C 
ATOM      9  C   UNL     1       5.157   6.715  13.608  1.00  0.00     0.012 C 
ATOM     10  C   UNL     1       5.063   5.985  11.202  1.00  0.00     0.012 C 
ENDROOT
TORSDOF 0
ENDMDL
MODEL 2
REMARK VINA RESULT:    -5.108     15.367     16.974
REMARK INTER + INTRA:          -5.108
REMARK INTER:                  -5.108
REMARK INTRA:                   0.000
REMARK UNBOUND:                 0.000
REMARK SMILES CC1=CC[C@@H]2C[C@H]1C2(C)C
REMARK SMILES IDX 1 1 2 2 3 3 4 4 5 5 6 6 7 7 8 8 9 9 10 10
REMARK H PARENT
REMARK Flexibility Score: inf
ROOT
ATOM      1  C   UNL     1       9.023   7.933  28.806  1.00  0.00     0.039 C 
ATOM      2  C   UNL     1       9.339   6.468  28.798  1.00  0.00    -0.074 C 
ATOM      3  C   UNL     1       8.985   5.670  27.749  1.00  0.00    -0.027 C 
ATOM      4  C   UNL     1       9.367   4.176  27.792  1.00  0.00     0.031 C 
ATOM      5  C   UNL     1      10.099   3.847  29.140  1.00  0.00    -0.000 C 
ATOM      6  C   UNL     1       9.251   4.507  30.247  1.00  0.00     0.013 C 
ATOM      7  C   UNL     1      10.060   5.789  29.972  1.00  0.00     0.021 C 
ATOM      8  C   UNL     1      11.207   4.899  29.424  1.00  0.00    -0.026 C 
ATOM      9  C   UNL     1      12.051   5.432  28.232  1.00  0.00     0.012 C 
ATOM     10  C   UNL     1      12.177   4.439  30.541  1.00  0.00     0.012 C 
ENDROOT
TORSDOF 0
ENDMDL
MODEL 3
REMARK VINA RESULT:    -4.851      1.032      3.247
REMARK INTER + INTRA:          -4.851
REMARK INTER:                  -4.851
REMARK INTRA:                   0.000
REMARK UNBOUND:                 0.000
REMARK SMILES CC1=CC[C@@H]2C[C@H]1C2(C)C
REMARK SMILES IDX 1 1 2 2 3 3 4 4 5 5 6 6 7 7 8 8 9 9 10 10
REMARK H PARENT
REMARK Flexibility Score: inf
ROOT
ATOM      1  C   UNL     1       5.249   6.086  10.919  1.00  0.00     0.039 C 
ATOM      2  C   UNL     1       6.105   6.126  12.149  1.00  0.00    -0.074 C 
ATOM      3  C   UNL     1       7.110   5.224  12.346  1.00  0.00    -0.027 C 
ATOM      4  C   UNL     1       7.972   5.340  13.620  1.00  0.00     0.031 C 
ATOM      5  C   UNL     1       7.459   6.526  14.509  1.00  0.00    -0.000 C 
ATOM      6  C   UNL     1       5.926   6.370  14.570  1.00  0.00     0.013 C 
ATOM      7  C   UNL     1       5.886   7.170  13.254  1.00  0.00     0.021 C 
ATOM      8  C   UNL     1       7.250   7.799  13.644  1.00  0.00    -0.026 C 
ATOM      9  C   UNL     1       8.271   8.108  12.513  1.00  0.00     0.012 C 
ATOM     10  C   UNL     1       7.083   9.074  14.509  1.00  0.00     0.012 C 
ENDROOT
TORSDOF 0
ENDMDL
MODEL 4
REMARK VINA RESULT:    -4.851      1.297      2.797
REMARK INTER + INTRA:          -4.851
REMARK INTER:                  -4.851
REMARK INTRA:                   0.000
REMARK UNBOUND:                 0.000
REMARK SMILES CC1=CC[C@@H]2C[C@H]1C2(C)C
REMARK SMILES IDX 1 1 2 2 3 3 4 4 5 5 6 6 7 7 8 8 9 9 10 10
REMARK H PARENT
REMARK Flexibility Score: inf
ROOT
ATOM      1  C   UNL     1       4.613   7.934  15.136  1.00  0.00     0.039 C 
ATOM      2  C   UNL     1       5.884   7.331  14.618  1.00  0.00    -0.074 C 
ATOM      3  C   UNL     1       6.098   5.984  14.652  1.00  0.00    -0.027 C 
ATOM      4  C   UNL     1       7.416   5.427  14.075  1.00  0.00     0.031 C 
ATOM      5  C   UNL     1       8.321   6.604  13.569  1.00  0.00    -0.000 C 
ATOM      6  C   UNL     1       8.301   7.659  14.695  1.00  0.00     0.013 C 
ATOM      7  C   UNL     1       7.014   8.197  14.040  1.00  0.00     0.021 C 
ATOM      8  C   UNL     1       7.492   7.586  12.696  1.00  0.00    -0.026 C 
ATOM      9  C   UNL     1       6.424   7.004  11.728  1.00  0.00     0.012 C 
ATOM     10  C   UNL     1       8.392   8.561  11.896  1.00  0.00     0.012 C 
ENDROOT
TORSDOF 0
ENDMDL
MODEL 5
REMARK VINA RESULT:    -4.821     15.003     16.288
REMARK INTER + INTRA:          -4.821
REMARK INTER:                  -4.821
REMARK INTRA:                   0.000
REMARK UNBOUND:                 0.000
REMARK SMILES CC1=CC[C@@H]2C[C@H]1C2(C)C
REMARK SMILES IDX 1 1 2 2 3 3 4 4 5 5 6 6 7 7 8 8 9 9 10 10
REMARK H PARENT
REMARK Flexibility Score: inf
ROOT
ATOM      1  C   UNL     1      12.853   5.992  27.368  1.00  0.00     0.039 C 
ATOM      2  C   UNL     1      11.413   5.706  27.670  1.00  0.00    -0.074 C 
ATOM      3  C   UNL     1      10.854   4.493  27.390  1.00  0.00    -0.027 C 
ATOM      4  C   UNL     1       9.374   4.257  27.754  1.00  0.00     0.031 C 
ATOM      5  C   UNL     1       8.759   5.558  28.376  1.00  0.00    -0.000 C 
ATOM      6  C   UNL     1       9.200   6.712  27.452  1.00  0.00     0.013 C 
ATOM      7  C   UNL     1      10.491   6.766  28.292  1.00  0.00     0.021 C 
ATOM      8  C   UNL     1       9.702   6.133  29.469  1.00  0.00    -0.026 C 
ATOM      9  C   UNL     1      10.446   5.141  30.408  1.00  0.00     0.012 C 
ATOM     10  C   UNL     1       9.000   7.199  30.346  1.00  0.00     0.012 C 
ENDROOT
TORSDOF 0
ENDMDL
MODEL 6
REMARK VINA RESULT:    -4.801     14.884     16.417
REMARK INTER + INTRA:          -4.801
REMARK INTER:                  -4.801
REMARK INTRA:                   0.000
REMARK UNBOUND:                 0.000
REMARK SMILES CC1=CC[C@@H]2C[C@H]1C2(C)C
REMARK SMILES IDX 1 1 2 2 3 3 4 4 5 5 6 6 7 7 8 8 9 9 10 10
REMARK H PARENT
REMARK Flexibility Score: inf
ROOT
ATOM      1  C   UNL     1      11.534   4.439  30.997  1.00  0.00     0.039 C 
ATOM      2  C   UNL     1      10.939   4.618  29.633  1.00  0.00    -0.074 C 
ATOM      3  C   UNL     1       9.954   3.794  29.173  1.00  0.00    -0.027 C 
ATOM      4  C   UNL     1       9.366   4.052  27.771  1.00  0.00     0.031 C 
ATOM      5  C   UNL     1      10.096   5.266  27.097  1.00  0.00    -0.000 C 
ATOM      6  C   UNL     1      11.603   5.023  27.320  1.00  0.00     0.013 C 
ATOM      7  C   UNL     1      11.419   5.723  28.680  1.00  0.00     0.021 C 
ATOM      8  C   UNL     1      10.188   6.459  28.088  1.00  0.00    -0.026 C 
ATOM      9  C   UNL     1       8.979   6.746  29.022  1.00  0.00     0.012 C 
ATOM     10  C   UNL     1      10.579   7.780  27.378  1.00  0.00     0.012 C 
ENDROOT
TORSDOF 0
ENDMDL
MODEL 7
REMARK VINA RESULT:    -4.715      1.219      2.963
REMARK INTER + INTRA:          -4.715
REMARK INTER:                  -4.715
REMARK INTRA:                   0.000
REMARK UNBOUND:                 0.000
REMARK SMILES CC1=CC[C@@H]2C[C@H]1C2(C)C
REMARK SMILES IDX 1 1 2 2 3 3 4 4 5 5 6 6 7 7 8 8 9 9 10 10
REMARK H PARENT
REMARK Flexibility Score: inf
ROOT
ATOM      1  C   UNL     1       5.238   6.388  10.952  1.00  0.00     0.039 C 
ATOM      2  C   UNL     1       6.347   6.730  11.900  1.00  0.00    -0.074 C 
ATOM      3  C   UNL     1       7.248   7.715  11.615  1.00  0.00    -0.027 C 
ATOM      4  C   UNL     1       8.347   8.036  12.648  1.00  0.00     0.031 C 
ATOM      5  C   UNL     1       8.225   7.073  13.880  1.00  0.00    -0.000 C 
ATOM      6  C   UNL     1       8.044   5.660  13.289  1.00  0.00     0.013 C 
ATOM      7  C   UNL     1       6.538   5.980  13.226  1.00  0.00     0.021 C 
ATOM      8  C   UNL     1       6.752   7.008  14.370  1.00  0.00    -0.026 C 
ATOM      9  C   UNL     1       5.904   8.311  14.360  1.00  0.00     0.012 C 
ATOM     10  C   UNL     1       6.630   6.359  15.772  1.00  0.00     0.012 C 
ENDROOT
TORSDOF 0
ENDMDL
MODEL 8
REMARK VINA RESULT:    -4.662      1.247      3.228
REMARK INTER + INTRA:          -4.662
REMARK INTER:                  -4.662
REMARK INTRA:                   0.000
REMARK UNBOUND:                 0.000
REMARK SMILES CC1=CC[C@@H]2C[C@H]1C2(C)C
REMARK SMILES IDX 1 1 2 2 3 3 4 4 5 5 6 6 7 7 8 8 9 9 10 10
REMARK H PARENT
REMARK Flexibility Score: inf
ROOT
ATOM      1  C   UNL     1       7.736   4.113  14.609  1.00  0.00     0.039 C 
ATOM      2  C   UNL     1       7.560   5.437  13.928  1.00  0.00    -0.074 C 
ATOM      3  C   UNL     1       7.452   5.529  12.570  1.00  0.00    -0.027 C 
ATOM      4  C   UNL     1       7.243   6.920  11.936  1.00  0.00     0.031 C 
ATOM      5  C   UNL     1       7.239   8.024  13.051  1.00  0.00    -0.000 C 
ATOM      6  C   UNL     1       8.449   7.709  13.955  1.00  0.00     0.013 C 
ATOM      7  C   UNL     1       7.511   6.753  14.717  1.00  0.00     0.021 C 
ATOM      8  C   UNL     1       6.311   7.603  14.223  1.00  0.00    -0.026 C 
ATOM      9  C   UNL     1       4.977   6.876  13.894  1.00  0.00     0.012 C 
ATOM     10  C   UNL     1       5.998   8.786  15.175  1.00  0.00     0.012 C 
ENDROOT
TORSDOF 0
ENDMDL
MODEL 9
REMARK VINA RESULT:    -4.632     14.889     16.216
REMARK INTER + INTRA:          -4.632
REMARK INTER:                  -4.632
REMARK INTRA:                   0.000
REMARK UNBOUND:                 0.000
REMARK SMILES CC1=CC[C@@H]2C[C@H]1C2(C)C
REMARK SMILES IDX 1 1 2 2 3 3 4 4 5 5 6 6 7 7 8 8 9 9 10 10
REMARK H PARENT
REMARK Flexibility Score: inf
ROOT
ATOM      1  C   UNL     1       9.372   2.965  27.373  1.00  0.00     0.039 C 
ATOM      2  C   UNL     1       9.581   4.260  28.097  1.00  0.00    -0.074 C 
ATOM      3  C   UNL     1       9.720   4.302  29.455  1.00  0.00    -0.027 C 
ATOM      4  C   UNL     1       9.962   5.665  30.134  1.00  0.00     0.031 C 
ATOM      5  C   UNL     1       9.958   6.809  29.060  1.00  0.00    -0.000 C 
ATOM      6  C   UNL     1       8.724   6.544  28.172  1.00  0.00     0.013 C 
ATOM      7  C   UNL     1       9.631   5.603  27.355  1.00  0.00     0.021 C 
ATOM      8  C   UNL     1      10.854   6.419  27.853  1.00  0.00    -0.026 C 
ATOM      9  C   UNL     1      12.185   5.662  28.126  1.00  0.00     0.012 C 
ATOM     10  C   UNL     1      11.163   7.631  26.938  1.00  0.00     0.012 C 
ENDROOT
TORSDOF 0
ENDMDL
