MODEL 1
REMARK VINA RESULT:    -6.631      0.000      0.000
REMARK INTER + INTRA:          -8.060
REMARK INTER:                  -7.794
REMARK INTRA:                  -0.267
REMARK UNBOUND:                -0.267
REMARK SMILES O=c1cc(-c2ccc(O)c(O)c2)oc2cc(O)cc(O)c12
REMARK SMILES IDX 4 1 3 2 2 3 1 4 21 5 19 6 18 7 16 8 15 9 14 10 13 11 5 12
REMARK SMILES IDX 6 13 7 14 8 15 12 16 10 17 9 18 11 20 20 22 17 24
REMARK H PARENT 9 19 11 21 20 23 17 25
REMARK Flexibility Score: inf
ROOT
ATOM      1  C   UNL     1       2.161 -11.694 -32.583  1.00  0.00     0.138 A 
ATOM      2  C   UNL     1       0.971 -10.954 -32.601  1.00  0.00     0.100 A 
ATOM      3  C   UNL     1       0.199 -10.859 -31.441  1.00  0.00     0.197 A 
ATOM      4  O   UNL     1      -0.831 -10.137 -31.471  1.00  0.00    -0.289 OA
ATOM      5  C   UNL     1       0.608 -11.535 -30.268  1.00  0.00     0.107 A 
ATOM      6  C   UNL     1      -0.119 -11.543 -29.039  1.00  0.00     0.134 A 
ATOM      7  C   UNL     1       0.443 -12.150 -27.909  1.00  0.00     0.093 A 
ATOM      8  C   UNL     1       1.673 -12.801 -27.977  1.00  0.00     0.123 A 
ATOM      9  C   UNL     1       2.368 -12.847 -29.186  1.00  0.00     0.094 A 
ATOM     10  C   UNL     1       1.851 -12.221 -30.323  1.00  0.00     0.146 A 
ATOM     11  O   UNL     1       2.551 -12.274 -31.452  1.00  0.00    -0.456 OA
ENDROOT
BRANCH   1  12
ATOM     12  C   UNL     1       3.018 -11.828 -33.788  1.00  0.00     0.021 A 
ATOM     13  C   UNL     1       4.353 -11.389 -33.798  1.00  0.00     0.016 A 
ATOM     14  C   UNL     1       5.132 -11.519 -34.950  1.00  0.00     0.051 A 
ATOM     15  C   UNL     1       4.599 -12.080 -36.114  1.00  0.00     0.157 A 
ATOM     16  C   UNL     1       2.478 -12.379 -34.963  1.00  0.00     0.062 A 
ATOM     17  C   UNL     1       3.252 -12.513 -36.122  1.00  0.00     0.158 A 
BRANCH  15  18
ATOM     18  O   UNL     1       5.432 -12.183 -37.231  1.00  0.00    -0.504 OA
ATOM     19  H   UNL     1       5.598 -11.430 -37.883  1.00  0.00     0.293 HD
ENDBRANCH  15  18
BRANCH  17  20
ATOM     20  O   UNL     1       2.649 -13.079 -37.248  1.00  0.00    -0.504 OA
ATOM     21  H   UNL     1       2.856 -14.005 -37.595  1.00  0.00     0.293 HD
ENDBRANCH  17  20
ENDBRANCH   1  12
BRANCH   6  22
ATOM     22  O   UNL     1      -1.396 -10.994 -28.884  1.00  0.00    -0.507 OA
ATOM     23  H   UNL     1      -1.859 -10.410 -29.563  1.00  0.00     0.293 HD
ENDBRANCH   6  22
BRANCH   8  24
ATOM     24  O   UNL     1       2.194 -13.409 -26.836  1.00  0.00    -0.508 OA
ATOM     25  H   UNL     1       1.752 -14.218 -26.417  1.00  0.00     0.293 HD
ENDBRANCH   8  24
TORSDOF 5
ENDMDL
MODEL 2
REMARK VINA RESULT:    -6.445      1.332      7.173
REMARK INTER + INTRA:          -7.842
REMARK INTER:                  -7.571
REMARK INTRA:                  -0.271
REMARK UNBOUND:                -0.267
REMARK SMILES O=c1cc(-c2ccc(O)c(O)c2)oc2cc(O)cc(O)c12
REMARK SMILES IDX 4 1 3 2 2 3 1 4 21 5 19 6 18 7 16 8 15 9 14 10 13 11 5 12
REMARK SMILES IDX 6 13 7 14 8 15 12 16 10 17 9 18 11 20 20 22 17 24
REMARK H PARENT 9 19 11 21 20 23 17 25
REMARK Flexibility Score: inf
ROOT
ATOM      1  C   UNL     1       2.674 -11.820 -31.653  1.00  0.00     0.138 A 
ATOM      2  C   UNL     1       3.846 -11.053 -31.721  1.00  0.00     0.100 A 
ATOM      3  C   UNL     1       4.513 -10.919 -32.940  1.00  0.00     0.197 A 
ATOM      4  O   UNL     1       5.526 -10.174 -32.984  1.00  0.00    -0.289 OA
ATOM      5  C   UNL     1       4.020 -11.583 -34.088  1.00  0.00     0.107 A 
ATOM      6  C   UNL     1       4.639 -11.552 -35.374  1.00  0.00     0.134 A 
ATOM      7  C   UNL     1       3.996 -12.151 -36.464  1.00  0.00     0.093 A 
ATOM      8  C   UNL     1       2.791 -12.832 -36.305  1.00  0.00     0.123 A 
ATOM      9  C   UNL     1       2.202 -12.916 -35.042  1.00  0.00     0.094 A 
ATOM     10  C   UNL     1       2.801 -12.298 -33.941  1.00  0.00     0.146 A 
ATOM     11  O   UNL     1       2.202 -12.388 -32.758  1.00  0.00    -0.456 OA
ENDROOT
BRANCH   1  12
ATOM     12  C   UNL     1       1.926 -11.996 -30.383  1.00  0.00     0.021 A 
ATOM     13  C   UNL     1       2.417 -12.803 -29.342  1.00  0.00     0.016 A 
ATOM     14  C   UNL     1       1.686 -12.959 -28.162  1.00  0.00     0.051 A 
ATOM     15  C   UNL     1       0.452 -12.322 -27.995  1.00  0.00     0.157 A 
ATOM     16  C   UNL     1       0.679 -11.367 -30.221  1.00  0.00     0.062 A 
ATOM     17  C   UNL     1      -0.059 -11.518 -29.041  1.00  0.00     0.158 A 
BRANCH  15  18
ATOM     18  O   UNL     1      -0.226 -12.517 -26.791  1.00  0.00    -0.504 OA
ATOM     19  H   UNL     1       0.060 -13.176 -26.081  1.00  0.00     0.293 HD
ENDBRANCH  15  18
BRANCH  17  20
ATOM     20  O   UNL     1      -1.286 -10.855 -28.950  1.00  0.00    -0.504 OA
ATOM     21  H   UNL     1      -2.099 -11.094 -29.499  1.00  0.00     0.293 HD
ENDBRANCH  17  20
ENDBRANCH   1  12
BRANCH   6  22
ATOM     22  O   UNL     1       5.886 -10.971 -35.626  1.00  0.00    -0.507 OA
ATOM     23  H   UNL     1       6.642 -10.917 -34.960  1.00  0.00     0.293 HD
ENDBRANCH   6  22
BRANCH   8  24
ATOM     24  O   UNL     1       2.187 -13.430 -37.409  1.00  0.00    -0.508 OA
ATOM     25  H   UNL     1       2.473 -14.345 -37.738  1.00  0.00     0.293 HD
ENDBRANCH   8  24
TORSDOF 5
ENDMDL
MODEL 3
REMARK VINA RESULT:    -6.088      1.960      3.018
REMARK INTER + INTRA:          -7.423
REMARK INTER:                  -7.130
REMARK INTRA:                  -0.293
REMARK UNBOUND:                -0.267
REMARK SMILES O=c1cc(-c2ccc(O)c(O)c2)oc2cc(O)cc(O)c12
REMARK SMILES IDX 4 1 3 2 2 3 1 4 21 5 19 6 18 7 16 8 15 9 14 10 13 11 5 12
REMARK SMILES IDX 6 13 7 14 8 15 12 16 10 17 9 18 11 20 20 22 17 24
REMARK H PARENT 9 19 11 21 20 23 17 25
REMARK Flexibility Score: inf
ROOT
ATOM      1  C   UNL     1       3.443 -11.506 -31.536  1.00  0.00     0.138 A 
ATOM      2  C   UNL     1       4.372 -10.680 -30.888  1.00  0.00     0.100 A 
ATOM      3  C   UNL     1       4.273 -10.478 -29.510  1.00  0.00     0.197 A 
ATOM      4  O   UNL     1       5.157  -9.782 -28.947  1.00  0.00    -0.289 OA
ATOM      5  C   UNL     1       3.219 -11.082 -28.785  1.00  0.00     0.107 A 
ATOM      6  C   UNL     1       2.994 -10.915 -27.385  1.00  0.00     0.134 A 
ATOM      7  C   UNL     1       1.989 -11.657 -26.754  1.00  0.00     0.093 A 
ATOM      8  C   UNL     1       1.160 -12.511 -27.480  1.00  0.00     0.123 A 
ATOM      9  C   UNL     1       1.335 -12.642 -28.858  1.00  0.00     0.094 A 
ATOM     10  C   UNL     1       2.352 -11.943 -29.512  1.00  0.00     0.146 A 
ATOM     11  O   UNL     1       2.495 -12.106 -30.822  1.00  0.00    -0.456 OA
ENDROOT
BRANCH   1  12
ATOM     12  C   UNL     1       3.502 -11.754 -32.999  1.00  0.00     0.021 A 
ATOM     13  C   UNL     1       2.438 -12.359 -33.689  1.00  0.00     0.016 A 
ATOM     14  C   UNL     1       2.526 -12.589 -35.064  1.00  0.00     0.051 A 
ATOM     15  C   UNL     1       3.673 -12.229 -35.777  1.00  0.00     0.157 A 
ATOM     16  C   UNL     1       4.661 -11.405 -33.713  1.00  0.00     0.062 A 
ATOM     17  C   UNL     1       4.757 -11.632 -35.092  1.00  0.00     0.158 A 
BRANCH  15  18
ATOM     18  O   UNL     1       3.696 -12.484 -37.150  1.00  0.00    -0.504 OA
ATOM     19  H   UNL     1       4.153 -13.281 -37.569  1.00  0.00     0.293 HD
ENDBRANCH  15  18
BRANCH  17  20
ATOM     20  O   UNL     1       5.937 -11.250 -35.735  1.00  0.00    -0.504 OA
ATOM     21  H   UNL     1       6.338 -11.744 -36.519  1.00  0.00     0.293 HD
ENDBRANCH  17  20
ENDBRANCH   1  12
BRANCH   6  22
ATOM     22  O   UNL     1       3.710 -10.022 -26.581  1.00  0.00    -0.507 OA
ATOM     23  H   UNL     1       4.163  -9.184 -26.912  1.00  0.00     0.293 HD
ENDBRANCH   6  22
BRANCH   8  24
ATOM     24  O   UNL     1       0.158 -13.222 -26.821  1.00  0.00    -0.508 OA
ATOM     25  H   UNL     1       0.128 -14.234 -26.837  1.00  0.00     0.293 HD
ENDBRANCH   8  24
TORSDOF 5
ENDMDL
MODEL 4
REMARK VINA RESULT:    -6.058      1.702      7.121
REMARK INTER + INTRA:          -7.387
REMARK INTER:                  -7.125
REMARK INTRA:                  -0.263
REMARK UNBOUND:                -0.267
REMARK SMILES O=c1cc(-c2ccc(O)c(O)c2)oc2cc(O)cc(O)c12
REMARK SMILES IDX 4 1 3 2 2 3 1 4 21 5 19 6 18 7 16 8 15 9 14 10 13 11 5 12
REMARK SMILES IDX 6 13 7 14 8 15 12 16 10 17 9 18 11 20 20 22 17 24
REMARK H PARENT 9 19 11 21 20 23 17 25
REMARK Flexibility Score: inf
ROOT
ATOM      1  C   UNL     1       2.693 -11.696 -32.746  1.00  0.00     0.138 A 
ATOM      2  C   UNL     1       2.279 -12.457 -33.848  1.00  0.00     0.100 A 
ATOM      3  C   UNL     1       2.856 -12.230 -35.099  1.00  0.00     0.197 A 
ATOM      4  O   UNL     1       2.509 -12.970 -36.056  1.00  0.00    -0.289 OA
ATOM      5  C   UNL     1       3.829 -11.214 -35.251  1.00  0.00     0.107 A 
ATOM      6  C   UNL     1       4.455 -10.866 -36.486  1.00  0.00     0.134 A 
ATOM      7  C   UNL     1       5.489  -9.922 -36.493  1.00  0.00     0.093 A 
ATOM      8  C   UNL     1       5.878  -9.270 -35.324  1.00  0.00     0.123 A 
ATOM      9  C   UNL     1       5.236  -9.562 -34.120  1.00  0.00     0.094 A 
ATOM     10  C   UNL     1       4.225 -10.524 -34.073  1.00  0.00     0.146 A 
ATOM     11  O   UNL     1       3.649 -10.785 -32.905  1.00  0.00    -0.456 OA
ENDROOT
BRANCH   1  12
ATOM     12  C   UNL     1       2.113 -11.895 -31.394  1.00  0.00     0.021 A 
ATOM     13  C   UNL     1       2.763 -12.669 -30.417  1.00  0.00     0.016 A 
ATOM     14  C   UNL     1       2.187 -12.848 -29.158  1.00  0.00     0.051 A 
ATOM     15  C   UNL     1       0.953 -12.270 -28.846  1.00  0.00     0.157 A 
ATOM     16  C   UNL     1       0.865 -11.326 -31.086  1.00  0.00     0.062 A 
ATOM     17  C   UNL     1       0.281 -11.501 -29.825  1.00  0.00     0.158 A 
BRANCH  15  18
ATOM     18  O   UNL     1       0.434 -12.486 -27.568  1.00  0.00    -0.504 OA
ATOM     19  H   UNL     1      -0.254 -13.192 -27.349  1.00  0.00     0.293 HD
ENDBRANCH  15  18
BRANCH  17  20
ATOM     20  O   UNL     1      -0.957 -10.896 -29.591  1.00  0.00    -0.504 OA
ATOM     21  H   UNL     1      -1.606 -10.637 -30.320  1.00  0.00     0.293 HD
ENDBRANCH  17  20
ENDBRANCH   1  12
BRANCH   6  22
ATOM     22  O   UNL     1       4.084 -11.395 -37.726  1.00  0.00    -0.507 OA
ATOM     23  H   UNL     1       3.147 -11.389 -38.098  1.00  0.00     0.293 HD
ENDBRANCH   6  22
BRANCH   8  24
ATOM     24  O   UNL     1       6.901  -8.324 -35.371  1.00  0.00    -0.508 OA
ATOM     25  H   UNL     1       7.823  -8.558 -35.718  1.00  0.00     0.293 HD
ENDBRANCH   8  24
TORSDOF 5
ENDMDL
MODEL 5
REMARK VINA RESULT:    -6.005      2.045      7.365
REMARK INTER + INTRA:          -7.325
REMARK INTER:                  -7.037
REMARK INTRA:                  -0.288
REMARK UNBOUND:                -0.267
REMARK SMILES O=c1cc(-c2ccc(O)c(O)c2)oc2cc(O)cc(O)c12
REMARK SMILES IDX 4 1 3 2 2 3 1 4 21 5 19 6 18 7 16 8 15 9 14 10 13 11 5 12
REMARK SMILES IDX 6 13 7 14 8 15 12 16 10 17 9 18 11 20 20 22 17 24
REMARK H PARENT 9 19 11 21 20 23 17 25
REMARK Flexibility Score: inf
ROOT
ATOM      1  C   UNL     1       3.388 -11.518 -30.838  1.00  0.00     0.138 A 
ATOM      2  C   UNL     1       4.471 -10.665 -31.096  1.00  0.00     0.100 A 
ATOM      3  C   UNL     1       4.926 -10.506 -32.406  1.00  0.00     0.197 A 
ATOM      4  O   UNL     1       5.858  -9.687 -32.615  1.00  0.00    -0.289 OA
ATOM      5  C   UNL     1       4.312 -11.228 -33.457  1.00  0.00     0.107 A 
ATOM      6  C   UNL     1       4.717 -11.175 -34.825  1.00  0.00     0.134 A 
ATOM      7  C   UNL     1       3.960 -11.842 -35.795  1.00  0.00     0.093 A 
ATOM      8  C   UNL     1       2.851 -12.610 -35.442  1.00  0.00     0.123 A 
ATOM      9  C   UNL     1       2.477 -12.713 -34.101  1.00  0.00     0.094 A 
ATOM     10  C   UNL     1       3.191 -12.030 -33.113  1.00  0.00     0.146 A 
ATOM     11  O   UNL     1       2.794 -12.142 -31.851  1.00  0.00    -0.456 OA
ENDROOT
BRANCH   1  12
ATOM     12  C   UNL     1       2.865 -11.725 -29.464  1.00  0.00     0.021 A 
ATOM     13  C   UNL     1       2.176 -12.896 -29.105  1.00  0.00     0.016 A 
ATOM     14  C   UNL     1       1.686 -13.059 -27.807  1.00  0.00     0.051 A 
ATOM     15  C   UNL     1       1.865 -12.061 -26.844  1.00  0.00     0.157 A 
ATOM     16  C   UNL     1       3.033 -10.716 -28.500  1.00  0.00     0.062 A 
ATOM     17  C   UNL     1       2.545 -10.871 -27.197  1.00  0.00     0.158 A 
BRANCH  15  18
ATOM     18  O   UNL     1       1.353 -12.287 -25.565  1.00  0.00    -0.504 OA
ATOM     19  H   UNL     1       1.876 -12.144 -24.713  1.00  0.00     0.293 HD
ENDBRANCH  15  18
BRANCH  17  20
ATOM     20  O   UNL     1       2.758  -9.828 -26.292  1.00  0.00    -0.504 OA
ATOM     21  H   UNL     1       2.396  -9.816 -25.350  1.00  0.00     0.293 HD
ENDBRANCH  17  20
ENDBRANCH   1  12
BRANCH   6  22
ATOM     22  O   UNL     1       5.860 -10.506 -35.275  1.00  0.00    -0.507 OA
ATOM     23  H   UNL     1       6.720 -10.955 -35.549  1.00  0.00     0.293 HD
ENDBRANCH   6  22
BRANCH   8  24
ATOM     24  O   UNL     1       2.130 -13.274 -36.432  1.00  0.00    -0.508 OA
ATOM     25  H   UNL     1       1.401 -13.938 -36.202  1.00  0.00     0.293 HD
ENDBRANCH   8  24
TORSDOF 5
ENDMDL
MODEL 6
REMARK VINA RESULT:    -5.972      2.091      2.579
REMARK INTER + INTRA:          -7.286
REMARK INTER:                  -6.996
REMARK INTRA:                  -0.290
REMARK UNBOUND:                -0.267
REMARK SMILES O=c1cc(-c2ccc(O)c(O)c2)oc2cc(O)cc(O)c12
REMARK SMILES IDX 4 1 3 2 2 3 1 4 21 5 19 6 18 7 16 8 15 9 14 10 13 11 5 12
REMARK SMILES IDX 6 13 7 14 8 15 12 16 10 17 9 18 11 20 20 22 17 24
REMARK H PARENT 9 19 11 21 20 23 17 25
REMARK Flexibility Score: inf
ROOT
ATOM      1  C   UNL     1       3.483 -11.578 -32.604  1.00  0.00     0.138 A 
ATOM      2  C   UNL     1       2.628 -12.587 -32.138  1.00  0.00     0.100 A 
ATOM      3  C   UNL     1       2.210 -12.575 -30.806  1.00  0.00     0.197 A 
ATOM      4  O   UNL     1       1.393 -13.457 -30.432  1.00  0.00    -0.289 OA
ATOM      5  C   UNL     1       2.676 -11.565 -29.931  1.00  0.00     0.107 A 
ATOM      6  C   UNL     1       2.348 -11.476 -28.545  1.00  0.00     0.134 A 
ATOM      7  C   UNL     1       2.773 -10.366 -27.805  1.00  0.00     0.093 A 
ATOM      8  C   UNL     1       3.565  -9.374 -28.384  1.00  0.00     0.123 A 
ATOM      9  C   UNL     1       3.937  -9.478 -29.725  1.00  0.00     0.094 A 
ATOM     10  C   UNL     1       3.499 -10.556 -30.499  1.00  0.00     0.146 A 
ATOM     11  O   UNL     1       3.862 -10.610 -31.775  1.00  0.00    -0.456 OA
ENDROOT
BRANCH   1  12
ATOM     12  C   UNL     1       3.960 -11.544 -34.010  1.00  0.00     0.021 A 
ATOM     13  C   UNL     1       5.106 -10.822 -34.384  1.00  0.00     0.016 A 
ATOM     14  C   UNL     1       5.524 -10.799 -35.717  1.00  0.00     0.051 A 
ATOM     15  C   UNL     1       4.809 -11.487 -36.703  1.00  0.00     0.157 A 
ATOM     16  C   UNL     1       3.233 -12.224 -35.003  1.00  0.00     0.062 A 
ATOM     17  C   UNL     1       3.646 -12.206 -36.341  1.00  0.00     0.158 A 
BRANCH  15  18
ATOM     18  O   UNL     1       5.283 -11.426 -38.015  1.00  0.00    -0.504 OA
ATOM     19  H   UNL     1       5.714 -10.609 -38.423  1.00  0.00     0.293 HD
ENDBRANCH  15  18
BRANCH  17  20
ATOM     20  O   UNL     1       2.878 -12.913 -37.270  1.00  0.00    -0.504 OA
ATOM     21  H   UNL     1       2.155 -12.496 -37.839  1.00  0.00     0.293 HD
ENDBRANCH  17  20
ENDBRANCH   1  12
BRANCH   6  22
ATOM     22  O   UNL     1       1.634 -12.455 -27.846  1.00  0.00    -0.507 OA
ATOM     23  H   UNL     1       1.998 -12.994 -27.076  1.00  0.00     0.293 HD
ENDBRANCH   6  22
BRANCH   8  24
ATOM     24  O   UNL     1       3.984  -8.292 -27.613  1.00  0.00    -0.508 OA
ATOM     25  H   UNL     1       4.797  -7.744 -27.867  1.00  0.00     0.293 HD
ENDBRANCH   8  24
TORSDOF 5
ENDMDL
MODEL 7
REMARK VINA RESULT:    -5.864      2.046      7.093
REMARK INTER + INTRA:          -7.160
REMARK INTER:                  -6.861
REMARK INTRA:                  -0.299
REMARK UNBOUND:                -0.267
REMARK SMILES O=c1cc(-c2ccc(O)c(O)c2)oc2cc(O)cc(O)c12
REMARK SMILES IDX 4 1 3 2 2 3 1 4 21 5 19 6 18 7 16 8 15 9 14 10 13 11 5 12
REMARK SMILES IDX 6 13 7 14 8 15 12 16 10 17 9 18 11 20 20 22 17 24
REMARK H PARENT 9 19 11 21 20 23 17 25
REMARK Flexibility Score: inf
ROOT
ATOM      1  C   UNL     1       2.435 -12.013 -30.170  1.00  0.00     0.138 A 
ATOM      2  C   UNL     1       1.304 -12.593 -30.762  1.00  0.00     0.100 A 
ATOM      3  C   UNL     1       1.257 -12.754 -32.148  1.00  0.00     0.197 A 
ATOM      4  O   UNL     1       0.257 -13.334 -32.645  1.00  0.00    -0.289 OA
ATOM      5  C   UNL     1       2.336 -12.304 -32.945  1.00  0.00     0.107 A 
ATOM      6  C   UNL     1       2.381 -12.380 -34.370  1.00  0.00     0.134 A 
ATOM      7  C   UNL     1       3.551 -12.010 -35.044  1.00  0.00     0.093 A 
ATOM      8  C   UNL     1       4.654 -11.511 -34.353  1.00  0.00     0.123 A 
ATOM      9  C   UNL     1       4.602 -11.381 -32.965  1.00  0.00     0.094 A 
ATOM     10  C   UNL     1       3.462 -11.775 -32.259  1.00  0.00     0.146 A 
ATOM     11  O   UNL     1       3.458 -11.650 -30.937  1.00  0.00    -0.456 OA
ENDROOT
BRANCH   1  12
ATOM     12  C   UNL     1       2.536 -11.817 -28.702  1.00  0.00     0.021 A 
ATOM     13  C   UNL     1       2.013 -12.753 -27.793  1.00  0.00     0.016 A 
ATOM     14  C   UNL     1       2.113 -12.537 -26.417  1.00  0.00     0.051 A 
ATOM     15  C   UNL     1       2.728 -11.384 -25.917  1.00  0.00     0.157 A 
ATOM     16  C   UNL     1       3.141 -10.652 -28.199  1.00  0.00     0.062 A 
ATOM     17  C   UNL     1       3.246 -10.427 -26.821  1.00  0.00     0.158 A 
BRANCH  15  18
ATOM     18  O   UNL     1       2.797 -11.230 -24.531  1.00  0.00    -0.504 OA
ATOM     19  H   UNL     1       3.633 -11.388 -23.986  1.00  0.00     0.293 HD
ENDBRANCH  15  18
BRANCH  17  20
ATOM     20  O   UNL     1       3.869  -9.250 -26.398  1.00  0.00    -0.504 OA
ATOM     21  H   UNL     1       4.045  -8.457 -26.998  1.00  0.00     0.293 HD
ENDBRANCH  17  20
ENDBRANCH   1  12
BRANCH   6  22
ATOM     22  O   UNL     1       1.304 -12.785 -35.165  1.00  0.00    -0.507 OA
ATOM     23  H   UNL     1       1.104 -13.739 -35.422  1.00  0.00     0.293 HD
ENDBRANCH   6  22
BRANCH   8  24
ATOM     24  O   UNL     1       5.796 -11.137 -35.058  1.00  0.00    -0.508 OA
ATOM     25  H   UNL     1       6.709 -11.124 -34.620  1.00  0.00     0.293 HD
ENDBRANCH   8  24
TORSDOF 5
ENDMDL
MODEL 8
REMARK VINA RESULT:    -5.828      2.863      7.908
REMARK INTER + INTRA:          -7.117
REMARK INTER:                  -6.808
REMARK INTRA:                  -0.309
REMARK UNBOUND:                -0.267
REMARK SMILES O=c1cc(-c2ccc(O)c(O)c2)oc2cc(O)cc(O)c12
REMARK SMILES IDX 4 1 3 2 2 3 1 4 21 5 19 6 18 7 16 8 15 9 14 10 13 11 5 12
REMARK SMILES IDX 6 13 7 14 8 15 12 16 10 17 9 18 11 20 20 22 17 24
REMARK H PARENT 9 19 11 21 20 23 17 25
REMARK Flexibility Score: inf
ROOT
ATOM      1  C   UNL     1       1.912 -12.176 -28.431  1.00  0.00     0.138 A 
ATOM      2  C   UNL     1       1.476 -13.002 -29.477  1.00  0.00     0.100 A 
ATOM      3  C   UNL     1       2.091 -12.914 -30.728  1.00  0.00     0.197 A 
ATOM      4  O   UNL     1       1.722 -13.710 -31.629  1.00  0.00    -0.289 OA
ATOM      5  C   UNL     1       3.126 -11.972 -30.937  1.00  0.00     0.107 A 
ATOM      6  C   UNL     1       3.798 -11.765 -32.180  1.00  0.00     0.134 A 
ATOM      7  C   UNL     1       4.887 -10.887 -32.237  1.00  0.00     0.093 A 
ATOM      8  C   UNL     1       5.289 -10.162 -31.117  1.00  0.00     0.123 A 
ATOM      9  C   UNL     1       4.606 -10.315 -29.909  1.00  0.00     0.094 A 
ATOM     10  C   UNL     1       3.538 -11.210 -29.810  1.00  0.00     0.146 A 
ATOM     11  O   UNL     1       2.923 -11.339 -28.640  1.00  0.00    -0.456 OA
ENDROOT
BRANCH   1  12
ATOM     12  C   UNL     1       1.292 -12.228 -27.083  1.00  0.00     0.021 A 
ATOM     13  C   UNL     1      -0.045 -12.623 -26.899  1.00  0.00     0.016 A 
ATOM     14  C   UNL     1      -0.604 -12.652 -25.620  1.00  0.00     0.051 A 
ATOM     15  C   UNL     1       0.149 -12.283 -24.501  1.00  0.00     0.157 A 
ATOM     16  C   UNL     1       2.044 -11.843 -25.960  1.00  0.00     0.062 A 
ATOM     17  C   UNL     1       1.491 -11.870 -24.674  1.00  0.00     0.158 A 
BRANCH  15  18
ATOM     18  O   UNL     1      -0.470 -12.337 -23.250  1.00  0.00    -0.504 OA
ATOM     19  H   UNL     1      -0.118 -12.870 -22.468  1.00  0.00     0.293 HD
ENDBRANCH  15  18
BRANCH  17  20
ATOM     20  O   UNL     1       2.304 -11.483 -23.606  1.00  0.00    -0.504 OA
ATOM     21  H   UNL     1       2.688 -10.555 -23.496  1.00  0.00     0.293 HD
ENDBRANCH  17  20
ENDBRANCH   1  12
BRANCH   6  22
ATOM     22  O   UNL     1       3.423 -12.374 -33.381  1.00  0.00    -0.507 OA
ATOM     23  H   UNL     1       3.840 -12.184 -34.279  1.00  0.00     0.293 HD
ENDBRANCH   6  22
BRANCH   8  24
ATOM     24  O   UNL     1       6.367  -9.285 -31.215  1.00  0.00    -0.508 OA
ATOM     25  H   UNL     1       6.291  -8.405 -31.712  1.00  0.00     0.293 HD
ENDBRANCH   8  24
TORSDOF 5
ENDMDL
MODEL 9
REMARK VINA RESULT:    -5.773      2.636      3.994
REMARK INTER + INTRA:          -7.052
REMARK INTER:                  -6.778
REMARK INTRA:                  -0.274
REMARK UNBOUND:                -0.267
REMARK SMILES O=c1cc(-c2ccc(O)c(O)c2)oc2cc(O)cc(O)c12
REMARK SMILES IDX 4 1 3 2 2 3 1 4 21 5 19 6 18 7 16 8 15 9 14 10 13 11 5 12
REMARK SMILES IDX 6 13 7 14 8 15 12 16 10 17 9 18 11 20 20 22 17 24
REMARK H PARENT 9 19 11 21 20 23 17 25
REMARK Flexibility Score: inf
ROOT
ATOM      1  C   UNL     1       2.255 -12.057 -29.417  1.00  0.00     0.138 A 
ATOM      2  C   UNL     1       1.318 -12.833 -28.719  1.00  0.00     0.100 A 
ATOM      3  C   UNL     1       1.186 -12.679 -27.338  1.00  0.00     0.197 A 
ATOM      4  O   UNL     1       0.295 -13.344 -26.748  1.00  0.00    -0.289 OA
ATOM      5  C   UNL     1       2.019 -11.765 -26.650  1.00  0.00     0.107 A 
ATOM      6  C   UNL     1       2.001 -11.553 -25.238  1.00  0.00     0.134 A 
ATOM      7  C   UNL     1       2.789 -10.537 -24.683  1.00  0.00     0.093 A 
ATOM      8  C   UNL     1       3.638  -9.768 -25.477  1.00  0.00     0.123 A 
ATOM      9  C   UNL     1       3.704 -10.002 -26.851  1.00  0.00     0.094 A 
ATOM     10  C   UNL     1       2.905 -10.985 -27.441  1.00  0.00     0.146 A 
ATOM     11  O   UNL     1       2.986 -11.166 -28.754  1.00  0.00    -0.456 OA
ENDROOT
BRANCH   1  12
ATOM     12  C   UNL     1       2.437 -12.182 -30.885  1.00  0.00     0.021 A 
ATOM     13  C   UNL     1       3.714 -12.263 -31.467  1.00  0.00     0.016 A 
ATOM     14  C   UNL     1       3.854 -12.370 -32.852  1.00  0.00     0.051 A 
ATOM     15  C   UNL     1       2.732 -12.391 -33.686  1.00  0.00     0.157 A 
ATOM     16  C   UNL     1       1.309 -12.189 -31.724  1.00  0.00     0.062 A 
ATOM     17  C   UNL     1       1.441 -12.296 -33.114  1.00  0.00     0.158 A 
BRANCH  15  18
ATOM     18  O   UNL     1       2.942 -12.501 -35.062  1.00  0.00    -0.504 OA
ATOM     19  H   UNL     1       3.775 -12.894 -35.477  1.00  0.00     0.293 HD
ENDBRANCH  15  18
BRANCH  17  20
ATOM     20  O   UNL     1       0.274 -12.306 -33.881  1.00  0.00    -0.504 OA
ATOM     21  H   UNL     1      -0.552 -12.836 -33.646  1.00  0.00     0.293 HD
ENDBRANCH  17  20
ENDBRANCH   1  12
BRANCH   6  22
ATOM     22  O   UNL     1       1.252 -12.323 -24.342  1.00  0.00    -0.507 OA
ATOM     23  H   UNL     1       0.684 -13.115 -24.599  1.00  0.00     0.293 HD
ENDBRANCH   6  22
BRANCH   8  24
ATOM     24  O   UNL     1       4.420  -8.777 -24.888  1.00  0.00    -0.508 OA
ATOM     25  H   UNL     1       5.200  -9.006 -24.283  1.00  0.00     0.293 HD
ENDBRANCH   8  24
TORSDOF 5
ENDMDL
