MODEL 1
REMARK VINA RESULT:    -6.314      0.000      0.000
REMARK INTER + INTRA:          -6.995
REMARK INTER:                  -6.683
REMARK INTRA:                  -0.311
REMARK UNBOUND:                -0.311
REMARK SMILES CC1=CC[C@@]23[C@@H]([C@@H](C(C)C)CC[C@H]2C)[C@H]13
REMARK SMILES IDX 14 1 13 2 12 3 11 4 7 5 6 6 5 7 15 8 2 9 3 10 4 11 1 12 8 13
REMARK SMILES IDX 9 14 10 15
REMARK H PARENT
REMARK Flexibility Score: inf
ROOT
ATOM      1  C   UNL     1     140.171 145.981 161.805  1.00  0.00     0.008 C 
ATOM      2  C   UNL     1     140.593 145.402 163.169  1.00  0.00    -0.007 C 
ATOM      3  C   UNL     1     140.441 146.468 164.276  1.00  0.00     0.004 C 
ATOM      4  C   UNL     1     141.603 147.463 164.271  1.00  0.00     0.004 C 
ATOM      5  C   UNL     1     142.929 146.766 164.643  1.00  0.00    -0.004 C 
ATOM      6  C   UNL     1     143.199 145.514 163.768  1.00  0.00     0.007 C 
ATOM      7  C   UNL     1     142.023 144.802 163.081  1.00  0.00    -0.013 C 
ATOM      8  C   UNL     1     142.610 144.231 164.373  1.00  0.00     0.025 C 
ATOM      9  C   UNL     1     143.263 142.959 163.955  1.00  0.00    -0.073 C 
ATOM     10  C   UNL     1     143.127 142.712 162.661  1.00  0.00    -0.027 C 
ATOM     11  C   UNL     1     142.356 143.784 161.973  1.00  0.00     0.035 C 
ATOM     12  C   UNL     1     144.005 142.059 164.896  1.00  0.00     0.039 C 
ENDROOT
BRANCH   5  13
ATOM     13  C   UNL     1     144.156 147.728 164.605  1.00  0.00    -0.014 C 
ATOM     14  C   UNL     1     144.231 148.518 163.290  1.00  0.00     0.007 C 
ATOM     15  C   UNL     1     145.498 147.026 164.879  1.00  0.00     0.007 C 
ENDBRANCH   5  13
TORSDOF 1
ENDMDL
MODEL 2
REMARK VINA RESULT:    -6.313      2.766      5.102
REMARK INTER + INTRA:          -6.993
REMARK INTER:                  -6.682
REMARK INTRA:                  -0.312
REMARK UNBOUND:                -0.311
REMARK SMILES CC1=CC[C@@]23[C@@H]([C@@H](C(C)C)CC[C@H]2C)[C@H]13
REMARK SMILES IDX 14 1 13 2 12 3 11 4 7 5 6 6 5 7 15 8 2 9 3 10 4 11 1 12 8 13
REMARK SMILES IDX 9 14 10 15
REMARK H PARENT
REMARK Flexibility Score: inf
ROOT
ATOM      1  C   UNL     1     144.751 140.151 161.866  1.00  0.00     0.008 C 
ATOM      2  C   UNL     1     145.340 140.587 163.221  1.00  0.00    -0.007 C 
ATOM      3  C   UNL     1     144.281 140.447 164.337  1.00  0.00     0.004 C 
ATOM      4  C   UNL     1     143.286 141.609 164.327  1.00  0.00     0.004 C 
ATOM      5  C   UNL     1     143.986 142.939 164.680  1.00  0.00    -0.004 C 
ATOM      6  C   UNL     1     145.231 143.200 163.794  1.00  0.00     0.007 C 
ATOM      7  C   UNL     1     145.938 142.016 163.114  1.00  0.00    -0.013 C 
ATOM      8  C   UNL     1     146.518 142.616 164.395  1.00  0.00     0.025 C 
ATOM      9  C   UNL     1     147.788 143.265 163.962  1.00  0.00    -0.073 C 
ATOM     10  C   UNL     1     148.025 143.115 162.668  1.00  0.00    -0.027 C 
ATOM     11  C   UNL     1     146.948 142.338 161.996  1.00  0.00     0.035 C 
ATOM     12  C   UNL     1     148.694 144.017 164.888  1.00  0.00     0.039 C 
ENDROOT
BRANCH   5  13
ATOM     13  C   UNL     1     143.024 144.165 164.636  1.00  0.00    -0.014 C 
ATOM     14  C   UNL     1     142.237 144.236 163.319  1.00  0.00     0.007 C 
ATOM     15  C   UNL     1     143.725 145.508 164.908  1.00  0.00     0.007 C 
ENDBRANCH   5  13
TORSDOF 1
ENDMDL
MODEL 3
REMARK VINA RESULT:    -6.305      3.934      7.244
REMARK INTER + INTRA:          -6.985
REMARK INTER:                  -6.674
REMARK INTRA:                  -0.311
REMARK UNBOUND:                -0.311
REMARK SMILES CC1=CC[C@@]23[C@@H]([C@@H](C(C)C)CC[C@H]2C)[C@H]13
REMARK SMILES IDX 14 1 13 2 12 3 11 4 7 5 6 6 5 7 15 8 2 9 3 10 4 11 1 12 8 13
REMARK SMILES IDX 9 14 10 15
REMARK H PARENT
REMARK Flexibility Score: inf
ROOT
ATOM      1  C   UNL     1     150.595 144.753 161.819  1.00  0.00     0.008 C 
ATOM      2  C   UNL     1     150.183 145.314 163.192  1.00  0.00    -0.007 C 
ATOM      3  C   UNL     1     150.325 144.228 164.282  1.00  0.00     0.004 C 
ATOM      4  C   UNL     1     149.151 143.247 164.264  1.00  0.00     0.004 C 
ATOM      5  C   UNL     1     147.834 143.953 164.650  1.00  0.00    -0.004 C 
ATOM      6  C   UNL     1     147.577 145.222 163.796  1.00  0.00     0.007 C 
ATOM      7  C   UNL     1     148.759 145.932 163.118  1.00  0.00    -0.013 C 
ATOM      8  C   UNL     1     148.183 146.488 164.420  1.00  0.00     0.025 C 
ATOM      9  C   UNL     1     147.543 147.775 164.025  1.00  0.00    -0.073 C 
ATOM     10  C   UNL     1     147.679 148.040 162.735  1.00  0.00    -0.027 C 
ATOM     11  C   UNL     1     148.436 146.971 162.028  1.00  0.00     0.035 C 
ATOM     12  C   UNL     1     146.813 148.667 164.981  1.00  0.00     0.039 C 
ENDROOT
BRANCH   5  13
ATOM     13  C   UNL     1     146.596 143.006 164.599  1.00  0.00    -0.014 C 
ATOM     14  C   UNL     1     146.522 142.221 163.281  1.00  0.00     0.007 C 
ATOM     15  C   UNL     1     145.261 143.724 164.865  1.00  0.00     0.007 C 
ENDBRANCH   5  13
TORSDOF 1
ENDMDL
MODEL 4
REMARK VINA RESULT:    -6.295      2.780      5.094
REMARK INTER + INTRA:          -6.974
REMARK INTER:                  -6.663
REMARK INTRA:                  -0.311
REMARK UNBOUND:                -0.311
REMARK SMILES CC1=CC[C@@]23[C@@H]([C@@H](C(C)C)CC[C@H]2C)[C@H]13
REMARK SMILES IDX 14 1 13 2 12 3 11 4 7 5 6 6 5 7 15 8 2 9 3 10 4 11 1 12 8 13
REMARK SMILES IDX 9 14 10 15
REMARK H PARENT
REMARK Flexibility Score: inf
ROOT
ATOM      1  C   UNL     1     145.977 150.569 161.862  1.00  0.00     0.008 C 
ATOM      2  C   UNL     1     145.385 150.152 163.221  1.00  0.00    -0.007 C 
ATOM      3  C   UNL     1     146.442 150.306 164.337  1.00  0.00     0.004 C 
ATOM      4  C   UNL     1     147.436 149.142 164.346  1.00  0.00     0.004 C 
ATOM      5  C   UNL     1     146.733 147.819 164.715  1.00  0.00    -0.004 C 
ATOM      6  C   UNL     1     145.489 147.547 163.831  1.00  0.00     0.007 C 
ATOM      7  C   UNL     1     144.785 148.722 163.133  1.00  0.00    -0.013 C 
ATOM      8  C   UNL     1     144.202 148.141 164.421  1.00  0.00     0.025 C 
ATOM      9  C   UNL     1     142.932 147.487 163.995  1.00  0.00    -0.073 C 
ATOM     10  C   UNL     1     142.697 147.620 162.698  1.00  0.00    -0.027 C 
ATOM     11  C   UNL     1     143.776 148.387 162.017  1.00  0.00     0.035 C 
ATOM     12  C   UNL     1     142.023 146.750 164.929  1.00  0.00     0.039 C 
ENDROOT
BRANCH   5  13
ATOM     13  C   UNL     1     147.694 146.591 164.690  1.00  0.00    -0.014 C 
ATOM     14  C   UNL     1     148.521 146.529 163.397  1.00  0.00     0.007 C 
ATOM     15  C   UNL     1     146.982 145.247 164.929  1.00  0.00     0.007 C 
ENDBRANCH   5  13
TORSDOF 1
ENDMDL
MODEL 5
REMARK VINA RESULT:    -5.936      5.192      7.527
REMARK INTER + INTRA:          -6.595
REMARK INTER:                  -6.344
REMARK INTRA:                  -0.251
REMARK UNBOUND:                -0.311
REMARK SMILES CC1=CC[C@@]23[C@@H]([C@@H](C(C)C)CC[C@H]2C)[C@H]13
REMARK SMILES IDX 14 1 13 2 12 3 11 4 7 5 6 6 5 7 15 8 2 9 3 10 4 11 1 12 8 13
REMARK SMILES IDX 9 14 10 15
REMARK H PARENT
REMARK Flexibility Score: inf
ROOT
ATOM      1  C   UNL     1     148.791 144.370 158.898  1.00  0.00     0.008 C 
ATOM      2  C   UNL     1     149.254 143.411 160.010  1.00  0.00    -0.007 C 
ATOM      3  C   UNL     1     148.578 142.032 159.847  1.00  0.00     0.004 C 
ATOM      4  C   UNL     1     147.139 142.038 160.368  1.00  0.00     0.004 C 
ATOM      5  C   UNL     1     147.106 142.261 161.895  1.00  0.00    -0.004 C 
ATOM      6  C   UNL     1     147.911 143.515 162.323  1.00  0.00     0.007 C 
ATOM      7  C   UNL     1     149.021 144.052 161.406  1.00  0.00    -0.013 C 
ATOM      8  C   UNL     1     149.384 143.199 162.623  1.00  0.00     0.025 C 
ATOM      9  C   UNL     1     150.074 144.142 163.547  1.00  0.00    -0.073 C 
ATOM     10  C   UNL     1     150.175 145.366 163.050  1.00  0.00    -0.027 C 
ATOM     11  C   UNL     1     149.564 145.464 161.697  1.00  0.00     0.035 C 
ATOM     12  C   UNL     1     150.588 143.753 164.899  1.00  0.00     0.039 C 
ENDROOT
BRANCH   5  13
ATOM     13  C   UNL     1     145.658 142.325 162.471  1.00  0.00    -0.014 C 
ATOM     14  C   UNL     1     145.628 142.888 163.900  1.00  0.00     0.007 C 
ATOM     15  C   UNL     1     144.912 140.981 162.414  1.00  0.00     0.007 C 
ENDBRANCH   5  13
TORSDOF 1
ENDMDL
MODEL 6
REMARK VINA RESULT:    -5.934      5.185      7.158
REMARK INTER + INTRA:          -6.593
REMARK INTER:                  -6.349
REMARK INTRA:                  -0.244
REMARK UNBOUND:                -0.311
REMARK SMILES CC1=CC[C@@]23[C@@H]([C@@H](C(C)C)CC[C@H]2C)[C@H]13
REMARK SMILES IDX 14 1 13 2 12 3 11 4 7 5 6 6 5 7 15 8 2 9 3 10 4 11 1 12 8 13
REMARK SMILES IDX 9 14 10 15
REMARK H PARENT
REMARK Flexibility Score: inf
ROOT
ATOM      1  C   UNL     1     146.462 148.751 158.887  1.00  0.00     0.008 C 
ATOM      2  C   UNL     1     147.402 149.216 160.015  1.00  0.00    -0.007 C 
ATOM      3  C   UNL     1     148.773 148.514 159.896  1.00  0.00     0.004 C 
ATOM      4  C   UNL     1     148.729 147.084 160.440  1.00  0.00     0.004 C 
ATOM      5  C   UNL     1     148.470 147.079 161.961  1.00  0.00    -0.004 C 
ATOM      6  C   UNL     1     147.220 147.912 162.346  1.00  0.00     0.007 C 
ATOM      7  C   UNL     1     146.725 149.016 161.399  1.00  0.00    -0.013 C 
ATOM      8  C   UNL     1     147.554 149.384 162.630  1.00  0.00     0.025 C 
ATOM      9  C   UNL     1     146.601 150.105 163.520  1.00  0.00    -0.073 C 
ATOM     10  C   UNL     1     145.392 150.219 162.992  1.00  0.00    -0.027 C 
ATOM     11  C   UNL     1     145.315 149.588 161.647  1.00  0.00     0.035 C 
ATOM     12  C   UNL     1     146.967 150.634 164.873  1.00  0.00     0.039 C 
ENDROOT
BRANCH   5  13
ATOM     13  C   UNL     1     148.367 145.642 162.558  1.00  0.00    -0.014 C 
ATOM     14  C   UNL     1     147.851 145.652 164.004  1.00  0.00     0.007 C 
ATOM     15  C   UNL     1     149.679 144.842 162.468  1.00  0.00     0.007 C 
ENDBRANCH   5  13
TORSDOF 1
ENDMDL
MODEL 7
REMARK VINA RESULT:    -5.929      2.404      3.742
REMARK INTER + INTRA:          -6.587
REMARK INTER:                  -6.360
REMARK INTRA:                  -0.227
REMARK UNBOUND:                -0.311
REMARK SMILES CC1=CC[C@@]23[C@@H]([C@@H](C(C)C)CC[C@H]2C)[C@H]13
REMARK SMILES IDX 14 1 13 2 12 3 11 4 7 5 6 6 5 7 15 8 2 9 3 10 4 11 1 12 8 13
REMARK SMILES IDX 9 14 10 15
REMARK H PARENT
REMARK Flexibility Score: inf
ROOT
ATOM      1  C   UNL     1     141.984 146.475 158.887  1.00  0.00     0.008 C 
ATOM      2  C   UNL     1     141.534 147.410 160.025  1.00  0.00    -0.007 C 
ATOM      3  C   UNL     1     142.253 148.772 159.918  1.00  0.00     0.004 C 
ATOM      4  C   UNL     1     143.683 148.706 160.458  1.00  0.00     0.004 C 
ATOM      5  C   UNL     1     143.688 148.431 161.977  1.00  0.00    -0.004 C 
ATOM      6  C   UNL     1     142.840 147.188 162.351  1.00  0.00     0.007 C 
ATOM      7  C   UNL     1     141.727 146.716 161.401  1.00  0.00    -0.013 C 
ATOM      8  C   UNL     1     141.373 147.538 162.641  1.00  0.00     0.025 C 
ATOM      9  C   UNL     1     140.641 146.585 163.524  1.00  0.00    -0.073 C 
ATOM     10  C   UNL     1     140.511 145.383 162.984  1.00  0.00    -0.027 C 
ATOM     11  C   UNL     1     141.139 145.311 161.636  1.00  0.00     0.035 C 
ATOM     12  C   UNL     1     140.120 146.944 164.881  1.00  0.00     0.039 C 
ENDROOT
BRANCH   5  13
ATOM     13  C   UNL     1     145.125 148.304 162.570  1.00  0.00    -0.014 C 
ATOM     14  C   UNL     1     145.109 148.157 164.099  1.00  0.00     0.007 C 
ATOM     15  C   UNL     1     146.065 149.449 162.157  1.00  0.00     0.007 C 
ENDBRANCH   5  13
TORSDOF 1
ENDMDL
MODEL 8
REMARK VINA RESULT:    -5.919      5.307      7.421
REMARK INTER + INTRA:          -6.576
REMARK INTER:                  -6.373
REMARK INTRA:                  -0.203
REMARK UNBOUND:                -0.311
REMARK SMILES CC1=CC[C@@]23[C@@H]([C@@H](C(C)C)CC[C@H]2C)[C@H]13
REMARK SMILES IDX 14 1 13 2 12 3 11 4 7 5 6 6 5 7 15 8 2 9 3 10 4 11 1 12 8 13
REMARK SMILES IDX 9 14 10 15
REMARK H PARENT
REMARK Flexibility Score: inf
ROOT
ATOM      1  C   UNL     1     147.640 149.606 163.683  1.00  0.00     0.008 C 
ATOM      2  C   UNL     1     147.010 148.515 162.796  1.00  0.00    -0.007 C 
ATOM      3  C   UNL     1     146.982 147.164 163.545  1.00  0.00     0.004 C 
ATOM      4  C   UNL     1     148.348 146.474 163.529  1.00  0.00     0.004 C 
ATOM      5  C   UNL     1     148.743 146.065 162.094  1.00  0.00    -0.004 C 
ATOM      6  C   UNL     1     148.650 147.251 161.099  1.00  0.00     0.007 C 
ATOM      7  C   UNL     1     147.740 148.446 161.427  1.00  0.00    -0.013 C 
ATOM      8  C   UNL     1     147.264 147.371 160.448  1.00  0.00     0.025 C 
ATOM      9  C   UNL     1     147.226 148.060 159.127  1.00  0.00    -0.073 C 
ATOM     10  C   UNL     1     147.579 149.334 159.203  1.00  0.00    -0.027 C 
ATOM     11  C   UNL     1     147.924 149.730 160.595  1.00  0.00     0.035 C 
ATOM     12  C   UNL     1     146.842 147.382 157.848  1.00  0.00     0.039 C 
ENDROOT
BRANCH   5  13
ATOM     13  C   UNL     1     150.151 145.401 162.014  1.00  0.00    -0.014 C 
ATOM     14  C   UNL     1     150.183 144.227 161.024  1.00  0.00     0.007 C 
ATOM     15  C   UNL     1     150.702 144.958 163.381  1.00  0.00     0.007 C 
ENDBRANCH   5  13
TORSDOF 1
ENDMDL
MODEL 9
REMARK VINA RESULT:    -5.885      2.132      4.526
REMARK INTER + INTRA:          -6.540
REMARK INTER:                  -6.284
REMARK INTRA:                  -0.256
REMARK UNBOUND:                -0.311
REMARK SMILES CC1=CC[C@@]23[C@@H]([C@@H](C(C)C)CC[C@H]2C)[C@H]13
REMARK SMILES IDX 14 1 13 2 12 3 11 4 7 5 6 6 5 7 15 8 2 9 3 10 4 11 1 12 8 13
REMARK SMILES IDX 9 14 10 15
REMARK H PARENT
REMARK Flexibility Score: inf
ROOT
ATOM      1  C   UNL     1     145.033 142.018 159.593  1.00  0.00     0.008 C 
ATOM      2  C   UNL     1     143.837 141.489 160.407  1.00  0.00    -0.007 C 
ATOM      3  C   UNL     1     142.518 142.094 159.880  1.00  0.00     0.004 C 
ATOM      4  C   UNL     1     142.305 143.524 160.382  1.00  0.00     0.004 C 
ATOM      5  C   UNL     1     142.108 143.547 161.913  1.00  0.00    -0.004 C 
ATOM      6  C   UNL     1     143.244 142.804 162.663  1.00  0.00     0.007 C 
ATOM      7  C   UNL     1     144.066 141.736 161.924  1.00  0.00    -0.013 C 
ATOM      8  C   UNL     1     142.940 141.312 162.867  1.00  0.00     0.025 C 
ATOM      9  C   UNL     1     143.637 140.660 164.012  1.00  0.00    -0.073 C 
ATOM     10  C   UNL     1     144.953 140.631 163.861  1.00  0.00    -0.027 C 
ATOM     11  C   UNL     1     145.377 141.265 162.583  1.00  0.00     0.035 C 
ATOM     12  C   UNL     1     142.929 140.107 165.210  1.00  0.00     0.039 C 
ENDROOT
BRANCH   5  13
ATOM     13  C   UNL     1     141.936 144.988 162.484  1.00  0.00    -0.014 C 
ATOM     14  C   UNL     1     142.184 145.044 163.999  1.00  0.00     0.007 C 
ATOM     15  C   UNL     1     140.577 145.627 162.145  1.00  0.00     0.007 C 
ENDBRANCH   5  13
TORSDOF 1
ENDMDL
