MODEL 1
REMARK VINA RESULT:    -3.313      0.000      0.000
REMARK INTER + INTRA:          -4.950
REMARK INTER:                  -5.056
REMARK INTRA:                   0.106
REMARK UNBOUND:                 0.106
REMARK SMILES CC1=CCC[C@@H](C)C(=O)C[C@@H](C(C)C)C(=O)C1
REMARK SMILES IDX 8 1 9 2 6 3 7 4 5 5 4 6 3 7 2 8 1 9 10 11 11 12 15 13 16 14
REMARK SMILES IDX 17 15 12 17 13 18 14 19
REMARK H PARENT
REMARK Flexibility Score: 70.00
ROOT
ATOM      1  C   UNL     1      17.749  -7.658  13.931  1.00  0.00     0.136 C 
ATOM      2  O   UNL     1      18.667  -7.309  13.200  1.00  0.00    -0.299 OA
ENDROOT
BRANCH   1   3
ATOM      3  C   UNL     1      17.621  -9.147  14.232  1.00  0.00     0.053 C 
ATOM      4  C   UNL     1      18.750  -9.559  15.192  1.00  0.00     0.016 C 
BRANCH   3   5
ATOM      5  C   UNL     1      17.619 -10.107  13.018  1.00  0.00     0.015 C 
BRANCH   5   6
ATOM      6  C   UNL     1      16.521  -9.889  11.962  1.00  0.00     0.028 C 
BRANCH   6   7
ATOM      7  C   UNL     1      15.106 -10.054  12.470  1.00  0.00    -0.028 C 
ATOM      8  C   UNL     1      14.076  -9.168  12.388  1.00  0.00    -0.070 CG0
ATOM      9  C   UNL     1      12.742  -9.637  12.918  1.00  0.00     0.039 C 
ATOM     10  G   UNL     1      14.167  -7.710  11.934  1.00  0.00     0.000 G0
ENDBRANCH   6   7
ENDBRANCH   5   6
ENDBRANCH   3   5
ENDBRANCH   1   3
BRANCH   1  11
ATOM     11  C   UNL     1      16.841  -6.570  14.463  1.00  0.00     0.087 C 
BRANCH  11  12
ATOM     12  C   UNL     1      15.349  -6.834  14.099  1.00  0.00     0.066 C 
BRANCH  12  13
ATOM     13  C   UNL     1      15.154  -6.803  12.582  1.00  0.00     0.140 C 
ATOM     14  O   UNL     1      15.794  -6.023  11.890  1.00  0.00    -0.299 OA
BRANCH  13  15
ATOM     15  C   UNL     1      14.145  -7.701  11.914  1.00  0.00     0.106 CG0
ATOM     16  G   UNL     1      14.092  -9.145  12.416  1.00  0.00     0.000 G0
ENDBRANCH  13  15
ENDBRANCH  12  13
BRANCH  12  17
ATOM     17  C   UNL     1      14.355  -5.864  14.827  1.00  0.00    -0.006 C 
ATOM     18  C   UNL     1      15.041  -5.169  16.021  1.00  0.00     0.008 C 
ATOM     19  C   UNL     1      13.782  -4.778  13.899  1.00  0.00     0.008 C 
ENDBRANCH  12  17
ENDBRANCH  11  12
ENDBRANCH   1  11
TORSDOF 1
ENDMDL
MODEL 2
REMARK VINA RESULT:    -3.019      1.759      4.604
REMARK INTER + INTRA:          -4.501
REMARK INTER:                  -5.497
REMARK INTRA:                   0.996
REMARK UNBOUND:                 0.106
REMARK SMILES CC1=CCC[C@@H](C)C(=O)C[C@@H](C(C)C)C(=O)C1
REMARK SMILES IDX 8 1 9 2 6 3 7 4 5 5 4 6 3 7 2 8 1 9 10 11 11 12 15 13 16 14
REMARK SMILES IDX 17 15 12 17 13 18 14 19
REMARK H PARENT
REMARK Flexibility Score: 70.00
ROOT
ATOM      1  C   UNL     1      14.770  -5.951  12.796  1.00  0.00     0.136 C 
ATOM      2  O   UNL     1      15.320  -4.967  12.319  1.00  0.00    -0.299 OA
ENDROOT
BRANCH   1   3
ATOM      3  C   UNL     1      14.358  -5.881  14.262  1.00  0.00     0.053 C 
ATOM      4  C   UNL     1      13.413  -4.683  14.456  1.00  0.00     0.016 C 
BRANCH   3   5
ATOM      5  C   UNL     1      15.498  -5.795  15.305  1.00  0.00     0.015 C 
BRANCH   5   6
ATOM      6  C   UNL     1      16.937  -5.917  14.772  1.00  0.00     0.028 C 
BRANCH   6   7
ATOM      7  C   UNL     1      17.585  -7.266  14.990  1.00  0.00    -0.028 C 
ATOM      8  C   UNL     1      17.845  -8.231  14.065  1.00  0.00    -0.070 CG0
ATOM      9  C   UNL     1      18.577  -9.456  14.561  1.00  0.00     0.039 C 
ATOM     10  G   UNL     1      17.357  -8.254  12.616  1.00  0.00     0.000 G0
ENDBRANCH   6   7
ENDBRANCH   5   6
ENDBRANCH   3   5
ENDBRANCH   1   3
BRANCH   1  11
ATOM     11  C   UNL     1      14.554  -7.133  11.875  1.00  0.00     0.087 C 
BRANCH  11  12
ATOM     12  C   UNL     1      14.738  -8.488  12.622  1.00  0.00     0.066 C 
BRANCH  12  13
ATOM     13  C   UNL     1      16.128  -9.068  12.347  1.00  0.00     0.140 C 
ATOM     14  O   UNL     1      16.251 -10.215  11.940  1.00  0.00    -0.299 OA
BRANCH  13  15
ATOM     15  C   UNL     1      17.369  -8.255  12.607  1.00  0.00     0.106 CG0
ATOM     16  G   UNL     1      17.863  -8.223  14.054  1.00  0.00     0.000 G0
ENDBRANCH  13  15
ENDBRANCH  12  13
BRANCH  12  17
ATOM     17  C   UNL     1      13.608  -9.527  12.303  1.00  0.00    -0.006 C 
ATOM     18  C   UNL     1      14.086 -10.965  12.589  1.00  0.00     0.008 C 
ATOM     19  C   UNL     1      12.316  -9.278  13.103  1.00  0.00     0.008 C 
ENDBRANCH  12  17
ENDBRANCH  11  12
ENDBRANCH   1  11
TORSDOF 1
ENDMDL
MODEL 3
REMARK VINA RESULT:    -2.642      2.660      4.745
REMARK INTER + INTRA:          -3.926
REMARK INTER:                  -4.562
REMARK INTRA:                   0.636
REMARK UNBOUND:                 0.106
REMARK SMILES CC1=CCC[C@@H](C)C(=O)C[C@@H](C(C)C)C(=O)C1
REMARK SMILES IDX 8 1 9 2 6 3 7 4 5 5 4 6 3 7 2 8 1 9 10 11 11 12 15 13 16 14
REMARK SMILES IDX 17 15 12 17 13 18 14 19
REMARK H PARENT
REMARK Flexibility Score: 70.00
ROOT
ATOM      1  C   UNL     1      14.115  -4.982  14.672  1.00  0.00     0.136 C 
ATOM      2  O   UNL     1      13.343  -4.098  15.021  1.00  0.00    -0.299 OA
ENDROOT
BRANCH   1   3
ATOM      3  C   UNL     1      14.396  -5.118  13.180  1.00  0.00     0.053 C 
ATOM      4  C   UNL     1      13.444  -4.189  12.408  1.00  0.00     0.016 C 
BRANCH   3   5
ATOM      5  C   UNL     1      14.305  -6.542  12.579  1.00  0.00     0.015 C 
BRANCH   5   6
ATOM      6  C   UNL     1      15.409  -7.536  12.979  1.00  0.00     0.028 C 
BRANCH   6   7
ATOM      7  C   UNL     1      16.761  -7.275  12.353  1.00  0.00    -0.028 C 
ATOM      8  C   UNL     1      17.781  -6.519  12.844  1.00  0.00    -0.070 CG0
ATOM      9  C   UNL     1      19.054  -6.500  12.031  1.00  0.00     0.039 C 
ATOM     10  G   UNL     1      17.721  -5.592  14.059  1.00  0.00     0.000 G0
ENDBRANCH   6   7
ENDBRANCH   5   6
ENDBRANCH   3   5
ENDBRANCH   1   3
BRANCH   1  11
ATOM     11  C   UNL     1      14.712  -5.845  15.763  1.00  0.00     0.087 C 
BRANCH  11  12
ATOM     12  C   UNL     1      16.146  -5.375  16.152  1.00  0.00     0.066 C 
BRANCH  12  13
ATOM     13  C   UNL     1      17.198  -6.138  15.344  1.00  0.00     0.140 C 
ATOM     14  O   UNL     1      17.634  -7.207  15.748  1.00  0.00    -0.299 OA
BRANCH  13  15
ATOM     15  C   UNL     1      17.744  -5.573  14.059  1.00  0.00     0.106 CG0
ATOM     16  G   UNL     1      17.786  -6.528  12.865  1.00  0.00     0.000 G0
ENDBRANCH  13  15
ENDBRANCH  12  13
BRANCH  12  17
ATOM     17  C   UNL     1      16.428  -5.462  17.692  1.00  0.00    -0.006 C 
ATOM     18  C   UNL     1      15.532  -4.478  18.471  1.00  0.00     0.008 C 
ATOM     19  C   UNL     1      16.211  -6.873  18.267  1.00  0.00     0.008 C 
ENDBRANCH  12  17
ENDBRANCH  11  12
ENDBRANCH   1  11
TORSDOF 1
ENDMDL
MODEL 4
REMARK VINA RESULT:    -2.454      1.462      3.985
REMARK INTER + INTRA:          -3.639
REMARK INTER:                  -5.236
REMARK INTRA:                   1.596
REMARK UNBOUND:                 0.106
REMARK SMILES CC1=CCC[C@@H](C)C(=O)C[C@@H](C(C)C)C(=O)C1
REMARK SMILES IDX 8 1 9 2 6 3 7 4 5 5 4 6 3 7 2 8 1 9 10 11 11 12 15 13 16 14
REMARK SMILES IDX 17 15 12 17 13 18 14 19
REMARK H PARENT
REMARK Flexibility Score: 70.00
ROOT
ATOM      1  C   UNL     1      17.435  -7.739  13.295  1.00  0.00     0.136 C 
ATOM      2  O   UNL     1      18.136  -8.552  13.885  1.00  0.00    -0.299 OA
ENDROOT
BRANCH   1   3
ATOM      3  C   UNL     1      17.189  -6.399  13.979  1.00  0.00     0.053 C 
ATOM      4  C   UNL     1      18.204  -5.375  13.445  1.00  0.00     0.016 C 
BRANCH   3   5
ATOM      5  C   UNL     1      17.230  -6.388  15.526  1.00  0.00     0.015 C 
BRANCH   5   6
ATOM      6  C   UNL     1      15.895  -6.151  16.254  1.00  0.00     0.028 C 
BRANCH   6   7
ATOM      7  C   UNL     1      14.941  -5.213  15.551  1.00  0.00    -0.028 C 
ATOM      8  C   UNL     1      14.063  -5.503  14.551  1.00  0.00    -0.070 CG0
ATOM      9  C   UNL     1      13.175  -4.372  14.089  1.00  0.00     0.039 C 
ATOM     10  G   UNL     1      13.978  -6.814  13.769  1.00  0.00     0.000 G0
ENDBRANCH   6   7
ENDBRANCH   5   6
ENDBRANCH   3   5
ENDBRANCH   1   3
BRANCH   1  11
ATOM     11  C   UNL     1      16.892  -8.152  11.943  1.00  0.00     0.087 C 
BRANCH  11  12
ATOM     12  C   UNL     1      15.334  -8.179  11.931  1.00  0.00     0.066 C 
BRANCH  12  13
ATOM     13  C   UNL     1      14.771  -6.861  12.466  1.00  0.00     0.140 C 
ATOM     14  O   UNL     1      14.984  -5.811  11.875  1.00  0.00    -0.299 OA
BRANCH  13  15
ATOM     15  C   UNL     1      13.978  -6.822  13.746  1.00  0.00     0.106 CG0
ATOM     16  G   UNL     1      14.041  -5.516  14.539  1.00  0.00     0.000 G0
ENDBRANCH  13  15
ENDBRANCH  12  13
BRANCH  12  17
ATOM     17  C   UNL     1      14.731  -9.412  12.688  1.00  0.00    -0.006 C 
ATOM     18  C   UNL     1      13.252  -9.621  12.309  1.00  0.00     0.008 C 
ATOM     19  C   UNL     1      15.492 -10.722  12.411  1.00  0.00     0.008 C 
ENDBRANCH  12  17
ENDBRANCH  11  12
ENDBRANCH   1  11
TORSDOF 1
ENDMDL
MODEL 5
REMARK VINA RESULT:    -2.320      2.130      5.086
REMARK INTER + INTRA:          -3.435
REMARK INTER:                  -4.003
REMARK INTRA:                   0.568
REMARK UNBOUND:                 0.106
REMARK SMILES CC1=CCC[C@@H](C)C(=O)C[C@@H](C(C)C)C(=O)C1
REMARK SMILES IDX 8 1 9 2 6 3 7 4 5 5 4 6 3 7 2 8 1 9 10 11 11 12 15 13 16 14
REMARK SMILES IDX 17 15 12 17 13 18 14 19
REMARK H PARENT
REMARK Flexibility Score: 70.00
ROOT
ATOM      1  C   UNL     1      15.019  -5.988  12.286  1.00  0.00     0.136 C 
ATOM      2  O   UNL     1      15.733  -5.081  11.879  1.00  0.00    -0.299 OA
ENDROOT
BRANCH   1   3
ATOM      3  C   UNL     1      13.675  -5.604  12.895  1.00  0.00     0.053 C 
ATOM      4  C   UNL     1      13.437  -4.102  12.665  1.00  0.00     0.016 C 
BRANCH   3   5
ATOM      5  C   UNL     1      13.474  -5.919  14.398  1.00  0.00     0.015 C 
BRANCH   5   6
ATOM      6  C   UNL     1      14.341  -5.131  15.395  1.00  0.00     0.028 C 
BRANCH   6   7
ATOM      7  C   UNL     1      15.377  -5.953  16.129  1.00  0.00    -0.028 C 
ATOM      8  C   UNL     1      16.698  -6.095  15.835  1.00  0.00    -0.070 CG0
ATOM      9  C   UNL     1      17.515  -6.926  16.797  1.00  0.00     0.039 C 
ATOM     10  G   UNL     1      17.404  -5.607  14.570  1.00  0.00     0.000 G0
ENDBRANCH   6   7
ENDBRANCH   5   6
ENDBRANCH   3   5
ENDBRANCH   1   3
BRANCH   1  11
ATOM     11  C   UNL     1      15.546  -7.400  12.136  1.00  0.00     0.087 C 
BRANCH  11  12
ATOM     12  C   UNL     1      16.555  -7.763  13.266  1.00  0.00     0.066 C 
BRANCH  12  13
ATOM     13  C   UNL     1      17.567  -6.633  13.466  1.00  0.00     0.140 C 
ATOM     14  O   UNL     1      18.557  -6.555  12.751  1.00  0.00    -0.299 OA
BRANCH  13  15
ATOM     15  C   UNL     1      17.388  -5.620  14.566  1.00  0.00     0.106 CG0
ATOM     16  G   UNL     1      16.700  -6.120  15.838  1.00  0.00     0.000 G0
ENDBRANCH  13  15
ENDBRANCH  12  13
BRANCH  12  17
ATOM     17  C   UNL     1      17.267  -9.141  13.039  1.00  0.00    -0.006 C 
ATOM     18  C   UNL     1      18.114  -9.532  14.267  1.00  0.00     0.008 C 
ATOM     19  C   UNL     1      16.284 -10.288  12.744  1.00  0.00     0.008 C 
ENDBRANCH  12  17
ENDBRANCH  11  12
ENDBRANCH   1  11
TORSDOF 1
ENDMDL
MODEL 6
REMARK VINA RESULT:    -1.929      1.857      4.320
REMARK INTER + INTRA:          -2.837
REMARK INTER:                  -5.164
REMARK INTRA:                   2.327
REMARK UNBOUND:                 0.106
REMARK SMILES CC1=CCC[C@@H](C)C(=O)C[C@@H](C(C)C)C(=O)C1
REMARK SMILES IDX 8 1 9 2 6 3 7 4 5 5 4 6 3 7 2 8 1 9 10 11 11 12 15 13 16 14
REMARK SMILES IDX 17 15 12 17 13 18 14 19
REMARK H PARENT
REMARK Flexibility Score: 70.00
ROOT
ATOM      1  C   UNL     1      17.390  -6.780  14.847  1.00  0.00     0.136 C 
ATOM      2  O   UNL     1      17.900  -7.717  15.447  1.00  0.00    -0.299 OA
ENDROOT
BRANCH   1   3
ATOM      3  C   UNL     1      16.520  -5.822  15.652  1.00  0.00     0.053 C 
ATOM      4  C   UNL     1      16.911  -5.921  17.135  1.00  0.00     0.016 C 
BRANCH   3   5
ATOM      5  C   UNL     1      14.987  -5.997  15.524  1.00  0.00     0.015 C 
BRANCH   5   6
ATOM      6  C   UNL     1      14.131  -4.723  15.633  1.00  0.00     0.028 C 
BRANCH   6   7
ATOM      7  C   UNL     1      13.557  -4.227  14.325  1.00  0.00    -0.028 C 
ATOM      8  C   UNL     1      14.031  -4.437  13.067  1.00  0.00    -0.070 CG0
ATOM      9  C   UNL     1      13.202  -3.879  11.934  1.00  0.00     0.039 C 
ATOM     10  G   UNL     1      15.376  -5.065  12.696  1.00  0.00     0.000 G0
ENDBRANCH   6   7
ENDBRANCH   5   6
ENDBRANCH   3   5
ENDBRANCH   1   3
BRANCH   1  11
ATOM     11  C   UNL     1      17.684  -6.670  13.365  1.00  0.00     0.087 C 
BRANCH  11  12
ATOM     12  C   UNL     1      16.611  -7.405  12.508  1.00  0.00     0.066 C 
BRANCH  12  13
ATOM     13  C   UNL     1      15.339  -6.561  12.401  1.00  0.00     0.140 C 
ATOM     14  O   UNL     1      14.278  -7.076  12.076  1.00  0.00    -0.299 OA
BRANCH  13  15
ATOM     15  C   UNL     1      15.374  -5.076  12.656  1.00  0.00     0.106 CG0
ATOM     16  G   UNL     1      14.046  -4.428  13.050  1.00  0.00     0.000 G0
ENDBRANCH  13  15
ENDBRANCH  12  13
BRANCH  12  17
ATOM     17  C   UNL     1      16.298  -8.854  13.018  1.00  0.00    -0.006 C 
ATOM     18  C   UNL     1      15.112  -9.465  12.246  1.00  0.00     0.008 C 
ATOM     19  C   UNL     1      17.499  -9.810  12.896  1.00  0.00     0.008 C 
ENDBRANCH  12  17
ENDBRANCH  11  12
ENDBRANCH   1  11
TORSDOF 1
ENDMDL
MODEL 7
REMARK VINA RESULT:    -1.602      1.591      3.760
REMARK INTER + INTRA:          -2.339
REMARK INTER:                  -3.712
REMARK INTRA:                   1.373
REMARK UNBOUND:                 0.106
REMARK SMILES CC1=CCC[C@@H](C)C(=O)C[C@@H](C(C)C)C(=O)C1
REMARK SMILES IDX 8 1 9 2 6 3 7 4 5 5 4 6 3 7 2 8 1 9 10 11 11 12 15 13 16 14
REMARK SMILES IDX 17 15 12 17 13 18 14 19
REMARK H PARENT
REMARK Flexibility Score: 70.00
ROOT
ATOM      1  C   UNL     1      15.187  -5.840  14.043  1.00  0.00     0.136 C 
ATOM      2  O   UNL     1      15.000  -5.849  15.253  1.00  0.00    -0.299 OA
ENDROOT
BRANCH   1   3
ATOM      3  C   UNL     1      14.012  -6.224  13.150  1.00  0.00     0.053 C 
ATOM      4  C   UNL     1      12.911  -5.161  13.291  1.00  0.00     0.016 C 
BRANCH   3   5
ATOM      5  C   UNL     1      13.391  -7.624  13.379  1.00  0.00     0.015 C 
BRANCH   5   6
ATOM      6  C   UNL     1      13.533  -8.642  12.234  1.00  0.00     0.028 C 
BRANCH   6   7
ATOM      7  C   UNL     1      14.706  -9.588  12.363  1.00  0.00    -0.028 C 
ATOM      8  C   UNL     1      16.033  -9.291  12.302  1.00  0.00    -0.070 CG0
ATOM      9  C   UNL     1      16.989 -10.436  12.542  1.00  0.00     0.039 C 
ATOM     10  G   UNL     1      16.646  -7.952  11.890  1.00  0.00     0.000 G0
ENDBRANCH   6   7
ENDBRANCH   5   6
ENDBRANCH   3   5
ENDBRANCH   1   3
BRANCH   1  11
ATOM     11  C   UNL     1      16.566  -5.442  13.562  1.00  0.00     0.087 C 
BRANCH  11  12
ATOM     12  C   UNL     1      17.632  -6.526  13.901  1.00  0.00     0.066 C 
BRANCH  12  13
ATOM     13  C   UNL     1      17.834  -7.470  12.714  1.00  0.00     0.140 C 
ATOM     14  O   UNL     1      18.958  -7.831  12.394  1.00  0.00    -0.299 OA
BRANCH  13  15
ATOM     15  C   UNL     1      16.662  -7.940  11.892  1.00  0.00     0.106 CG0
ATOM     16  G   UNL     1      16.053  -9.284  12.293  1.00  0.00     0.000 G0
ENDBRANCH  13  15
ENDBRANCH  12  13
BRANCH  12  17
ATOM     17  C   UNL     1      17.311  -7.317  15.217  1.00  0.00    -0.006 C 
ATOM     18  C   UNL     1      18.217  -8.558  15.347  1.00  0.00     0.008 C 
ATOM     19  C   UNL     1      17.471  -6.464  16.488  1.00  0.00     0.008 C 
ENDBRANCH  12  17
ENDBRANCH  11  12
ENDBRANCH   1  11
TORSDOF 1
ENDMDL
