MODEL 1
REMARK VINA RESULT:    17.664      0.000      0.000
REMARK INTER + INTRA:          19.108
REMARK INTER:                  19.213
REMARK INTRA:                  -0.105
REMARK UNBOUND:                -0.105
REMARK SMILES CC1=CCC[C@]2(C)CC[C@@H](C(C)(C)O)C[C@H]12
REMARK SMILES IDX 11 1 12 2 13 3 10 4 1 5 2 6 3 7 16 8 4 9 6 10 15 11 5 12
REMARK SMILES IDX 7 13 8 14 9 15 14 16
REMARK H PARENT 14 17
REMARK Flexibility Score: inf
ROOT
ATOM      1  C   UNL     1     -33.548  24.501   6.985  1.00  0.00     0.062 C 
ATOM      2  C   UNL     1     -32.986  24.662   5.555  1.00  0.00     0.042 C 
ATOM      3  C   UNL     1     -32.353  24.467   7.971  1.00  0.00     0.042 C 
ENDROOT
BRANCH   1   4
ATOM      4  C   UNL     1     -34.431  23.202   7.178  1.00  0.00     0.021 C 
ATOM      5  C   UNL     1     -38.666  25.067   8.083  1.00  0.00     0.039 C 
ATOM      6  C   UNL     1     -38.291  23.805   7.352  1.00  0.00    -0.074 C 
ATOM      7  C   UNL     1     -39.125  22.745   7.417  1.00  0.00    -0.028 C 
ATOM      8  C   UNL     1     -36.939  23.719   6.656  1.00  0.00     0.021 C 
ATOM      9  C   UNL     1     -38.919  21.467   6.640  1.00  0.00     0.028 C 
ATOM     10  C   UNL     1     -36.949  22.669   5.505  1.00  0.00    -0.026 C 
ATOM     11  C   UNL     1     -35.864  23.428   7.726  1.00  0.00     0.015 C 
ATOM     12  C   UNL     1     -37.515  21.322   6.035  1.00  0.00     0.011 C 
ATOM     13  C   UNL     1     -37.833  23.180   4.337  1.00  0.00     0.012 C 
ATOM     14  C   UNL     1     -35.517  22.467   4.938  1.00  0.00     0.008 C 
ATOM     15  C   UNL     1     -34.437  22.196   6.000  1.00  0.00     0.007 C 
ENDBRANCH   1   4
BRANCH   1  16
ATOM     16  O   UNL     1     -34.336  25.630   7.294  1.00  0.00    -0.390 OA
ATOM     17  H   UNL     1     -34.266  26.283   6.549  1.00  0.00     0.211 HD
ENDBRANCH   1  16
TORSDOF 2
ENDMDL
