MODEL 1
REMARK VINA RESULT:    22.685      0.000      0.000
REMARK INTER + INTRA:          59.752
REMARK INTER:                  59.817
REMARK INTRA:                  -0.065
REMARK UNBOUND:                -0.065
REMARK SMILES CCCCCCCCCCCCCCCCCCCCCCCCCCCCCC(=O)[O-]
REMARK SMILES IDX 16 1 17 2 18 3 19 4 20 5 21 6 22 7 23 8 24 9 25 10 26 11
REMARK SMILES IDX 27 12 28 13 29 14 30 15 31 16 32 17 15 18 14 19 13 20 12 21
REMARK SMILES IDX 11 22 10 23 9 24 8 25 7 26 6 27 5 28 4 29 3 30 2 31 1 32
REMARK H PARENT
REMARK Flexibility Score: inf
ROOT
ATOM      1  C   UNL     1       0.372   9.502  -5.495  1.00  0.00     0.000 C 
ENDROOT
BRANCH   1   2
ATOM      2  C   UNL     1       1.585   8.708  -6.016  1.00  0.00     0.000 C 
BRANCH   2   3
ATOM      3  C   UNL     1       1.737   8.780  -7.544  1.00  0.00     0.000 C 
BRANCH   3   4
ATOM      4  C   UNL     1       0.658   7.970  -8.282  1.00  0.00     0.000 C 
BRANCH   4   5
ATOM      5  C   UNL     1      -0.180   8.828  -9.244  1.00  0.00     0.000 C 
BRANCH   5   6
ATOM      6  C   UNL     1      -0.863   7.952 -10.305  1.00  0.00     0.000 C 
BRANCH   6   7
ATOM      7  C   UNL     1      -0.054   7.850 -11.608  1.00  0.00     0.000 C 
BRANCH   7   8
ATOM      8  C   UNL     1      -0.938   7.977 -12.862  1.00  0.00     0.000 C 
BRANCH   8   9
ATOM      9  C   UNL     1      -0.225   8.682 -14.030  1.00  0.00     0.000 C 
BRANCH   9  10
ATOM     10  C   UNL     1      -0.463  10.202 -14.129  1.00  0.00     0.000 C 
BRANCH  10  11
ATOM     11  C   UNL     1       0.705  11.008 -14.726  1.00  0.00     0.000 C 
BRANCH  11  12
ATOM     12  C   UNL     1       1.824  11.284 -13.706  1.00  0.00     0.000 C 
BRANCH  12  13
ATOM     13  C   UNL     1       2.987  10.285 -13.817  1.00  0.00     0.006 C 
BRANCH  13  14
ATOM     14  C   UNL     1       3.136   9.410 -12.564  1.00  0.00     0.053 C 
BRANCH  14  15
ATOM     15  C   UNL     1       3.130  10.237 -11.315  1.00  0.00     0.041 C 
ATOM     16  O   UNL     1       3.135  11.494 -11.393  1.00  0.00    -0.550 OA
ATOM     17  O   UNL     1       3.182   9.628 -10.065  1.00  0.00    -0.550 OA
ENDBRANCH  14  15
ENDBRANCH  13  14
ENDBRANCH  12  13
ENDBRANCH  11  12
ENDBRANCH  10  11
ENDBRANCH   9  10
ENDBRANCH   8   9
ENDBRANCH   7   8
ENDBRANCH   6   7
ENDBRANCH   5   6
ENDBRANCH   4   5
ENDBRANCH   3   4
ENDBRANCH   2   3
ENDBRANCH   1   2
BRANCH   1  18
ATOM     18  C   UNL     1      -0.631   8.691  -4.653  1.00  0.00     0.000 C 
BRANCH  18  19
ATOM     19  C   UNL     1      -0.131   7.277  -4.324  1.00  0.00     0.000 C 
BRANCH  19  20
ATOM     20  C   UNL     1       0.695   7.271  -3.031  1.00  0.00     0.000 C 
BRANCH  20  21
ATOM     21  C   UNL     1       2.058   6.598  -3.255  1.00  0.00     0.000 C 
BRANCH  21  22
ATOM     22  C   UNL     1       3.232   7.580  -3.119  1.00  0.00     0.000 C 
BRANCH  22  23
ATOM     23  C   UNL     1       3.944   7.471  -1.758  1.00  0.00     0.000 C 
BRANCH  23  24
ATOM     24  C   UNL     1       5.278   8.237  -1.718  1.00  0.00    -0.000 C 
BRANCH  24  25
ATOM     25  C   UNL     1       6.492   7.467  -2.273  1.00  0.00    -0.000 C 
BRANCH  25  26
ATOM     26  C   UNL     1       6.223   5.961  -2.435  1.00  0.00    -0.000 C 
BRANCH  26  27
ATOM     27  C   UNL     1       5.444   5.629  -3.722  1.00  0.00    -0.000 C 
BRANCH  27  28
ATOM     28  C   UNL     1       5.804   4.279  -4.374  1.00  0.00    -0.000 C 
BRANCH  28  29
ATOM     29  C   UNL     1       7.238   3.783  -4.101  1.00  0.00    -0.000 C 
BRANCH  29  30
ATOM     30  C   UNL     1       7.390   3.026  -2.765  1.00  0.00    -0.000 C 
BRANCH  30  31
ATOM     31  C   UNL     1       7.452   1.504  -2.961  1.00  0.00    -0.003 C 
ATOM     32  C   UNL     1       6.072   0.932  -3.275  1.00  0.00     0.004 C 
ENDBRANCH  30  31
ENDBRANCH  29  30
ENDBRANCH  28  29
ENDBRANCH  27  28
ENDBRANCH  26  27
ENDBRANCH  25  26
ENDBRANCH  24  25
ENDBRANCH  23  24
ENDBRANCH  22  23
ENDBRANCH  21  22
ENDBRANCH  20  21
ENDBRANCH  19  20
ENDBRANCH  18  19
ENDBRANCH   1  18
TORSDOF 28
ENDMDL
MODEL 2
REMARK VINA RESULT:    22.698      4.386     10.022
REMARK INTER + INTRA:          59.787
REMARK INTER:                  60.253
REMARK INTRA:                  -0.466
REMARK UNBOUND:                -0.065
REMARK SMILES CCCCCCCCCCCCCCCCCCCCCCCCCCCCCC(=O)[O-]
REMARK SMILES IDX 16 1 17 2 18 3 19 4 20 5 21 6 22 7 23 8 24 9 25 10 26 11
REMARK SMILES IDX 27 12 28 13 29 14 30 15 31 16 32 17 15 18 14 19 13 20 12 21
REMARK SMILES IDX 11 22 10 23 9 24 8 25 7 26 6 27 5 28 4 29 3 30 2 31 1 32
REMARK H PARENT
REMARK Flexibility Score: inf
ROOT
ATOM      1  C   UNL     1       0.794   8.961  -5.714  1.00  0.00     0.000 C 
ENDROOT
BRANCH   1   2
ATOM      2  C   UNL     1       0.610   7.920  -4.593  1.00  0.00     0.000 C 
BRANCH   2   3
ATOM      3  C   UNL     1       0.089   8.535  -3.284  1.00  0.00     0.000 C 
BRANCH   3   4
ATOM      4  C   UNL     1      -1.011   9.582  -3.522  1.00  0.00     0.000 C 
BRANCH   4   5
ATOM      5  C   UNL     1      -0.646  10.969  -2.969  1.00  0.00     0.000 C 
BRANCH   5   6
ATOM      6  C   UNL     1      -1.692  11.441  -1.946  1.00  0.00     0.000 C 
BRANCH   6   7
ATOM      7  C   UNL     1      -1.098  11.674  -0.547  1.00  0.00     0.000 C 
BRANCH   7   8
ATOM      8  C   UNL     1      -0.522  13.092  -0.380  1.00  0.00     0.000 C 
BRANCH   8   9
ATOM      9  C   UNL     1      -0.630  13.939  -1.661  1.00  0.00     0.000 C 
BRANCH   9  10
ATOM     10  C   UNL     1      -0.508  15.463  -1.458  1.00  0.00     0.000 C 
BRANCH  10  11
ATOM     11  C   UNL     1       0.932  15.991  -1.328  1.00  0.00     0.000 C 
BRANCH  11  12
ATOM     12  C   UNL     1       1.661  16.080  -2.680  1.00  0.00     0.000 C 
BRANCH  12  13
ATOM     13  C   UNL     1       0.693  16.181  -3.870  1.00  0.00     0.006 C 
BRANCH  13  14
ATOM     14  C   UNL     1       1.098  15.272  -5.040  1.00  0.00     0.053 C 
BRANCH  14  15
ATOM     15  C   UNL     1       2.583  15.266  -5.240  1.00  0.00     0.041 C 
ATOM     16  O   UNL     1       3.117  14.382  -5.960  1.00  0.00    -0.550 OA
ATOM     17  O   UNL     1       3.387  16.194  -4.585  1.00  0.00    -0.550 OA
ENDBRANCH  14  15
ENDBRANCH  13  14
ENDBRANCH  12  13
ENDBRANCH  11  12
ENDBRANCH  10  11
ENDBRANCH   9  10
ENDBRANCH   8   9
ENDBRANCH   7   8
ENDBRANCH   6   7
ENDBRANCH   5   6
ENDBRANCH   4   5
ENDBRANCH   3   4
ENDBRANCH   2   3
ENDBRANCH   1   2
BRANCH   1  18
ATOM     18  C   UNL     1       0.072   8.636  -7.036  1.00  0.00     0.000 C 
BRANCH  18  19
ATOM     19  C   UNL     1       1.038   8.448  -8.215  1.00  0.00     0.000 C 
BRANCH  19  20
ATOM     20  C   UNL     1       2.497   8.572  -7.758  1.00  0.00     0.000 C 
BRANCH  20  21
ATOM     21  C   UNL     1       3.266   9.564  -8.645  1.00  0.00     0.000 C 
BRANCH  21  22
ATOM     22  C   UNL     1       2.809   9.523 -10.111  1.00  0.00     0.000 C 
BRANCH  22  23
ATOM     23  C   UNL     1       3.437  10.641 -10.962  1.00  0.00     0.000 C 
BRANCH  23  24
ATOM     24  C   UNL     1       2.388  11.526 -11.657  1.00  0.00    -0.000 C 
BRANCH  24  25
ATOM     25  C   UNL     1       2.684  11.858 -13.131  1.00  0.00    -0.000 C 
BRANCH  25  26
ATOM     26  C   UNL     1       2.301  10.718 -14.091  1.00  0.00    -0.000 C 
BRANCH  26  27
ATOM     27  C   UNL     1       2.861   9.353 -13.649  1.00  0.00    -0.000 C 
BRANCH  27  28
ATOM     28  C   UNL     1       1.807   8.244 -13.461  1.00  0.00    -0.000 C 
BRANCH  28  29
ATOM     29  C   UNL     1       0.382   8.742 -13.151  1.00  0.00    -0.000 C 
BRANCH  29  30
ATOM     30  C   UNL     1      -0.663   7.611 -13.053  1.00  0.00    -0.000 C 
BRANCH  30  31
ATOM     31  C   UNL     1      -0.853   7.116 -11.611  1.00  0.00    -0.003 C 
ATOM     32  C   UNL     1      -0.637   8.245 -10.607  1.00  0.00     0.004 C 
ENDBRANCH  30  31
ENDBRANCH  29  30
ENDBRANCH  28  29
ENDBRANCH  27  28
ENDBRANCH  26  27
ENDBRANCH  25  26
ENDBRANCH  24  25
ENDBRANCH  23  24
ENDBRANCH  22  23
ENDBRANCH  21  22
ENDBRANCH  20  21
ENDBRANCH  19  20
ENDBRANCH  18  19
ENDBRANCH   1  18
TORSDOF 28
ENDMDL
MODEL 3
REMARK VINA RESULT:    22.931      1.372      1.831
REMARK INTER + INTRA:          60.400
REMARK INTER:                  60.131
REMARK INTRA:                   0.269
REMARK UNBOUND:                -0.065
REMARK SMILES CCCCCCCCCCCCCCCCCCCCCCCCCCCCCC(=O)[O-]
REMARK SMILES IDX 16 1 17 2 18 3 19 4 20 5 21 6 22 7 23 8 24 9 25 10 26 11
REMARK SMILES IDX 27 12 28 13 29 14 30 15 31 16 32 17 15 18 14 19 13 20 12 21
REMARK SMILES IDX 11 22 10 23 9 24 8 25 7 26 6 27 5 28 4 29 3 30 2 31 1 32
REMARK H PARENT
REMARK Flexibility Score: inf
ROOT
ATOM      1  C   UNL     1       1.472   8.990  -5.405  1.00  0.00     0.000 C 
ENDROOT
BRANCH   1   2
ATOM      2  C   UNL     1       1.857   8.494  -6.812  1.00  0.00     0.000 C 
BRANCH   2   3
ATOM      3  C   UNL     1       0.635   8.182  -7.692  1.00  0.00     0.000 C 
BRANCH   3   4
ATOM      4  C   UNL     1       0.680   8.915  -9.043  1.00  0.00     0.000 C 
BRANCH   4   5
ATOM      5  C   UNL     1      -0.641   8.814  -9.821  1.00  0.00     0.000 C 
BRANCH   5   6
ATOM      6  C   UNL     1      -0.744   7.466 -10.552  1.00  0.00     0.000 C 
BRANCH   6   7
ATOM      7  C   UNL     1      -1.387   7.587 -11.943  1.00  0.00     0.000 C 
BRANCH   7   8
ATOM      8  C   UNL     1      -0.559   6.889 -13.037  1.00  0.00     0.000 C 
BRANCH   8   9
ATOM      9  C   UNL     1       0.186   7.880 -13.950  1.00  0.00     0.000 C 
BRANCH   9  10
ATOM     10  C   UNL     1       1.708   7.976 -13.720  1.00  0.00     0.000 C 
BRANCH  10  11
ATOM     11  C   UNL     1       2.205   9.337 -13.201  1.00  0.00     0.000 C 
BRANCH  11  12
ATOM     12  C   UNL     1       3.566   9.245 -12.490  1.00  0.00     0.000 C 
BRANCH  12  13
ATOM     13  C   UNL     1       3.666  10.185 -11.277  1.00  0.00     0.006 C 
BRANCH  13  14
ATOM     14  C   UNL     1       2.695  11.371 -11.367  1.00  0.00     0.053 C 
BRANCH  14  15
ATOM     15  C   UNL     1       2.893  12.146 -12.634  1.00  0.00     0.041 C 
ATOM     16  O   UNL     1       2.432  11.704 -13.720  1.00  0.00    -0.550 OA
ATOM     17  O   UNL     1       3.637  13.322 -12.634  1.00  0.00    -0.550 OA
ENDBRANCH  14  15
ENDBRANCH  13  14
ENDBRANCH  12  13
ENDBRANCH  11  12
ENDBRANCH  10  11
ENDBRANCH   9  10
ENDBRANCH   8   9
ENDBRANCH   7   8
ENDBRANCH   6   7
ENDBRANCH   5   6
ENDBRANCH   4   5
ENDBRANCH   3   4
ENDBRANCH   2   3
ENDBRANCH   1   2
BRANCH   1  18
ATOM     18  C   UNL     1      -0.028   9.277  -5.197  1.00  0.00     0.000 C 
BRANCH  18  19
ATOM     19  C   UNL     1      -0.635   8.476  -4.036  1.00  0.00     0.000 C 
BRANCH  19  20
ATOM     20  C   UNL     1       0.446   8.052  -3.034  1.00  0.00     0.000 C 
BRANCH  20  21
ATOM     21  C   UNL     1       1.136   6.757  -3.489  1.00  0.00     0.000 C 
BRANCH  21  22
ATOM     22  C   UNL     1       2.611   6.692  -3.065  1.00  0.00     0.000 C 
BRANCH  22  23
ATOM     23  C   UNL     1       2.793   6.701  -1.536  1.00  0.00     0.000 C 
BRANCH  23  24
ATOM     24  C   UNL     1       4.153   7.272  -1.098  1.00  0.00    -0.000 C 
BRANCH  24  25
ATOM     25  C   UNL     1       5.017   7.849  -2.235  1.00  0.00    -0.000 C 
BRANCH  25  26
ATOM     26  C   UNL     1       6.259   6.992  -2.538  1.00  0.00    -0.000 C 
BRANCH  26  27
ATOM     27  C   UNL     1       5.910   5.523  -2.841  1.00  0.00    -0.000 C 
BRANCH  27  28
ATOM     28  C   UNL     1       5.375   5.259  -4.262  1.00  0.00    -0.000 C 
BRANCH  28  29
ATOM     29  C   UNL     1       5.999   4.047  -4.982  1.00  0.00    -0.000 C 
BRANCH  29  30
ATOM     30  C   UNL     1       7.201   3.433  -4.233  1.00  0.00    -0.000 C 
BRANCH  30  31
ATOM     31  C   UNL     1       6.797   2.231  -3.368  1.00  0.00    -0.003 C 
ATOM     32  C   UNL     1       7.631   2.164  -2.092  1.00  0.00     0.004 C 
ENDBRANCH  30  31
ENDBRANCH  29  30
ENDBRANCH  28  29
ENDBRANCH  27  28
ENDBRANCH  26  27
ENDBRANCH  25  26
ENDBRANCH  24  25
ENDBRANCH  23  24
ENDBRANCH  22  23
ENDBRANCH  21  22
ENDBRANCH  20  21
ENDBRANCH  19  20
ENDBRANCH  18  19
ENDBRANCH   1  18
TORSDOF 28
ENDMDL
MODEL 4
REMARK VINA RESULT:    23.205      4.396     10.016
REMARK INTER + INTRA:          61.124
REMARK INTER:                  60.555
REMARK INTRA:                   0.568
REMARK UNBOUND:                -0.065
REMARK SMILES CCCCCCCCCCCCCCCCCCCCCCCCCCCCCC(=O)[O-]
REMARK SMILES IDX 16 1 17 2 18 3 19 4 20 5 21 6 22 7 23 8 24 9 25 10 26 11
REMARK SMILES IDX 27 12 28 13 29 14 30 15 31 16 32 17 15 18 14 19 13 20 12 21
REMARK SMILES IDX 11 22 10 23 9 24 8 25 7 26 6 27 5 28 4 29 3 30 2 31 1 32
REMARK H PARENT
REMARK Flexibility Score: inf
ROOT
ATOM      1  C   UNL     1       1.313   8.454  -6.786  1.00  0.00     0.000 C 
ENDROOT
BRANCH   1   2
ATOM      2  C   UNL     1       0.578   9.045  -5.568  1.00  0.00     0.000 C 
BRANCH   2   3
ATOM      3  C   UNL     1       0.660   8.146  -4.324  1.00  0.00     0.000 C 
BRANCH   3   4
ATOM      4  C   UNL     1      -0.153   8.700  -3.142  1.00  0.00     0.000 C 
BRANCH   4   5
ATOM      5  C   UNL     1      -0.623  10.146  -3.366  1.00  0.00     0.000 C 
BRANCH   5   6
ATOM      6  C   UNL     1      -1.615  10.573  -2.273  1.00  0.00     0.000 C 
BRANCH   6   7
ATOM      7  C   UNL     1      -1.501  12.063  -1.911  1.00  0.00     0.000 C 
BRANCH   7   8
ATOM      8  C   UNL     1      -0.643  12.301  -0.656  1.00  0.00     0.000 C 
BRANCH   8   9
ATOM      9  C   UNL     1      -0.459  13.794  -0.329  1.00  0.00     0.000 C 
BRANCH   9  10
ATOM     10  C   UNL     1      -0.417  14.738  -1.548  1.00  0.00     0.000 C 
BRANCH  10  11
ATOM     11  C   UNL     1       0.583  15.903  -1.437  1.00  0.00     0.000 C 
BRANCH  11  12
ATOM     12  C   UNL     1       1.115  16.367  -2.805  1.00  0.00     0.000 C 
BRANCH  12  13
ATOM     13  C   UNL     1       2.574  15.948  -3.046  1.00  0.00     0.006 C 
BRANCH  13  14
ATOM     14  C   UNL     1       2.982  16.054  -4.523  1.00  0.00     0.053 C 
BRANCH  14  15
ATOM     15  C   UNL     1       2.213  15.090  -5.374  1.00  0.00     0.041 C 
ATOM     16  O   UNL     1       2.792  14.087  -5.868  1.00  0.00    -0.550 OA
ATOM     17  O   UNL     1       0.875  15.326  -5.675  1.00  0.00    -0.550 OA
ENDBRANCH  14  15
ENDBRANCH  13  14
ENDBRANCH  12  13
ENDBRANCH  11  12
ENDBRANCH  10  11
ENDBRANCH   9  10
ENDBRANCH   8   9
ENDBRANCH   7   8
ENDBRANCH   6   7
ENDBRANCH   5   6
ENDBRANCH   4   5
ENDBRANCH   3   4
ENDBRANCH   2   3
ENDBRANCH   1   2
BRANCH   1  18
ATOM     18  C   UNL     1       0.568   7.321  -7.516  1.00  0.00     0.000 C 
BRANCH  18  19
ATOM     19  C   UNL     1       0.425   7.573  -9.024  1.00  0.00     0.000 C 
BRANCH  19  20
ATOM     20  C   UNL     1      -0.376   8.853  -9.296  1.00  0.00     0.000 C 
BRANCH  20  21
ATOM     21  C   UNL     1      -1.238   8.702 -10.559  1.00  0.00     0.000 C 
BRANCH  21  22
ATOM     22  C   UNL     1      -0.725   7.598 -11.496  1.00  0.00     0.000 C 
BRANCH  22  23
ATOM     23  C   UNL     1      -0.481   8.101 -12.930  1.00  0.00     0.000 C 
BRANCH  23  24
ATOM     24  C   UNL     1       0.508   7.221 -13.714  1.00  0.00    -0.000 C 
BRANCH  24  25
ATOM     25  C   UNL     1       1.960   7.736 -13.746  1.00  0.00    -0.000 C 
BRANCH  25  26
ATOM     26  C   UNL     1       2.147   9.048 -12.964  1.00  0.00    -0.000 C 
BRANCH  26  27
ATOM     27  C   UNL     1       2.221  10.284 -13.881  1.00  0.00    -0.000 C 
BRANCH  27  28
ATOM     28  C   UNL     1       2.441  11.625 -13.153  1.00  0.00    -0.000 C 
BRANCH  28  29
ATOM     29  C   UNL     1       2.978  11.508 -11.714  1.00  0.00    -0.000 C 
BRANCH  29  30
ATOM     30  C   UNL     1       3.069  10.055 -11.201  1.00  0.00    -0.000 C 
BRANCH  30  31
ATOM     31  C   UNL     1       3.986   9.925  -9.976  1.00  0.00    -0.003 C 
ATOM     32  C   UNL     1       3.252   9.282  -8.803  1.00  0.00     0.004 C 
ENDBRANCH  30  31
ENDBRANCH  29  30
ENDBRANCH  28  29
ENDBRANCH  27  28
ENDBRANCH  26  27
ENDBRANCH  25  26
ENDBRANCH  24  25
ENDBRANCH  23  24
ENDBRANCH  22  23
ENDBRANCH  21  22
ENDBRANCH  20  21
ENDBRANCH  19  20
ENDBRANCH  18  19
ENDBRANCH   1  18
TORSDOF 28
ENDMDL
MODEL 5
REMARK VINA RESULT:    23.207      1.524      3.045
REMARK INTER + INTRA:          61.128
REMARK INTER:                  60.288
REMARK INTRA:                   0.840
REMARK UNBOUND:                -0.065
REMARK SMILES CCCCCCCCCCCCCCCCCCCCCCCCCCCCCC(=O)[O-]
REMARK SMILES IDX 16 1 17 2 18 3 19 4 20 5 21 6 22 7 23 8 24 9 25 10 26 11
REMARK SMILES IDX 27 12 28 13 29 14 30 15 31 16 32 17 15 18 14 19 13 20 12 21
REMARK SMILES IDX 11 22 10 23 9 24 8 25 7 26 6 27 5 28 4 29 3 30 2 31 1 32
REMARK H PARENT
REMARK Flexibility Score: inf
ROOT
ATOM      1  C   UNL     1       0.839   7.033  -3.652  1.00  0.00     0.000 C 
ENDROOT
BRANCH   1   2
ATOM      2  C   UNL     1      -0.369   7.923  -4.002  1.00  0.00     0.000 C 
BRANCH   2   3
ATOM      3  C   UNL     1       0.035   9.354  -4.395  1.00  0.00     0.000 C 
BRANCH   3   4
ATOM      4  C   UNL     1       0.842   9.399  -5.703  1.00  0.00     0.000 C 
BRANCH   4   5
ATOM      5  C   UNL     1       0.065   8.837  -6.904  1.00  0.00     0.000 C 
BRANCH   5   6
ATOM      6  C   UNL     1       1.025   8.401  -8.022  1.00  0.00     0.000 C 
BRANCH   6   7
ATOM      7  C   UNL     1       0.384   7.416  -9.012  1.00  0.00     0.000 C 
BRANCH   7   8
ATOM      8  C   UNL     1      -0.100   8.106 -10.300  1.00  0.00     0.000 C 
BRANCH   8   9
ATOM      9  C   UNL     1      -0.596   7.111 -11.364  1.00  0.00     0.000 C 
BRANCH   9  10
ATOM     10  C   UNL     1      -0.991   7.733 -12.719  1.00  0.00     0.000 C 
BRANCH  10  11
ATOM     11  C   UNL     1       0.089   8.615 -13.372  1.00  0.00     0.000 C 
BRANCH  11  12
ATOM     12  C   UNL     1       1.467   7.932 -13.426  1.00  0.00     0.000 C 
BRANCH  12  13
ATOM     13  C   UNL     1       2.628   8.939 -13.420  1.00  0.00     0.006 C 
BRANCH  13  14
ATOM     14  C   UNL     1       2.147  10.396 -13.479  1.00  0.00     0.053 C 
BRANCH  14  15
ATOM     15  C   UNL     1       2.831  11.240 -12.446  1.00  0.00     0.041 C 
ATOM     16  O   UNL     1       3.164  12.422 -12.720  1.00  0.00    -0.550 OA
ATOM     17  O   UNL     1       3.157  10.707 -11.202  1.00  0.00    -0.550 OA
ENDBRANCH  14  15
ENDBRANCH  13  14
ENDBRANCH  12  13
ENDBRANCH  11  12
ENDBRANCH  10  11
ENDBRANCH   9  10
ENDBRANCH   8   9
ENDBRANCH   7   8
ENDBRANCH   6   7
ENDBRANCH   5   6
ENDBRANCH   4   5
ENDBRANCH   3   4
ENDBRANCH   2   3
ENDBRANCH   1   2
BRANCH   1  18
ATOM     18  C   UNL     1       2.207   7.741  -3.683  1.00  0.00     0.000 C 
BRANCH  18  19
ATOM     19  C   UNL     1       3.356   6.843  -3.200  1.00  0.00     0.000 C 
BRANCH  19  20
ATOM     20  C   UNL     1       3.550   6.965  -1.683  1.00  0.00     0.000 C 
BRANCH  20  21
ATOM     21  C   UNL     1       4.546   8.086  -1.347  1.00  0.00     0.000 C 
BRANCH  21  22
ATOM     22  C   UNL     1       5.748   8.116  -2.304  1.00  0.00     0.000 C 
BRANCH  22  23
ATOM     23  C   UNL     1       6.796   7.037  -1.977  1.00  0.00     0.000 C 
BRANCH  23  24
ATOM     24  C   UNL     1       6.383   5.636  -2.458  1.00  0.00    -0.000 C 
BRANCH  24  25
ATOM     25  C   UNL     1       6.022   5.536  -3.953  1.00  0.00    -0.000 C 
BRANCH  25  26
ATOM     26  C   UNL     1       5.828   4.085  -4.427  1.00  0.00    -0.000 C 
BRANCH  26  27
ATOM     27  C   UNL     1       6.651   3.074  -3.606  1.00  0.00    -0.000 C 
BRANCH  27  28
ATOM     28  C   UNL     1       7.004   1.768  -4.344  1.00  0.00    -0.000 C 
BRANCH  28  29
ATOM     29  C   UNL     1       6.647   1.746  -5.843  1.00  0.00    -0.000 C 
BRANCH  29  30
ATOM     30  C   UNL     1       5.463   2.664  -6.213  1.00  0.00    -0.000 C 
BRANCH  30  31
ATOM     31  C   UNL     1       4.578   2.059  -7.312  1.00  0.00    -0.003 C 
ATOM     32  C   UNL     1       3.164   2.633  -7.261  1.00  0.00     0.004 C 
ENDBRANCH  30  31
ENDBRANCH  29  30
ENDBRANCH  28  29
ENDBRANCH  27  28
ENDBRANCH  26  27
ENDBRANCH  25  26
ENDBRANCH  24  25
ENDBRANCH  23  24
ENDBRANCH  22  23
ENDBRANCH  21  22
ENDBRANCH  20  21
ENDBRANCH  19  20
ENDBRANCH  18  19
ENDBRANCH   1  18
TORSDOF 28
ENDMDL
MODEL 6
REMARK VINA RESULT:    23.351      2.011      3.344
REMARK INTER + INTRA:          61.508
REMARK INTER:                  62.423
REMARK INTRA:                  -0.915
REMARK UNBOUND:                -0.065
REMARK SMILES CCCCCCCCCCCCCCCCCCCCCCCCCCCCCC(=O)[O-]
REMARK SMILES IDX 16 1 17 2 18 3 19 4 20 5 21 6 22 7 23 8 24 9 25 10 26 11
REMARK SMILES IDX 27 12 28 13 29 14 30 15 31 16 32 17 15 18 14 19 13 20 12 21
REMARK SMILES IDX 11 22 10 23 9 24 8 25 7 26 6 27 5 28 4 29 3 30 2 31 1 32
REMARK H PARENT
REMARK Flexibility Score: inf
ROOT
ATOM      1  C   UNL     1       1.208   8.742  -6.166  1.00  0.00     0.000 C 
ENDROOT
BRANCH   1   2
ATOM      2  C   UNL     1       0.330   8.627  -7.426  1.00  0.00     0.000 C 
BRANCH   2   3
ATOM      3  C   UNL     1       1.152   8.530  -8.722  1.00  0.00     0.000 C 
BRANCH   3   4
ATOM      4  C   UNL     1       2.666   8.591  -8.465  1.00  0.00     0.000 C 
BRANCH   4   5
ATOM      5  C   UNL     1       3.338   9.800  -9.135  1.00  0.00     0.000 C 
BRANCH   5   6
ATOM      6  C   UNL     1       3.013   9.843 -10.637  1.00  0.00     0.000 C 
BRANCH   6   7
ATOM      7  C   UNL     1       3.674  11.029 -11.358  1.00  0.00     0.000 C 
BRANCH   7   8
ATOM      8  C   UNL     1       2.652  11.912 -12.097  1.00  0.00     0.000 C 
BRANCH   8   9
ATOM      9  C   UNL     1       2.543  11.578 -13.596  1.00  0.00     0.000 C 
BRANCH   9  10
ATOM     10  C   UNL     1       2.777  10.098 -13.963  1.00  0.00     0.000 C 
BRANCH  10  11
ATOM     11  C   UNL     1       1.996   9.083 -13.109  1.00  0.00     0.000 C 
BRANCH  11  12
ATOM     12  C   UNL     1       0.508   8.999 -13.491  1.00  0.00     0.000 C 
BRANCH  12  13
ATOM     13  C   UNL     1      -0.065   7.580 -13.338  1.00  0.00     0.006 C 
BRANCH  13  14
ATOM     14  C   UNL     1      -0.923   7.422 -12.075  1.00  0.00     0.053 C 
BRANCH  14  15
ATOM     15  C   UNL     1      -1.430   6.020 -11.929  1.00  0.00     0.041 C 
ATOM     16  O   UNL     1      -2.659   5.778 -12.064  1.00  0.00    -0.550 OA
ATOM     17  O   UNL     1      -0.562   4.988 -11.585  1.00  0.00    -0.550 OA
ENDBRANCH  14  15
ENDBRANCH  13  14
ENDBRANCH  12  13
ENDBRANCH  11  12
ENDBRANCH  10  11
ENDBRANCH   9  10
ENDBRANCH   8   9
ENDBRANCH   7   8
ENDBRANCH   6   7
ENDBRANCH   5   6
ENDBRANCH   4   5
ENDBRANCH   3   4
ENDBRANCH   2   3
ENDBRANCH   1   2
BRANCH   1  18
ATOM     18  C   UNL     1       0.437   8.864  -4.838  1.00  0.00     0.000 C 
BRANCH  18  19
ATOM     19  C   UNL     1       0.259   7.516  -4.123  1.00  0.00     0.000 C 
BRANCH  19  20
ATOM     20  C   UNL     1       1.095   7.459  -2.837  1.00  0.00     0.000 C 
BRANCH  20  21
ATOM     21  C   UNL     1       2.580   7.235  -3.160  1.00  0.00     0.000 C 
BRANCH  21  22
ATOM     22  C   UNL     1       3.461   7.204  -1.902  1.00  0.00     0.000 C 
BRANCH  22  23
ATOM     23  C   UNL     1       4.722   8.075  -2.036  1.00  0.00     0.000 C 
BRANCH  23  24
ATOM     24  C   UNL     1       5.967   7.268  -2.443  1.00  0.00    -0.000 C 
BRANCH  24  25
ATOM     25  C   UNL     1       5.707   5.786  -2.776  1.00  0.00    -0.000 C 
BRANCH  25  26
ATOM     26  C   UNL     1       6.222   5.386  -4.170  1.00  0.00    -0.000 C 
BRANCH  26  27
ATOM     27  C   UNL     1       5.564   4.098  -4.701  1.00  0.00    -0.000 C 
BRANCH  27  28
ATOM     28  C   UNL     1       6.474   3.213  -5.576  1.00  0.00    -0.000 C 
BRANCH  28  29
ATOM     29  C   UNL     1       6.873   1.864  -4.947  1.00  0.00    -0.000 C 
BRANCH  29  30
ATOM     30  C   UNL     1       6.515   1.746  -3.451  1.00  0.00    -0.000 C 
BRANCH  30  31
ATOM     31  C   UNL     1       7.751   1.845  -2.545  1.00  0.00    -0.003 C 
ATOM     32  C   UNL     1       7.784   3.176  -1.800  1.00  0.00     0.004 C 
ENDBRANCH  30  31
ENDBRANCH  29  30
ENDBRANCH  28  29
ENDBRANCH  27  28
ENDBRANCH  26  27
ENDBRANCH  25  26
ENDBRANCH  24  25
ENDBRANCH  23  24
ENDBRANCH  22  23
ENDBRANCH  21  22
ENDBRANCH  20  21
ENDBRANCH  19  20
ENDBRANCH  18  19
ENDBRANCH   1  18
TORSDOF 28
ENDMDL
MODEL 7
REMARK VINA RESULT:    23.427      4.047      6.990
REMARK INTER + INTRA:          61.708
REMARK INTER:                  62.455
REMARK INTRA:                  -0.747
REMARK UNBOUND:                -0.065
REMARK SMILES CCCCCCCCCCCCCCCCCCCCCCCCCCCCCC(=O)[O-]
REMARK SMILES IDX 16 1 17 2 18 3 19 4 20 5 21 6 22 7 23 8 24 9 25 10 26 11
REMARK SMILES IDX 27 12 28 13 29 14 30 15 31 16 32 17 15 18 14 19 13 20 12 21
REMARK SMILES IDX 11 22 10 23 9 24 8 25 7 26 6 27 5 28 4 29 3 30 2 31 1 32
REMARK H PARENT
REMARK Flexibility Score: inf
ROOT
ATOM      1  C   UNL     1       0.593   8.597  -5.467  1.00  0.00     0.000 C 
ENDROOT
BRANCH   1   2
ATOM      2  C   UNL     1       1.870   9.017  -6.220  1.00  0.00     0.000 C 
BRANCH   2   3
ATOM      3  C   UNL     1       1.837   8.642  -7.710  1.00  0.00     0.000 C 
BRANCH   3   4
ATOM      4  C   UNL     1       0.571   7.858  -8.093  1.00  0.00     0.000 C 
BRANCH   4   5
ATOM      5  C   UNL     1      -0.374   8.657  -9.003  1.00  0.00     0.000 C 
BRANCH   5   6
ATOM      6  C   UNL     1      -0.082   8.367 -10.484  1.00  0.00     0.000 C 
BRANCH   6   7
ATOM      7  C   UNL     1      -1.353   8.082 -11.300  1.00  0.00     0.000 C 
BRANCH   7   8
ATOM      8  C   UNL     1      -1.270   6.755 -12.075  1.00  0.00     0.000 C 
BRANCH   8   9
ATOM      9  C   UNL     1       0.142   6.460 -12.612  1.00  0.00     0.000 C 
BRANCH   9  10
ATOM     10  C   UNL     1       0.647   7.421 -13.709  1.00  0.00     0.000 C 
BRANCH  10  11
ATOM     11  C   UNL     1       1.192   8.766 -13.198  1.00  0.00     0.000 C 
BRANCH  11  12
ATOM     12  C   UNL     1       2.704   8.927 -13.435  1.00  0.00     0.000 C 
BRANCH  12  13
ATOM     13  C   UNL     1       3.436   9.516 -12.218  1.00  0.00     0.006 C 
BRANCH  13  14
ATOM     14  C   UNL     1       2.792  10.816 -11.713  1.00  0.00     0.053 C 
BRANCH  14  15
ATOM     15  C   UNL     1       2.786  11.872 -12.776  1.00  0.00     0.041 C 
ATOM     16  O   UNL     1       2.049  11.741 -13.788  1.00  0.00    -0.550 OA
ATOM     17  O   UNL     1       3.637  12.970 -12.685  1.00  0.00    -0.550 OA
ENDBRANCH  14  15
ENDBRANCH  13  14
ENDBRANCH  12  13
ENDBRANCH  11  12
ENDBRANCH  10  11
ENDBRANCH   9  10
ENDBRANCH   8   9
ENDBRANCH   7   8
ENDBRANCH   6   7
ENDBRANCH   5   6
ENDBRANCH   4   5
ENDBRANCH   3   4
ENDBRANCH   2   3
ENDBRANCH   1   2
BRANCH   1  18
ATOM     18  C   UNL     1       0.826   7.746  -4.204  1.00  0.00     0.000 C 
BRANCH  18  19
ATOM     19  C   UNL     1       0.124   8.313  -2.961  1.00  0.00     0.000 C 
BRANCH  19  20
ATOM     20  C   UNL     1      -0.981   9.302  -3.356  1.00  0.00     0.000 C 
BRANCH  20  21
ATOM     21  C   UNL     1      -0.630  10.726  -2.896  1.00  0.00     0.000 C 
BRANCH  21  22
ATOM     22  C   UNL     1      -1.760  11.382  -2.088  1.00  0.00     0.000 C 
BRANCH  22  23
ATOM     23  C   UNL     1      -1.350  11.699  -0.639  1.00  0.00     0.000 C 
BRANCH  23  24
ATOM     24  C   UNL     1      -0.320  12.838  -0.544  1.00  0.00    -0.000 C 
BRANCH  24  25
ATOM     25  C   UNL     1      -0.665  14.102  -1.355  1.00  0.00    -0.000 C 
BRANCH  25  26
ATOM     26  C   UNL     1       0.049  15.361  -0.834  1.00  0.00    -0.000 C 
BRANCH  26  27
ATOM     27  C   UNL     1       1.065  15.931  -1.841  1.00  0.00    -0.000 C 
BRANCH  27  28
ATOM     28  C   UNL     1       0.449  16.549  -3.112  1.00  0.00    -0.000 C 
BRANCH  28  29
ATOM     29  C   UNL     1       1.131  16.144  -4.433  1.00  0.00    -0.000 C 
BRANCH  29  30
ATOM     30  C   UNL     1       2.650  15.907  -4.301  1.00  0.00    -0.000 C 
BRANCH  30  31
ATOM     31  C   UNL     1       3.133  14.725  -5.155  1.00  0.00    -0.003 C 
ATOM     32  C   UNL     1       1.985  14.119  -5.958  1.00  0.00     0.004 C 
ENDBRANCH  30  31
ENDBRANCH  29  30
ENDBRANCH  28  29
ENDBRANCH  27  28
ENDBRANCH  26  27
ENDBRANCH  25  26
ENDBRANCH  24  25
ENDBRANCH  23  24
ENDBRANCH  22  23
ENDBRANCH  21  22
ENDBRANCH  20  21
ENDBRANCH  19  20
ENDBRANCH  18  19
ENDBRANCH   1  18
TORSDOF 28
ENDMDL
MODEL 8
REMARK VINA RESULT:    23.435      2.304     10.009
REMARK INTER + INTRA:          61.729
REMARK INTER:                  63.939
REMARK INTRA:                  -2.210
REMARK UNBOUND:                -0.065
REMARK SMILES CCCCCCCCCCCCCCCCCCCCCCCCCCCCCC(=O)[O-]
REMARK SMILES IDX 16 1 17 2 18 3 19 4 20 5 21 6 22 7 23 8 24 9 25 10 26 11
REMARK SMILES IDX 27 12 28 13 29 14 30 15 31 16 32 17 15 18 14 19 13 20 12 21
REMARK SMILES IDX 11 22 10 23 9 24 8 25 7 26 6 27 5 28 4 29 3 30 2 31 1 32
REMARK H PARENT
REMARK Flexibility Score: inf
ROOT
ATOM      1  C   UNL     1       0.232   8.385  -3.326  1.00  0.00     0.000 C 
ENDROOT
BRANCH   1   2
ATOM      2  C   UNL     1       0.486   6.884  -3.562  1.00  0.00     0.000 C 
BRANCH   2   3
ATOM      3  C   UNL     1       1.981   6.527  -3.591  1.00  0.00     0.000 C 
BRANCH   3   4
ATOM      4  C   UNL     1       2.855   7.597  -2.916  1.00  0.00     0.000 C 
BRANCH   4   5
ATOM      5  C   UNL     1       3.713   7.033  -1.772  1.00  0.00     0.000 C 
BRANCH   5   6
ATOM      6  C   UNL     1       5.193   7.401  -1.966  1.00  0.00     0.000 C 
BRANCH   6   7
ATOM      7  C   UNL     1       5.826   6.713  -3.186  1.00  0.00     0.000 C 
BRANCH   7   8
ATOM      8  C   UNL     1       5.451   5.223  -3.283  1.00  0.00     0.000 C 
BRANCH   8   9
ATOM      9  C   UNL     1       6.629   4.335  -3.719  1.00  0.00     0.000 C 
BRANCH   9  10
ATOM     10  C   UNL     1       6.883   3.094  -2.840  1.00  0.00     0.000 C 
BRANCH  10  11
ATOM     11  C   UNL     1       7.085   1.777  -3.611  1.00  0.00     0.000 C 
BRANCH  11  12
ATOM     12  C   UNL     1       7.715   1.987  -4.999  1.00  0.00     0.000 C 
BRANCH  12  13
ATOM     13  C   UNL     1       6.908   1.318  -6.124  1.00  0.00     0.006 C 
BRANCH  13  14
ATOM     14  C   UNL     1       5.391   1.477  -5.939  1.00  0.00     0.053 C 
BRANCH  14  15
ATOM     15  C   UNL     1       4.864   2.640  -6.723  1.00  0.00     0.041 C 
ATOM     16  O   UNL     1       5.257   3.807  -6.459  1.00  0.00    -0.550 OA
ATOM     17  O   UNL     1       3.894   2.449  -7.702  1.00  0.00    -0.550 OA
ENDBRANCH  14  15
ENDBRANCH  13  14
ENDBRANCH  12  13
ENDBRANCH  11  12
ENDBRANCH  10  11
ENDBRANCH   9  10
ENDBRANCH   8   9
ENDBRANCH   7   8
ENDBRANCH   6   7
ENDBRANCH   5   6
ENDBRANCH   4   5
ENDBRANCH   3   4
ENDBRANCH   2   3
ENDBRANCH   1   2
BRANCH   1  18
ATOM     18  C   UNL     1      -0.212   9.179  -4.570  1.00  0.00     0.000 C 
BRANCH  18  19
ATOM     19  C   UNL     1       0.870   9.242  -5.658  1.00  0.00     0.000 C 
BRANCH  19  20
ATOM     20  C   UNL     1       0.354   8.667  -6.983  1.00  0.00     0.000 C 
BRANCH  20  21
ATOM     21  C   UNL     1       1.497   8.020  -7.781  1.00  0.00     0.000 C 
BRANCH  21  22
ATOM     22  C   UNL     1       2.751   8.906  -7.842  1.00  0.00     0.000 C 
BRANCH  22  23
ATOM     23  C   UNL     1       2.734   9.880  -9.034  1.00  0.00     0.000 C 
BRANCH  23  24
ATOM     24  C   UNL     1       3.162   9.216 -10.354  1.00  0.00    -0.000 C 
BRANCH  24  25
ATOM     25  C   UNL     1       3.507  10.192 -11.495  1.00  0.00    -0.000 C 
BRANCH  25  26
ATOM     26  C   UNL     1       3.399   9.547 -12.889  1.00  0.00    -0.000 C 
BRANCH  26  27
ATOM     27  C   UNL     1       2.140   9.993 -13.656  1.00  0.00    -0.000 C 
BRANCH  27  28
ATOM     28  C   UNL     1       0.821   9.360 -13.170  1.00  0.00    -0.000 C 
BRANCH  28  29
ATOM     29  C   UNL     1       0.585   7.907 -13.629  1.00  0.00    -0.000 C 
BRANCH  29  30
ATOM     30  C   UNL     1      -0.237   7.067 -12.630  1.00  0.00    -0.000 C 
BRANCH  30  31
ATOM     31  C   UNL     1      -1.137   7.935 -11.739  1.00  0.00    -0.003 C 
ATOM     32  C   UNL     1      -0.494   8.178 -10.376  1.00  0.00     0.004 C 
ENDBRANCH  30  31
ENDBRANCH  29  30
ENDBRANCH  28  29
ENDBRANCH  27  28
ENDBRANCH  26  27
ENDBRANCH  25  26
ENDBRANCH  24  25
ENDBRANCH  23  24
ENDBRANCH  22  23
ENDBRANCH  21  22
ENDBRANCH  20  21
ENDBRANCH  19  20
ENDBRANCH  18  19
ENDBRANCH   1  18
TORSDOF 28
ENDMDL
MODEL 9
REMARK VINA RESULT:    23.483      1.768      3.359
REMARK INTER + INTRA:          61.856
REMARK INTER:                  62.173
REMARK INTRA:                  -0.317
REMARK UNBOUND:                -0.065
REMARK SMILES CCCCCCCCCCCCCCCCCCCCCCCCCCCCCC(=O)[O-]
REMARK SMILES IDX 16 1 17 2 18 3 19 4 20 5 21 6 22 7 23 8 24 9 25 10 26 11
REMARK SMILES IDX 27 12 28 13 29 14 30 15 31 16 32 17 15 18 14 19 13 20 12 21
REMARK SMILES IDX 11 22 10 23 9 24 8 25 7 26 6 27 5 28 4 29 3 30 2 31 1 32
REMARK H PARENT
REMARK Flexibility Score: inf
ROOT
ATOM      1  C   UNL     1       0.550   8.038  -7.624  1.00  0.00     0.000 C 
ENDROOT
BRANCH   1   2
ATOM      2  C   UNL     1       2.050   8.388  -7.592  1.00  0.00     0.000 C 
BRANCH   2   3
ATOM      3  C   UNL     1       2.425   9.505  -8.581  1.00  0.00     0.000 C 
BRANCH   3   4
ATOM      4  C   UNL     1       3.689   9.172  -9.392  1.00  0.00     0.000 C 
BRANCH   4   5
ATOM      5  C   UNL     1       3.601   9.642 -10.853  1.00  0.00     0.000 C 
BRANCH   5   6
ATOM      6  C   UNL     1       3.871  11.151 -10.959  1.00  0.00     0.000 C 
BRANCH   6   7
ATOM      7  C   UNL     1       2.662  11.940 -11.488  1.00  0.00     0.000 C 
BRANCH   7   8
ATOM      8  C   UNL     1       2.858  12.415 -12.939  1.00  0.00     0.000 C 
BRANCH   8   9
ATOM      9  C   UNL     1       2.440  11.359 -13.978  1.00  0.00     0.000 C 
BRANCH   9  10
ATOM     10  C   UNL     1       1.991  10.002 -13.398  1.00  0.00     0.000 C 
BRANCH  10  11
ATOM     11  C   UNL     1       2.856   8.797 -13.810  1.00  0.00     0.000 C 
BRANCH  11  12
ATOM     12  C   UNL     1       2.145   7.449 -13.598  1.00  0.00     0.000 C 
BRANCH  12  13
ATOM     13  C   UNL     1       0.613   7.582 -13.593  1.00  0.00     0.006 C 
BRANCH  13  14
ATOM     14  C   UNL     1      -0.060   6.623 -12.599  1.00  0.00     0.053 C 
BRANCH  14  15
ATOM     15  C   UNL     1      -1.124   7.318 -11.805  1.00  0.00     0.041 C 
ATOM     16  O   UNL     1      -0.826   8.306 -11.084  1.00  0.00    -0.550 OA
ATOM     17  O   UNL     1      -2.431   6.841 -11.808  1.00  0.00    -0.550 OA
ENDBRANCH  14  15
ENDBRANCH  13  14
ENDBRANCH  12  13
ENDBRANCH  11  12
ENDBRANCH  10  11
ENDBRANCH   9  10
ENDBRANCH   8   9
ENDBRANCH   7   8
ENDBRANCH   6   7
ENDBRANCH   5   6
ENDBRANCH   4   5
ENDBRANCH   3   4
ENDBRANCH   2   3
ENDBRANCH   1   2
BRANCH   1  18
ATOM     18  C   UNL     1      -0.294   8.663  -6.496  1.00  0.00     0.000 C 
BRANCH  18  19
ATOM     19  C   UNL     1       0.561   9.326  -5.406  1.00  0.00     0.000 C 
BRANCH  19  20
ATOM     20  C   UNL     1       0.167   8.819  -4.012  1.00  0.00     0.000 C 
BRANCH  20  21
ATOM     21  C   UNL     1      -0.036   7.296  -4.022  1.00  0.00     0.000 C 
BRANCH  21  22
ATOM     22  C   UNL     1       1.271   6.523  -3.784  1.00  0.00     0.000 C 
BRANCH  22  23
ATOM     23  C   UNL     1       2.119   7.124  -2.649  1.00  0.00     0.000 C 
BRANCH  23  24
ATOM     24  C   UNL     1       3.572   7.404  -3.071  1.00  0.00    -0.000 C 
BRANCH  24  25
ATOM     25  C   UNL     1       4.509   7.854  -1.934  1.00  0.00    -0.000 C 
BRANCH  25  26
ATOM     26  C   UNL     1       5.996   7.632  -2.260  1.00  0.00    -0.000 C 
BRANCH  26  27
ATOM     27  C   UNL     1       6.336   6.152  -2.520  1.00  0.00    -0.000 C 
BRANCH  27  28
ATOM     28  C   UNL     1       5.267   5.365  -3.303  1.00  0.00    -0.000 C 
BRANCH  28  29
ATOM     29  C   UNL     1       5.772   4.674  -4.585  1.00  0.00    -0.000 C 
BRANCH  29  30
ATOM     30  C   UNL     1       6.979   3.740  -4.353  1.00  0.00    -0.000 C 
BRANCH  30  31
ATOM     31  C   UNL     1       6.985   3.136  -2.941  1.00  0.00    -0.003 C 
ATOM     32  C   UNL     1       7.075   1.614  -2.992  1.00  0.00     0.004 C 
ENDBRANCH  30  31
ENDBRANCH  29  30
ENDBRANCH  28  29
ENDBRANCH  27  28
ENDBRANCH  26  27
ENDBRANCH  25  26
ENDBRANCH  24  25
ENDBRANCH  23  24
ENDBRANCH  22  23
ENDBRANCH  21  22
ENDBRANCH  20  21
ENDBRANCH  19  20
ENDBRANCH  18  19
ENDBRANCH   1  18
TORSDOF 28
ENDMDL
