MODEL 1
REMARK VINA RESULT:    -4.688      0.000      0.000
REMARK INTER + INTRA:          -5.346
REMARK INTER:                  -5.648
REMARK INTRA:                   0.302
REMARK UNBOUND:                 0.302
REMARK SMILES O=c1c(O)c(-c2ccc(O)c(O)c2)oc2cc(O)cc(O)c12
REMARK SMILES IDX 5 1 3 2 2 3 1 4 22 5 20 6 19 7 17 8 16 9 15 10 14 11 6 12
REMARK SMILES IDX 7 13 8 14 9 15 13 16 11 17 10 18 12 20 4 22 21 24 18 26
REMARK H PARENT 10 19 12 21 4 23 21 25 18 27
REMARK Flexibility Score: inf
ROOT
ATOM      1  C   UNL     1     -33.623   9.866 -36.053  1.00  0.00     0.180 A 
ATOM      2  C   UNL     1     -32.653   9.379 -36.946  1.00  0.00     0.208 A 
ATOM      3  C   UNL     1     -32.979   9.261 -38.307  1.00  0.00     0.238 A 
ATOM      4  O   UNL     1     -32.088   8.875 -39.110  1.00  0.00    -0.285 OA
ATOM      5  C   UNL     1     -34.274   9.614 -38.755  1.00  0.00     0.111 A 
ATOM      6  C   UNL     1     -34.725   9.496 -40.104  1.00  0.00     0.134 A 
ATOM      7  C   UNL     1     -35.982   9.999 -40.458  1.00  0.00     0.093 A 
ATOM      8  C   UNL     1     -36.833  10.555 -39.498  1.00  0.00     0.123 A 
ATOM      9  C   UNL     1     -36.424  10.620 -38.169  1.00  0.00     0.094 A 
ATOM     10  C   UNL     1     -35.160  10.161 -37.791  1.00  0.00     0.146 A 
ATOM     11  O   UNL     1     -34.807  10.251 -36.514  1.00  0.00    -0.452 OA
ENDROOT
BRANCH   1  12
ATOM     12  C   UNL     1     -33.363   9.995 -34.601  1.00  0.00     0.025 A 
ATOM     13  C   UNL     1     -32.466   9.114 -33.978  1.00  0.00     0.016 A 
ATOM     14  C   UNL     1     -32.190   9.231 -32.613  1.00  0.00     0.051 A 
ATOM     15  C   UNL     1     -32.797  10.241 -31.855  1.00  0.00     0.157 A 
ATOM     16  C   UNL     1     -33.954  11.021 -33.840  1.00  0.00     0.062 A 
ATOM     17  C   UNL     1     -33.676  11.140 -32.470  1.00  0.00     0.158 A 
BRANCH  15  18
ATOM     18  O   UNL     1     -32.526  10.360 -30.493  1.00  0.00    -0.504 OA
ATOM     19  H   UNL     1     -32.914  11.116 -29.940  1.00  0.00     0.293 HD
ENDBRANCH  15  18
BRANCH  17  20
ATOM     20  O   UNL     1     -34.267  12.152 -31.717  1.00  0.00    -0.504 OA
ATOM     21  H   UNL     1     -35.228  12.087 -31.402  1.00  0.00     0.293 HD
ENDBRANCH  17  20
ENDBRANCH   1  12
BRANCH   2  22
ATOM     22  O   UNL     1     -31.373   9.056 -36.486  1.00  0.00    -0.502 OA
ATOM     23  H   UNL     1     -30.532   9.428 -36.911  1.00  0.00     0.293 HD
ENDBRANCH   2  22
BRANCH   6  24
ATOM     24  O   UNL     1     -33.993   8.875 -41.120  1.00  0.00    -0.507 OA
ATOM     25  H   UNL     1     -33.963   7.879 -41.280  1.00  0.00     0.293 HD
ENDBRANCH   6  24
BRANCH   8  26
ATOM     26  O   UNL     1     -38.088  11.038 -39.856  1.00  0.00    -0.508 OA
ATOM     27  H   UNL     1     -38.312  11.277 -40.816  1.00  0.00     0.293 HD
ENDBRANCH   8  26
TORSDOF 6
ENDMDL
MODEL 2
REMARK VINA RESULT:    -4.154      1.168      6.799
REMARK INTER + INTRA:          -4.702
REMARK INTER:                  -5.177
REMARK INTRA:                   0.475
REMARK UNBOUND:                 0.302
REMARK SMILES O=c1c(O)c(-c2ccc(O)c(O)c2)oc2cc(O)cc(O)c12
REMARK SMILES IDX 5 1 3 2 2 3 1 4 22 5 20 6 19 7 17 8 16 9 15 10 14 11 6 12
REMARK SMILES IDX 7 13 8 14 9 15 13 16 11 17 10 18 12 20 4 22 21 24 18 26
REMARK H PARENT 10 19 12 21 4 23 21 25 18 27
REMARK Flexibility Score: inf
ROOT
ATOM      1  C   UNL     1     -33.876  10.254 -36.348  1.00  0.00     0.180 A 
ATOM      2  C   UNL     1     -32.635   9.597 -36.281  1.00  0.00     0.208 A 
ATOM      3  C   UNL     1     -31.909   9.636 -35.080  1.00  0.00     0.238 A 
ATOM      4  O   UNL     1     -30.824   9.000 -35.009  1.00  0.00    -0.285 OA
ATOM      5  C   UNL     1     -32.423  10.345 -33.968  1.00  0.00     0.111 A 
ATOM      6  C   UNL     1     -31.753  10.484 -32.715  1.00  0.00     0.134 A 
ATOM      7  C   UNL     1     -32.413  11.094 -31.643  1.00  0.00     0.093 A 
ATOM      8  C   UNL     1     -33.695  11.631 -31.797  1.00  0.00     0.123 A 
ATOM      9  C   UNL     1     -34.332  11.552 -33.032  1.00  0.00     0.094 A 
ATOM     10  C   UNL     1     -33.714  10.916 -34.111  1.00  0.00     0.146 A 
ATOM     11  O   UNL     1     -34.362  10.854 -35.268  1.00  0.00    -0.452 OA
ENDROOT
BRANCH   1  12
ATOM     12  C   UNL     1     -34.688  10.279 -37.586  1.00  0.00     0.025 A 
ATOM     13  C   UNL     1     -35.831  11.091 -37.646  1.00  0.00     0.016 A 
ATOM     14  C   UNL     1     -36.601  11.146 -38.811  1.00  0.00     0.051 A 
ATOM     15  C   UNL     1     -36.230  10.401 -39.937  1.00  0.00     0.157 A 
ATOM     16  C   UNL     1     -34.308   9.549 -38.727  1.00  0.00     0.062 A 
ATOM     17  C   UNL     1     -35.079   9.605 -39.897  1.00  0.00     0.158 A 
BRANCH  15  18
ATOM     18  O   UNL     1     -36.996  10.451 -41.101  1.00  0.00    -0.504 OA
ATOM     19  H   UNL     1     -37.018   9.676 -41.754  1.00  0.00     0.293 HD
ENDBRANCH  15  18
BRANCH  17  20
ATOM     20  O   UNL     1     -34.704   8.876 -41.024  1.00  0.00    -0.504 OA
ATOM     21  H   UNL     1     -33.740   8.608 -41.187  1.00  0.00     0.293 HD
ENDBRANCH  17  20
ENDBRANCH   1  12
BRANCH   2  22
ATOM     22  O   UNL     1     -32.156   8.885 -37.384  1.00  0.00    -0.502 OA
ATOM     23  H   UNL     1     -31.265   8.403 -37.376  1.00  0.00     0.293 HD
ENDBRANCH   2  22
BRANCH   6  24
ATOM     24  O   UNL     1     -30.439  10.066 -32.482  1.00  0.00    -0.507 OA
ATOM     25  H   UNL     1     -29.853  10.404 -31.734  1.00  0.00     0.293 HD
ENDBRANCH   6  24
BRANCH   8  26
ATOM     26  O   UNL     1     -34.338  12.251 -30.729  1.00  0.00    -0.508 OA
ATOM     27  H   UNL     1     -35.013  12.993 -30.875  1.00  0.00     0.293 HD
ENDBRANCH   8  26
TORSDOF 6
ENDMDL
MODEL 3
REMARK VINA RESULT:    -2.743      2.210      3.365
REMARK INTER + INTRA:          -3.003
REMARK INTER:                  -3.163
REMARK INTRA:                   0.160
REMARK UNBOUND:                 0.302
REMARK SMILES O=c1c(O)c(-c2ccc(O)c(O)c2)oc2cc(O)cc(O)c12
REMARK SMILES IDX 5 1 3 2 2 3 1 4 22 5 20 6 19 7 17 8 16 9 15 10 14 11 6 12
REMARK SMILES IDX 7 13 8 14 9 15 13 16 11 17 10 18 12 20 4 22 21 24 18 26
REMARK H PARENT 10 19 12 21 4 23 21 25 18 27
REMARK Flexibility Score: inf
ROOT
ATOM      1  C   UNL     1     -32.791  11.193 -33.263  1.00  0.00     0.180 A 
ATOM      2  C   UNL     1     -31.934  10.171 -33.706  1.00  0.00     0.208 A 
ATOM      3  C   UNL     1     -32.007   9.754 -35.045  1.00  0.00     0.238 A 
ATOM      4  O   UNL     1     -31.200   8.876 -35.448  1.00  0.00    -0.285 OA
ATOM      5  C   UNL     1     -32.947  10.351 -35.918  1.00  0.00     0.111 A 
ATOM      6  C   UNL     1     -33.135   9.978 -37.283  1.00  0.00     0.134 A 
ATOM      7  C   UNL     1     -34.001  10.726 -38.090  1.00  0.00     0.093 A 
ATOM      8  C   UNL     1     -34.736  11.792 -37.564  1.00  0.00     0.123 A 
ATOM      9  C   UNL     1     -34.603  12.125 -36.219  1.00  0.00     0.094 A 
ATOM     10  C   UNL     1     -33.720  11.421 -35.397  1.00  0.00     0.146 A 
ATOM     11  O   UNL     1     -33.616  11.779 -34.123  1.00  0.00    -0.452 OA
ENDROOT
BRANCH   1  12
ATOM     12  C   UNL     1     -32.791  11.670 -31.861  1.00  0.00     0.025 A 
ATOM     13  C   UNL     1     -31.569  11.873 -31.200  1.00  0.00     0.016 A 
ATOM     14  C   UNL     1     -31.545  12.342 -29.884  1.00  0.00     0.051 A 
ATOM     15  C   UNL     1     -32.741  12.629 -29.215  1.00  0.00     0.157 A 
ATOM     16  C   UNL     1     -33.989  11.979 -31.192  1.00  0.00     0.062 A 
ATOM     17  C   UNL     1     -33.966  12.452 -29.872  1.00  0.00     0.158 A 
BRANCH  15  18
ATOM     18  O   UNL     1     -32.722  13.095 -27.901  1.00  0.00    -0.504 OA
ATOM     19  H   UNL     1     -32.947  14.058 -27.678  1.00  0.00     0.293 HD
ENDBRANCH  15  18
BRANCH  17  20
ATOM     20  O   UNL     1     -35.154  12.751 -29.208  1.00  0.00    -0.504 OA
ATOM     21  H   UNL     1     -35.843  13.377 -29.610  1.00  0.00     0.293 HD
ENDBRANCH  17  20
ENDBRANCH   1  12
BRANCH   2  22
ATOM     22  O   UNL     1     -30.999   9.610 -32.832  1.00  0.00    -0.502 OA
ATOM     23  H   UNL     1     -30.956   9.857 -31.850  1.00  0.00     0.293 HD
ENDBRANCH   2  22
BRANCH   6  24
ATOM     24  O   UNL     1     -32.521   8.875 -37.883  1.00  0.00    -0.507 OA
ATOM     25  H   UNL     1     -31.702   8.407 -37.523  1.00  0.00     0.293 HD
ENDBRANCH   6  24
BRANCH   8  26
ATOM     26  O   UNL     1     -35.607  12.520 -38.370  1.00  0.00    -0.508 OA
ATOM     27  H   UNL     1     -36.015  12.120 -39.208  1.00  0.00     0.293 HD
ENDBRANCH   8  26
TORSDOF 6
ENDMDL
MODEL 4
REMARK VINA RESULT:    -2.181      1.446      6.746
REMARK INTER + INTRA:          -2.325
REMARK INTER:                  -2.720
REMARK INTRA:                   0.394
REMARK UNBOUND:                 0.302
REMARK SMILES O=c1c(O)c(-c2ccc(O)c(O)c2)oc2cc(O)cc(O)c12
REMARK SMILES IDX 5 1 3 2 2 3 1 4 22 5 20 6 19 7 17 8 16 9 15 10 14 11 6 12
REMARK SMILES IDX 7 13 8 14 9 15 13 16 11 17 10 18 12 20 4 22 21 24 18 26
REMARK H PARENT 10 19 12 21 4 23 21 25 18 27
REMARK Flexibility Score: inf
ROOT
ATOM      1  C   UNL     1     -33.351  10.297 -35.600  1.00  0.00     0.180 A 
ATOM      2  C   UNL     1     -32.082   9.794 -35.264  1.00  0.00     0.208 A 
ATOM      3  C   UNL     1     -31.590  10.002 -33.965  1.00  0.00     0.238 A 
ATOM      4  O   UNL     1     -30.477   9.503 -33.654  1.00  0.00    -0.285 OA
ATOM      5  C   UNL     1     -32.363  10.725 -33.026  1.00  0.00     0.111 A 
ATOM      6  C   UNL     1     -31.945  11.030 -31.696  1.00  0.00     0.134 A 
ATOM      7  C   UNL     1     -32.844  11.637 -30.811  1.00  0.00     0.093 A 
ATOM      8  C   UNL     1     -34.125  12.010 -31.229  1.00  0.00     0.123 A 
ATOM      9  C   UNL     1     -34.521  11.769 -32.542  1.00  0.00     0.094 A 
ATOM     10  C   UNL     1     -33.659  11.133 -33.438  1.00  0.00     0.146 A 
ATOM     11  O   UNL     1     -34.080  10.913 -34.678  1.00  0.00    -0.452 OA
ENDROOT
BRANCH   1  12
ATOM     12  C   UNL     1     -33.928  10.139 -36.955  1.00  0.00     0.025 A 
ATOM     13  C   UNL     1     -33.508   9.073 -37.765  1.00  0.00     0.016 A 
ATOM     14  C   UNL     1     -34.054   8.893 -39.039  1.00  0.00     0.051 A 
ATOM     15  C   UNL     1     -35.038   9.768 -39.514  1.00  0.00     0.157 A 
ATOM     16  C   UNL     1     -34.931  11.004 -37.429  1.00  0.00     0.062 A 
ATOM     17  C   UNL     1     -35.482  10.822 -38.707  1.00  0.00     0.158 A 
BRANCH  15  18
ATOM     18  O   UNL     1     -35.584   9.593 -40.785  1.00  0.00    -0.504 OA
ATOM     19  H   UNL     1     -36.293  10.221 -41.147  1.00  0.00     0.293 HD
ENDBRANCH  15  18
BRANCH  17  20
ATOM     20  O   UNL     1     -36.471  11.683 -39.177  1.00  0.00    -0.504 OA
ATOM     21  H   UNL     1     -37.222  12.006 -38.578  1.00  0.00     0.293 HD
ENDBRANCH  17  20
ENDBRANCH   1  12
BRANCH   2  22
ATOM     22  O   UNL     1     -31.345   9.064 -36.200  1.00  0.00    -0.502 OA
ATOM     23  H   UNL     1     -31.735   8.766 -37.087  1.00  0.00     0.293 HD
ENDBRANCH   2  22
BRANCH   6  24
ATOM     24  O   UNL     1     -30.659  10.784 -31.206  1.00  0.00    -0.507 OA
ATOM     25  H   UNL     1     -29.907  11.457 -31.202  1.00  0.00     0.293 HD
ENDBRANCH   6  24
BRANCH   8  26
ATOM     26  O   UNL     1     -35.008  12.627 -30.347  1.00  0.00    -0.508 OA
ATOM     27  H   UNL     1     -35.998  12.406 -30.345  1.00  0.00     0.293 HD
ENDBRANCH   8  26
TORSDOF 6
ENDMDL
MODEL 5
REMARK VINA RESULT:    -1.980      2.041      3.208
REMARK INTER + INTRA:          -2.084
REMARK INTER:                  -2.382
REMARK INTRA:                   0.298
REMARK UNBOUND:                 0.302
REMARK SMILES O=c1c(O)c(-c2ccc(O)c(O)c2)oc2cc(O)cc(O)c12
REMARK SMILES IDX 5 1 3 2 2 3 1 4 22 5 20 6 19 7 17 8 16 9 15 10 14 11 6 12
REMARK SMILES IDX 7 13 8 14 9 15 13 16 11 17 10 18 12 20 4 22 21 24 18 26
REMARK H PARENT 10 19 12 21 4 23 21 25 18 27
REMARK Flexibility Score: inf
ROOT
ATOM      1  C   UNL     1     -32.989  11.204 -33.643  1.00  0.00     0.180 A 
ATOM      2  C   UNL     1     -31.940  10.369 -34.065  1.00  0.00     0.208 A 
ATOM      3  C   UNL     1     -31.926   9.912 -35.392  1.00  0.00     0.238 A 
ATOM      4  O   UNL     1     -30.955   9.209 -35.779  1.00  0.00    -0.285 OA
ATOM      5  C   UNL     1     -32.969  10.281 -36.276  1.00  0.00     0.111 A 
ATOM      6  C   UNL     1     -33.076   9.843 -37.630  1.00  0.00     0.134 A 
ATOM      7  C   UNL     1     -34.077  10.375 -38.450  1.00  0.00     0.093 A 
ATOM      8  C   UNL     1     -35.016  11.281 -37.947  1.00  0.00     0.123 A 
ATOM      9  C   UNL     1     -34.954  11.668 -36.612  1.00  0.00     0.094 A 
ATOM     10  C   UNL     1     -33.945  11.182 -35.777  1.00  0.00     0.146 A 
ATOM     11  O   UNL     1     -33.917  11.586 -34.513  1.00  0.00    -0.452 OA
ENDROOT
BRANCH   1  12
ATOM     12  C   UNL     1     -33.087  11.706 -32.253  1.00  0.00     0.025 A 
ATOM     13  C   UNL     1     -34.352  11.932 -31.687  1.00  0.00     0.016 A 
ATOM     14  C   UNL     1     -34.468  12.385 -30.370  1.00  0.00     0.051 A 
ATOM     15  C   UNL     1     -33.321  12.604 -29.596  1.00  0.00     0.157 A 
ATOM     16  C   UNL     1     -31.939  11.907 -31.465  1.00  0.00     0.062 A 
ATOM     17  C   UNL     1     -32.055  12.360 -30.142  1.00  0.00     0.158 A 
BRANCH  15  18
ATOM     18  O   UNL     1     -33.432  13.059 -28.283  1.00  0.00    -0.504 OA
ATOM     19  H   UNL     1     -33.945  13.903 -28.056  1.00  0.00     0.293 HD
ENDBRANCH  15  18
BRANCH  17  20
ATOM     20  O   UNL     1     -30.917  12.566 -29.365  1.00  0.00    -0.504 OA
ATOM     21  H   UNL     1     -30.304  13.358 -29.522  1.00  0.00     0.293 HD
ENDBRANCH  17  20
ENDBRANCH   1  12
BRANCH   2  22
ATOM     22  O   UNL     1     -30.910  10.035 -33.182  1.00  0.00    -0.502 OA
ATOM     23  H   UNL     1     -30.250   9.290 -33.373  1.00  0.00     0.293 HD
ENDBRANCH   2  22
BRANCH   6  24
ATOM     24  O   UNL     1     -32.248   8.875 -38.205  1.00  0.00    -0.507 OA
ATOM     25  H   UNL     1     -32.500   7.907 -38.336  1.00  0.00     0.293 HD
ENDBRANCH   6  24
BRANCH   8  26
ATOM     26  O   UNL     1     -36.018  11.793 -38.766  1.00  0.00    -0.508 OA
ATOM     27  H   UNL     1     -36.535  11.201 -39.407  1.00  0.00     0.293 HD
ENDBRANCH   8  26
TORSDOF 6
ENDMDL
