MODEL 1
REMARK VINA RESULT:    -4.242      0.000      0.000
REMARK INTER + INTRA:          -5.337
REMARK INTER:                  -5.110
REMARK INTRA:                  -0.227
REMARK UNBOUND:                -0.227
REMARK SMILES NC(=O)C[C@@H]([NH3+])C(=O)[O-]
REMARK SMILES IDX 4 1 5 2 6 3 7 7 8 8 9 9 2 10 3 11 1 12
REMARK H PARENT 6 4 6 5 6 6 1 13 1 14
REMARK Flexibility Score: inf
ROOT
ATOM      1  C   UNL     1      52.991  38.406  -5.510  1.00  0.00     0.171 C 
ENDROOT
BRANCH   1   2
ATOM      2  C   UNL     1      53.053  36.886  -5.778  1.00  0.00     0.237 C 
BRANCH   2   3
ATOM      3  N   UNL     1      53.476  36.139  -4.586  1.00  0.00    -0.350 N 
ATOM      4  H   UNL     1      54.104  35.352  -4.871  1.00  0.00     0.345 HD
ATOM      5  H   UNL     1      52.655  35.747  -4.072  1.00  0.00     0.345 HD
ATOM      6  H   UNL     1      54.012  36.769  -3.945  1.00  0.00     0.345 HD
ENDBRANCH   2   3
BRANCH   2   7
ATOM      7  C   UNL     1      51.740  36.367  -6.308  1.00  0.00     0.100 C 
ATOM      8  O   UNL     1      50.967  37.139  -6.934  1.00  0.00    -0.544 OA
ATOM      9  O   UNL     1      51.349  35.055  -6.068  1.00  0.00    -0.544 OA
ENDBRANCH   2   7
ENDBRANCH   1   2
BRANCH   1  10
ATOM     10  C   UNL     1      53.970  38.866  -4.467  1.00  0.00     0.223 C 
ATOM     11  O   UNL     1      53.783  38.569  -3.257  1.00  0.00    -0.275 OA
ATOM     12  N   UNL     1      55.124  39.620  -4.838  1.00  0.00    -0.369 N 
ATOM     13  H   UNL     1      55.300  39.868  -5.837  1.00  0.00     0.159 HD
ATOM     14  H   UNL     1      55.807  39.929  -4.112  1.00  0.00     0.159 HD
ENDBRANCH   1  10
TORSDOF 4
ENDMDL
MODEL 2
REMARK VINA RESULT:    -4.209      1.790      1.854
REMARK INTER + INTRA:          -5.297
REMARK INTER:                  -4.965
REMARK INTRA:                  -0.332
REMARK UNBOUND:                -0.227
REMARK SMILES NC(=O)C[C@@H]([NH3+])C(=O)[O-]
REMARK SMILES IDX 4 1 5 2 6 3 7 7 8 8 9 9 2 10 3 11 1 12
REMARK H PARENT 6 4 6 5 6 6 1 13 1 14
REMARK Flexibility Score: inf
ROOT
ATOM      1  C   UNL     1      53.123  38.432  -4.592  1.00  0.00     0.171 C 
ENDROOT
BRANCH   1   2
ATOM      2  C   UNL     1      52.122  38.144  -5.733  1.00  0.00     0.237 C 
BRANCH   2   3
ATOM      3  N   UNL     1      52.488  38.849  -6.969  1.00  0.00    -0.350 N 
ATOM      4  H   UNL     1      53.150  38.261  -7.525  1.00  0.00     0.345 HD
ATOM      5  H   UNL     1      52.943  39.767  -6.763  1.00  0.00     0.345 HD
ATOM      6  H   UNL     1      51.633  39.014  -7.549  1.00  0.00     0.345 HD
ENDBRANCH   2   3
BRANCH   2   7
ATOM      7  C   UNL     1      51.974  36.663  -5.974  1.00  0.00     0.100 C 
ATOM      8  O   UNL     1      51.178  36.248  -6.857  1.00  0.00    -0.544 OA
ATOM      9  O   UNL     1      52.670  35.746  -5.196  1.00  0.00    -0.544 OA
ENDBRANCH   2   7
ENDBRANCH   1   2
BRANCH   1  10
ATOM     10  C   UNL     1      54.507  38.753  -5.083  1.00  0.00     0.223 C 
ATOM     11  O   UNL     1      55.121  37.929  -5.811  1.00  0.00    -0.275 OA
ATOM     12  N   UNL     1      55.125  39.995  -4.746  1.00  0.00    -0.369 N 
ATOM     13  H   UNL     1      54.628  40.694  -4.149  1.00  0.00     0.159 HD
ATOM     14  H   UNL     1      56.083  40.219  -5.096  1.00  0.00     0.159 HD
ENDBRANCH   1  10
TORSDOF 4
ENDMDL
MODEL 3
REMARK VINA RESULT:    -4.117      1.769      2.159
REMARK INTER + INTRA:          -5.186
REMARK INTER:                  -4.674
REMARK INTRA:                  -0.512
REMARK UNBOUND:                -0.227
REMARK SMILES NC(=O)C[C@@H]([NH3+])C(=O)[O-]
REMARK SMILES IDX 4 1 5 2 6 3 7 7 8 8 9 9 2 10 3 11 1 12
REMARK H PARENT 6 4 6 5 6 6 1 13 1 14
REMARK Flexibility Score: inf
ROOT
ATOM      1  C   UNL     1      53.887  36.766  -6.560  1.00  0.00     0.171 C 
ENDROOT
BRANCH   1   2
ATOM      2  C   UNL     1      53.314  35.867  -5.442  1.00  0.00     0.237 C 
BRANCH   2   3
ATOM      3  N   UNL     1      53.250  36.572  -4.155  1.00  0.00    -0.350 N 
ATOM      4  H   UNL     1      52.287  36.485  -3.756  1.00  0.00     0.345 HD
ATOM      5  H   UNL     1      53.480  37.585  -4.265  1.00  0.00     0.345 HD
ATOM      6  H   UNL     1      53.923  36.140  -3.480  1.00  0.00     0.345 HD
ENDBRANCH   2   3
BRANCH   2   7
ATOM      7  C   UNL     1      51.968  35.306  -5.823  1.00  0.00     0.100 C 
ATOM      8  O   UNL     1      51.649  34.141  -5.466  1.00  0.00    -0.544 OA
ATOM      9  O   UNL     1      51.091  36.042  -6.611  1.00  0.00    -0.544 OA
ENDBRANCH   2   7
ENDBRANCH   1   2
BRANCH   1  10
ATOM     10  C   UNL     1      53.706  38.234  -6.293  1.00  0.00     0.223 C 
ATOM     11  O   UNL     1      54.607  38.878  -5.693  1.00  0.00    -0.275 OA
ATOM     12  N   UNL     1      52.528  38.910  -6.733  1.00  0.00    -0.369 N 
ATOM     13  H   UNL     1      51.774  38.395  -7.239  1.00  0.00     0.159 HD
ATOM     14  H   UNL     1      52.410  39.932  -6.554  1.00  0.00     0.159 HD
ENDBRANCH   1  10
TORSDOF 4
ENDMDL
MODEL 4
REMARK VINA RESULT:    -4.057      2.392      3.580
REMARK INTER + INTRA:          -5.114
REMARK INTER:                  -4.636
REMARK INTRA:                  -0.478
REMARK UNBOUND:                -0.227
REMARK SMILES NC(=O)C[C@@H]([NH3+])C(=O)[O-]
REMARK SMILES IDX 4 1 5 2 6 3 7 7 8 8 9 9 2 10 3 11 1 12
REMARK H PARENT 6 4 6 5 6 6 1 13 1 14
REMARK Flexibility Score: inf
ROOT
ATOM      1  C   UNL     1      54.428  37.754  -6.141  1.00  0.00     0.171 C 
ENDROOT
BRANCH   1   2
ATOM      2  C   UNL     1      54.566  38.378  -4.735  1.00  0.00     0.237 C 
BRANCH   2   3
ATOM      3  N   UNL     1      55.094  39.748  -4.796  1.00  0.00    -0.350 N 
ATOM      4  H   UNL     1      54.837  40.261  -3.921  1.00  0.00     0.345 HD
ATOM      5  H   UNL     1      54.708  40.267  -5.617  1.00  0.00     0.345 HD
ATOM      6  H   UNL     1      56.137  39.724  -4.866  1.00  0.00     0.345 HD
ENDBRANCH   2   3
BRANCH   2   7
ATOM      7  C   UNL     1      53.261  38.331  -3.981  1.00  0.00     0.100 C 
ATOM      8  O   UNL     1      52.188  38.105  -4.599  1.00  0.00    -0.544 OA
ATOM      9  O   UNL     1      53.222  38.585  -2.616  1.00  0.00    -0.544 OA
ENDBRANCH   2   7
ENDBRANCH   1   2
BRANCH   1  10
ATOM     10  C   UNL     1      54.168  38.769  -7.218  1.00  0.00     0.223 C 
ATOM     11  O   UNL     1      55.125  39.207  -7.911  1.00  0.00    -0.275 OA
ATOM     12  N   UNL     1      52.841  39.227  -7.478  1.00  0.00    -0.369 N 
ATOM     13  H   UNL     1      52.035  38.870  -6.919  1.00  0.00     0.159 HD
ATOM     14  H   UNL     1      52.663  39.925  -8.233  1.00  0.00     0.159 HD
ENDBRANCH   1  10
TORSDOF 4
ENDMDL
MODEL 5
REMARK VINA RESULT:    -4.053      1.590      1.673
REMARK INTER + INTRA:          -5.109
REMARK INTER:                  -4.848
REMARK INTRA:                  -0.262
REMARK UNBOUND:                -0.227
REMARK SMILES NC(=O)C[C@@H]([NH3+])C(=O)[O-]
REMARK SMILES IDX 4 1 5 2 6 3 7 7 8 8 9 9 2 10 3 11 1 12
REMARK H PARENT 6 4 6 5 6 6 1 13 1 14
REMARK Flexibility Score: inf
ROOT
ATOM      1  C   UNL     1      53.295  36.763  -4.805  1.00  0.00     0.171 C 
ENDROOT
BRANCH   1   2
ATOM      2  C   UNL     1      51.992  36.768  -5.633  1.00  0.00     0.237 C 
BRANCH   2   3
ATOM      3  N   UNL     1      51.994  37.831  -6.647  1.00  0.00    -0.350 N 
ATOM      4  H   UNL     1      51.236  37.651  -7.345  1.00  0.00     0.345 HD
ATOM      5  H   UNL     1      52.911  37.877  -7.148  1.00  0.00     0.345 HD
ATOM      6  H   UNL     1      51.807  38.755  -6.193  1.00  0.00     0.345 HD
ENDBRANCH   2   3
BRANCH   2   7
ATOM      7  C   UNL     1      51.731  35.421  -6.257  1.00  0.00     0.100 C 
ATOM      8  O   UNL     1      51.534  35.332  -7.498  1.00  0.00    -0.544 OA
ATOM      9  O   UNL     1      51.654  34.279  -5.470  1.00  0.00    -0.544 OA
ENDBRANCH   2   7
ENDBRANCH   1   2
BRANCH   1  10
ATOM     10  C   UNL     1      53.531  38.047  -4.059  1.00  0.00     0.223 C 
ATOM     11  O   UNL     1      52.554  38.774  -3.739  1.00  0.00    -0.275 OA
ATOM     12  N   UNL     1      54.854  38.439  -3.693  1.00  0.00    -0.369 N 
ATOM     13  H   UNL     1      55.676  37.845  -3.943  1.00  0.00     0.159 HD
ATOM     14  H   UNL     1      55.013  39.326  -3.166  1.00  0.00     0.159 HD
ENDBRANCH   1  10
TORSDOF 4
ENDMDL
MODEL 6
REMARK VINA RESULT:    -4.031      2.218      2.425
REMARK INTER + INTRA:          -5.082
REMARK INTER:                  -4.583
REMARK INTRA:                  -0.499
REMARK UNBOUND:                -0.227
REMARK SMILES NC(=O)C[C@@H]([NH3+])C(=O)[O-]
REMARK SMILES IDX 4 1 5 2 6 3 7 7 8 8 9 9 2 10 3 11 1 12
REMARK H PARENT 6 4 6 5 6 6 1 13 1 14
REMARK Flexibility Score: inf
ROOT
ATOM      1  C   UNL     1      52.855  37.048  -4.670  1.00  0.00     0.171 C 
ENDROOT
BRANCH   1   2
ATOM      2  C   UNL     1      52.787  37.374  -6.177  1.00  0.00     0.237 C 
BRANCH   2   3
ATOM      3  N   UNL     1      52.617  38.814  -6.416  1.00  0.00    -0.350 N 
ATOM      4  H   UNL     1      53.258  39.119  -7.184  1.00  0.00     0.345 HD
ATOM      5  H   UNL     1      52.831  39.369  -5.557  1.00  0.00     0.345 HD
ATOM      6  H   UNL     1      51.634  39.010  -6.715  1.00  0.00     0.345 HD
ENDBRANCH   2   3
BRANCH   2   7
ATOM      7  C   UNL     1      53.990  36.839  -6.911  1.00  0.00     0.100 C 
ATOM      8  O   UNL     1      55.123  37.355  -6.720  1.00  0.00    -0.544 OA
ATOM      9  O   UNL     1      53.856  35.812  -7.838  1.00  0.00    -0.544 OA
ENDBRANCH   2   7
ENDBRANCH   1   2
BRANCH   1  10
ATOM     10  C   UNL     1      53.384  38.183  -3.839  1.00  0.00     0.223 C 
ATOM     11  O   UNL     1      52.582  38.944  -3.235  1.00  0.00    -0.275 OA
ATOM     12  N   UNL     1      54.790  38.395  -3.712  1.00  0.00    -0.369 N 
ATOM     13  H   UNL     1      55.470  37.770  -4.199  1.00  0.00     0.159 HD
ATOM     14  H   UNL     1      55.154  39.179  -3.127  1.00  0.00     0.159 HD
ENDBRANCH   1  10
TORSDOF 4
ENDMDL
MODEL 7
REMARK VINA RESULT:    -3.873      1.862      3.867
REMARK INTER + INTRA:          -4.893
REMARK INTER:                  -4.632
REMARK INTRA:                  -0.261
REMARK UNBOUND:                -0.227
REMARK SMILES NC(=O)C[C@@H]([NH3+])C(=O)[O-]
REMARK SMILES IDX 4 1 5 2 6 3 7 7 8 8 9 9 2 10 3 11 1 12
REMARK H PARENT 6 4 6 5 6 6 1 13 1 14
REMARK Flexibility Score: inf
ROOT
ATOM      1  C   UNL     1      53.110  35.793  -5.255  1.00  0.00     0.171 C 
ENDROOT
BRANCH   1   2
ATOM      2  C   UNL     1      52.717  37.190  -4.727  1.00  0.00     0.237 C 
BRANCH   2   3
ATOM      3  N   UNL     1      53.220  37.419  -3.366  1.00  0.00    -0.350 N 
ATOM      4  H   UNL     1      52.523  37.066  -2.670  1.00  0.00     0.345 HD
ATOM      5  H   UNL     1      53.389  38.435  -3.189  1.00  0.00     0.345 HD
ATOM      6  H   UNL     1      54.115  36.895  -3.226  1.00  0.00     0.345 HD
ENDBRANCH   2   3
BRANCH   2   7
ATOM      7  C   UNL     1      53.169  38.280  -5.665  1.00  0.00     0.100 C 
ATOM      8  O   UNL     1      52.480  38.559  -6.682  1.00  0.00    -0.544 OA
ATOM      9  O   UNL     1      54.367  38.949  -5.448  1.00  0.00    -0.544 OA
ENDBRANCH   2   7
ENDBRANCH   1   2
BRANCH   1  10
ATOM     10  C   UNL     1      51.960  35.044  -5.867  1.00  0.00     0.223 C 
ATOM     11  O   UNL     1      51.781  33.830  -5.583  1.00  0.00    -0.275 OA
ATOM     12  N   UNL     1      51.055  35.703  -6.754  1.00  0.00    -0.369 N 
ATOM     13  H   UNL     1      51.183  36.711  -6.994  1.00  0.00     0.159 HD
ATOM     14  H   UNL     1      50.252  35.181  -7.169  1.00  0.00     0.159 HD
ENDBRANCH   1  10
TORSDOF 4
ENDMDL
MODEL 8
REMARK VINA RESULT:    -3.664      2.823      4.537
REMARK INTER + INTRA:          -4.641
REMARK INTER:                  -4.301
REMARK INTRA:                  -0.340
REMARK UNBOUND:                -0.227
REMARK SMILES NC(=O)C[C@@H]([NH3+])C(=O)[O-]
REMARK SMILES IDX 4 1 5 2 6 3 7 7 8 8 9 9 2 10 3 11 1 12
REMARK H PARENT 6 4 6 5 6 6 1 13 1 14
REMARK Flexibility Score: inf
ROOT
ATOM      1  C   UNL     1      53.223  34.764  -6.977  1.00  0.00     0.171 C 
ENDROOT
BRANCH   1   2
ATOM      2  C   UNL     1      52.522  36.131  -7.130  1.00  0.00     0.237 C 
BRANCH   2   3
ATOM      3  N   UNL     1      51.062  35.991  -7.199  1.00  0.00    -0.350 N 
ATOM      4  H   UNL     1      50.649  36.842  -7.645  1.00  0.00     0.345 HD
ATOM      5  H   UNL     1      50.646  35.874  -6.247  1.00  0.00     0.345 HD
ATOM      6  H   UNL     1      50.812  35.162  -7.785  1.00  0.00     0.345 HD
ENDBRANCH   2   3
BRANCH   2   7
ATOM      7  C   UNL     1      52.927  37.082  -6.032  1.00  0.00     0.100 C 
ATOM      8  O   UNL     1      53.644  36.674  -5.080  1.00  0.00    -0.544 OA
ATOM      9  O   UNL     1      52.473  38.396  -6.030  1.00  0.00    -0.544 OA
ENDBRANCH   2   7
ENDBRANCH   1   2
BRANCH   1  10
ATOM     10  C   UNL     1      52.322  33.693  -6.426  1.00  0.00     0.223 C 
ATOM     11  O   UNL     1      51.694  33.894  -5.352  1.00  0.00    -0.275 OA
ATOM     12  N   UNL     1      52.157  32.457  -7.120  1.00  0.00    -0.369 N 
ATOM     13  H   UNL     1      52.663  32.276  -8.015  1.00  0.00     0.159 HD
ATOM     14  H   UNL     1      51.523  31.720  -6.739  1.00  0.00     0.159 HD
ENDBRANCH   1  10
TORSDOF 4
ENDMDL
MODEL 9
REMARK VINA RESULT:    -3.639      1.694      4.275
REMARK INTER + INTRA:          -4.611
REMARK INTER:                  -4.337
REMARK INTRA:                  -0.274
REMARK UNBOUND:                -0.227
REMARK SMILES NC(=O)C[C@@H]([NH3+])C(=O)[O-]
REMARK SMILES IDX 4 1 5 2 6 3 7 7 8 8 9 9 2 10 3 11 1 12
REMARK H PARENT 6 4 6 5 6 6 1 13 1 14
REMARK Flexibility Score: inf
ROOT
ATOM      1  C   UNL     1      52.115  36.489  -5.227  1.00  0.00     0.171 C 
ENDROOT
BRANCH   1   2
ATOM      2  C   UNL     1      53.615  36.844  -5.136  1.00  0.00     0.237 C 
BRANCH   2   3
ATOM      3  N   UNL     1      54.229  36.961  -6.465  1.00  0.00    -0.350 N 
ATOM      4  H   UNL     1      54.939  36.203  -6.590  1.00  0.00     0.345 HD
ATOM      5  H   UNL     1      54.699  37.887  -6.587  1.00  0.00     0.345 HD
ATOM      6  H   UNL     1      53.498  36.848  -7.205  1.00  0.00     0.345 HD
ENDBRANCH   2   3
BRANCH   2   7
ATOM      7  C   UNL     1      53.836  38.094  -4.323  1.00  0.00     0.100 C 
ATOM      8  O   UNL     1      53.206  38.261  -3.245  1.00  0.00    -0.544 OA
ATOM      9  O   UNL     1      54.690  39.092  -4.776  1.00  0.00    -0.544 OA
ENDBRANCH   2   7
ENDBRANCH   1   2
BRANCH   1  10
ATOM     10  C   UNL     1      51.831  35.342  -6.156  1.00  0.00     0.223 C 
ATOM     11  O   UNL     1      51.722  35.550  -7.394  1.00  0.00    -0.275 OA
ATOM     12  N   UNL     1      51.704  34.014  -5.649  1.00  0.00    -0.369 N 
ATOM     13  H   UNL     1      51.800  33.821  -4.627  1.00  0.00     0.159 HD
ATOM     14  H   UNL     1      51.517  33.218  -6.298  1.00  0.00     0.159 HD
ENDBRANCH   1  10
TORSDOF 4
ENDMDL
