MODEL 1
REMARK VINA RESULT:    -3.452      0.000      0.000
REMARK INTER + INTRA:          -4.392
REMARK INTER:                  -4.865
REMARK INTRA:                   0.472
REMARK UNBOUND:                 0.472
REMARK SMILES CC1=CCC(=C(C)C)C(=O)CC(C)=CCC1
REMARK SMILES IDX 12 1 14 2 13 3 15 4 16 5 2 6 1 7 3 8 11 10 9 11 10 12 5 13
REMARK SMILES IDX 6 14 7 15 8 16 4 17
REMARK H PARENT
REMARK Flexibility Score: 60.00
ROOT
ATOM      1  C   UNL     1      -3.028 -13.051  -7.996  1.00  0.00    -0.070 C 
ATOM      2  C   UNL     1      -2.078 -13.598  -7.206  1.00  0.00    -0.027 C 
ATOM      3  C   UNL     1      -3.095 -11.547  -8.081  1.00  0.00     0.039 C 
ENDROOT
BRANCH   2   4
ATOM      4  C   UNL     1      -1.790 -15.078  -7.065  1.00  0.00     0.032 C 
BRANCH   4   5
ATOM      5  C   UNL     1      -2.341 -15.724  -5.777  1.00  0.00     0.034 C 
BRANCH   5   6
ATOM      6  C   UNL     1      -3.672 -16.425  -5.982  1.00  0.00    -0.077 C 
ATOM      7  C   UNL     1      -3.648 -17.904  -6.276  1.00  0.00     0.039 C 
ATOM      8  C   UNL     1      -4.880 -15.824  -5.850  1.00  0.00    -0.023 CG0
ATOM      9  G   UNL     1      -5.148 -14.357  -5.578  1.00  0.00     0.000 G0
ENDBRANCH   5   6
ENDBRANCH   4   5
ENDBRANCH   2   4
BRANCH   1  10
ATOM     10  C   UNL     1      -3.960 -13.871  -8.864  1.00  0.00     0.111 C 
BRANCH  10  11
ATOM     11  C   UNL     1      -5.248 -14.190  -8.150  1.00  0.00     0.163 C 
ATOM     12  O   UNL     1      -6.029 -15.026  -8.679  1.00  0.00    -0.294 OA
BRANCH  11  13
ATOM     13  C   UNL     1      -5.595 -13.600  -6.823  1.00  0.00    -0.002 C 
ATOM     14  C   UNL     1      -6.354 -12.468  -6.738  1.00  0.00    -0.069 C 
ATOM     15  C   UNL     1      -6.855 -11.936  -5.413  1.00  0.00     0.039 C 
ATOM     16  C   UNL     1      -6.735 -11.684  -7.974  1.00  0.00     0.039 C 
BRANCH  13  17
ATOM     17  C   UNL     1      -5.152 -14.365  -5.586  1.00  0.00     0.066 CG0
ATOM     18  G   UNL     1      -4.881 -15.827  -5.878  1.00  0.00     0.000 G0
ENDBRANCH  13  17
ENDBRANCH  11  13
ENDBRANCH  10  11
ENDBRANCH   1  10
TORSDOF 0
ENDMDL
MODEL 2
REMARK VINA RESULT:    -3.201      1.825      4.022
REMARK INTER + INTRA:          -4.039
REMARK INTER:                  -5.037
REMARK INTRA:                   0.998
REMARK UNBOUND:                 0.472
REMARK SMILES CC1=CCC(=C(C)C)C(=O)CC(C)=CCC1
REMARK SMILES IDX 12 1 14 2 13 3 15 4 16 5 2 6 1 7 3 8 11 10 9 11 10 12 5 13
REMARK SMILES IDX 6 14 7 15 8 16 4 17
REMARK H PARENT
REMARK Flexibility Score: 60.00
ROOT
ATOM      1  C   UNL     1      -3.444 -12.026  -7.651  1.00  0.00    -0.070 C 
ATOM      2  C   UNL     1      -4.750 -11.905  -7.324  1.00  0.00    -0.027 C 
ATOM      3  C   UNL     1      -2.873 -11.052  -8.649  1.00  0.00     0.039 C 
ENDROOT
BRANCH   2   4
ATOM      4  C   UNL     1      -5.478 -12.719  -6.277  1.00  0.00     0.032 C 
BRANCH   4   5
ATOM      5  C   UNL     1      -6.011 -14.080  -6.771  1.00  0.00     0.034 C 
BRANCH   5   6
ATOM      6  C   UNL     1      -5.955 -14.232  -8.281  1.00  0.00    -0.077 C 
ATOM      7  C   UNL     1      -6.805 -13.304  -9.111  1.00  0.00     0.039 C 
ATOM      8  C   UNL     1      -5.139 -15.098  -8.931  1.00  0.00    -0.023 CG0
ATOM      9  G   UNL     1      -4.218 -16.130  -8.311  1.00  0.00     0.000 G0
ENDBRANCH   5   6
ENDBRANCH   4   5
ENDBRANCH   2   4
BRANCH   1  10
ATOM     10  C   UNL     1      -2.514 -13.027  -6.996  1.00  0.00     0.111 C 
BRANCH  10  11
ATOM     11  C   UNL     1      -2.474 -14.328  -7.756  1.00  0.00     0.163 C 
ATOM     12  O   UNL     1      -1.717 -14.406  -8.761  1.00  0.00    -0.294 OA
BRANCH  11  13
ATOM     13  C   UNL     1      -3.247 -15.531  -7.326  1.00  0.00    -0.002 C 
ATOM     14  C   UNL     1      -3.141 -16.010  -6.050  1.00  0.00    -0.069 C 
ATOM     15  C   UNL     1      -4.026 -17.125  -5.538  1.00  0.00     0.039 C 
ATOM     16  C   UNL     1      -2.127 -15.444  -5.081  1.00  0.00     0.039 C 
BRANCH  13  17
ATOM     17  C   UNL     1      -4.219 -16.129  -8.330  1.00  0.00     0.066 CG0
ATOM     18  G   UNL     1      -5.132 -15.085  -8.940  1.00  0.00     0.000 G0
ENDBRANCH  13  17
ENDBRANCH  11  13
ENDBRANCH  10  11
ENDBRANCH   1  10
TORSDOF 0
ENDMDL
MODEL 3
REMARK VINA RESULT:    -3.107      1.583      2.149
REMARK INTER + INTRA:          -3.906
REMARK INTER:                  -4.501
REMARK INTRA:                   0.595
REMARK UNBOUND:                 0.472
REMARK SMILES CC1=CCC(=C(C)C)C(=O)CC(C)=CCC1
REMARK SMILES IDX 12 1 14 2 13 3 15 4 16 5 2 6 1 7 3 8 11 10 9 11 10 12 5 13
REMARK SMILES IDX 6 14 7 15 8 16 4 17
REMARK H PARENT
REMARK Flexibility Score: 60.00
ROOT
ATOM      1  C   UNL     1      -4.960 -14.298  -8.943  1.00  0.00    -0.070 C 
ATOM      2  C   UNL     1      -4.091 -15.298  -8.677  1.00  0.00    -0.027 C 
ATOM      3  C   UNL     1      -6.415 -14.653  -9.112  1.00  0.00     0.039 C 
ENDROOT
BRANCH   2   4
ATOM      4  C   UNL     1      -2.616 -15.132  -8.381  1.00  0.00     0.032 C 
BRANCH   4   5
ATOM      5  C   UNL     1      -2.229 -15.319  -6.899  1.00  0.00     0.034 C 
BRANCH   5   6
ATOM      6  C   UNL     1      -3.408 -15.683  -6.014  1.00  0.00    -0.077 C 
ATOM      7  C   UNL     1      -3.765 -17.143  -5.888  1.00  0.00     0.039 C 
ATOM      8  C   UNL     1      -4.114 -14.791  -5.278  1.00  0.00    -0.023 CG0
ATOM      9  G   UNL     1      -3.949 -13.284  -5.259  1.00  0.00     0.000 G0
ENDBRANCH   5   6
ENDBRANCH   4   5
ENDBRANCH   2   4
BRANCH   1  10
ATOM     10  C   UNL     1      -4.557 -12.838  -8.987  1.00  0.00     0.111 C 
BRANCH  10  11
ATOM     11  C   UNL     1      -4.004 -12.374  -7.664  1.00  0.00     0.163 C 
ATOM     12  O   UNL     1      -2.913 -11.742  -7.666  1.00  0.00    -0.294 OA
BRANCH  11  13
ATOM     13  C   UNL     1      -4.729 -12.583  -6.375  1.00  0.00    -0.002 C 
ATOM     14  C   UNL     1      -6.049 -12.251  -6.254  1.00  0.00    -0.069 C 
ATOM     15  C   UNL     1      -6.851 -12.596  -5.018  1.00  0.00     0.039 C 
ATOM     16  C   UNL     1      -6.779 -11.520  -7.358  1.00  0.00     0.039 C 
BRANCH  13  17
ATOM     17  C   UNL     1      -3.965 -13.264  -5.251  1.00  0.00     0.066 CG0
ATOM     18  G   UNL     1      -4.115 -14.772  -5.283  1.00  0.00     0.000 G0
ENDBRANCH  13  17
ENDBRANCH  11  13
ENDBRANCH  10  11
ENDBRANCH   1  10
TORSDOF 0
ENDMDL
MODEL 4
REMARK VINA RESULT:    -3.019      1.640      4.260
REMARK INTER + INTRA:          -3.783
REMARK INTER:                  -4.310
REMARK INTRA:                   0.527
REMARK UNBOUND:                 0.472
REMARK SMILES CC1=CCC(=C(C)C)C(=O)CC(C)=CCC1
REMARK SMILES IDX 12 1 14 2 13 3 15 4 16 5 2 6 1 7 3 8 11 10 9 11 10 12 5 13
REMARK SMILES IDX 6 14 7 15 8 16 4 17
REMARK H PARENT
REMARK Flexibility Score: 60.00
ROOT
ATOM      1  C   UNL     1      -2.831 -13.405  -8.134  1.00  0.00    -0.070 C 
ATOM      2  C   UNL     1      -3.825 -12.875  -8.881  1.00  0.00    -0.027 C 
ATOM      3  C   UNL     1      -1.895 -14.383  -8.798  1.00  0.00     0.039 C 
ENDROOT
BRANCH   2   4
ATOM      4  C   UNL     1      -4.800 -11.810  -8.427  1.00  0.00     0.032 C 
BRANCH   4   5
ATOM      5  C   UNL     1      -6.194 -12.337  -8.027  1.00  0.00     0.034 C 
BRANCH   5   6
ATOM      6  C   UNL     1      -6.332 -12.591  -6.537  1.00  0.00    -0.077 C 
ATOM      7  C   UNL     1      -6.920 -11.491  -5.689  1.00  0.00     0.039 C 
ATOM      8  C   UNL     1      -6.027 -13.765  -5.931  1.00  0.00    -0.023 CG0
ATOM      9  G   UNL     1      -5.412 -14.993  -6.571  1.00  0.00     0.000 G0
ENDBRANCH   5   6
ENDBRANCH   4   5
ENDBRANCH   2   4
BRANCH   1  10
ATOM     10  C   UNL     1      -2.559 -12.994  -6.701  1.00  0.00     0.111 C 
BRANCH  10  11
ATOM     11  C   UNL     1      -3.209 -13.935  -5.721  1.00  0.00     0.163 C 
ATOM     12  O   UNL     1      -3.168 -13.638  -4.496  1.00  0.00    -0.294 OA
BRANCH  11  13
ATOM     13  C   UNL     1      -3.944 -15.161  -6.154  1.00  0.00    -0.002 C 
ATOM     14  C   UNL     1      -3.349 -16.390  -6.094  1.00  0.00    -0.069 C 
ATOM     15  C   UNL     1      -4.115 -17.664  -6.374  1.00  0.00     0.039 C 
ATOM     16  C   UNL     1      -1.886 -16.537  -5.743  1.00  0.00     0.039 C 
BRANCH  13  17
ATOM     17  C   UNL     1      -5.398 -14.991  -6.565  1.00  0.00     0.066 CG0
ATOM     18  G   UNL     1      -6.038 -13.774  -5.928  1.00  0.00     0.000 G0
ENDBRANCH  13  17
ENDBRANCH  11  13
ENDBRANCH  10  11
ENDBRANCH   1  10
TORSDOF 0
ENDMDL
MODEL 5
REMARK VINA RESULT:    -2.915      1.637      4.430
REMARK INTER + INTRA:          -3.636
REMARK INTER:                  -4.025
REMARK INTRA:                   0.389
REMARK UNBOUND:                 0.472
REMARK SMILES CC1=CCC(=C(C)C)C(=O)CC(C)=CCC1
REMARK SMILES IDX 12 1 14 2 13 3 15 4 16 5 2 6 1 7 3 8 11 10 9 11 10 12 5 13
REMARK SMILES IDX 6 14 7 15 8 16 4 17
REMARK H PARENT
REMARK Flexibility Score: 60.00
ROOT
ATOM      1  C   UNL     1      -5.939 -13.193  -6.589  1.00  0.00    -0.070 C 
ATOM      2  C   UNL     1      -5.581 -12.112  -7.316  1.00  0.00    -0.027 C 
ATOM      3  C   UNL     1      -6.328 -12.978  -5.149  1.00  0.00     0.039 C 
ENDROOT
BRANCH   2   4
ATOM      4  C   UNL     1      -5.253 -12.109  -8.794  1.00  0.00     0.032 C 
BRANCH   4   5
ATOM      5  C   UNL     1      -3.758 -11.917  -9.125  1.00  0.00     0.034 C 
BRANCH   5   6
ATOM      6  C   UNL     1      -2.894 -11.723  -7.893  1.00  0.00    -0.077 C 
ATOM      7  C   UNL     1      -2.734 -10.321  -7.361  1.00  0.00     0.039 C 
ATOM      8  C   UNL     1      -2.314 -12.733  -7.200  1.00  0.00    -0.023 CG0
ATOM      9  G   UNL     1      -2.322 -14.208  -7.552  1.00  0.00     0.000 G0
ENDBRANCH   5   6
ENDBRANCH   4   5
ENDBRANCH   2   4
BRANCH   1  10
ATOM     10  C   UNL     1      -6.055 -14.586  -7.175  1.00  0.00     0.111 C 
BRANCH  10  11
ATOM     11  C   UNL     1      -4.735 -15.075  -7.711  1.00  0.00     0.163 C 
ATOM     12  O   UNL     1      -4.702 -15.529  -8.887  1.00  0.00    -0.294 OA
BRANCH  11  13
ATOM     13  C   UNL     1      -3.468 -14.984  -6.925  1.00  0.00    -0.002 C 
ATOM     14  C   UNL     1      -3.337 -15.637  -5.732  1.00  0.00    -0.069 C 
ATOM     15  C   UNL     1      -2.019 -15.695  -4.992  1.00  0.00     0.039 C 
ATOM     16  C   UNL     1      -4.511 -16.341  -5.089  1.00  0.00     0.039 C 
BRANCH  13  17
ATOM     17  C   UNL     1      -2.313 -14.220  -7.553  1.00  0.00     0.066 CG0
ATOM     18  G   UNL     1      -2.335 -12.747  -7.196  1.00  0.00     0.000 G0
ENDBRANCH  13  17
ENDBRANCH  11  13
ENDBRANCH  10  11
ENDBRANCH   1  10
TORSDOF 0
ENDMDL
MODEL 6
REMARK VINA RESULT:    -2.459      1.676      3.902
REMARK INTER + INTRA:          -2.993
REMARK INTER:                  -4.390
REMARK INTRA:                   1.398
REMARK UNBOUND:                 0.472
REMARK SMILES CC1=CCC(=C(C)C)C(=O)CC(C)=CCC1
REMARK SMILES IDX 12 1 14 2 13 3 15 4 16 5 2 6 1 7 3 8 11 10 9 11 10 12 5 13
REMARK SMILES IDX 6 14 7 15 8 16 4 17
REMARK H PARENT
REMARK Flexibility Score: 60.00
ROOT
ATOM      1  C   UNL     1      -2.369 -15.602  -6.094  1.00  0.00    -0.070 C 
ATOM      2  C   UNL     1      -1.902 -15.133  -7.272  1.00  0.00    -0.027 C 
ATOM      3  C   UNL     1      -1.795 -16.896  -5.573  1.00  0.00     0.039 C 
ENDROOT
BRANCH   2   4
ATOM      4  C   UNL     1      -2.280 -13.813  -7.909  1.00  0.00     0.032 C 
BRANCH   4   5
ATOM      5  C   UNL     1      -2.637 -12.692  -6.911  1.00  0.00     0.034 C 
BRANCH   5   6
ATOM      6  C   UNL     1      -3.631 -11.689  -7.469  1.00  0.00    -0.077 C 
ATOM      7  C   UNL     1      -3.091 -10.567  -8.321  1.00  0.00     0.039 C 
ATOM      8  C   UNL     1      -4.974 -11.775  -7.310  1.00  0.00    -0.023 CG0
ATOM      9  G   UNL     1      -5.735 -12.796  -6.488  1.00  0.00     0.000 G0
ENDBRANCH   5   6
ENDBRANCH   4   5
ENDBRANCH   2   4
BRANCH   1  10
ATOM     10  C   UNL     1      -3.364 -14.849  -5.235  1.00  0.00     0.111 C 
BRANCH  10  11
ATOM     11  C   UNL     1      -4.777 -15.048  -5.719  1.00  0.00     0.163 C 
ATOM     12  O   UNL     1      -5.492 -15.904  -5.130  1.00  0.00    -0.294 OA
BRANCH  11  13
ATOM     13  C   UNL     1      -5.370 -14.229  -6.818  1.00  0.00    -0.002 C 
ATOM     14  C   UNL     1      -5.625 -14.783  -8.041  1.00  0.00    -0.069 C 
ATOM     15  C   UNL     1      -6.368 -14.028  -9.122  1.00  0.00     0.039 C 
ATOM     16  C   UNL     1      -5.175 -16.186  -8.377  1.00  0.00     0.039 C 
BRANCH  13  17
ATOM     17  C   UNL     1      -5.762 -12.799  -6.486  1.00  0.00     0.066 CG0
ATOM     18  G   UNL     1      -4.977 -11.784  -7.294  1.00  0.00     0.000 G0
ENDBRANCH  13  17
ENDBRANCH  11  13
ENDBRANCH  10  11
ENDBRANCH   1  10
TORSDOF 0
ENDMDL
MODEL 7
REMARK VINA RESULT:    -2.437      2.200      4.940
REMARK INTER + INTRA:          -2.962
REMARK INTER:                  -3.892
REMARK INTRA:                   0.931
REMARK UNBOUND:                 0.472
REMARK SMILES CC1=CCC(=C(C)C)C(=O)CC(C)=CCC1
REMARK SMILES IDX 12 1 14 2 13 3 15 4 16 5 2 6 1 7 3 8 11 10 9 11 10 12 5 13
REMARK SMILES IDX 6 14 7 15 8 16 4 17
REMARK H PARENT
REMARK Flexibility Score: 60.00
ROOT
ATOM      1  C   UNL     1      -5.472 -13.488  -6.185  1.00  0.00    -0.070 C 
ATOM      2  C   UNL     1      -6.136 -12.621  -6.982  1.00  0.00    -0.027 C 
ATOM      3  C   UNL     1      -6.174 -14.762  -5.789  1.00  0.00     0.039 C 
ENDROOT
BRANCH   2   4
ATOM      4  C   UNL     1      -5.571 -11.343  -7.562  1.00  0.00     0.032 C 
BRANCH   4   5
ATOM      5  C   UNL     1      -5.049 -11.465  -9.009  1.00  0.00     0.034 C 
BRANCH   5   6
ATOM      6  C   UNL     1      -3.547 -11.672  -9.088  1.00  0.00    -0.077 C 
ATOM      7  C   UNL     1      -2.670 -10.446  -9.117  1.00  0.00     0.039 C 
ATOM      8  C   UNL     1      -2.941 -12.885  -9.064  1.00  0.00    -0.023 CG0
ATOM      9  G   UNL     1      -3.613 -14.244  -9.054  1.00  0.00     0.000 G0
ENDBRANCH   5   6
ENDBRANCH   4   5
ENDBRANCH   2   4
BRANCH   1  10
ATOM     10  C   UNL     1      -4.035 -13.283  -5.752  1.00  0.00     0.111 C 
BRANCH  10  11
ATOM     11  C   UNL     1      -3.090 -14.164  -6.527  1.00  0.00     0.163 C 
ATOM     12  O   UNL     1      -1.899 -14.258  -6.122  1.00  0.00    -0.294 OA
BRANCH  11  13
ATOM     13  C   UNL     1      -3.529 -14.967  -7.707  1.00  0.00    -0.002 C 
ATOM     14  C   UNL     1      -3.912 -16.271  -7.561  1.00  0.00    -0.069 C 
ATOM     15  C   UNL     1      -4.511 -17.062  -8.703  1.00  0.00     0.039 C 
ATOM     16  C   UNL     1      -3.755 -16.992  -6.241  1.00  0.00     0.039 C 
BRANCH  13  17
ATOM     17  C   UNL     1      -3.623 -14.247  -9.042  1.00  0.00     0.066 CG0
ATOM     18  G   UNL     1      -2.932 -12.898  -9.019  1.00  0.00     0.000 G0
ENDBRANCH  13  17
ENDBRANCH  11  13
ENDBRANCH  10  11
ENDBRANCH   1  10
TORSDOF 0
ENDMDL
MODEL 8
REMARK VINA RESULT:    -2.379      1.799      2.757
REMARK INTER + INTRA:          -2.881
REMARK INTER:                  -3.217
REMARK INTRA:                   0.337
REMARK UNBOUND:                 0.472
REMARK SMILES CC1=CCC(=C(C)C)C(=O)CC(C)=CCC1
REMARK SMILES IDX 12 1 14 2 13 3 15 4 16 5 2 6 1 7 3 8 11 10 9 11 10 12 5 13
REMARK SMILES IDX 6 14 7 15 8 16 4 17
REMARK H PARENT
REMARK Flexibility Score: 60.00
ROOT
ATOM      1  C   UNL     1      -3.731 -13.543  -5.266  1.00  0.00    -0.070 C 
ATOM      2  C   UNL     1      -3.491 -14.720  -4.645  1.00  0.00    -0.027 C 
ATOM      3  C   UNL     1      -5.007 -12.815  -4.927  1.00  0.00     0.039 C 
ENDROOT
BRANCH   2   4
ATOM      4  C   UNL     1      -2.230 -15.547  -4.777  1.00  0.00     0.032 C 
BRANCH   4   5
ATOM      5  C   UNL     1      -2.098 -16.318  -6.108  1.00  0.00     0.034 C 
BRANCH   5   6
ATOM      6  C   UNL     1      -3.427 -16.825  -6.639  1.00  0.00    -0.077 C 
ATOM      7  C   UNL     1      -4.083 -17.970  -5.910  1.00  0.00     0.039 C 
ATOM      8  C   UNL     1      -4.093 -16.271  -7.682  1.00  0.00    -0.023 CG0
ATOM      9  G   UNL     1      -3.625 -15.134  -8.568  1.00  0.00     0.000 G0
ENDBRANCH   5   6
ENDBRANCH   4   5
ENDBRANCH   2   4
BRANCH   1  10
ATOM     10  C   UNL     1      -2.743 -12.884  -6.207  1.00  0.00     0.111 C 
BRANCH  10  11
ATOM     11  C   UNL     1      -3.295 -12.775  -7.604  1.00  0.00     0.163 C 
ATOM     12  O   UNL     1      -2.900 -11.819  -8.326  1.00  0.00    -0.294 OA
BRANCH  11  13
ATOM     13  C   UNL     1      -4.235 -13.785  -8.175  1.00  0.00    -0.002 C 
ATOM     14  C   UNL     1      -5.548 -13.473  -8.393  1.00  0.00    -0.069 C 
ATOM     15  C   UNL     1      -6.486 -14.416  -9.114  1.00  0.00     0.039 C 
ATOM     16  C   UNL     1      -6.131 -12.160  -7.920  1.00  0.00     0.039 C 
BRANCH  13  17
ATOM     17  C   UNL     1      -3.649 -15.125  -8.589  1.00  0.00     0.066 CG0
ATOM     18  G   UNL     1      -4.094 -16.254  -7.680  1.00  0.00     0.000 G0
ENDBRANCH  13  17
ENDBRANCH  11  13
ENDBRANCH  10  11
ENDBRANCH   1  10
TORSDOF 0
ENDMDL
MODEL 9
REMARK VINA RESULT:    -2.127      1.393      3.963
REMARK INTER + INTRA:          -2.524
REMARK INTER:                  -4.510
REMARK INTRA:                   1.986
REMARK UNBOUND:                 0.472
REMARK SMILES CC1=CCC(=C(C)C)C(=O)CC(C)=CCC1
REMARK SMILES IDX 12 1 14 2 13 3 15 4 16 5 2 6 1 7 3 8 11 10 9 11 10 12 5 13
REMARK SMILES IDX 6 14 7 15 8 16 4 17
REMARK H PARENT
REMARK Flexibility Score: 60.00
ROOT
ATOM      1  C   UNL     1      -3.004 -13.641  -9.057  1.00  0.00    -0.070 C 
ATOM      2  C   UNL     1      -2.882 -12.296  -9.103  1.00  0.00    -0.027 C 
ATOM      3  C   UNL     1      -1.744 -14.459  -8.937  1.00  0.00     0.039 C 
ENDROOT
BRANCH   2   4
ATOM      4  C   UNL     1      -4.027 -11.305  -9.125  1.00  0.00     0.032 C 
BRANCH   4   5
ATOM      5  C   UNL     1      -4.658 -11.016  -7.747  1.00  0.00     0.034 C 
BRANCH   5   6
ATOM      6  C   UNL     1      -5.832 -11.923  -7.425  1.00  0.00    -0.077 C 
ATOM      7  C   UNL     1      -7.185 -11.539  -7.970  1.00  0.00     0.039 C 
ATOM      8  C   UNL     1      -5.731 -13.089  -6.741  1.00  0.00    -0.023 CG0
ATOM      9  G   UNL     1      -4.489 -13.664  -6.090  1.00  0.00     0.000 G0
ENDBRANCH   5   6
ENDBRANCH   4   5
ENDBRANCH   2   4
BRANCH   1  10
ATOM     10  C   UNL     1      -4.341 -14.353  -9.026  1.00  0.00     0.111 C 
BRANCH  10  11
ATOM     11  C   UNL     1      -4.380 -15.416  -7.959  1.00  0.00     0.163 C 
ATOM     12  O   UNL     1      -4.472 -16.620  -8.322  1.00  0.00    -0.294 OA
BRANCH  11  13
ATOM     13  C   UNL     1      -4.252 -15.097  -6.506  1.00  0.00    -0.002 C 
ATOM     14  C   UNL     1      -3.833 -16.045  -5.616  1.00  0.00    -0.069 C 
ATOM     15  C   UNL     1      -3.542 -15.713  -4.169  1.00  0.00     0.039 C 
ATOM     16  C   UNL     1      -3.638 -17.484  -6.037  1.00  0.00     0.039 C 
BRANCH  13  17
ATOM     17  C   UNL     1      -4.512 -13.659  -6.084  1.00  0.00     0.066 CG0
ATOM     18  G   UNL     1      -5.749 -13.081  -6.743  1.00  0.00     0.000 G0
ENDBRANCH  13  17
ENDBRANCH  11  13
ENDBRANCH  10  11
ENDBRANCH   1  10
TORSDOF 0
ENDMDL
