MODEL 1
REMARK VINA RESULT:    25.011      0.000      0.000
REMARK INTER + INTRA:          34.182
REMARK INTER:                  34.515
REMARK INTRA:                  -0.332
REMARK UNBOUND:                -0.332
REMARK SMILES CC[C@@H](CC[C@H](C)[C@@H]1CC[C@H]2[C@H]3CC=C4C[C@H](O)CC[C@@]4(C)[C@H]3CC[C@]21C)C(C)C
REMARK SMILES IDX 5 1 4 2 3 3 2 4 1 5 28 6 29 7 30 8 6 9 7 10 8 11 9 12 26 13
REMARK SMILES IDX 10 14 11 15 25 16 27 17 12 18 24 19 23 20 13 21 21 22 14 23
REMARK SMILES IDX 15 24 20 25 22 26 16 27 19 28 17 29 18 30
REMARK H PARENT 18 31
REMARK Flexibility Score: inf
ROOT
ATOM      1  C   UNL     1     -25.973 -21.616 -12.424  1.00  0.00     0.004 C 
ENDROOT
BRANCH   1   2
ATOM      2  C   UNL     1     -24.922 -21.049 -11.433  1.00  0.00     0.004 C 
BRANCH   2   3
ATOM      3  C   UNL     1     -25.063 -21.585  -9.980  1.00  0.00    -0.009 C 
BRANCH   3   4
ATOM      4  C   UNL     1     -25.075 -20.430  -8.929  1.00  0.00     0.000 C 
ATOM      5  C   UNL     1     -24.645 -19.087  -9.520  1.00  0.00     0.004 C 
ENDBRANCH   3   4
BRANCH   3   6
ATOM      6  C   UNL     1     -23.967 -22.665  -9.689  1.00  0.00    -0.014 C 
ATOM      7  C   UNL     1     -24.563 -23.950  -9.089  1.00  0.00     0.007 C 
ATOM      8  C   UNL     1     -22.807 -22.146  -8.820  1.00  0.00     0.007 C 
ENDBRANCH   3   6
ENDBRANCH   2   3
ENDBRANCH   1   2
BRANCH   1   9
ATOM      9  C   UNL     1     -26.104 -20.781 -13.729  1.00  0.00    -0.011 C 
ATOM     10  C   UNL     1     -25.875 -21.660 -14.976  1.00  0.00     0.008 C 
BRANCH   9  11
ATOM     11  C   UNL     1     -25.300 -19.429 -13.673  1.00  0.00    -0.002 C 
ATOM     12  C   UNL     1     -25.946 -18.410 -12.731  1.00  0.00     0.005 C 
ATOM     13  C   UNL     1     -24.890 -18.643 -14.982  1.00  0.00    -0.026 C 
ATOM     14  C   UNL     1     -25.359 -17.075 -13.122  1.00  0.00     0.005 C 
ATOM     15  C   UNL     1     -25.190 -17.148 -14.641  1.00  0.00    -0.001 C 
ATOM     16  C   UNL     1     -23.377 -18.875 -15.282  1.00  0.00     0.007 C 
ATOM     17  C   UNL     1     -25.680 -19.026 -16.259  1.00  0.00     0.012 C 
ATOM     18  C   UNL     1     -24.198 -16.094 -15.249  1.00  0.00     0.000 C 
ATOM     19  C   UNL     1     -22.459 -17.885 -14.562  1.00  0.00     0.005 C 
ATOM     20  C   UNL     1     -22.656 -16.462 -15.142  1.00  0.00     0.003 C 
ATOM     21  C   UNL     1     -24.555 -14.668 -14.746  1.00  0.00     0.031 C 
ATOM     22  C   UNL     1     -21.751 -15.327 -14.491  1.00  0.00    -0.008 C 
ATOM     23  C   UNL     1     -23.805 -14.332 -13.490  1.00  0.00    -0.027 C 
ATOM     24  C   UNL     1     -22.520 -14.693 -13.317  1.00  0.00    -0.065 C 
ATOM     25  C   UNL     1     -20.318 -15.832 -14.078  1.00  0.00     0.014 C 
ATOM     26  C   UNL     1     -21.486 -14.230 -15.569  1.00  0.00     0.016 C 
ATOM     27  C   UNL     1     -21.983 -14.608 -11.897  1.00  0.00     0.063 C 
ATOM     28  C   UNL     1     -20.169 -16.200 -12.603  1.00  0.00     0.033 C 
ATOM     29  C   UNL     1     -20.508 -14.984 -11.734  1.00  0.00     0.118 C 
BRANCH  29  30
ATOM     30  O   UNL     1     -19.704 -13.878 -12.066  1.00  0.00    -0.393 OA
ATOM     31  H   UNL     1     -18.818 -14.232 -12.347  1.00  0.00     0.210 HD
ENDBRANCH  29  30
ENDBRANCH   9  11
ENDBRANCH   1   9
TORSDOF 7
ENDMDL
MODEL 2
REMARK VINA RESULT:    25.019      0.636      1.589
REMARK INTER + INTRA:          34.194
REMARK INTER:                  34.124
REMARK INTRA:                   0.070
REMARK UNBOUND:                -0.332
REMARK SMILES CC[C@@H](CC[C@H](C)[C@@H]1CC[C@H]2[C@H]3CC=C4C[C@H](O)CC[C@@]4(C)[C@H]3CC[C@]21C)C(C)C
REMARK SMILES IDX 5 1 4 2 3 3 2 4 1 5 28 6 29 7 30 8 6 9 7 10 8 11 9 12 26 13
REMARK SMILES IDX 10 14 11 15 25 16 27 17 12 18 24 19 23 20 13 21 21 22 14 23
REMARK SMILES IDX 15 24 20 25 22 26 16 27 19 28 17 29 18 30
REMARK H PARENT 18 31
REMARK Flexibility Score: inf
ROOT
ATOM      1  C   UNL     1     -26.131 -21.288 -12.699  1.00  0.00     0.004 C 
ENDROOT
BRANCH   1   2
ATOM      2  C   UNL     1     -26.003 -20.384 -11.445  1.00  0.00     0.004 C 
BRANCH   2   3
ATOM      3  C   UNL     1     -24.728 -20.652 -10.595  1.00  0.00    -0.009 C 
BRANCH   3   4
ATOM      4  C   UNL     1     -24.881 -21.917  -9.693  1.00  0.00     0.000 C 
ATOM      5  C   UNL     1     -23.721 -22.900  -9.847  1.00  0.00     0.004 C 
ENDBRANCH   3   4
BRANCH   3   6
ATOM      6  C   UNL     1     -24.333 -19.370  -9.787  1.00  0.00    -0.014 C 
ATOM      7  C   UNL     1     -23.277 -19.666  -8.708  1.00  0.00     0.007 C 
ATOM      8  C   UNL     1     -25.538 -18.629  -9.179  1.00  0.00     0.007 C 
ENDBRANCH   3   6
ENDBRANCH   2   3
ENDBRANCH   1   2
BRANCH   1   9
ATOM      9  C   UNL     1     -25.975 -20.513 -14.037  1.00  0.00    -0.011 C 
ATOM     10  C   UNL     1     -25.550 -21.459 -15.180  1.00  0.00     0.008 C 
BRANCH   9  11
ATOM     11  C   UNL     1     -25.137 -19.189 -13.882  1.00  0.00    -0.002 C 
ATOM     12  C   UNL     1     -25.801 -18.193 -12.927  1.00  0.00     0.005 C 
ATOM     13  C   UNL     1     -24.642 -18.359 -15.133  1.00  0.00    -0.026 C 
ATOM     14  C   UNL     1     -25.160 -16.860 -13.229  1.00  0.00     0.005 C 
ATOM     15  C   UNL     1     -24.918 -16.872 -14.741  1.00  0.00    -0.001 C 
ATOM     16  C   UNL     1     -23.123 -18.622 -15.370  1.00  0.00     0.007 C 
ATOM     17  C   UNL     1     -25.378 -18.663 -16.462  1.00  0.00     0.012 C 
ATOM     18  C   UNL     1     -23.869 -15.822 -15.252  1.00  0.00     0.000 C 
ATOM     19  C   UNL     1     -22.215 -17.691 -14.563  1.00  0.00     0.005 C 
ATOM     20  C   UNL     1     -22.345 -16.240 -15.087  1.00  0.00     0.003 C 
ATOM     21  C   UNL     1     -24.212 -14.409 -14.703  1.00  0.00     0.031 C 
ATOM     22  C   UNL     1     -21.442 -15.161 -14.343  1.00  0.00    -0.008 C 
ATOM     23  C   UNL     1     -23.516 -14.150 -13.399  1.00  0.00    -0.027 C 
ATOM     24  C   UNL     1     -22.251 -14.556 -13.180  1.00  0.00    -0.065 C 
ATOM     25  C   UNL     1     -20.046 -15.725 -13.884  1.00  0.00     0.014 C 
ATOM     26  C   UNL     1     -21.095 -14.026 -15.356  1.00  0.00     0.016 C 
ATOM     27  C   UNL     1     -21.783 -14.548 -11.733  1.00  0.00     0.063 C 
ATOM     28  C   UNL     1     -19.980 -16.160 -12.421  1.00  0.00     0.033 C 
ATOM     29  C   UNL     1     -20.329 -14.975 -11.516  1.00  0.00     0.118 C 
BRANCH  29  30
ATOM     30  O   UNL     1     -19.480 -13.879 -11.759  1.00  0.00    -0.393 OA
ATOM     31  H   UNL     1     -18.558 -14.238 -11.860  1.00  0.00     0.210 HD
ENDBRANCH  29  30
ENDBRANCH   9  11
ENDBRANCH   1   9
TORSDOF 7
ENDMDL
MODEL 3
REMARK VINA RESULT:    26.177      1.191      1.991
REMARK INTER + INTRA:          35.791
REMARK INTER:                  35.944
REMARK INTRA:                  -0.152
REMARK UNBOUND:                -0.332
REMARK SMILES CC[C@@H](CC[C@H](C)[C@@H]1CC[C@H]2[C@H]3CC=C4C[C@H](O)CC[C@@]4(C)[C@H]3CC[C@]21C)C(C)C
REMARK SMILES IDX 5 1 4 2 3 3 2 4 1 5 28 6 29 7 30 8 6 9 7 10 8 11 9 12 26 13
REMARK SMILES IDX 10 14 11 15 25 16 27 17 12 18 24 19 23 20 13 21 21 22 14 23
REMARK SMILES IDX 15 24 20 25 22 26 16 27 19 28 17 29 18 30
REMARK H PARENT 18 31
REMARK Flexibility Score: inf
ROOT
ATOM      1  C   UNL     1     -26.057 -21.519 -13.779  1.00  0.00     0.004 C 
ENDROOT
BRANCH   1   2
ATOM      2  C   UNL     1     -26.296 -20.852 -12.400  1.00  0.00     0.004 C 
BRANCH   2   3
ATOM      3  C   UNL     1     -25.042 -20.820 -11.482  1.00  0.00    -0.009 C 
BRANCH   3   4
ATOM      4  C   UNL     1     -24.552 -22.256 -11.111  1.00  0.00     0.000 C 
ATOM      5  C   UNL     1     -24.041 -22.355  -9.673  1.00  0.00     0.004 C 
ENDBRANCH   3   4
BRANCH   3   6
ATOM      6  C   UNL     1     -25.307 -19.922 -10.227  1.00  0.00    -0.014 C 
ATOM      7  C   UNL     1     -26.561 -19.046 -10.395  1.00  0.00     0.007 C 
ATOM      8  C   UNL     1     -24.096 -19.065  -9.815  1.00  0.00     0.007 C 
ENDBRANCH   3   6
ENDBRANCH   2   3
ENDBRANCH   1   2
BRANCH   1   9
ATOM      9  C   UNL     1     -25.765 -20.500 -14.916  1.00  0.00    -0.011 C 
ATOM     10  C   UNL     1     -25.074 -21.186 -16.114  1.00  0.00     0.008 C 
BRANCH   9  11
ATOM     11  C   UNL     1     -25.095 -19.176 -14.392  1.00  0.00    -0.002 C 
ATOM     12  C   UNL     1     -26.117 -18.210 -13.787  1.00  0.00     0.005 C 
ATOM     13  C   UNL     1     -24.130 -18.309 -15.297  1.00  0.00    -0.026 C 
ATOM     14  C   UNL     1     -25.431 -16.865 -13.760  1.00  0.00     0.005 C 
ATOM     15  C   UNL     1     -24.571 -16.836 -15.026  1.00  0.00    -0.001 C 
ATOM     16  C   UNL     1     -22.649 -18.557 -14.873  1.00  0.00     0.007 C 
ATOM     17  C   UNL     1     -24.228 -18.582 -16.819  1.00  0.00     0.012 C 
ATOM     18  C   UNL     1     -23.423 -15.766 -15.021  1.00  0.00     0.000 C 
ATOM     19  C   UNL     1     -22.185 -17.642 -13.737  1.00  0.00     0.005 C 
ATOM     20  C   UNL     1     -22.105 -16.179 -14.234  1.00  0.00     0.003 C 
ATOM     21  C   UNL     1     -23.989 -14.370 -14.638  1.00  0.00     0.031 C 
ATOM     22  C   UNL     1     -21.621 -15.114 -13.155  1.00  0.00    -0.008 C 
ATOM     23  C   UNL     1     -23.916 -14.142 -13.157  1.00  0.00    -0.027 C 
ATOM     24  C   UNL     1     -22.856 -14.546 -12.432  1.00  0.00    -0.065 C 
ATOM     25  C   UNL     1     -20.541 -15.683 -12.160  1.00  0.00     0.014 C 
ATOM     26  C   UNL     1     -20.896 -13.950 -13.900  1.00  0.00     0.016 C 
ATOM     27  C   UNL     1     -23.045 -14.574 -10.923  1.00  0.00     0.063 C 
ATOM     28  C   UNL     1     -21.094 -16.157 -10.817  1.00  0.00     0.033 C 
ATOM     29  C   UNL     1     -21.813 -14.998 -10.119  1.00  0.00     0.118 C 
BRANCH  29  30
ATOM     30  O   UNL     1     -20.959 -13.891  -9.956  1.00  0.00    -0.393 OA
ATOM     31  H   UNL     1     -20.323 -14.115  -9.225  1.00  0.00     0.210 HD
ENDBRANCH  29  30
ENDBRANCH   9  11
ENDBRANCH   1   9
TORSDOF 7
ENDMDL
MODEL 4
REMARK VINA RESULT:    27.633      1.505      2.537
REMARK INTER + INTRA:          37.800
REMARK INTER:                  38.140
REMARK INTRA:                  -0.340
REMARK UNBOUND:                -0.332
REMARK SMILES CC[C@@H](CC[C@H](C)[C@@H]1CC[C@H]2[C@H]3CC=C4C[C@H](O)CC[C@@]4(C)[C@H]3CC[C@]21C)C(C)C
REMARK SMILES IDX 5 1 4 2 3 3 2 4 1 5 28 6 29 7 30 8 6 9 7 10 8 11 9 12 26 13
REMARK SMILES IDX 10 14 11 15 25 16 27 17 12 18 24 19 23 20 13 21 21 22 14 23
REMARK SMILES IDX 15 24 20 25 22 26 16 27 19 28 17 29 18 30
REMARK H PARENT 18 31
REMARK Flexibility Score: inf
ROOT
ATOM      1  C   UNL     1     -24.399 -20.630  -9.845  1.00  0.00     0.004 C 
ENDROOT
BRANCH   1   2
ATOM      2  C   UNL     1     -25.037 -22.041  -9.766  1.00  0.00     0.004 C 
BRANCH   2   3
ATOM      3  C   UNL     1     -24.187 -23.082  -8.983  1.00  0.00    -0.009 C 
BRANCH   3   4
ATOM      4  C   UNL     1     -22.656 -22.879  -9.215  1.00  0.00     0.000 C 
ATOM      5  C   UNL     1     -21.886 -22.641  -7.917  1.00  0.00     0.004 C 
ENDBRANCH   3   4
BRANCH   3   6
ATOM      6  C   UNL     1     -24.668 -24.535  -9.312  1.00  0.00    -0.014 C 
ATOM      7  C   UNL     1     -25.415 -25.181  -8.132  1.00  0.00     0.007 C 
ATOM      8  C   UNL     1     -23.541 -25.459  -9.812  1.00  0.00     0.007 C 
ENDBRANCH   3   6
ENDBRANCH   2   3
ENDBRANCH   1   2
BRANCH   1   9
ATOM      9  C   UNL     1     -24.977 -19.754 -10.992  1.00  0.00    -0.011 C 
ATOM     10  C   UNL     1     -25.525 -20.630 -12.138  1.00  0.00     0.008 C 
BRANCH   9  11
ATOM     11  C   UNL     1     -24.012 -18.582 -11.411  1.00  0.00    -0.002 C 
ATOM     12  C   UNL     1     -23.890 -17.515 -10.320  1.00  0.00     0.005 C 
ATOM     13  C   UNL     1     -24.174 -17.814 -12.784  1.00  0.00    -0.026 C 
ATOM     14  C   UNL     1     -23.337 -16.293 -11.015  1.00  0.00     0.005 C 
ATOM     15  C   UNL     1     -23.971 -16.311 -12.408  1.00  0.00    -0.001 C 
ATOM     16  C   UNL     1     -23.092 -18.309 -13.793  1.00  0.00     0.007 C 
ATOM     17  C   UNL     1     -25.554 -17.969 -13.470  1.00  0.00     0.012 C 
ATOM     18  C   UNL     1     -23.238 -15.430 -13.480  1.00  0.00     0.000 C 
ATOM     19  C   UNL     1     -21.767 -17.551 -13.679  1.00  0.00     0.005 C 
ATOM     20  C   UNL     1     -21.953 -16.087 -14.146  1.00  0.00     0.003 C 
ATOM     21  C   UNL     1     -23.015 -13.993 -12.933  1.00  0.00     0.031 C 
ATOM     22  C   UNL     1     -20.647 -15.180 -14.093  1.00  0.00    -0.008 C 
ATOM     23  C   UNL     1     -21.688 -13.875 -12.242  1.00  0.00    -0.027 C 
ATOM     24  C   UNL     1     -20.586 -14.481 -12.722  1.00  0.00    -0.065 C 
ATOM     25  C   UNL     1     -19.327 -15.968 -14.433  1.00  0.00     0.014 C 
ATOM     26  C   UNL     1     -20.755 -14.093 -15.207  1.00  0.00     0.016 C 
ATOM     27  C   UNL     1     -19.403 -14.578 -11.770  1.00  0.00     0.063 C 
ATOM     28  C   UNL     1     -18.531 -16.440 -13.218  1.00  0.00     0.033 C 
ATOM     29  C   UNL     1     -18.149 -15.234 -12.354  1.00  0.00     0.118 C 
BRANCH  29  30
ATOM     30  O   UNL     1     -17.427 -14.281 -13.097  1.00  0.00    -0.393 OA
ATOM     31  H   UNL     1     -16.534 -14.189 -12.668  1.00  0.00     0.210 HD
ENDBRANCH  29  30
ENDBRANCH   9  11
ENDBRANCH   1   9
TORSDOF 7
ENDMDL
