MODEL 1
REMARK VINA RESULT:    -4.816      0.000      0.000
REMARK INTER + INTRA:          -5.489
REMARK INTER:                  -5.238
REMARK INTRA:                  -0.251
REMARK UNBOUND:                -0.251
REMARK SMILES O=C([O-])c1ccccc1O
REMARK SMILES IDX 4 1 9 2 5 3 8 4 6 5 7 6 2 7 1 8 3 9 10 10
REMARK H PARENT 10 11
REMARK Flexibility Score: inf
ROOT
ATOM      1  C   UNL     1      -5.022   9.034 -27.879  1.00  0.00     0.039 A 
ATOM      2  C   UNL     1      -4.400  10.305 -27.899  1.00  0.00     0.124 A 
ATOM      3  C   UNL     1      -6.185   8.859 -27.102  1.00  0.00     0.014 A 
ATOM      4  C   UNL     1      -4.945  11.361 -27.152  1.00  0.00     0.047 A 
ATOM      5  C   UNL     1      -6.715   9.919 -26.364  1.00  0.00     0.001 A 
ATOM      6  C   UNL     1      -6.096  11.168 -26.388  1.00  0.00     0.004 A 
ENDROOT
BRANCH   1   7
ATOM      7  C   UNL     1      -4.481   7.886 -28.654  1.00  0.00     0.075 C 
ATOM      8  O   UNL     1      -4.192   8.022 -29.873  1.00  0.00    -0.545 OA
ATOM      9  O   UNL     1      -4.283   6.647 -28.058  1.00  0.00    -0.545 OA
ENDBRANCH   1   7
BRANCH   2  10
ATOM     10  O   UNL     1      -3.248  10.524 -28.652  1.00  0.00    -0.507 OA
ATOM     11  H   UNL     1      -2.417   9.957 -28.534  1.00  0.00     0.293 HD
ENDBRANCH   2  10
TORSDOF 2
ENDMDL
MODEL 2
REMARK VINA RESULT:    -4.570      1.156      2.163
REMARK INTER + INTRA:          -5.222
REMARK INTER:                  -4.967
REMARK INTRA:                  -0.255
REMARK UNBOUND:                -0.251
REMARK SMILES O=C([O-])c1ccccc1O
REMARK SMILES IDX 4 1 9 2 5 3 8 4 6 5 7 6 2 7 1 8 3 9 10 10
REMARK H PARENT 10 11
REMARK Flexibility Score: inf
ROOT
ATOM      1  C   UNL     1      -4.868   9.382 -27.897  1.00  0.00     0.039 A 
ATOM      2  C   UNL     1      -5.996   9.463 -27.048  1.00  0.00     0.124 A 
ATOM      3  C   UNL     1      -4.070  10.530 -28.079  1.00  0.00     0.014 A 
ATOM      4  C   UNL     1      -6.302  10.673 -26.406  1.00  0.00     0.047 A 
ATOM      5  C   UNL     1      -4.387  11.728 -27.432  1.00  0.00     0.001 A 
ATOM      6  C   UNL     1      -5.501  11.799 -26.598  1.00  0.00     0.004 A 
ENDROOT
BRANCH   1   7
ATOM      7  C   UNL     1      -4.506   8.122 -28.598  1.00  0.00     0.075 C 
ATOM      8  O   UNL     1      -4.219   8.136 -29.825  1.00  0.00    -0.545 OA
ATOM      9  O   UNL     1      -4.476   6.908 -27.921  1.00  0.00    -0.545 OA
ENDBRANCH   1   7
BRANCH   2  10
ATOM     10  O   UNL     1      -6.815   8.354 -26.839  1.00  0.00    -0.507 OA
ATOM     11  H   UNL     1      -6.433   7.421 -26.735  1.00  0.00     0.293 HD
ENDBRANCH   2  10
TORSDOF 2
ENDMDL
MODEL 3
REMARK VINA RESULT:    -4.473      1.659      2.753
REMARK INTER + INTRA:          -5.117
REMARK INTER:                  -4.867
REMARK INTRA:                  -0.250
REMARK UNBOUND:                -0.251
REMARK SMILES O=C([O-])c1ccccc1O
REMARK SMILES IDX 4 1 9 2 5 3 8 4 6 5 7 6 2 7 1 8 3 9 10 10
REMARK H PARENT 10 11
REMARK Flexibility Score: inf
ROOT
ATOM      1  C   UNL     1      -4.804   9.574 -27.993  1.00  0.00     0.039 A 
ATOM      2  C   UNL     1      -4.255   9.460 -29.292  1.00  0.00     0.124 A 
ATOM      3  C   UNL     1      -4.660  10.792 -27.299  1.00  0.00     0.014 A 
ATOM      4  C   UNL     1      -3.581  10.550 -29.863  1.00  0.00     0.047 A 
ATOM      5  C   UNL     1      -3.986  11.869 -27.881  1.00  0.00     0.001 A 
ATOM      6  C   UNL     1      -3.447  11.748 -29.160  1.00  0.00     0.004 A 
ENDROOT
BRANCH   1   7
ATOM      7  C   UNL     1      -5.527   8.446 -27.348  1.00  0.00     0.075 C 
ATOM      8  O   UNL     1      -6.684   8.616 -26.879  1.00  0.00    -0.545 OA
ATOM      9  O   UNL     1      -4.947   7.187 -27.247  1.00  0.00    -0.545 OA
ENDBRANCH   1   7
BRANCH   2  10
ATOM     10  O   UNL     1      -4.372   8.274 -30.016  1.00  0.00    -0.507 OA
ATOM     11  H   UNL     1      -5.064   7.572 -29.781  1.00  0.00     0.293 HD
ENDBRANCH   2  10
TORSDOF 2
ENDMDL
MODEL 4
REMARK VINA RESULT:    -4.356      2.004      2.892
REMARK INTER + INTRA:          -4.989
REMARK INTER:                  -4.740
REMARK INTRA:                  -0.249
REMARK UNBOUND:                -0.251
REMARK SMILES O=C([O-])c1ccccc1O
REMARK SMILES IDX 4 1 9 2 5 3 8 4 6 5 7 6 2 7 1 8 3 9 10 10
REMARK H PARENT 10 11
REMARK Flexibility Score: inf
ROOT
ATOM      1  C   UNL     1      -4.803   9.576 -27.999  1.00  0.00     0.039 A 
ATOM      2  C   UNL     1      -4.526  10.848 -27.443  1.00  0.00     0.124 A 
ATOM      3  C   UNL     1      -4.345   9.290 -29.301  1.00  0.00     0.014 A 
ATOM      4  C   UNL     1      -3.809  11.796 -28.190  1.00  0.00     0.047 A 
ATOM      5  C   UNL     1      -3.632  10.244 -30.032  1.00  0.00     0.001 A 
ATOM      6  C   UNL     1      -3.365  11.494 -29.477  1.00  0.00     0.004 A 
ENDROOT
BRANCH   1   7
ATOM      7  C   UNL     1      -5.559   8.542 -27.245  1.00  0.00     0.075 C 
ATOM      8  O   UNL     1      -6.692   8.807 -26.764  1.00  0.00    -0.545 OA
ATOM      9  O   UNL     1      -5.037   7.268 -27.055  1.00  0.00    -0.545 OA
ENDBRANCH   1   7
BRANCH   2  10
ATOM     10  O   UNL     1      -4.960  11.176 -26.159  1.00  0.00    -0.507 OA
ATOM     11  H   UNL     1      -5.932  11.093 -25.887  1.00  0.00     0.293 HD
ENDBRANCH   2  10
TORSDOF 2
ENDMDL
MODEL 5
REMARK VINA RESULT:    -4.269      1.350      2.976
REMARK INTER + INTRA:          -4.894
REMARK INTER:                  -4.645
REMARK INTRA:                  -0.249
REMARK UNBOUND:                -0.251
REMARK SMILES O=C([O-])c1ccccc1O
REMARK SMILES IDX 4 1 9 2 5 3 8 4 6 5 7 6 2 7 1 8 3 9 10 10
REMARK H PARENT 10 11
REMARK Flexibility Score: inf
ROOT
ATOM      1  C   UNL     1      -4.069   9.228 -28.688  1.00  0.00     0.039 A 
ATOM      2  C   UNL     1      -4.152   7.816 -28.676  1.00  0.00     0.124 A 
ATOM      3  C   UNL     1      -4.930   9.966 -27.852  1.00  0.00     0.014 A 
ATOM      4  C   UNL     1      -5.082   7.178 -27.840  1.00  0.00     0.047 A 
ATOM      5  C   UNL     1      -5.850   9.317 -27.024  1.00  0.00     0.001 A 
ATOM      6  C   UNL     1      -5.926   7.926 -27.019  1.00  0.00     0.004 A 
ENDROOT
BRANCH   1   7
ATOM      7  C   UNL     1      -3.100   9.946 -29.557  1.00  0.00     0.075 C 
ATOM      8  O   UNL     1      -3.430  11.023 -30.123  1.00  0.00    -0.545 OA
ATOM      9  O   UNL     1      -1.819   9.451 -29.765  1.00  0.00    -0.545 OA
ENDBRANCH   1   7
BRANCH   2  10
ATOM     10  O   UNL     1      -3.322   7.044 -29.488  1.00  0.00    -0.507 OA
ATOM     11  H   UNL     1      -3.576   6.807 -30.440  1.00  0.00     0.293 HD
ENDBRANCH   2  10
TORSDOF 2
ENDMDL
MODEL 6
REMARK VINA RESULT:    -4.229      1.957      3.535
REMARK INTER + INTRA:          -4.851
REMARK INTER:                  -4.598
REMARK INTRA:                  -0.253
REMARK UNBOUND:                -0.251
REMARK SMILES O=C([O-])c1ccccc1O
REMARK SMILES IDX 4 1 9 2 5 3 8 4 6 5 7 6 2 7 1 8 3 9 10 10
REMARK H PARENT 10 11
REMARK Flexibility Score: inf
ROOT
ATOM      1  C   UNL     1      -5.117   9.088 -27.670  1.00  0.00     0.039 A 
ATOM      2  C   UNL     1      -4.273   9.453 -28.746  1.00  0.00     0.124 A 
ATOM      3  C   UNL     1      -5.323   7.720 -27.403  1.00  0.00     0.014 A 
ATOM      4  C   UNL     1      -3.661   8.457 -29.523  1.00  0.00     0.047 A 
ATOM      5  C   UNL     1      -4.706   6.740 -28.184  1.00  0.00     0.001 A 
ATOM      6  C   UNL     1      -3.877   7.108 -29.243  1.00  0.00     0.004 A 
ENDROOT
BRANCH   1   7
ATOM      7  C   UNL     1      -5.786  10.109 -26.821  1.00  0.00     0.075 C 
ATOM      8  O   UNL     1      -6.985   9.955 -26.469  1.00  0.00    -0.545 OA
ATOM      9  O   UNL     1      -5.109  11.247 -26.401  1.00  0.00    -0.545 OA
ENDBRANCH   1   7
BRANCH   2  10
ATOM     10  O   UNL     1      -4.041  10.794 -29.049  1.00  0.00    -0.507 OA
ATOM     11  H   UNL     1      -3.108  11.146 -29.234  1.00  0.00     0.293 HD
ENDBRANCH   2  10
TORSDOF 2
ENDMDL
MODEL 7
REMARK VINA RESULT:    -4.155      2.282      4.126
REMARK INTER + INTRA:          -4.771
REMARK INTER:                  -4.525
REMARK INTRA:                  -0.245
REMARK UNBOUND:                -0.251
REMARK SMILES O=C([O-])c1ccccc1O
REMARK SMILES IDX 4 1 9 2 5 3 8 4 6 5 7 6 2 7 1 8 3 9 10 10
REMARK H PARENT 10 11
REMARK Flexibility Score: inf
ROOT
ATOM      1  C   UNL     1      -4.769  10.594 -27.453  1.00  0.00     0.039 A 
ATOM      2  C   UNL     1      -5.250   9.309 -27.796  1.00  0.00     0.124 A 
ATOM      3  C   UNL     1      -3.666  11.117 -28.158  1.00  0.00     0.014 A 
ATOM      4  C   UNL     1      -4.628   8.581 -28.823  1.00  0.00     0.047 A 
ATOM      5  C   UNL     1      -3.058  10.381 -29.178  1.00  0.00     0.001 A 
ATOM      6  C   UNL     1      -3.538   9.115 -29.509  1.00  0.00     0.004 A 
ENDROOT
BRANCH   1   7
ATOM      7  C   UNL     1      -5.395  11.401 -26.373  1.00  0.00     0.075 C 
ATOM      8  O   UNL     1      -4.685  12.125 -25.625  1.00  0.00    -0.545 OA
ATOM      9  O   UNL     1      -6.769  11.375 -26.164  1.00  0.00    -0.545 OA
ENDBRANCH   1   7
BRANCH   2  10
ATOM     10  O   UNL     1      -6.337   8.750 -27.125  1.00  0.00    -0.507 OA
ATOM     11  H   UNL     1      -6.782   7.898 -27.446  1.00  0.00     0.293 HD
ENDBRANCH   2  10
TORSDOF 2
ENDMDL
MODEL 8
REMARK VINA RESULT:    -3.920      1.718      2.426
REMARK INTER + INTRA:          -4.515
REMARK INTER:                  -4.266
REMARK INTRA:                  -0.249
REMARK UNBOUND:                -0.251
REMARK SMILES O=C([O-])c1ccccc1O
REMARK SMILES IDX 4 1 9 2 5 3 8 4 6 5 7 6 2 7 1 8 3 9 10 10
REMARK H PARENT 10 11
REMARK Flexibility Score: inf
ROOT
ATOM      1  C   UNL     1      -4.178   9.872 -28.513  1.00  0.00     0.039 A 
ATOM      2  C   UNL     1      -4.728  10.809 -27.606  1.00  0.00     0.124 A 
ATOM      3  C   UNL     1      -4.674   8.553 -28.512  1.00  0.00     0.014 A 
ATOM      4  C   UNL     1      -5.749  10.414 -26.728  1.00  0.00     0.047 A 
ATOM      5  C   UNL     1      -5.692   8.175 -27.632  1.00  0.00     0.001 A 
ATOM      6  C   UNL     1      -6.228   9.104 -26.742  1.00  0.00     0.004 A 
ENDROOT
BRANCH   1   7
ATOM      7  C   UNL     1      -3.095  10.246 -29.461  1.00  0.00     0.075 C 
ATOM      8  O   UNL     1      -3.169  11.315 -30.122  1.00  0.00    -0.545 OA
ATOM      9  O   UNL     1      -1.984   9.429 -29.639  1.00  0.00    -0.545 OA
ENDBRANCH   1   7
BRANCH   2  10
ATOM     10  O   UNL     1      -4.267  12.124 -27.570  1.00  0.00    -0.507 OA
ATOM     11  H   UNL     1      -3.748  12.487 -26.779  1.00  0.00     0.293 HD
ENDBRANCH   2  10
TORSDOF 2
ENDMDL
MODEL 9
REMARK VINA RESULT:    -3.890     10.471     11.601
REMARK INTER + INTRA:          -4.482
REMARK INTER:                  -4.254
REMARK INTRA:                  -0.228
REMARK UNBOUND:                -0.251
REMARK SMILES O=C([O-])c1ccccc1O
REMARK SMILES IDX 4 1 9 2 5 3 8 4 6 5 7 6 2 7 1 8 3 9 10 10
REMARK H PARENT 10 11
REMARK Flexibility Score: inf
ROOT
ATOM      1  C   UNL     1     -11.049  10.374 -17.957  1.00  0.00     0.039 A 
ATOM      2  C   UNL     1      -9.796  10.744 -18.501  1.00  0.00     0.124 A 
ATOM      3  C   UNL     1     -11.428  10.898 -16.705  1.00  0.00     0.014 A 
ATOM      4  C   UNL     1      -8.957  11.618 -17.791  1.00  0.00     0.047 A 
ATOM      5  C   UNL     1     -10.582  11.766 -16.010  1.00  0.00     0.001 A 
ATOM      6  C   UNL     1      -9.349  12.125 -16.552  1.00  0.00     0.004 A 
ENDROOT
BRANCH   1   7
ATOM      7  C   UNL     1     -11.970   9.453 -18.673  1.00  0.00     0.075 C 
ATOM      8  O   UNL     1     -13.125   9.835 -19.002  1.00  0.00    -0.545 OA
ATOM      9  O   UNL     1     -11.582   8.157 -18.994  1.00  0.00    -0.545 OA
ENDBRANCH   1   7
BRANCH   2  10
ATOM     10  O   UNL     1      -9.379  10.250 -19.736  1.00  0.00    -0.507 OA
ATOM     11  H   UNL     1      -8.461   9.841 -19.865  1.00  0.00     0.293 HD
ENDBRANCH   2  10
TORSDOF 2
ENDMDL
