MODEL 1
REMARK VINA RESULT:    -4.754      0.000      0.000
REMARK INTER + INTRA:          -5.737
REMARK INTER:                  -5.449
REMARK INTRA:                  -0.287
REMARK UNBOUND:                -0.287
REMARK SMILES COC(=O)c1ccccc1O
REMARK SMILES IDX 5 1 6 2 7 3 8 4 9 5 10 6 3 7 4 8 2 9 1 10 11 11
REMARK H PARENT 11 12
REMARK Flexibility Score: inf
ROOT
ATOM      1  C   UNL     1      15.079 -10.992  12.514  1.00  0.00     0.101 A 
ATOM      2  C   UNL     1      13.724 -10.659  12.695  1.00  0.00     0.019 A 
ATOM      3  C   UNL     1      12.751 -11.658  12.785  1.00  0.00     0.001 A 
ATOM      4  C   UNL     1      13.117 -13.000  12.696  1.00  0.00     0.004 A 
ATOM      5  C   UNL     1      14.459 -13.348  12.537  1.00  0.00     0.047 A 
ATOM      6  C   UNL     1      15.449 -12.360  12.466  1.00  0.00     0.130 A 
ENDROOT
BRANCH   1   7
ATOM      7  C   UNL     1      16.061  -9.900  12.342  1.00  0.00     0.341 C 
ATOM      8  O   UNL     1      15.685  -8.788  11.876  1.00  0.00    -0.246 OA
BRANCH   7   9
ATOM      9  O   UNL     1      17.411 -10.115  12.637  1.00  0.00    -0.465 OA
ATOM     10  C   UNL     1      18.130  -9.317  13.570  1.00  0.00     0.282 C 
ENDBRANCH   7   9
ENDBRANCH   1   7
BRANCH   6  11
ATOM     11  O   UNL     1      16.780 -12.776  12.386  1.00  0.00    -0.507 OA
ATOM     12  H   UNL     1      17.314 -12.771  11.528  1.00  0.00     0.293 HD
ENDBRANCH   6  11
TORSDOF 3
ENDMDL
MODEL 2
REMARK VINA RESULT:    -4.638      1.161      1.388
REMARK INTER + INTRA:          -5.604
REMARK INTER:                  -5.303
REMARK INTRA:                  -0.301
REMARK UNBOUND:                -0.287
REMARK SMILES COC(=O)c1ccccc1O
REMARK SMILES IDX 5 1 6 2 7 3 8 4 9 5 10 6 3 7 4 8 2 9 1 10 11 11
REMARK H PARENT 11 12
REMARK Flexibility Score: inf
ROOT
ATOM      1  C   UNL     1      15.467 -10.251  12.477  1.00  0.00     0.101 A 
ATOM      2  C   UNL     1      14.089 -10.498  12.615  1.00  0.00     0.019 A 
ATOM      3  C   UNL     1      13.589 -11.801  12.556  1.00  0.00     0.001 A 
ATOM      4  C   UNL     1      14.457 -12.874  12.358  1.00  0.00     0.004 A 
ATOM      5  C   UNL     1      15.829 -12.649  12.240  1.00  0.00     0.047 A 
ATOM      6  C   UNL     1      16.349 -11.351  12.319  1.00  0.00     0.130 A 
ENDROOT
BRANCH   1   7
ATOM      7  C   UNL     1      15.940  -8.850  12.465  1.00  0.00     0.341 C 
ATOM      8  O   UNL     1      15.204  -7.938  12.933  1.00  0.00    -0.246 OA
BRANCH   7   9
ATOM      9  O   UNL     1      17.171  -8.528  11.884  1.00  0.00    -0.465 OA
ATOM     10  C   UNL     1      18.146  -7.730  12.543  1.00  0.00     0.282 C 
ENDBRANCH   7   9
ENDBRANCH   1   7
BRANCH   6  11
ATOM     11  O   UNL     1      17.737 -11.201  12.272  1.00  0.00    -0.507 OA
ATOM     12  H   UNL     1      18.385 -11.954  12.457  1.00  0.00     0.293 HD
ENDBRANCH   6  11
TORSDOF 3
ENDMDL
MODEL 3
REMARK VINA RESULT:    -4.586      1.893      2.673
REMARK INTER + INTRA:          -5.543
REMARK INTER:                  -5.295
REMARK INTRA:                  -0.248
REMARK UNBOUND:                -0.287
REMARK SMILES COC(=O)c1ccccc1O
REMARK SMILES IDX 5 1 6 2 7 3 8 4 9 5 10 6 3 7 4 8 2 9 1 10 11 11
REMARK H PARENT 11 12
REMARK Flexibility Score: inf
ROOT
ATOM      1  C   UNL     1      14.109 -10.827  12.667  1.00  0.00     0.101 A 
ATOM      2  C   UNL     1      15.190 -11.626  12.253  1.00  0.00     0.019 A 
ATOM      3  C   UNL     1      15.103 -13.020  12.292  1.00  0.00     0.001 A 
ATOM      4  C   UNL     1      13.936 -13.633  12.745  1.00  0.00     0.004 A 
ATOM      5  C   UNL     1      12.845 -12.856  13.140  1.00  0.00     0.047 A 
ATOM      6  C   UNL     1      12.910 -11.458  13.086  1.00  0.00     0.130 A 
ENDROOT
BRANCH   1   7
ATOM      7  C   UNL     1      14.278  -9.358  12.685  1.00  0.00     0.341 C 
ATOM      8  O   UNL     1      13.261  -8.611  12.649  1.00  0.00    -0.246 OA
BRANCH   7   9
ATOM      9  O   UNL     1      15.560  -8.798  12.682  1.00  0.00    -0.465 OA
ATOM     10  C   UNL     1      15.811  -7.454  13.075  1.00  0.00     0.282 C 
ENDBRANCH   7   9
ENDBRANCH   1   7
BRANCH   6  11
ATOM     11  O   UNL     1      11.760 -10.740  13.420  1.00  0.00    -0.507 OA
ATOM     12  H   UNL     1      11.104 -10.390  12.735  1.00  0.00     0.293 HD
ENDBRANCH   6  11
TORSDOF 3
ENDMDL
MODEL 4
REMARK VINA RESULT:    -4.542      1.450      1.811
REMARK INTER + INTRA:          -5.493
REMARK INTER:                  -5.240
REMARK INTRA:                  -0.254
REMARK UNBOUND:                -0.287
REMARK SMILES COC(=O)c1ccccc1O
REMARK SMILES IDX 5 1 6 2 7 3 8 4 9 5 10 6 3 7 4 8 2 9 1 10 11 11
REMARK H PARENT 11 12
REMARK Flexibility Score: inf
ROOT
ATOM      1  C   UNL     1      15.457 -10.217  12.500  1.00  0.00     0.101 A 
ATOM      2  C   UNL     1      14.072 -10.416  12.643  1.00  0.00     0.019 A 
ATOM      3  C   UNL     1      13.525 -11.699  12.570  1.00  0.00     0.001 A 
ATOM      4  C   UNL     1      14.353 -12.800  12.353  1.00  0.00     0.004 A 
ATOM      5  C   UNL     1      15.732 -12.623  12.229  1.00  0.00     0.047 A 
ATOM      6  C   UNL     1      16.298 -11.345  12.321  1.00  0.00     0.130 A 
ENDROOT
BRANCH   1   7
ATOM      7  C   UNL     1      15.979  -8.833  12.502  1.00  0.00     0.341 C 
ATOM      8  O   UNL     1      17.105  -8.588  11.986  1.00  0.00    -0.246 OA
BRANCH   7   9
ATOM      9  O   UNL     1      15.257  -7.810  13.125  1.00  0.00    -0.465 OA
ATOM     10  C   UNL     1      15.879  -6.654  13.672  1.00  0.00     0.282 C 
ENDBRANCH   7   9
ENDBRANCH   1   7
BRANCH   6  11
ATOM     11  O   UNL     1      17.690 -11.243  12.268  1.00  0.00    -0.507 OA
ATOM     12  H   UNL     1      18.191 -10.379  12.419  1.00  0.00     0.293 HD
ENDBRANCH   6  11
TORSDOF 3
ENDMDL
MODEL 5
REMARK VINA RESULT:    -4.494      1.660      3.893
REMARK INTER + INTRA:          -5.439
REMARK INTER:                  -5.154
REMARK INTRA:                  -0.285
REMARK UNBOUND:                -0.287
REMARK SMILES COC(=O)c1ccccc1O
REMARK SMILES IDX 5 1 6 2 7 3 8 4 9 5 10 6 3 7 4 8 2 9 1 10 11 11
REMARK H PARENT 11 12
REMARK Flexibility Score: inf
ROOT
ATOM      1  C   UNL     1      15.289 -10.326  12.553  1.00  0.00     0.101 A 
ATOM      2  C   UNL     1      15.035  -8.944  12.623  1.00  0.00     0.019 A 
ATOM      3  C   UNL     1      16.081  -8.034  12.795  1.00  0.00     0.001 A 
ATOM      4  C   UNL     1      17.393  -8.491  12.900  1.00  0.00     0.004 A 
ATOM      5  C   UNL     1      17.667  -9.857  12.812  1.00  0.00     0.047 A 
ATOM      6  C   UNL     1      16.632 -10.780  12.618  1.00  0.00     0.130 A 
ENDROOT
BRANCH   1   7
ATOM      7  C   UNL     1      14.143 -11.254  12.453  1.00  0.00     0.341 C 
ATOM      8  O   UNL     1      12.995 -10.872  12.812  1.00  0.00    -0.246 OA
BRANCH   7   9
ATOM      9  O   UNL     1      14.340 -12.570  12.020  1.00  0.00    -0.465 OA
ATOM     10  C   UNL     1      13.880 -13.697  12.756  1.00  0.00     0.282 C 
ENDBRANCH   7   9
ENDBRANCH   1   7
BRANCH   6  11
ATOM     11  O   UNL     1      16.978 -12.124  12.460  1.00  0.00    -0.507 OA
ATOM     12  H   UNL     1      16.328 -12.886  12.597  1.00  0.00     0.293 HD
ENDBRANCH   6  11
TORSDOF 3
ENDMDL
MODEL 6
REMARK VINA RESULT:    -4.479      0.955      2.076
REMARK INTER + INTRA:          -5.421
REMARK INTER:                  -5.144
REMARK INTRA:                  -0.277
REMARK UNBOUND:                -0.287
REMARK SMILES COC(=O)c1ccccc1O
REMARK SMILES IDX 5 1 6 2 7 3 8 4 9 5 10 6 3 7 4 8 2 9 1 10 11 11
REMARK H PARENT 11 12
REMARK Flexibility Score: inf
ROOT
ATOM      1  C   UNL     1      15.384 -10.951  12.485  1.00  0.00     0.101 A 
ATOM      2  C   UNL     1      15.823 -12.281  12.356  1.00  0.00     0.019 A 
ATOM      3  C   UNL     1      14.922 -13.343  12.462  1.00  0.00     0.001 A 
ATOM      4  C   UNL     1      13.571 -13.092  12.697  1.00  0.00     0.004 A 
ATOM      5  C   UNL     1      13.114 -11.778  12.807  1.00  0.00     0.047 A 
ATOM      6  C   UNL     1      14.001 -10.701  12.683  1.00  0.00     0.130 A 
ENDROOT
BRANCH   1   7
ATOM      7  C   UNL     1      16.387  -9.865  12.448  1.00  0.00     0.341 C 
ATOM      8  O   UNL     1      16.107  -8.775  11.876  1.00  0.00    -0.246 OA
BRANCH   7   9
ATOM      9  O   UNL     1      17.660 -10.065  12.992  1.00  0.00    -0.465 OA
ATOM     10  C   UNL     1      18.277  -9.128  13.866  1.00  0.00     0.282 C 
ENDBRANCH   7   9
ENDBRANCH   1   7
BRANCH   6  11
ATOM     11  O   UNL     1      13.470  -9.411  12.723  1.00  0.00    -0.507 OA
ATOM     12  H   UNL     1      13.090  -8.992  13.561  1.00  0.00     0.293 HD
ENDBRANCH   6  11
TORSDOF 3
ENDMDL
MODEL 7
REMARK VINA RESULT:    -4.468      1.897      4.054
REMARK INTER + INTRA:          -5.408
REMARK INTER:                  -5.153
REMARK INTRA:                  -0.256
REMARK UNBOUND:                -0.287
REMARK SMILES COC(=O)c1ccccc1O
REMARK SMILES IDX 5 1 6 2 7 3 8 4 9 5 10 6 3 7 4 8 2 9 1 10 11 11
REMARK H PARENT 11 12
REMARK Flexibility Score: inf
ROOT
ATOM      1  C   UNL     1      14.864 -11.105  12.526  1.00  0.00     0.101 A 
ATOM      2  C   UNL     1      14.539  -9.736  12.510  1.00  0.00     0.019 A 
ATOM      3  C   UNL     1      15.541  -8.765  12.575  1.00  0.00     0.001 A 
ATOM      4  C   UNL     1      16.879  -9.147  12.655  1.00  0.00     0.004 A 
ATOM      5  C   UNL     1      17.221 -10.500  12.650  1.00  0.00     0.047 A 
ATOM      6  C   UNL     1      16.230 -11.486  12.565  1.00  0.00     0.130 A 
ENDROOT
BRANCH   1   7
ATOM      7  C   UNL     1      13.765 -12.095  12.538  1.00  0.00     0.341 C 
ATOM      8  O   UNL     1      13.996 -13.289  12.199  1.00  0.00    -0.246 OA
BRANCH   7   9
ATOM      9  O   UNL     1      12.465 -11.699  12.868  1.00  0.00    -0.465 OA
ATOM     10  C   UNL     1      11.319 -12.168  12.168  1.00  0.00     0.282 C 
ENDBRANCH   7   9
ENDBRANCH   1   7
BRANCH   6  11
ATOM     11  O   UNL     1      16.640 -12.818  12.485  1.00  0.00    -0.507 OA
ATOM     12  H   UNL     1      16.354 -13.529  13.143  1.00  0.00     0.293 HD
ENDBRANCH   6  11
TORSDOF 3
ENDMDL
MODEL 8
REMARK VINA RESULT:    -4.129      1.522      4.449
REMARK INTER + INTRA:          -5.020
REMARK INTER:                  -4.737
REMARK INTRA:                  -0.283
REMARK UNBOUND:                -0.287
REMARK SMILES COC(=O)c1ccccc1O
REMARK SMILES IDX 5 1 6 2 7 3 8 4 9 5 10 6 3 7 4 8 2 9 1 10 11 11
REMARK H PARENT 11 12
REMARK Flexibility Score: inf
ROOT
ATOM      1  C   UNL     1      15.902 -10.636  12.583  1.00  0.00     0.101 A 
ATOM      2  C   UNL     1      17.283 -10.385  12.672  1.00  0.00     0.019 A 
ATOM      3  C   UNL     1      17.767  -9.077  12.758  1.00  0.00     0.001 A 
ATOM      4  C   UNL     1      16.878  -8.003  12.756  1.00  0.00     0.004 A 
ATOM      5  C   UNL     1      15.503  -8.234  12.689  1.00  0.00     0.047 A 
ATOM      6  C   UNL     1      15.002  -9.540  12.624  1.00  0.00     0.130 A 
ENDROOT
BRANCH   1   7
ATOM      7  C   UNL     1      15.443 -12.031  12.411  1.00  0.00     0.341 C 
ATOM      8  O   UNL     1      16.268 -12.979  12.531  1.00  0.00    -0.246 OA
BRANCH   7   9
ATOM      9  O   UNL     1      14.116 -12.296  12.060  1.00  0.00    -0.465 OA
ATOM     10  C   UNL     1      13.293 -13.196  12.792  1.00  0.00     0.282 C 
ENDBRANCH   7   9
ENDBRANCH   1   7
BRANCH   6  11
ATOM     11  O   UNL     1      13.615  -9.708  12.639  1.00  0.00    -0.507 OA
ATOM     12  H   UNL     1      13.051  -9.750  11.802  1.00  0.00     0.293 HD
ENDBRANCH   6  11
TORSDOF 3
ENDMDL
MODEL 9
REMARK VINA RESULT:    -4.042      2.014      3.022
REMARK INTER + INTRA:          -4.921
REMARK INTER:                  -4.632
REMARK INTRA:                  -0.288
REMARK UNBOUND:                -0.287
REMARK SMILES COC(=O)c1ccccc1O
REMARK SMILES IDX 5 1 6 2 7 3 8 4 9 5 10 6 3 7 4 8 2 9 1 10 11 11
REMARK H PARENT 11 12
REMARK Flexibility Score: inf
ROOT
ATOM      1  C   UNL     1      16.196  -9.539  12.608  1.00  0.00     0.101 A 
ATOM      2  C   UNL     1      16.865 -10.753  12.370  1.00  0.00     0.019 A 
ATOM      3  C   UNL     1      16.149 -11.939  12.195  1.00  0.00     0.001 A 
ATOM      4  C   UNL     1      14.756 -11.929  12.256  1.00  0.00     0.004 A 
ATOM      5  C   UNL     1      14.075 -10.730  12.470  1.00  0.00     0.047 A 
ATOM      6  C   UNL     1      14.778  -9.529  12.626  1.00  0.00     0.130 A 
ENDROOT
BRANCH   1   7
ATOM      7  C   UNL     1      17.000  -8.325  12.868  1.00  0.00     0.341 C 
ATOM      8  O   UNL     1      18.133  -8.197  12.327  1.00  0.00    -0.246 OA
BRANCH   7   9
ATOM      9  O   UNL     1      16.533  -7.350  13.756  1.00  0.00    -0.465 OA
ATOM     10  C   UNL     1      17.359  -6.763  14.755  1.00  0.00     0.282 C 
ENDBRANCH   7   9
ENDBRANCH   1   7
BRANCH   6  11
ATOM     11  O   UNL     1      14.037  -8.352  12.759  1.00  0.00    -0.507 OA
ATOM     12  H   UNL     1      13.192  -8.165  12.237  1.00  0.00     0.293 HD
ENDBRANCH   6  11
TORSDOF 3
ENDMDL
