MODEL 1
REMARK VINA RESULT:    -6.925      0.000      0.000
REMARK INTER + INTRA:         -11.114
REMARK INTER:                  -9.557
REMARK INTRA:                  -1.557
REMARK UNBOUND:                -1.557
REMARK SMILES CC[C@@H](CC[C@H](C)[C@H]1CC[C@@H]2C3=CC[C@H]4C[C@H](O)CC[C@]4(C)[C@H]3CC[C@@]21C)C(C)C
REMARK SMILES IDX 5 1 4 2 3 3 2 4 1 5 28 6 29 7 30 8 6 9 7 10 8 11 9 12 26 13
REMARK SMILES IDX 10 14 11 15 25 16 27 17 12 18 24 19 23 20 13 21 21 22 14 23
REMARK SMILES IDX 15 24 20 25 22 26 16 27 19 28 17 29 18 30
REMARK H PARENT 18 31
REMARK Flexibility Score: inf
ROOT
ATOM      1  C   UNL     1      -2.424  21.309  49.666  1.00  0.00     0.004 C 
ENDROOT
BRANCH   1   2
ATOM      2  C   UNL     1      -1.270  22.305  49.902  1.00  0.00     0.004 C 
BRANCH   2   3
ATOM      3  C   UNL     1      -0.941  22.529  51.404  1.00  0.00    -0.009 C 
BRANCH   3   4
ATOM      4  C   UNL     1      -1.188  24.023  51.785  1.00  0.00     0.000 C 
ATOM      5  C   UNL     1      -2.643  24.295  52.166  1.00  0.00     0.004 C 
ENDBRANCH   3   4
BRANCH   3   6
ATOM      6  C   UNL     1       0.479  22.011  51.816  1.00  0.00    -0.014 C 
ATOM      7  C   UNL     1       1.640  22.841  51.238  1.00  0.00     0.007 C 
ATOM      8  C   UNL     1       0.624  21.875  53.340  1.00  0.00     0.007 C 
ENDBRANCH   3   6
ENDBRANCH   2   3
ENDBRANCH   1   2
BRANCH   1   9
ATOM      9  C   UNL     1      -2.186  20.280  48.526  1.00  0.00    -0.011 C 
ATOM     10  C   UNL     1      -3.500  19.578  48.123  1.00  0.00     0.008 C 
BRANCH   9  11
ATOM     11  C   UNL     1      -0.958  19.320  48.784  1.00  0.00    -0.002 C 
ATOM     12  C   UNL     1      -1.266  17.809  48.739  1.00  0.00     0.005 C 
ATOM     13  C   UNL     1       0.345  19.521  47.899  1.00  0.00    -0.023 C 
ATOM     14  C   UNL     1       0.039  17.141  48.363  1.00  0.00     0.009 C 
ATOM     15  C   UNL     1       0.678  18.099  47.371  1.00  0.00     0.021 C 
ATOM     16  C   UNL     1       1.489  20.051  48.809  1.00  0.00     0.008 C 
ATOM     17  C   UNL     1       0.170  20.475  46.683  1.00  0.00     0.012 C 
ATOM     18  C   UNL     1       2.151  17.768  47.139  1.00  0.00    -0.067 C 
ATOM     19  C   UNL     1       2.855  20.029  48.128  1.00  0.00     0.009 C 
ATOM     20  C   UNL     1       3.276  18.585  47.769  1.00  0.00     0.021 C 
ATOM     21  C   UNL     1       2.440  16.629  46.464  1.00  0.00    -0.027 C 
ATOM     22  C   UNL     1       4.591  18.499  46.910  1.00  0.00    -0.023 C 
ATOM     23  C   UNL     1       3.838  16.143  46.166  1.00  0.00     0.031 C 
ATOM     24  C   UNL     1       4.949  16.979  46.838  1.00  0.00     0.002 C 
ATOM     25  C   UNL     1       5.752  19.244  47.641  1.00  0.00     0.010 C 
ATOM     26  C   UNL     1       4.369  19.111  45.482  1.00  0.00     0.012 C 
ATOM     27  C   UNL     1       6.314  16.724  46.166  1.00  0.00     0.036 C 
ATOM     28  C   UNL     1       7.143  18.977  47.036  1.00  0.00     0.032 C 
ATOM     29  C   UNL     1       7.460  17.482  46.860  1.00  0.00     0.114 C 
BRANCH  29  30
ATOM     30  O   UNL     1       7.824  16.877  48.078  1.00  0.00    -0.393 OA
ATOM     31  H   UNL     1       7.281  16.057  48.199  1.00  0.00     0.210 HD
ENDBRANCH  29  30
ENDBRANCH   9  11
ENDBRANCH   1   9
TORSDOF 7
ENDMDL
MODEL 2
REMARK VINA RESULT:    -6.906      2.896      8.215
REMARK INTER + INTRA:         -11.087
REMARK INTER:                  -8.899
REMARK INTRA:                  -2.188
REMARK UNBOUND:                -1.557
REMARK SMILES CC[C@@H](CC[C@H](C)[C@H]1CC[C@@H]2C3=CC[C@H]4C[C@H](O)CC[C@]4(C)[C@H]3CC[C@@]21C)C(C)C
REMARK SMILES IDX 5 1 4 2 3 3 2 4 1 5 28 6 29 7 30 8 6 9 7 10 8 11 9 12 26 13
REMARK SMILES IDX 10 14 11 15 25 16 27 17 12 18 24 19 23 20 13 21 21 22 14 23
REMARK SMILES IDX 15 24 20 25 22 26 16 27 19 28 17 29 18 30
REMARK H PARENT 18 31
REMARK Flexibility Score: inf
ROOT
ATOM      1  C   UNL     1       7.930  20.238  47.258  1.00  0.00     0.004 C 
ENDROOT
BRANCH   1   2
ATOM      2  C   UNL     1       8.265  19.112  46.259  1.00  0.00     0.004 C 
BRANCH   2   3
ATOM      3  C   UNL     1       7.164  18.020  46.162  1.00  0.00    -0.009 C 
BRANCH   3   4
ATOM      4  C   UNL     1       7.617  16.738  46.931  1.00  0.00     0.000 C 
ATOM      5  C   UNL     1       6.510  16.170  47.819  1.00  0.00     0.004 C 
ENDBRANCH   3   4
BRANCH   3   6
ATOM      6  C   UNL     1       6.700  17.729  44.694  1.00  0.00    -0.014 C 
ATOM      7  C   UNL     1       5.292  17.114  44.591  1.00  0.00     0.007 C 
ATOM      8  C   UNL     1       6.808  18.973  43.798  1.00  0.00     0.007 C 
ENDBRANCH   3   6
ENDBRANCH   2   3
ENDBRANCH   1   2
BRANCH   1   9
ATOM      9  C   UNL     1       6.617  21.015  46.964  1.00  0.00    -0.011 C 
ATOM     10  C   UNL     1       6.879  22.530  46.838  1.00  0.00     0.008 C 
BRANCH   9  11
ATOM     11  C   UNL     1       5.416  20.612  47.910  1.00  0.00    -0.002 C 
ATOM     12  C   UNL     1       5.103  21.599  49.053  1.00  0.00     0.005 C 
ATOM     13  C   UNL     1       4.019  20.271  47.238  1.00  0.00    -0.023 C 
ATOM     14  C   UNL     1       3.639  21.390  49.377  1.00  0.00     0.009 C 
ATOM     15  C   UNL     1       2.991  21.125  48.028  1.00  0.00     0.021 C 
ATOM     16  C   UNL     1       3.733  18.754  47.425  1.00  0.00     0.008 C 
ATOM     17  C   UNL     1       3.912  20.633  45.729  1.00  0.00     0.012 C 
ATOM     18  C   UNL     1       1.583  20.554  48.183  1.00  0.00    -0.067 C 
ATOM     19  C   UNL     1       2.304  18.364  47.056  1.00  0.00     0.009 C 
ATOM     20  C   UNL     1       1.278  19.073  47.971  1.00  0.00     0.021 C 
ATOM     21  C   UNL     1       0.619  21.379  48.660  1.00  0.00    -0.027 C 
ATOM     22  C   UNL     1      -0.218  18.856  47.539  1.00  0.00    -0.023 C 
ATOM     23  C   UNL     1      -0.816  20.973  48.894  1.00  0.00     0.031 C 
ATOM     24  C   UNL     1      -1.082  19.465  48.692  1.00  0.00     0.002 C 
ATOM     25  C   UNL     1      -0.528  17.328  47.448  1.00  0.00     0.010 C 
ATOM     26  C   UNL     1      -0.513  19.553  46.164  1.00  0.00     0.012 C 
ATOM     27  C   UNL     1      -2.589  19.191  48.511  1.00  0.00     0.036 C 
ATOM     28  C   UNL     1      -2.028  17.003  47.318  1.00  0.00     0.032 C 
ATOM     29  C   UNL     1      -2.900  17.688  48.385  1.00  0.00     0.114 C 
BRANCH  29  30
ATOM     30  O   UNL     1      -2.818  17.032  49.628  1.00  0.00    -0.393 OA
ATOM     31  H   UNL     1      -1.948  16.559  49.680  1.00  0.00     0.210 HD
ENDBRANCH  29  30
ENDBRANCH   9  11
ENDBRANCH   1   9
TORSDOF 7
ENDMDL
MODEL 3
REMARK VINA RESULT:    -6.896      2.872      8.540
REMARK INTER + INTRA:         -11.074
REMARK INTER:                  -8.855
REMARK INTRA:                  -2.219
REMARK UNBOUND:                -1.557
REMARK SMILES CC[C@@H](CC[C@H](C)[C@H]1CC[C@@H]2C3=CC[C@H]4C[C@H](O)CC[C@]4(C)[C@H]3CC[C@@]21C)C(C)C
REMARK SMILES IDX 5 1 4 2 3 3 2 4 1 5 28 6 29 7 30 8 6 9 7 10 8 11 9 12 26 13
REMARK SMILES IDX 10 14 11 15 25 16 27 17 12 18 24 19 23 20 13 21 21 22 14 23
REMARK SMILES IDX 15 24 20 25 22 26 16 27 19 28 17 29 18 30
REMARK H PARENT 18 31
REMARK Flexibility Score: inf
ROOT
ATOM      1  C   UNL     1       8.101  19.386  46.125  1.00  0.00     0.004 C 
ENDROOT
BRANCH   1   2
ATOM      2  C   UNL     1       8.059  18.301  45.030  1.00  0.00     0.004 C 
BRANCH   2   3
ATOM      3  C   UNL     1       6.797  18.380  44.127  1.00  0.00    -0.009 C 
BRANCH   3   4
ATOM      4  C   UNL     1       6.042  17.013  44.148  1.00  0.00     0.000 C 
ATOM      5  C   UNL     1       6.478  16.125  45.314  1.00  0.00     0.004 C 
ENDBRANCH   3   4
BRANCH   3   6
ATOM      6  C   UNL     1       7.097  18.899  42.679  1.00  0.00    -0.014 C 
ATOM      7  C   UNL     1       6.275  20.136  42.274  1.00  0.00     0.007 C 
ATOM      8  C   UNL     1       8.596  19.154  42.457  1.00  0.00     0.007 C 
ENDBRANCH   3   6
ENDBRANCH   2   3
ENDBRANCH   1   2
BRANCH   1   9
ATOM      9  C   UNL     1       6.873  20.337  46.162  1.00  0.00    -0.011 C 
ATOM     10  C   UNL     1       7.311  21.816  46.210  1.00  0.00     0.008 C 
BRANCH   9  11
ATOM     11  C   UNL     1       5.780  19.921  47.226  1.00  0.00    -0.002 C 
ATOM     12  C   UNL     1       5.727  20.779  48.506  1.00  0.00     0.005 C 
ATOM     13  C   UNL     1       4.276  19.784  46.735  1.00  0.00    -0.023 C 
ATOM     14  C   UNL     1       4.309  20.654  49.019  1.00  0.00     0.009 C 
ATOM     15  C   UNL     1       3.457  20.614  47.760  1.00  0.00     0.021 C 
ATOM     16  C   UNL     1       3.867  18.284  46.792  1.00  0.00     0.008 C 
ATOM     17  C   UNL     1       3.998  20.340  45.309  1.00  0.00     0.012 C 
ATOM     18  C   UNL     1       2.034  20.148  48.058  1.00  0.00    -0.067 C 
ATOM     19  C   UNL     1       2.369  18.064  46.599  1.00  0.00     0.009 C 
ATOM     20  C   UNL     1       1.556  18.735  47.730  1.00  0.00     0.021 C 
ATOM     21  C   UNL     1       1.233  20.984  48.763  1.00  0.00    -0.027 C 
ATOM     22  C   UNL     1       0.000  18.700  47.504  1.00  0.00    -0.023 C 
ATOM     23  C   UNL     1      -0.190  20.673  49.161  1.00  0.00     0.031 C 
ATOM     24  C   UNL     1      -0.631  19.229  48.833  1.00  0.00     0.002 C 
ATOM     25  C   UNL     1      -0.471  17.227  47.289  1.00  0.00     0.010 C 
ATOM     26  C   UNL     1      -0.409  19.585  46.275  1.00  0.00     0.012 C 
ATOM     27  C   UNL     1      -2.169  19.106  48.849  1.00  0.00     0.036 C 
ATOM     28  C   UNL     1      -2.000  17.047  47.349  1.00  0.00     0.032 C 
ATOM     29  C   UNL     1      -2.643  17.662  48.603  1.00  0.00     0.114 C 
BRANCH  29  30
ATOM     30  O   UNL     1      -2.457  16.851  49.739  1.00  0.00    -0.393 OA
ATOM     31  H   UNL     1      -1.488  16.666  49.841  1.00  0.00     0.210 HD
ENDBRANCH  29  30
ENDBRANCH   9  11
ENDBRANCH   1   9
TORSDOF 7
ENDMDL
MODEL 4
REMARK VINA RESULT:    -6.773      3.050      8.444
REMARK INTER + INTRA:         -10.904
REMARK INTER:                  -9.322
REMARK INTRA:                  -1.582
REMARK UNBOUND:                -1.557
REMARK SMILES CC[C@@H](CC[C@H](C)[C@H]1CC[C@@H]2C3=CC[C@H]4C[C@H](O)CC[C@]4(C)[C@H]3CC[C@@]21C)C(C)C
REMARK SMILES IDX 5 1 4 2 3 3 2 4 1 5 28 6 29 7 30 8 6 9 7 10 8 11 9 12 26 13
REMARK SMILES IDX 10 14 11 15 25 16 27 17 12 18 24 19 23 20 13 21 21 22 14 23
REMARK SMILES IDX 15 24 20 25 22 26 16 27 19 28 17 29 18 30
REMARK H PARENT 18 31
REMARK Flexibility Score: inf
ROOT
ATOM      1  C   UNL     1       0.545  17.381  47.801  1.00  0.00     0.004 C 
ENDROOT
BRANCH   1   2
ATOM      2  C   UNL     1       1.876  17.396  47.022  1.00  0.00     0.004 C 
BRANCH   2   3
ATOM      3  C   UNL     1       3.071  17.948  47.848  1.00  0.00    -0.009 C 
BRANCH   3   4
ATOM      4  C   UNL     1       3.568  19.293  47.230  1.00  0.00     0.000 C 
ATOM      5  C   UNL     1       3.415  20.468  48.195  1.00  0.00     0.004 C 
ENDBRANCH   3   4
BRANCH   3   6
ATOM      6  C   UNL     1       4.219  16.902  48.059  1.00  0.00    -0.014 C 
ATOM      7  C   UNL     1       4.741  16.273  46.754  1.00  0.00     0.007 C 
ATOM      8  C   UNL     1       5.384  17.480  48.879  1.00  0.00     0.007 C 
ENDBRANCH   3   6
ENDBRANCH   2   3
ENDBRANCH   1   2
BRANCH   1   9
ATOM      9  C   UNL     1      -0.495  18.446  47.355  1.00  0.00    -0.011 C 
ATOM     10  C   UNL     1      -0.889  18.259  45.875  1.00  0.00     0.008 C 
BRANCH   9  11
ATOM     11  C   UNL     1      -0.110  19.921  47.771  1.00  0.00    -0.002 C 
ATOM     12  C   UNL     1       0.098  20.914  46.609  1.00  0.00     0.005 C 
ATOM     13  C   UNL     1      -1.042  20.669  48.817  1.00  0.00    -0.023 C 
ATOM     14  C   UNL     1      -0.191  22.281  47.189  1.00  0.00     0.009 C 
ATOM     15  C   UNL     1      -1.339  22.043  48.158  1.00  0.00     0.021 C 
ATOM     16  C   UNL     1      -0.253  20.856  50.145  1.00  0.00     0.008 C 
ATOM     17  C   UNL     1      -2.393  19.958  49.116  1.00  0.00     0.012 C 
ATOM     18  C   UNL     1      -1.544  23.235  49.091  1.00  0.00    -0.067 C 
ATOM     19  C   UNL     1      -0.949  21.792  51.128  1.00  0.00     0.009 C 
ATOM     20  C   UNL     1      -1.078  23.219  50.544  1.00  0.00     0.021 C 
ATOM     21  C   UNL     1      -2.031  24.378  48.551  1.00  0.00    -0.027 C 
ATOM     22  C   UNL     1      -1.939  24.194  51.428  1.00  0.00    -0.023 C 
ATOM     23  C   UNL     1      -2.275  25.653  49.323  1.00  0.00     0.031 C 
ATOM     24  C   UNL     1      -1.770  25.608  50.782  1.00  0.00     0.002 C 
ATOM     25  C   UNL     1      -1.362  24.244  52.878  1.00  0.00     0.010 C 
ATOM     26  C   UNL     1      -3.442  23.746  51.458  1.00  0.00     0.012 C 
ATOM     27  C   UNL     1      -2.420  26.725  51.625  1.00  0.00     0.036 C 
ATOM     28  C   UNL     1      -1.944  25.379  53.742  1.00  0.00     0.032 C 
ATOM     29  C   UNL     1      -1.881  26.760  53.066  1.00  0.00     0.114 C 
BRANCH  29  30
ATOM     30  O   UNL     1      -0.589  27.314  53.128  1.00  0.00    -0.393 OA
ATOM     31  H   UNL     1      -0.193  27.298  52.219  1.00  0.00     0.210 HD
ENDBRANCH  29  30
ENDBRANCH   9  11
ENDBRANCH   1   9
TORSDOF 7
ENDMDL
MODEL 5
REMARK VINA RESULT:    -6.772      7.388      9.432
REMARK INTER + INTRA:         -10.902
REMARK INTER:                  -9.706
REMARK INTRA:                  -1.195
REMARK UNBOUND:                -1.557
REMARK SMILES CC[C@@H](CC[C@H](C)[C@H]1CC[C@@H]2C3=CC[C@H]4C[C@H](O)CC[C@]4(C)[C@H]3CC[C@@]21C)C(C)C
REMARK SMILES IDX 5 1 4 2 3 3 2 4 1 5 28 6 29 7 30 8 6 9 7 10 8 11 9 12 26 13
REMARK SMILES IDX 10 14 11 15 25 16 27 17 12 18 24 19 23 20 13 21 21 22 14 23
REMARK SMILES IDX 15 24 20 25 22 26 16 27 19 28 17 29 18 30
REMARK H PARENT 18 31
REMARK Flexibility Score: inf
ROOT
ATOM      1  C   UNL     1       1.847  24.054  40.426  1.00  0.00     0.004 C 
ENDROOT
BRANCH   1   2
ATOM      2  C   UNL     1       0.658  24.461  39.531  1.00  0.00     0.004 C 
BRANCH   2   3
ATOM      3  C   UNL     1       0.085  25.867  39.863  1.00  0.00    -0.009 C 
BRANCH   3   4
ATOM      4  C   UNL     1      -1.373  25.731  40.406  1.00  0.00     0.000 C 
ATOM      5  C   UNL     1      -2.245  26.932  40.039  1.00  0.00     0.004 C 
ENDBRANCH   3   4
BRANCH   3   6
ATOM      6  C   UNL     1       0.213  26.887  38.681  1.00  0.00    -0.014 C 
ATOM      7  C   UNL     1       1.500  27.731  38.719  1.00  0.00     0.007 C 
ATOM      8  C   UNL     1       0.058  26.207  37.311  1.00  0.00     0.007 C 
ENDBRANCH   3   6
ENDBRANCH   2   3
ENDBRANCH   1   2
BRANCH   1   9
ATOM      9  C   UNL     1       3.206  23.895  39.690  1.00  0.00    -0.011 C 
ATOM     10  C   UNL     1       3.129  24.440  38.249  1.00  0.00     0.008 C 
BRANCH   9  11
ATOM     11  C   UNL     1       3.843  22.456  39.837  1.00  0.00    -0.002 C 
ATOM     12  C   UNL     1       4.540  21.900  38.579  1.00  0.00     0.005 C 
ATOM     13  C   UNL     1       4.852  22.206  41.037  1.00  0.00    -0.023 C 
ATOM     14  C   UNL     1       5.570  20.915  39.090  1.00  0.00     0.009 C 
ATOM     15  C   UNL     1       6.090  21.547  40.371  1.00  0.00     0.021 C 
ATOM     16  C   UNL     1       4.189  21.229  42.050  1.00  0.00     0.008 C 
ATOM     17  C   UNL     1       5.312  23.489  41.784  1.00  0.00     0.012 C 
ATOM     18  C   UNL     1       6.884  20.547  41.209  1.00  0.00    -0.067 C 
ATOM     19  C   UNL     1       5.162  20.709  43.104  1.00  0.00     0.009 C 
ATOM     20  C   UNL     1       6.300  19.887  42.456  1.00  0.00     0.021 C 
ATOM     21  C   UNL     1       8.088  20.145  40.734  1.00  0.00    -0.027 C 
ATOM     22  C   UNL     1       7.435  19.467  43.460  1.00  0.00    -0.023 C 
ATOM     23  C   UNL     1       8.991  19.151  41.423  1.00  0.00     0.031 C 
ATOM     24  C   UNL     1       8.359  18.487  42.666  1.00  0.00     0.002 C 
ATOM     25  C   UNL     1       6.816  18.690  44.665  1.00  0.00     0.010 C 
ATOM     26  C   UNL     1       8.225  20.722  43.973  1.00  0.00     0.012 C 
ATOM     27  C   UNL     1       9.441  17.842  43.556  1.00  0.00     0.036 C 
ATOM     28  C   UNL     1       7.857  17.984  45.553  1.00  0.00     0.032 C 
ATOM     29  C   UNL     1       8.841  17.102  44.765  1.00  0.00     0.114 C 
BRANCH  29  30
ATOM     30  O   UNL     1       8.260  15.875  44.392  1.00  0.00    -0.393 OA
ATOM     31  H   UNL     1       8.976  15.192  44.331  1.00  0.00     0.210 HD
ENDBRANCH  29  30
ENDBRANCH   9  11
ENDBRANCH   1   9
TORSDOF 7
ENDMDL
MODEL 6
REMARK VINA RESULT:    -6.618      2.358      5.209
REMARK INTER + INTRA:         -10.690
REMARK INTER:                  -8.641
REMARK INTRA:                  -2.049
REMARK UNBOUND:                -1.557
REMARK SMILES CC[C@@H](CC[C@H](C)[C@H]1CC[C@@H]2C3=CC[C@H]4C[C@H](O)CC[C@]4(C)[C@H]3CC[C@@]21C)C(C)C
REMARK SMILES IDX 5 1 4 2 3 3 2 4 1 5 28 6 29 7 30 8 6 9 7 10 8 11 9 12 26 13
REMARK SMILES IDX 10 14 11 15 25 16 27 17 12 18 24 19 23 20 13 21 21 22 14 23
REMARK SMILES IDX 15 24 20 25 22 26 16 27 19 28 17 29 18 30
REMARK H PARENT 18 31
REMARK Flexibility Score: inf
ROOT
ATOM      1  C   UNL     1      -1.318  27.220  50.758  1.00  0.00     0.004 C 
ENDROOT
BRANCH   1   2
ATOM      2  C   UNL     1      -1.452  27.531  52.263  1.00  0.00     0.004 C 
BRANCH   2   3
ATOM      3  C   UNL     1      -0.330  26.895  53.130  1.00  0.00    -0.009 C 
BRANCH   3   4
ATOM      4  C   UNL     1       0.838  26.409  52.214  1.00  0.00     0.000 C 
ATOM      5  C   UNL     1       2.116  27.223  52.420  1.00  0.00     0.004 C 
ENDBRANCH   3   4
BRANCH   3   6
ATOM      6  C   UNL     1      -0.851  25.788  54.109  1.00  0.00    -0.014 C 
ATOM      7  C   UNL     1      -2.383  25.636  54.125  1.00  0.00     0.007 C 
ATOM      8  C   UNL     1      -0.180  24.429  53.853  1.00  0.00     0.007 C 
ENDBRANCH   3   6
ENDBRANCH   2   3
ENDBRANCH   1   2
BRANCH   1   9
ATOM      9  C   UNL     1      -2.268  26.112  50.224  1.00  0.00    -0.011 C 
ATOM     10  C   UNL     1      -3.733  26.393  50.617  1.00  0.00     0.008 C 
BRANCH   9  11
ATOM     11  C   UNL     1      -1.759  24.645  50.517  1.00  0.00    -0.002 C 
ATOM     12  C   UNL     1      -2.727  23.744  51.310  1.00  0.00     0.005 C 
ATOM     13  C   UNL     1      -1.261  23.769  49.290  1.00  0.00    -0.023 C 
ATOM     14  C   UNL     1      -2.372  22.326  50.920  1.00  0.00     0.009 C 
ATOM     15  C   UNL     1      -2.016  22.421  49.445  1.00  0.00     0.021 C 
ATOM     16  C   UNL     1       0.275  23.556  49.419  1.00  0.00     0.008 C 
ATOM     17  C   UNL     1      -1.583  24.361  47.889  1.00  0.00     0.012 C 
ATOM     18  C   UNL     1      -1.303  21.162  48.956  1.00  0.00    -0.067 C 
ATOM     19  C   UNL     1       0.818  22.512  48.447  1.00  0.00     0.009 C 
ATOM     20  C   UNL     1       0.205  21.120  48.723  1.00  0.00     0.021 C 
ATOM     21  C   UNL     1      -2.031  20.022  48.867  1.00  0.00    -0.027 C 
ATOM     22  C   UNL     1       0.585  20.033  47.652  1.00  0.00    -0.023 C 
ATOM     23  C   UNL     1      -1.482  18.688  48.423  1.00  0.00     0.031 C 
ATOM     24  C   UNL     1       0.050  18.677  48.219  1.00  0.00     0.002 C 
ATOM     25  C   UNL     1       2.138  19.933  47.525  1.00  0.00     0.010 C 
ATOM     26  C   UNL     1      -0.052  20.370  46.258  1.00  0.00     0.012 C 
ATOM     27  C   UNL     1       0.484  17.466  47.368  1.00  0.00     0.036 C 
ATOM     28  C   UNL     1       2.621  18.707  46.727  1.00  0.00     0.032 C 
ATOM     29  C   UNL     1       2.012  17.380  47.209  1.00  0.00     0.114 C 
BRANCH  29  30
ATOM     30  O   UNL     1       2.634  16.916  48.384  1.00  0.00    -0.393 OA
ATOM     31  H   UNL     1       3.615  16.915  48.244  1.00  0.00     0.210 HD
ENDBRANCH  29  30
ENDBRANCH   9  11
ENDBRANCH   1   9
TORSDOF 7
ENDMDL
MODEL 7
REMARK VINA RESULT:    -6.584      2.247      4.897
REMARK INTER + INTRA:         -10.644
REMARK INTER:                  -9.103
REMARK INTRA:                  -1.541
REMARK UNBOUND:                -1.557
REMARK SMILES CC[C@@H](CC[C@H](C)[C@H]1CC[C@@H]2C3=CC[C@H]4C[C@H](O)CC[C@]4(C)[C@H]3CC[C@@]21C)C(C)C
REMARK SMILES IDX 5 1 4 2 3 3 2 4 1 5 28 6 29 7 30 8 6 9 7 10 8 11 9 12 26 13
REMARK SMILES IDX 10 14 11 15 25 16 27 17 12 18 24 19 23 20 13 21 21 22 14 23
REMARK SMILES IDX 15 24 20 25 22 26 16 27 19 28 17 29 18 30
REMARK H PARENT 18 31
REMARK Flexibility Score: inf
ROOT
ATOM      1  C   UNL     1       0.271  21.332  47.339  1.00  0.00     0.004 C 
ENDROOT
BRANCH   1   2
ATOM      2  C   UNL     1      -1.044  20.551  47.135  1.00  0.00     0.004 C 
BRANCH   2   3
ATOM      3  C   UNL     1      -0.915  19.032  47.434  1.00  0.00    -0.009 C 
BRANCH   3   4
ATOM      4  C   UNL     1      -0.681  18.246  46.105  1.00  0.00     0.000 C 
ATOM      5  C   UNL     1      -1.237  16.824  46.163  1.00  0.00     0.004 C 
ENDBRANCH   3   4
BRANCH   3   6
ATOM      6  C   UNL     1      -2.099  18.462  48.289  1.00  0.00    -0.014 C 
ATOM      7  C   UNL     1      -1.660  17.817  49.616  1.00  0.00     0.007 C 
ATOM      8  C   UNL     1      -3.189  19.517  48.540  1.00  0.00     0.007 C 
ENDBRANCH   3   6
ENDBRANCH   2   3
ENDBRANCH   1   2
BRANCH   1   9
ATOM      9  C   UNL     1       1.256  20.713  48.369  1.00  0.00    -0.011 C 
ATOM     10  C   UNL     1       1.002  21.264  49.787  1.00  0.00     0.008 C 
BRANCH   9  11
ATOM     11  C   UNL     1       2.764  20.731  47.895  1.00  0.00    -0.002 C 
ATOM     12  C   UNL     1       3.795  21.170  48.955  1.00  0.00     0.005 C 
ATOM     13  C   UNL     1       3.355  19.413  47.237  1.00  0.00    -0.023 C 
ATOM     14  C   UNL     1       5.098  20.519  48.545  1.00  0.00     0.009 C 
ATOM     15  C   UNL     1       4.684  19.162  47.999  1.00  0.00     0.021 C 
ATOM     16  C   UNL     1       3.629  19.687  45.730  1.00  0.00     0.008 C 
ATOM     17  C   UNL     1       2.456  18.151  47.375  1.00  0.00     0.012 C 
ATOM     18  C   UNL     1       5.819  18.498  47.223  1.00  0.00    -0.067 C 
ATOM     19  C   UNL     1       4.442  18.584  45.059  1.00  0.00     0.009 C 
ATOM     20  C   UNL     1       5.846  18.458  45.697  1.00  0.00     0.021 C 
ATOM     21  C   UNL     1       6.892  18.063  47.928  1.00  0.00    -0.027 C 
ATOM     22  C   UNL     1       6.675  17.228  45.175  1.00  0.00    -0.023 C 
ATOM     23  C   UNL     1       8.106  17.404  47.318  1.00  0.00     0.031 C 
ATOM     24  C   UNL     1       8.109  17.402  45.773  1.00  0.00     0.002 C 
ATOM     25  C   UNL     1       6.783  17.283  43.618  1.00  0.00     0.010 C 
ATOM     26  C   UNL     1       6.019  15.876  45.625  1.00  0.00     0.012 C 
ATOM     27  C   UNL     1       9.109  16.363  45.225  1.00  0.00     0.036 C 
ATOM     28  C   UNL     1       7.810  16.298  43.029  1.00  0.00     0.032 C 
ATOM     29  C   UNL     1       9.196  16.388  43.689  1.00  0.00     0.114 C 
BRANCH  29  30
ATOM     30  O   UNL     1       9.926  17.498  43.224  1.00  0.00    -0.393 OA
ATOM     31  H   UNL     1      10.768  17.563  43.743  1.00  0.00     0.210 HD
ENDBRANCH  29  30
ENDBRANCH   9  11
ENDBRANCH   1   9
TORSDOF 7
ENDMDL
MODEL 8
REMARK VINA RESULT:    -6.488      3.253      5.931
REMARK INTER + INTRA:         -10.511
REMARK INTER:                  -8.617
REMARK INTRA:                  -1.894
REMARK UNBOUND:                -1.557
REMARK SMILES CC[C@@H](CC[C@H](C)[C@H]1CC[C@@H]2C3=CC[C@H]4C[C@H](O)CC[C@]4(C)[C@H]3CC[C@@]21C)C(C)C
REMARK SMILES IDX 5 1 4 2 3 3 2 4 1 5 28 6 29 7 30 8 6 9 7 10 8 11 9 12 26 13
REMARK SMILES IDX 10 14 11 15 25 16 27 17 12 18 24 19 23 20 13 21 21 22 14 23
REMARK SMILES IDX 15 24 20 25 22 26 16 27 19 28 17 29 18 30
REMARK H PARENT 18 31
REMARK Flexibility Score: inf
ROOT
ATOM      1  C   UNL     1       0.841  26.409  52.315  1.00  0.00     0.004 C 
ENDROOT
BRANCH   1   2
ATOM      2  C   UNL     1       1.181  25.488  53.505  1.00  0.00     0.004 C 
BRANCH   2   3
ATOM      3  C   UNL     1       2.619  24.902  53.446  1.00  0.00    -0.009 C 
BRANCH   3   4
ATOM      4  C   UNL     1       3.431  25.601  52.310  1.00  0.00     0.000 C 
ATOM      5  C   UNL     1       3.395  24.813  51.000  1.00  0.00     0.004 C 
ENDBRANCH   3   4
BRANCH   3   6
ATOM      6  C   UNL     1       2.652  23.338  53.359  1.00  0.00    -0.014 C 
ATOM      7  C   UNL     1       3.988  22.714  53.800  1.00  0.00     0.007 C 
ATOM      8  C   UNL     1       1.482  22.693  54.120  1.00  0.00     0.007 C 
ENDBRANCH   3   6
ENDBRANCH   2   3
ENDBRANCH   1   2
BRANCH   1   9
ATOM      9  C   UNL     1      -0.325  25.920  51.412  1.00  0.00    -0.011 C 
ATOM     10  C   UNL     1      -1.585  26.788  51.607  1.00  0.00     0.008 C 
BRANCH   9  11
ATOM     11  C   UNL     1      -0.563  24.358  51.473  1.00  0.00    -0.002 C 
ATOM     12  C   UNL     1      -1.858  23.904  52.175  1.00  0.00     0.005 C 
ATOM     13  C   UNL     1      -0.498  23.541  50.113  1.00  0.00    -0.023 C 
ATOM     14  C   UNL     1      -2.192  22.556  51.573  1.00  0.00     0.009 C 
ATOM     15  C   UNL     1      -1.796  22.689  50.112  1.00  0.00     0.021 C 
ATOM     16  C   UNL     1       0.759  22.625  50.141  1.00  0.00     0.008 C 
ATOM     17  C   UNL     1      -0.473  24.412  48.825  1.00  0.00     0.012 C 
ATOM     18  C   UNL     1      -1.738  21.329  49.419  1.00  0.00    -0.067 C 
ATOM     19  C   UNL     1       0.780  21.603  49.008  1.00  0.00     0.009 C 
ATOM     20  C   UNL     1      -0.416  20.629  49.113  1.00  0.00     0.021 C 
ATOM     21  C   UNL     1      -2.910  20.683  49.205  1.00  0.00    -0.027 C 
ATOM     22  C   UNL     1      -0.558  19.658  47.884  1.00  0.00    -0.023 C 
ATOM     23  C   UNL     1      -3.031  19.326  48.553  1.00  0.00     0.031 C 
ATOM     24  C   UNL     1      -1.675  18.638  48.279  1.00  0.00     0.002 C 
ATOM     25  C   UNL     1       0.774  18.870  47.674  1.00  0.00     0.010 C 
ATOM     26  C   UNL     1      -0.931  20.450  46.582  1.00  0.00     0.012 C 
ATOM     27  C   UNL     1      -1.832  17.502  47.248  1.00  0.00     0.036 C 
ATOM     28  C   UNL     1       0.652  17.692  46.689  1.00  0.00     0.032 C 
ATOM     29  C   UNL     1      -0.515  16.742  47.009  1.00  0.00     0.114 C 
BRANCH  29  30
ATOM     30  O   UNL     1      -0.210  15.878  48.077  1.00  0.00    -0.393 OA
ATOM     31  H   UNL     1      -0.755  16.139  48.862  1.00  0.00     0.210 HD
ENDBRANCH  29  30
ENDBRANCH   9  11
ENDBRANCH   1   9
TORSDOF 7
ENDMDL
MODEL 9
REMARK VINA RESULT:    -6.443      3.086      8.852
REMARK INTER + INTRA:         -10.449
REMARK INTER:                  -8.373
REMARK INTRA:                  -2.077
REMARK UNBOUND:                -1.557
REMARK SMILES CC[C@@H](CC[C@H](C)[C@H]1CC[C@@H]2C3=CC[C@H]4C[C@H](O)CC[C@]4(C)[C@H]3CC[C@@]21C)C(C)C
REMARK SMILES IDX 5 1 4 2 3 3 2 4 1 5 28 6 29 7 30 8 6 9 7 10 8 11 9 12 26 13
REMARK SMILES IDX 10 14 11 15 25 16 27 17 12 18 24 19 23 20 13 21 21 22 14 23
REMARK SMILES IDX 15 24 20 25 22 26 16 27 19 28 17 29 18 30
REMARK H PARENT 18 31
REMARK Flexibility Score: inf
ROOT
ATOM      1  C   UNL     1       8.409  18.802  46.466  1.00  0.00     0.004 C 
ENDROOT
BRANCH   1   2
ATOM      2  C   UNL     1       8.168  19.452  45.088  1.00  0.00     0.004 C 
BRANCH   2   3
ATOM      3  C   UNL     1       8.620  18.565  43.895  1.00  0.00    -0.009 C 
BRANCH   3   4
ATOM      4  C   UNL     1       9.871  19.199  43.207  1.00  0.00     0.000 C 
ATOM      5  C   UNL     1       9.672  19.392  41.704  1.00  0.00     0.004 C 
ENDBRANCH   3   4
BRANCH   3   6
ATOM      6  C   UNL     1       7.464  18.231  42.892  1.00  0.00    -0.014 C 
ATOM      7  C   UNL     1       6.998  16.764  42.940  1.00  0.00     0.007 C 
ATOM      8  C   UNL     1       6.266  19.180  43.055  1.00  0.00     0.007 C 
ENDBRANCH   3   6
ENDBRANCH   2   3
ENDBRANCH   1   2
BRANCH   1   9
ATOM      9  C   UNL     1       7.352  17.746  46.894  1.00  0.00    -0.011 C 
ATOM     10  C   UNL     1       7.874  16.311  46.675  1.00  0.00     0.008 C 
BRANCH   9  11
ATOM     11  C   UNL     1       5.904  18.033  46.330  1.00  0.00    -0.002 C 
ATOM     12  C   UNL     1       5.076  16.791  45.942  1.00  0.00     0.005 C 
ATOM     13  C   UNL     1       4.934  18.946  47.194  1.00  0.00    -0.023 C 
ATOM     14  C   UNL     1       3.629  17.215  46.067  1.00  0.00     0.009 C 
ATOM     15  C   UNL     1       3.611  18.138  47.274  1.00  0.00     0.021 C 
ATOM     16  C   UNL     1       4.712  20.290  46.442  1.00  0.00     0.008 C 
ATOM     17  C   UNL     1       5.426  19.240  48.640  1.00  0.00     0.012 C 
ATOM     18  C   UNL     1       2.310  18.934  47.355  1.00  0.00    -0.067 C 
ATOM     19  C   UNL     1       3.593  21.135  47.044  1.00  0.00     0.009 C 
ATOM     20  C   UNL     1       2.232  20.406  46.955  1.00  0.00     0.021 C 
ATOM     21  C   UNL     1       1.177  18.257  47.659  1.00  0.00    -0.027 C 
ATOM     22  C   UNL     1       1.065  21.139  47.710  1.00  0.00    -0.023 C 
ATOM     23  C   UNL     1      -0.193  18.883  47.759  1.00  0.00     0.031 C 
ATOM     24  C   UNL     1      -0.238  20.366  47.325  1.00  0.00     0.002 C 
ATOM     25  C   UNL     1       0.936  22.606  47.192  1.00  0.00     0.010 C 
ATOM     26  C   UNL     1       1.307  21.132  49.261  1.00  0.00     0.012 C 
ATOM     27  C   UNL     1      -1.514  21.055  47.852  1.00  0.00     0.036 C 
ATOM     28  C   UNL     1      -0.350  23.319  47.649  1.00  0.00     0.032 C 
ATOM     29  C   UNL     1      -1.631  22.513  47.373  1.00  0.00     0.114 C 
BRANCH  29  30
ATOM     30  O   UNL     1      -2.016  22.590  46.020  1.00  0.00    -0.393 OA
ATOM     31  H   UNL     1      -2.646  21.849  45.828  1.00  0.00     0.210 HD
ENDBRANCH  29  30
ENDBRANCH   9  11
ENDBRANCH   1   9
TORSDOF 7
ENDMDL
