MODEL 1
REMARK VINA RESULT:    -3.526      0.000      0.000
REMARK INTER + INTRA:          -5.257
REMARK INTER:                  -4.969
REMARK INTRA:                  -0.289
REMARK UNBOUND:                -0.289
REMARK SMILES CC1=CCC(=C(C)C)CCC(C)=CCC1
REMARK SMILES IDX 5 1 6 2 7 3 8 4 9 5 10 6 11 7 12 8 13 9 4 11 3 12 2 13 1 14
REMARK SMILES IDX 15 15 14 16
REMARK H PARENT
REMARK Flexibility Score: 60.00
ROOT
ATOM      1  C   UNL     1     134.638 139.136 132.353  1.00  0.00    -0.067 C 
ATOM      2  C   UNL     1     135.513 139.349 133.386  1.00  0.00    -0.077 C 
ATOM      3  C   UNL     1     136.614 140.383 133.285  1.00  0.00     0.039 C 
ATOM      4  C   UNL     1     135.409 138.574 134.683  1.00  0.00     0.039 C 
ENDROOT
BRANCH   1   5
ATOM      5  C   UNL     1     134.831 139.794 130.985  1.00  0.00     0.035 C 
BRANCH   5   6
ATOM      6  C   UNL     1     135.510 138.886 129.943  1.00  0.00     0.035 C 
BRANCH   6   7
ATOM      7  C   UNL     1     134.679 138.751 128.679  1.00  0.00    -0.077 C 
ATOM      8  C   UNL     1     134.379 139.995 127.882  1.00  0.00     0.039 C 
ATOM      9  C   UNL     1     134.226 137.569 128.204  1.00  0.00    -0.028 CG0
ATOM     10  G   UNL     1     134.293 136.247 128.927  1.00  0.00     0.000 G0
ENDBRANCH   6   7
ENDBRANCH   5   6
ENDBRANCH   1   5
BRANCH   1  11
ATOM     11  C   UNL     1     133.511 138.115 132.453  1.00  0.00     0.058 C 
BRANCH  11  12
ATOM     12  C   UNL     1     133.878 136.641 132.427  1.00  0.00    -0.024 C 
ATOM     13  C   UNL     1     133.864 135.772 131.383  1.00  0.00    -0.077 C 
ATOM     14  C   UNL     1     134.438 134.397 131.616  1.00  0.00     0.039 C 
BRANCH  13  15
ATOM     15  C   UNL     1     133.250 136.056 130.024  1.00  0.00     0.034 C 
BRANCH  15  16
ATOM     16  C   UNL     1     134.282 136.236 128.903  1.00  0.00     0.032 CG0
ATOM     17  G   UNL     1     134.232 137.571 128.203  1.00  0.00     0.000 G0
ENDBRANCH  15  16
ENDBRANCH  13  15
ENDBRANCH  11  12
ENDBRANCH   1  11
TORSDOF 0
ENDMDL
MODEL 2
REMARK VINA RESULT:    -3.511      2.870      4.374
REMARK INTER + INTRA:          -5.237
REMARK INTER:                  -4.818
REMARK INTRA:                  -0.418
REMARK UNBOUND:                -0.289
REMARK SMILES CC1=CCC(=C(C)C)CCC(C)=CCC1
REMARK SMILES IDX 5 1 6 2 7 3 8 4 9 5 10 6 11 7 12 8 13 9 4 11 3 12 2 13 1 14
REMARK SMILES IDX 15 15 14 16
REMARK H PARENT
REMARK Flexibility Score: 60.00
ROOT
ATOM      1  C   UNL     1     137.206 139.111 133.578  1.00  0.00    -0.067 C 
ATOM      2  C   UNL     1     136.984 139.784 134.751  1.00  0.00    -0.077 C 
ATOM      3  C   UNL     1     138.126 140.382 135.544  1.00  0.00     0.039 C 
ATOM      4  C   UNL     1     135.586 139.975 135.302  1.00  0.00     0.039 C 
ENDROOT
BRANCH   1   5
ATOM      5  C   UNL     1     138.619 138.773 133.098  1.00  0.00     0.035 C 
BRANCH   5   6
ATOM      6  C   UNL     1     139.117 139.661 131.942  1.00  0.00     0.035 C 
BRANCH   6   7
ATOM      7  C   UNL     1     139.598 138.838 130.760  1.00  0.00    -0.077 C 
ATOM      8  C   UNL     1     140.922 138.126 130.873  1.00  0.00     0.039 C 
ATOM      9  C   UNL     1     138.885 138.674 129.622  1.00  0.00    -0.028 CG0
ATOM     10  G   UNL     1     137.622 139.415 129.262  1.00  0.00     0.000 G0
ENDBRANCH   6   7
ENDBRANCH   5   6
ENDBRANCH   1   5
BRANCH   1  11
ATOM     11  C   UNL     1     136.061 138.525 132.759  1.00  0.00     0.058 C 
BRANCH  11  12
ATOM     12  C   UNL     1     135.332 139.443 131.794  1.00  0.00    -0.024 C 
ATOM     13  C   UNL     1     135.357 139.454 130.436  1.00  0.00    -0.077 C 
ATOM     14  C   UNL     1     134.399 140.382 129.731  1.00  0.00     0.039 C 
BRANCH  13  15
ATOM     15  C   UNL     1     136.323 138.657 129.578  1.00  0.00     0.034 C 
BRANCH  15  16
ATOM     16  C   UNL     1     137.616 139.409 129.239  1.00  0.00     0.032 CG0
ATOM     17  G   UNL     1     138.886 138.689 129.616  1.00  0.00     0.000 G0
ENDBRANCH  15  16
ENDBRANCH  13  15
ENDBRANCH  11  12
ENDBRANCH   1  11
TORSDOF 0
ENDMDL
MODEL 3
REMARK VINA RESULT:    -3.446      4.142      6.233
REMARK INTER + INTRA:          -5.145
REMARK INTER:                  -4.768
REMARK INTRA:                  -0.377
REMARK UNBOUND:                -0.289
REMARK SMILES CC1=CCC(=C(C)C)CCC(C)=CCC1
REMARK SMILES IDX 5 1 6 2 7 3 8 4 9 5 10 6 11 7 12 8 13 9 4 11 3 12 2 13 1 14
REMARK SMILES IDX 15 15 14 16
REMARK H PARENT
REMARK Flexibility Score: 60.00
ROOT
ATOM      1  C   UNL     1     139.232 138.326 131.756  1.00  0.00    -0.067 C 
ATOM      2  C   UNL     1     140.335 138.402 130.945  1.00  0.00    -0.077 C 
ATOM      3  C   UNL     1     140.334 139.252 129.693  1.00  0.00     0.039 C 
ATOM      4  C   UNL     1     141.610 137.653 131.272  1.00  0.00     0.039 C 
ENDROOT
BRANCH   1   5
ATOM      5  C   UNL     1     137.892 138.945 131.352  1.00  0.00     0.035 C 
BRANCH   5   6
ATOM      6  C   UNL     1     137.343 139.965 132.367  1.00  0.00     0.035 C 
BRANCH   6   7
ATOM      7  C   UNL     1     136.057 139.486 133.016  1.00  0.00    -0.077 C 
ATOM      8  C   UNL     1     134.842 139.292 132.143  1.00  0.00     0.039 C 
ATOM      9  C   UNL     1     135.948 139.183 134.329  1.00  0.00    -0.028 CG0
ATOM     10  G   UNL     1     136.994 139.450 135.382  1.00  0.00     0.000 G0
ENDBRANCH   6   7
ENDBRANCH   5   6
ENDBRANCH   1   5
BRANCH   1  11
ATOM     11  C   UNL     1     139.229 137.492 133.031  1.00  0.00     0.058 C 
BRANCH  11  12
ATOM     12  C   UNL     1     139.848 138.095 134.280  1.00  0.00    -0.024 C 
ATOM     13  C   UNL     1     139.284 138.318 135.496  1.00  0.00    -0.077 C 
ATOM     14  C   UNL     1     140.192 138.787 136.606  1.00  0.00     0.039 C 
BRANCH  13  15
ATOM     15  C   UNL     1     137.802 138.201 135.801  1.00  0.00     0.034 C 
BRANCH  15  16
ATOM     16  C   UNL     1     136.986 139.435 135.399  1.00  0.00     0.032 CG0
ATOM     17  G   UNL     1     135.952 139.192 134.329  1.00  0.00     0.000 G0
ENDBRANCH  15  16
ENDBRANCH  13  15
ENDBRANCH  11  12
ENDBRANCH   1  11
TORSDOF 0
ENDMDL
MODEL 4
REMARK VINA RESULT:    -3.397      2.742      5.144
REMARK INTER + INTRA:          -5.076
REMARK INTER:                  -4.905
REMARK INTRA:                  -0.172
REMARK UNBOUND:                -0.289
REMARK SMILES CC1=CCC(=C(C)C)CCC(C)=CCC1
REMARK SMILES IDX 5 1 6 2 7 3 8 4 9 5 10 6 11 7 12 8 13 9 4 11 3 12 2 13 1 14
REMARK SMILES IDX 15 15 14 16
REMARK H PARENT
REMARK Flexibility Score: 60.00
ROOT
ATOM      1  C   UNL     1     134.647 136.641 132.522  1.00  0.00    -0.067 C 
ATOM      2  C   UNL     1     134.039 135.629 131.826  1.00  0.00    -0.077 C 
ATOM      3  C   UNL     1     134.721 134.294 131.621  1.00  0.00     0.039 C 
ATOM      4  C   UNL     1     132.650 135.794 131.244  1.00  0.00     0.039 C 
ENDROOT
BRANCH   1   5
ATOM      5  C   UNL     1     136.106 136.544 132.973  1.00  0.00     0.035 C 
BRANCH   5   6
ATOM      6  C   UNL     1     137.125 136.940 131.888  1.00  0.00     0.035 C 
BRANCH   6   7
ATOM      7  C   UNL     1     138.308 137.695 132.467  1.00  0.00    -0.077 C 
ATOM      8  C   UNL     1     139.312 136.932 133.294  1.00  0.00     0.039 C 
ATOM      9  C   UNL     1     138.536 139.010 132.249  1.00  0.00    -0.028 CG0
ATOM     10  G   UNL     1     137.581 139.969 131.582  1.00  0.00     0.000 G0
ENDBRANCH   6   7
ENDBRANCH   5   6
ENDBRANCH   1   5
BRANCH   1  11
ATOM     11  C   UNL     1     133.960 137.982 132.756  1.00  0.00     0.058 C 
BRANCH  11  12
ATOM     12  C   UNL     1     134.048 139.029 131.660  1.00  0.00    -0.024 C 
ATOM     13  C   UNL     1     135.052 139.901 131.385  1.00  0.00    -0.077 C 
ATOM     14  C   UNL     1     134.933 140.724 130.126  1.00  0.00     0.039 C 
BRANCH  13  15
ATOM     15  C   UNL     1     136.248 140.162 132.283  1.00  0.00     0.034 C 
BRANCH  15  16
ATOM     16  C   UNL     1     137.600 139.980 131.584  1.00  0.00     0.032 CG0
ATOM     17  G   UNL     1     138.538 139.009 132.256  1.00  0.00     0.000 G0
ENDBRANCH  15  16
ENDBRANCH  13  15
ENDBRANCH  11  12
ENDBRANCH   1  11
TORSDOF 0
ENDMDL
MODEL 5
REMARK VINA RESULT:    -3.395      3.359      4.396
REMARK INTER + INTRA:          -5.073
REMARK INTER:                  -4.777
REMARK INTRA:                  -0.296
REMARK UNBOUND:                -0.289
REMARK SMILES CC1=CCC(=C(C)C)CCC(C)=CCC1
REMARK SMILES IDX 5 1 6 2 7 3 8 4 9 5 10 6 11 7 12 8 13 9 4 11 3 12 2 13 1 14
REMARK SMILES IDX 15 15 14 16
REMARK H PARENT
REMARK Flexibility Score: 60.00
ROOT
ATOM      1  C   UNL     1     136.777 134.090 132.661  1.00  0.00    -0.067 C 
ATOM      2  C   UNL     1     137.064 134.081 134.002  1.00  0.00    -0.077 C 
ATOM      3  C   UNL     1     138.428 134.485 134.517  1.00  0.00     0.039 C 
ATOM      4  C   UNL     1     136.025 133.684 135.030  1.00  0.00     0.039 C 
ENDROOT
BRANCH   1   5
ATOM      5  C   UNL     1     137.860 134.333 131.608  1.00  0.00     0.035 C 
BRANCH   5   6
ATOM      6  C   UNL     1     137.423 135.268 130.465  1.00  0.00     0.035 C 
BRANCH   6   7
ATOM      7  C   UNL     1     137.279 134.526 129.147  1.00  0.00    -0.077 C 
ATOM      8  C   UNL     1     138.467 133.760 128.621  1.00  0.00     0.039 C 
ATOM      9  C   UNL     1     136.130 134.479 128.436  1.00  0.00    -0.028 CG0
ATOM     10  G   UNL     1     134.890 135.291 128.715  1.00  0.00     0.000 G0
ENDBRANCH   6   7
ENDBRANCH   5   6
ENDBRANCH   1   5
BRANCH   1  11
ATOM     11  C   UNL     1     135.399 133.709 132.132  1.00  0.00     0.058 C 
BRANCH  11  12
ATOM     12  C   UNL     1     134.362 134.808 131.986  1.00  0.00    -0.024 C 
ATOM     13  C   UNL     1     133.600 135.131 130.908  1.00  0.00    -0.077 C 
ATOM     14  C   UNL     1     132.530 136.177 131.103  1.00  0.00     0.039 C 
BRANCH  13  15
ATOM     15  C   UNL     1     133.792 134.573 129.510  1.00  0.00     0.034 C 
BRANCH  15  16
ATOM     16  C   UNL     1     134.879 135.289 128.700  1.00  0.00     0.032 CG0
ATOM     17  G   UNL     1     136.117 134.471 128.435  1.00  0.00     0.000 G0
ENDBRANCH  15  16
ENDBRANCH  13  15
ENDBRANCH  11  12
ENDBRANCH   1  11
TORSDOF 0
ENDMDL
MODEL 6
REMARK VINA RESULT:    -3.325      3.372      5.434
REMARK INTER + INTRA:          -4.974
REMARK INTER:                  -4.602
REMARK INTRA:                  -0.372
REMARK UNBOUND:                -0.289
REMARK SMILES CC1=CCC(=C(C)C)CCC(C)=CCC1
REMARK SMILES IDX 5 1 6 2 7 3 8 4 9 5 10 6 11 7 12 8 13 9 4 11 3 12 2 13 1 14
REMARK SMILES IDX 15 15 14 16
REMARK H PARENT
REMARK Flexibility Score: 60.00
ROOT
ATOM      1  C   UNL     1     139.218 137.998 132.380  1.00  0.00    -0.067 C 
ATOM      2  C   UNL     1     140.329 137.268 132.045  1.00  0.00    -0.077 C 
ATOM      3  C   UNL     1     140.611 135.925 132.683  1.00  0.00     0.039 C 
ATOM      4  C   UNL     1     141.318 137.764 131.009  1.00  0.00     0.039 C 
ENDROOT
BRANCH   1   5
ATOM      5  C   UNL     1     138.303 137.586 133.535  1.00  0.00     0.035 C 
BRANCH   5   6
ATOM      6  C   UNL     1     136.893 137.154 133.093  1.00  0.00     0.035 C 
BRANCH   6   7
ATOM      7  C   UNL     1     135.813 138.036 133.694  1.00  0.00    -0.077 C 
ATOM      8  C   UNL     1     135.553 137.942 135.177  1.00  0.00     0.039 C 
ATOM      9  C   UNL     1     135.096 138.934 132.981  1.00  0.00    -0.028 CG0
ATOM     10  G   UNL     1     135.103 139.071 131.480  1.00  0.00     0.000 G0
ENDBRANCH   6   7
ENDBRANCH   5   6
ENDBRANCH   1   5
BRANCH   1  11
ATOM     11  C   UNL     1     138.912 139.341 131.727  1.00  0.00     0.058 C 
BRANCH  11  12
ATOM     12  C   UNL     1     138.263 139.335 130.354  1.00  0.00    -0.024 C 
ATOM     13  C   UNL     1     137.040 139.793 129.981  1.00  0.00    -0.077 C 
ATOM     14  C   UNL     1     136.722 139.803 128.506  1.00  0.00     0.039 C 
BRANCH  13  15
ATOM     15  C   UNL     1     135.946 140.228 130.939  1.00  0.00     0.034 C 
BRANCH  15  16
ATOM     16  C   UNL     1     135.094 139.070 131.474  1.00  0.00     0.032 CG0
ATOM     17  G   UNL     1     135.086 138.929 132.976  1.00  0.00     0.000 G0
ENDBRANCH  15  16
ENDBRANCH  13  15
ENDBRANCH  11  12
ENDBRANCH   1  11
TORSDOF 0
ENDMDL
MODEL 7
REMARK VINA RESULT:    -3.304      4.010      5.903
REMARK INTER + INTRA:          -4.944
REMARK INTER:                  -4.725
REMARK INTRA:                  -0.219
REMARK UNBOUND:                -0.289
REMARK SMILES CC1=CCC(=C(C)C)CCC(C)=CCC1
REMARK SMILES IDX 5 1 6 2 7 3 8 4 9 5 10 6 11 7 12 8 13 9 4 11 3 12 2 13 1 14
REMARK SMILES IDX 15 15 14 16
REMARK H PARENT
REMARK Flexibility Score: 60.00
ROOT
ATOM      1  C   UNL     1     137.052 138.626 133.239  1.00  0.00    -0.067 C 
ATOM      2  C   UNL     1     136.004 139.328 132.701  1.00  0.00    -0.077 C 
ATOM      3  C   UNL     1     134.593 138.783 132.733  1.00  0.00     0.039 C 
ATOM      4  C   UNL     1     136.207 140.688 132.065  1.00  0.00     0.039 C 
ENDROOT
BRANCH   1   5
ATOM      5  C   UNL     1     136.887 137.188 133.736  1.00  0.00     0.035 C 
BRANCH   5   6
ATOM      6  C   UNL     1     137.122 136.120 132.652  1.00  0.00     0.035 C 
BRANCH   6   7
ATOM      7  C   UNL     1     138.239 135.163 133.030  1.00  0.00    -0.077 C 
ATOM      8  C   UNL     1     138.021 134.231 134.196  1.00  0.00     0.039 C 
ATOM      9  C   UNL     1     139.407 135.070 132.354  1.00  0.00    -0.028 CG0
ATOM     10  G   UNL     1     139.869 136.007 131.267  1.00  0.00     0.000 G0
ENDBRANCH   6   7
ENDBRANCH   5   6
ENDBRANCH   1   5
BRANCH   1  11
ATOM     11  C   UNL     1     138.473 139.176 133.234  1.00  0.00     0.058 C 
BRANCH  11  12
ATOM     12  C   UNL     1     139.151 139.390 131.892  1.00  0.00    -0.024 C 
ATOM     13  C   UNL     1     139.974 138.557 131.203  1.00  0.00    -0.077 C 
ATOM     14  C   UNL     1     140.373 138.972 129.808  1.00  0.00     0.039 C 
BRANCH  13  15
ATOM     15  C   UNL     1     140.577 137.279 131.755  1.00  0.00     0.034 C 
BRANCH  15  16
ATOM     16  C   UNL     1     139.886 136.002 131.260  1.00  0.00     0.032 CG0
ATOM     17  G   UNL     1     139.412 135.073 132.349  1.00  0.00     0.000 G0
ENDBRANCH  15  16
ENDBRANCH  13  15
ENDBRANCH  11  12
ENDBRANCH   1  11
TORSDOF 0
ENDMDL
MODEL 8
REMARK VINA RESULT:    -3.278      3.729      5.373
REMARK INTER + INTRA:          -4.908
REMARK INTER:                  -4.696
REMARK INTRA:                  -0.212
REMARK UNBOUND:                -0.289
REMARK SMILES CC1=CCC(=C(C)C)CCC(C)=CCC1
REMARK SMILES IDX 5 1 6 2 7 3 8 4 9 5 10 6 11 7 12 8 13 9 4 11 3 12 2 13 1 14
REMARK SMILES IDX 15 15 14 16
REMARK H PARENT
REMARK Flexibility Score: 60.00
ROOT
ATOM      1  C   UNL     1     138.786 134.621 131.577  1.00  0.00    -0.067 C 
ATOM      2  C   UNL     1     138.591 133.570 130.719  1.00  0.00    -0.077 C 
ATOM      3  C   UNL     1     139.165 133.581 129.319  1.00  0.00     0.039 C 
ATOM      4  C   UNL     1     137.807 132.343 131.136  1.00  0.00     0.039 C 
ENDROOT
BRANCH   1   5
ATOM      5  C   UNL     1     139.434 135.928 131.116  1.00  0.00     0.035 C 
BRANCH   5   6
ATOM      6  C   UNL     1     138.457 136.906 130.438  1.00  0.00     0.035 C 
BRANCH   6   7
ATOM      7  C   UNL     1     138.506 138.287 131.068  1.00  0.00    -0.077 C 
ATOM      8  C   UNL     1     139.737 139.131 130.851  1.00  0.00     0.039 C 
ATOM      9  C   UNL     1     137.489 138.821 131.781  1.00  0.00    -0.028 CG0
ATOM     10  G   UNL     1     136.250 138.088 132.229  1.00  0.00     0.000 G0
ENDBRANCH   6   7
ENDBRANCH   5   6
ENDBRANCH   1   5
BRANCH   1  11
ATOM     11  C   UNL     1     138.233 134.611 132.998  1.00  0.00     0.058 C 
BRANCH  11  12
ATOM     12  C   UNL     1     136.727 134.688 133.178  1.00  0.00    -0.024 C 
ATOM     13  C   UNL     1     135.931 135.783 133.285  1.00  0.00    -0.077 C 
ATOM     14  C   UNL     1     134.439 135.559 133.294  1.00  0.00     0.039 C 
BRANCH  13  15
ATOM     15  C   UNL     1     136.429 137.206 133.466  1.00  0.00     0.034 C 
BRANCH  15  16
ATOM     16  C   UNL     1     136.244 138.090 132.227  1.00  0.00     0.032 CG0
ATOM     17  G   UNL     1     137.481 138.830 131.785  1.00  0.00     0.000 G0
ENDBRANCH  15  16
ENDBRANCH  13  15
ENDBRANCH  11  12
ENDBRANCH   1  11
TORSDOF 0
ENDMDL
MODEL 9
REMARK VINA RESULT:    -3.276      3.437      5.712
REMARK INTER + INTRA:          -4.905
REMARK INTER:                  -4.584
REMARK INTRA:                  -0.321
REMARK UNBOUND:                -0.289
REMARK SMILES CC1=CCC(=C(C)C)CCC(C)=CCC1
REMARK SMILES IDX 5 1 6 2 7 3 8 4 9 5 10 6 11 7 12 8 13 9 4 11 3 12 2 13 1 14
REMARK SMILES IDX 15 15 14 16
REMARK H PARENT
REMARK Flexibility Score: 60.00
ROOT
ATOM      1  C   UNL     1     139.271 138.897 131.895  1.00  0.00    -0.067 C 
ATOM      2  C   UNL     1     140.214 138.551 130.963  1.00  0.00    -0.077 C 
ATOM      3  C   UNL     1     141.206 137.438 131.222  1.00  0.00     0.039 C 
ATOM      4  C   UNL     1     140.299 139.256 129.625  1.00  0.00     0.039 C 
ENDROOT
BRANCH   1   5
ATOM      5  C   UNL     1     139.279 138.306 133.306  1.00  0.00     0.035 C 
BRANCH   5   6
ATOM      6  C   UNL     1     138.390 137.058 133.468  1.00  0.00     0.035 C 
BRANCH   6   7
ATOM      7  C   UNL     1     137.372 137.226 134.582  1.00  0.00    -0.077 C 
ATOM      8  C   UNL     1     137.815 136.977 136.002  1.00  0.00     0.039 C 
ATOM      9  C   UNL     1     136.097 137.627 134.377  1.00  0.00    -0.028 CG0
ATOM     10  G   UNL     1     135.429 137.780 133.034  1.00  0.00     0.000 G0
ENDBRANCH   6   7
ENDBRANCH   5   6
ENDBRANCH   1   5
BRANCH   1  11
ATOM     11  C   UNL     1     138.252 140.001 131.636  1.00  0.00     0.058 C 
BRANCH  11  12
ATOM     12  C   UNL     1     137.056 139.676 130.758  1.00  0.00    -0.024 C 
ATOM     13  C   UNL     1     135.768 139.437 131.117  1.00  0.00    -0.077 C 
ATOM     14  C   UNL     1     134.753 139.300 130.009  1.00  0.00     0.039 C 
BRANCH  13  15
ATOM     15  C   UNL     1     135.287 139.228 132.541  1.00  0.00     0.034 C 
BRANCH  15  16
ATOM     16  C   UNL     1     135.423 137.783 133.036  1.00  0.00     0.032 CG0
ATOM     17  G   UNL     1     136.108 137.630 134.370  1.00  0.00     0.000 G0
ENDBRANCH  15  16
ENDBRANCH  13  15
ENDBRANCH  11  12
ENDBRANCH   1  11
TORSDOF 0
ENDMDL
