MODEL 1
REMARK VINA RESULT:    -7.261      0.000      0.000
REMARK INTER + INTRA:          -8.025
REMARK INTER:                  -7.898
REMARK INTRA:                  -0.127
REMARK UNBOUND:                -0.127
REMARK SMILES Cc1ccc(C(C)C)cc1O
REMARK SMILES IDX 1 1 2 2 10 3 9 4 5 5 4 6 3 7 11 8 6 10 7 11 8 12
REMARK H PARENT 11 9
REMARK Flexibility Score: inf
ROOT
ATOM      1  C   UNL     1     -12.873   4.429  -8.201  1.00  0.00     0.048 C 
ATOM      2  C   UNL     1     -12.644   3.087  -8.840  1.00  0.00    -0.009 A 
ATOM      3  C   UNL     1     -11.360   2.498  -8.865  1.00  0.00     0.118 A 
ATOM      4  C   UNL     1     -11.181   1.247  -9.467  1.00  0.00     0.050 A 
ATOM      5  C   UNL     1     -12.262   0.564 -10.052  1.00  0.00    -0.042 A 
ATOM      6  C   UNL     1     -13.534   1.157 -10.023  1.00  0.00     0.004 A 
ATOM      7  C   UNL     1     -13.723   2.404  -9.425  1.00  0.00     0.007 A 
ENDROOT
BRANCH   3   8
ATOM      8  O   UNL     1     -10.248   3.126  -8.302  1.00  0.00    -0.508 OA
ATOM      9  H   UNL     1     -10.220   3.440  -7.339  1.00  0.00     0.293 HD
ENDBRANCH   3   8
BRANCH   5  10
ATOM     10  C   UNL     1     -12.072  -0.791 -10.707  1.00  0.00     0.013 C 
ATOM     11  C   UNL     1     -11.000  -1.611  -9.979  1.00  0.00     0.012 C 
ATOM     12  C   UNL     1     -13.397  -1.560 -10.782  1.00  0.00     0.012 C 
ENDBRANCH   5  10
TORSDOF 2
ENDMDL
MODEL 2
REMARK VINA RESULT:    -6.831      1.535      4.278
REMARK INTER + INTRA:          -7.556
REMARK INTER:                  -7.432
REMARK INTRA:                  -0.124
REMARK UNBOUND:                -0.127
REMARK SMILES Cc1ccc(C(C)C)cc1O
REMARK SMILES IDX 1 1 2 2 10 3 9 4 5 5 4 6 3 7 11 8 6 10 7 11 8 12
REMARK H PARENT 11 9
REMARK Flexibility Score: inf
ROOT
ATOM      1  C   UNL     1     -12.877  -1.657 -10.949  1.00  0.00     0.048 C 
ATOM      2  C   UNL     1     -12.644  -0.266 -10.425  1.00  0.00    -0.009 A 
ATOM      3  C   UNL     1     -11.367   0.143  -9.980  1.00  0.00     0.118 A 
ATOM      4  C   UNL     1     -11.182   1.445  -9.499  1.00  0.00     0.050 A 
ATOM      5  C   UNL     1     -12.252   2.356  -9.450  1.00  0.00    -0.042 A 
ATOM      6  C   UNL     1     -13.517   1.942  -9.895  1.00  0.00     0.004 A 
ATOM      7  C   UNL     1     -13.711   0.645 -10.376  1.00  0.00     0.007 A 
ENDROOT
BRANCH   3   8
ATOM      8  O   UNL     1     -10.266  -0.715 -10.002  1.00  0.00    -0.508 OA
ATOM      9  H   UNL     1      -9.428  -0.553  -9.457  1.00  0.00     0.293 HD
ENDBRANCH   3   8
BRANCH   5  10
ATOM     10  C   UNL     1     -12.056   3.768  -8.930  1.00  0.00     0.013 C 
ATOM     11  C   UNL     1     -13.267   4.227  -8.109  1.00  0.00     0.012 C 
ATOM     12  C   UNL     1     -10.762   3.883  -8.116  1.00  0.00     0.012 C 
ENDBRANCH   5  10
TORSDOF 2
ENDMDL
MODEL 3
REMARK VINA RESULT:    -6.670      1.581      2.224
REMARK INTER + INTRA:          -7.381
REMARK INTER:                  -7.254
REMARK INTRA:                  -0.128
REMARK UNBOUND:                -0.127
REMARK SMILES Cc1ccc(C(C)C)cc1O
REMARK SMILES IDX 1 1 2 2 10 3 9 4 5 5 4 6 3 7 11 8 6 10 7 11 8 12
REMARK H PARENT 11 9
REMARK Flexibility Score: inf
ROOT
ATOM      1  C   UNL     1     -11.090   3.873  -8.207  1.00  0.00     0.048 C 
ATOM      2  C   UNL     1     -11.840   2.753  -8.875  1.00  0.00    -0.009 A 
ATOM      3  C   UNL     1     -13.245   2.795  -9.015  1.00  0.00     0.118 A 
ATOM      4  C   UNL     1     -13.914   1.737  -9.642  1.00  0.00     0.050 A 
ATOM      5  C   UNL     1     -13.206   0.627 -10.137  1.00  0.00    -0.042 A 
ATOM      6  C   UNL     1     -11.810   0.594  -9.994  1.00  0.00     0.004 A 
ATOM      7  C   UNL     1     -11.135   1.644  -9.370  1.00  0.00     0.007 A 
ENDROOT
BRANCH   3   8
ATOM      8  O   UNL     1     -14.004   3.869  -8.543  1.00  0.00    -0.508 OA
ATOM      9  H   UNL     1     -14.050   4.762  -9.018  1.00  0.00     0.293 HD
ENDBRANCH   3   8
BRANCH   5  10
ATOM     10  C   UNL     1     -13.926  -0.522 -10.818  1.00  0.00     0.013 C 
ATOM     11  C   UNL     1     -12.962  -1.674 -11.125  1.00  0.00     0.012 C 
ATOM     12  C   UNL     1     -15.114  -1.006  -9.978  1.00  0.00     0.012 C 
ENDBRANCH   5  10
TORSDOF 2
ENDMDL
MODEL 4
REMARK VINA RESULT:    -6.288      2.015      4.691
REMARK INTER + INTRA:          -6.967
REMARK INTER:                  -6.840
REMARK INTRA:                  -0.127
REMARK UNBOUND:                -0.127
REMARK SMILES Cc1ccc(C(C)C)cc1O
REMARK SMILES IDX 1 1 2 2 10 3 9 4 5 5 4 6 3 7 11 8 6 10 7 11 8 12
REMARK H PARENT 11 9
REMARK Flexibility Score: inf
ROOT
ATOM      1  C   UNL     1     -12.855  -1.692 -10.812  1.00  0.00     0.048 C 
ATOM      2  C   UNL     1     -12.666  -0.286 -10.312  1.00  0.00    -0.009 A 
ATOM      3  C   UNL     1     -13.773   0.548 -10.038  1.00  0.00     0.118 A 
ATOM      4  C   UNL     1     -13.563   1.852  -9.572  1.00  0.00     0.050 A 
ATOM      5  C   UNL     1     -12.263   2.348  -9.374  1.00  0.00    -0.042 A 
ATOM      6  C   UNL     1     -11.169   1.513  -9.649  1.00  0.00     0.004 A 
ATOM      7  C   UNL     1     -11.368   0.211 -10.113  1.00  0.00     0.007 A 
ENDROOT
BRANCH   3   8
ATOM      8  O   UNL     1     -15.088   0.113 -10.215  1.00  0.00    -0.508 OA
ATOM      9  H   UNL     1     -15.868   0.748 -10.336  1.00  0.00     0.293 HD
ENDBRANCH   3   8
BRANCH   5  10
ATOM     10  C   UNL     1     -12.031   3.760  -8.870  1.00  0.00     0.013 C 
ATOM     11  C   UNL     1     -13.176   4.217  -7.960  1.00  0.00     0.012 C 
ATOM     12  C   UNL     1     -10.679   3.878  -8.157  1.00  0.00     0.012 C 
ENDBRANCH   5  10
TORSDOF 2
ENDMDL
MODEL 5
REMARK VINA RESULT:    -6.229      1.075      1.724
REMARK INTER + INTRA:          -6.902
REMARK INTER:                  -6.775
REMARK INTRA:                  -0.127
REMARK UNBOUND:                -0.127
REMARK SMILES Cc1ccc(C(C)C)cc1O
REMARK SMILES IDX 1 1 2 2 10 3 9 4 5 5 4 6 3 7 11 8 6 10 7 11 8 12
REMARK H PARENT 11 9
REMARK Flexibility Score: inf
ROOT
ATOM      1  C   UNL     1     -13.291   3.086  -9.585  1.00  0.00     0.048 C 
ATOM      2  C   UNL     1     -12.618   1.745  -9.688  1.00  0.00    -0.009 A 
ATOM      3  C   UNL     1     -11.318   1.537  -9.175  1.00  0.00     0.118 A 
ATOM      4  C   UNL     1     -10.719   0.277  -9.286  1.00  0.00     0.050 A 
ATOM      5  C   UNL     1     -11.392  -0.791  -9.905  1.00  0.00    -0.042 A 
ATOM      6  C   UNL     1     -12.684  -0.577 -10.412  1.00  0.00     0.004 A 
ATOM      7  C   UNL     1     -13.289   0.677 -10.306  1.00  0.00     0.007 A 
ENDROOT
BRANCH   3   8
ATOM      8  O   UNL     1     -10.598   2.558  -8.551  1.00  0.00    -0.508 OA
ATOM      9  H   UNL     1      -9.641   2.448  -8.239  1.00  0.00     0.293 HD
ENDBRANCH   3   8
BRANCH   5  10
ATOM     10  C   UNL     1     -10.747  -2.159 -10.028  1.00  0.00     0.013 C 
ATOM     11  C   UNL     1      -9.894  -2.480  -8.797  1.00  0.00     0.012 C 
ATOM     12  C   UNL     1     -11.800  -3.248 -10.269  1.00  0.00     0.012 C 
ENDBRANCH   5  10
TORSDOF 2
ENDMDL
MODEL 6
REMARK VINA RESULT:    -6.214      2.333      4.699
REMARK INTER + INTRA:          -6.886
REMARK INTER:                  -6.758
REMARK INTRA:                  -0.128
REMARK UNBOUND:                -0.127
REMARK SMILES Cc1ccc(C(C)C)cc1O
REMARK SMILES IDX 1 1 2 2 10 3 9 4 5 5 4 6 3 7 11 8 6 10 7 11 8 12
REMARK H PARENT 11 9
REMARK Flexibility Score: inf
ROOT
ATOM      1  C   UNL     1      -9.872  -2.449 -10.051  1.00  0.00     0.048 C 
ATOM      2  C   UNL     1     -10.914  -1.364 -10.055  1.00  0.00    -0.009 A 
ATOM      3  C   UNL     1     -12.205  -1.592 -10.581  1.00  0.00     0.118 A 
ATOM      4  C   UNL     1     -13.153  -0.562 -10.568  1.00  0.00     0.050 A 
ATOM      5  C   UNL     1     -12.839   0.703 -10.040  1.00  0.00    -0.042 A 
ATOM      6  C   UNL     1     -11.554   0.921  -9.519  1.00  0.00     0.004 A 
ATOM      7  C   UNL     1     -10.602  -0.101  -9.527  1.00  0.00     0.007 A 
ENDROOT
BRANCH   3   8
ATOM      8  O   UNL     1     -12.577  -2.825 -11.120  1.00  0.00    -0.508 OA
ATOM      9  H   UNL     1     -12.328  -3.711 -10.696  1.00  0.00     0.293 HD
ENDBRANCH   3   8
BRANCH   5  10
ATOM     10  C   UNL     1     -13.863   1.822 -10.025  1.00  0.00     0.013 C 
ATOM     11  C   UNL     1     -15.090   1.438  -9.190  1.00  0.00     0.012 C 
ATOM     12  C   UNL     1     -13.244   3.132  -9.523  1.00  0.00     0.012 C 
ENDBRANCH   5  10
TORSDOF 2
ENDMDL
MODEL 7
REMARK VINA RESULT:    -5.371      2.947      5.460
REMARK INTER + INTRA:          -5.969
REMARK INTER:                  -5.841
REMARK INTRA:                  -0.128
REMARK UNBOUND:                -0.127
REMARK SMILES Cc1ccc(C(C)C)cc1O
REMARK SMILES IDX 1 1 2 2 10 3 9 4 5 5 4 6 3 7 11 8 6 10 7 11 8 12
REMARK H PARENT 11 9
REMARK Flexibility Score: inf
ROOT
ATOM      1  C   UNL     1      -9.034  -4.326  -8.289  1.00  0.00     0.048 C 
ATOM      2  C   UNL     1      -9.751  -3.121  -8.833  1.00  0.00    -0.009 A 
ATOM      3  C   UNL     1     -10.449  -3.177 -10.060  1.00  0.00     0.118 A 
ATOM      4  C   UNL     1     -11.108  -2.038 -10.538  1.00  0.00     0.050 A 
ATOM      5  C   UNL     1     -11.084  -0.832  -9.815  1.00  0.00    -0.042 A 
ATOM      6  C   UNL     1     -10.387  -0.785  -8.597  1.00  0.00     0.004 A 
ATOM      7  C   UNL     1      -9.728  -1.916  -8.112  1.00  0.00     0.007 A 
ENDROOT
BRANCH   3   8
ATOM      8  O   UNL     1     -10.509  -4.344 -10.824  1.00  0.00    -0.508 OA
ATOM      9  H   UNL     1     -10.928  -4.381 -11.745  1.00  0.00     0.293 HD
ENDBRANCH   3   8
BRANCH   5  10
ATOM     10  C   UNL     1     -11.795   0.405 -10.330  1.00  0.00     0.013 C 
ATOM     11  C   UNL     1     -13.291   0.139 -10.531  1.00  0.00     0.012 C 
ATOM     12  C   UNL     1     -11.568   1.602  -9.398  1.00  0.00     0.012 C 
ENDBRANCH   5  10
TORSDOF 2
ENDMDL
MODEL 8
REMARK VINA RESULT:    -5.325     14.993     16.953
REMARK INTER + INTRA:          -5.919
REMARK INTER:                  -5.792
REMARK INTRA:                  -0.127
REMARK UNBOUND:                -0.127
REMARK SMILES Cc1ccc(C(C)C)cc1O
REMARK SMILES IDX 1 1 2 2 10 3 9 4 5 5 4 6 3 7 11 8 6 10 7 11 8 12
REMARK H PARENT 11 9
REMARK Flexibility Score: inf
ROOT
ATOM      1  C   UNL     1     -10.256   4.244   9.124  1.00  0.00     0.048 C 
ATOM      2  C   UNL     1     -10.959   4.884   7.959  1.00  0.00    -0.009 A 
ATOM      3  C   UNL     1     -10.382   5.970   7.263  1.00  0.00     0.118 A 
ATOM      4  C   UNL     1     -11.062   6.543   6.181  1.00  0.00     0.050 A 
ATOM      5  C   UNL     1     -12.316   6.055   5.775  1.00  0.00    -0.042 A 
ATOM      6  C   UNL     1     -12.883   4.976   6.472  1.00  0.00     0.004 A 
ATOM      7  C   UNL     1     -12.212   4.398   7.552  1.00  0.00     0.007 A 
ENDROOT
BRANCH   3   8
ATOM      8  O   UNL     1      -9.140   6.499   7.618  1.00  0.00    -0.508 OA
ATOM      9  H   UNL     1      -8.424   6.730   6.941  1.00  0.00     0.293 HD
ENDBRANCH   3   8
BRANCH   5  10
ATOM     10  C   UNL     1     -13.057   6.674   4.604  1.00  0.00     0.013 C 
ATOM     11  C   UNL     1     -14.111   5.711   4.047  1.00  0.00     0.012 C 
ATOM     12  C   UNL     1     -13.686   8.016   4.994  1.00  0.00     0.012 C 
ENDBRANCH   5  10
TORSDOF 2
ENDMDL
MODEL 9
REMARK VINA RESULT:    -5.213     14.647     16.670
REMARK INTER + INTRA:          -5.797
REMARK INTER:                  -5.669
REMARK INTRA:                  -0.128
REMARK UNBOUND:                -0.127
REMARK SMILES Cc1ccc(C(C)C)cc1O
REMARK SMILES IDX 1 1 2 2 10 3 9 4 5 5 4 6 3 7 11 8 6 10 7 11 8 12
REMARK H PARENT 11 9
REMARK Flexibility Score: inf
ROOT
ATOM      1  C   UNL     1     -10.225   5.660   8.611  1.00  0.00     0.048 C 
ATOM      2  C   UNL     1     -11.273   5.757   7.537  1.00  0.00    -0.009 A 
ATOM      3  C   UNL     1     -12.162   4.688   7.282  1.00  0.00     0.118 A 
ATOM      4  C   UNL     1     -13.127   4.811   6.276  1.00  0.00     0.050 A 
ATOM      5  C   UNL     1     -13.227   5.985   5.509  1.00  0.00    -0.042 A 
ATOM      6  C   UNL     1     -12.340   7.042   5.768  1.00  0.00     0.004 A 
ATOM      7  C   UNL     1     -11.375   6.929   6.770  1.00  0.00     0.007 A 
ENDROOT
BRANCH   3   8
ATOM      8  O   UNL     1     -12.113   3.497   8.009  1.00  0.00    -0.508 OA
ATOM      9  H   UNL     1     -11.431   3.323   8.737  1.00  0.00     0.293 HD
ENDBRANCH   3   8
BRANCH   5  10
ATOM     10  C   UNL     1     -14.271   6.122   4.417  1.00  0.00     0.013 C 
ATOM     11  C   UNL     1     -15.121   7.381   4.620  1.00  0.00     0.012 C 
ATOM     12  C   UNL     1     -13.623   6.113   3.027  1.00  0.00     0.012 C 
ENDBRANCH   5  10
TORSDOF 2
ENDMDL
