MODEL 1
REMARK VINA RESULT:    -1.997      0.000      0.000
REMARK INTER + INTRA:          -3.509
REMARK INTER:                  -2.931
REMARK INTRA:                  -0.578
REMARK UNBOUND:                -0.578
REMARK SMILES O=C([O-])CCCCCCCC(=O)[O-]
REMARK SMILES IDX 7 1 6 2 5 3 4 4 2 5 1 6 3 7 8 8 9 9 10 10 11 11 12 12 13 13
REMARK H PARENT
REMARK Flexibility Score: inf
ROOT
ATOM      1  C   UNL     1     115.093  13.617  26.860  1.00  0.00     0.000 C 
ENDROOT
BRANCH   1   2
ATOM      2  C   UNL     1     114.989  12.595  25.719  1.00  0.00     0.000 C 
BRANCH   2   3
ATOM      3  C   UNL     1     116.191  12.704  24.772  1.00  0.00     0.006 C 
BRANCH   3   4
ATOM      4  C   UNL     1     116.498  14.167  24.438  1.00  0.00     0.053 C 
BRANCH   4   5
ATOM      5  C   UNL     1     116.530  14.369  22.956  1.00  0.00     0.041 C 
ATOM      6  O   UNL     1     115.506  14.781  22.351  1.00  0.00    -0.550 OA
ATOM      7  O   UNL     1     117.676  14.057  22.237  1.00  0.00    -0.550 OA
ENDBRANCH   4   5
ENDBRANCH   3   4
ENDBRANCH   2   3
ENDBRANCH   1   2
BRANCH   1   8
ATOM      8  C   UNL     1     115.768  13.041  28.115  1.00  0.00     0.000 C 
BRANCH   8   9
ATOM      9  C   UNL     1     116.913  13.929  28.630  1.00  0.00     0.006 C 
BRANCH   9  10
ATOM     10  C   UNL     1     116.960  15.287  27.915  1.00  0.00     0.053 C 
BRANCH  10  11
ATOM     11  C   UNL     1     118.330  15.891  27.959  1.00  0.00     0.041 C 
ATOM     12  O   UNL     1     118.912  16.066  29.062  1.00  0.00    -0.550 OA
ATOM     13  O   UNL     1     118.954  16.288  26.783  1.00  0.00    -0.550 OA
ENDBRANCH  10  11
ENDBRANCH   9  10
ENDBRANCH   8   9
ENDBRANCH   1   8
TORSDOF 8
ENDMDL
MODEL 2
REMARK VINA RESULT:    -1.995      2.487      5.104
REMARK INTER + INTRA:          -3.506
REMARK INTER:                  -3.067
REMARK INTRA:                  -0.439
REMARK UNBOUND:                -0.578
REMARK SMILES O=C([O-])CCCCCCCC(=O)[O-]
REMARK SMILES IDX 7 1 6 2 5 3 4 4 2 5 1 6 3 7 8 8 9 9 10 10 11 11 12 12 13 13
REMARK H PARENT
REMARK Flexibility Score: inf
ROOT
ATOM      1  C   UNL     1     116.718  14.464  23.548  1.00  0.00     0.000 C 
ENDROOT
BRANCH   1   2
ATOM      2  C   UNL     1     116.312  13.256  24.405  1.00  0.00     0.000 C 
BRANCH   2   3
ATOM      3  C   UNL     1     116.177  13.650  25.882  1.00  0.00     0.006 C 
BRANCH   3   4
ATOM      4  C   UNL     1     116.792  15.029  26.142  1.00  0.00     0.053 C 
BRANCH   4   5
ATOM      5  C   UNL     1     117.211  15.153  27.573  1.00  0.00     0.041 C 
ATOM      6  O   UNL     1     118.319  15.673  27.865  1.00  0.00    -0.550 OA
ATOM      7  O   UNL     1     116.398  14.652  28.581  1.00  0.00    -0.550 OA
ENDBRANCH   4   5
ENDBRANCH   3   4
ENDBRANCH   2   3
ENDBRANCH   1   2
BRANCH   1   8
ATOM      8  C   UNL     1     117.420  14.057  22.243  1.00  0.00     0.000 C 
BRANCH   8   9
ATOM      9  C   UNL     1     118.448  15.100  21.774  1.00  0.00     0.006 C 
BRANCH   9  10
ATOM     10  C   UNL     1     118.949  15.979  22.930  1.00  0.00     0.053 C 
BRANCH  10  11
ATOM     11  C   UNL     1     120.432  16.184  22.869  1.00  0.00     0.041 C 
ATOM     12  O   UNL     1     121.100  16.311  23.929  1.00  0.00    -0.550 OA
ATOM     13  O   UNL     1     121.073  16.265  21.639  1.00  0.00    -0.550 OA
ENDBRANCH  10  11
ENDBRANCH   9  10
ENDBRANCH   8   9
ENDBRANCH   1   8
TORSDOF 8
ENDMDL
MODEL 3
REMARK VINA RESULT:    -1.972      1.959      2.977
REMARK INTER + INTRA:          -3.472
REMARK INTER:                  -3.031
REMARK INTRA:                  -0.441
REMARK UNBOUND:                -0.578
REMARK SMILES O=C([O-])CCCCCCCC(=O)[O-]
REMARK SMILES IDX 7 1 6 2 5 3 4 4 2 5 1 6 3 7 8 8 9 9 10 10 11 11 12 12 13 13
REMARK H PARENT
REMARK Flexibility Score: inf
ROOT
ATOM      1  C   UNL     1     116.108  14.102  23.856  1.00  0.00     0.000 C 
ENDROOT
BRANCH   1   2
ATOM      2  C   UNL     1     116.624  13.268  22.674  1.00  0.00     0.000 C 
BRANCH   2   3
ATOM      3  C   UNL     1     117.599  14.080  21.812  1.00  0.00     0.006 C 
BRANCH   3   4
ATOM      4  C   UNL     1     118.081  15.330  22.555  1.00  0.00     0.053 C 
BRANCH   4   5
ATOM      5  C   UNL     1     119.491  15.654  22.175  1.00  0.00     0.041 C 
ATOM      6  O   UNL     1     120.255  16.220  23.000  1.00  0.00    -0.550 OA
ATOM      7  O   UNL     1     119.947  15.373  20.893  1.00  0.00    -0.550 OA
ENDBRANCH   4   5
ENDBRANCH   3   4
ENDBRANCH   2   3
ENDBRANCH   1   2
BRANCH   1   8
ATOM      8  C   UNL     1     116.232  13.367  25.200  1.00  0.00     0.000 C 
BRANCH   8   9
ATOM      9  C   UNL     1     116.067  14.308  26.406  1.00  0.00     0.006 C 
BRANCH   9  10
ATOM     10  C   UNL     1     117.136  15.409  26.430  1.00  0.00     0.053 C 
BRANCH  10  11
ATOM     11  C   UNL     1     117.877  15.435  27.732  1.00  0.00     0.041 C 
ATOM     12  O   UNL     1     118.876  16.187  27.880  1.00  0.00    -0.550 OA
ATOM     13  O   UNL     1     117.480  14.607  28.776  1.00  0.00    -0.550 OA
ENDBRANCH  10  11
ENDBRANCH   9  10
ENDBRANCH   8   9
ENDBRANCH   1   8
TORSDOF 8
ENDMDL
MODEL 4
REMARK VINA RESULT:    -1.917      1.480      2.228
REMARK INTER + INTRA:          -3.392
REMARK INTER:                  -2.857
REMARK INTRA:                  -0.535
REMARK UNBOUND:                -0.578
REMARK SMILES O=C([O-])CCCCCCCC(=O)[O-]
REMARK SMILES IDX 7 1 6 2 5 3 4 4 2 5 1 6 3 7 8 8 9 9 10 10 11 11 12 12 13 13
REMARK H PARENT
REMARK Flexibility Score: inf
ROOT
ATOM      1  C   UNL     1     115.290  12.135  24.679  1.00  0.00     0.000 C 
ENDROOT
BRANCH   1   2
ATOM      2  C   UNL     1     116.602  12.209  23.884  1.00  0.00     0.000 C 
BRANCH   2   3
ATOM      3  C   UNL     1     116.346  12.672  22.444  1.00  0.00     0.006 C 
BRANCH   3   4
ATOM      4  C   UNL     1     117.448  13.623  21.967  1.00  0.00     0.053 C 
BRANCH   4   5
ATOM      5  C   UNL     1     117.184  15.014  22.449  1.00  0.00     0.041 C 
ATOM      6  O   UNL     1     116.089  15.577  22.186  1.00  0.00    -0.550 OA
ATOM      7  O   UNL     1     118.164  15.705  23.148  1.00  0.00    -0.550 OA
ENDBRANCH   4   5
ENDBRANCH   3   4
ENDBRANCH   2   3
ENDBRANCH   1   2
BRANCH   1   8
ATOM      8  C   UNL     1     115.264  13.104  25.873  1.00  0.00     0.000 C 
BRANCH   8   9
ATOM      9  C   UNL     1     116.479  14.047  25.896  1.00  0.00     0.006 C 
BRANCH   9  10
ATOM     10  C   UNL     1     116.381  15.087  27.020  1.00  0.00     0.053 C 
BRANCH  10  11
ATOM     11  C   UNL     1     117.291  14.756  28.164  1.00  0.00     0.041 C 
ATOM     12  O   UNL     1     118.233  15.533  28.472  1.00  0.00    -0.550 OA
ATOM     13  O   UNL     1     117.116  13.574  28.873  1.00  0.00    -0.550 OA
ENDBRANCH  10  11
ENDBRANCH   9  10
ENDBRANCH   8   9
ENDBRANCH   1   8
TORSDOF 8
ENDMDL
MODEL 5
REMARK VINA RESULT:    -1.912      2.514      4.072
REMARK INTER + INTRA:          -3.384
REMARK INTER:                  -2.785
REMARK INTRA:                  -0.599
REMARK UNBOUND:                -0.578
REMARK SMILES O=C([O-])CCCCCCCC(=O)[O-]
REMARK SMILES IDX 7 1 6 2 5 3 4 4 2 5 1 6 3 7 8 8 9 9 10 10 11 11 12 12 13 13
REMARK H PARENT
REMARK Flexibility Score: inf
ROOT
ATOM      1  C   UNL     1     117.692  16.527  26.514  1.00  0.00     0.000 C 
ENDROOT
BRANCH   1   2
ATOM      2  C   UNL     1     119.142  16.987  26.303  1.00  0.00     0.000 C 
BRANCH   2   3
ATOM      3  C   UNL     1     119.615  16.679  24.877  1.00  0.00     0.006 C 
BRANCH   3   4
ATOM      4  C   UNL     1     118.452  16.756  23.883  1.00  0.00     0.053 C 
BRANCH   4   5
ATOM      5  C   UNL     1     118.617  15.733  22.804  1.00  0.00     0.041 C 
ATOM      6  O   UNL     1     117.739  14.848  22.632  1.00  0.00    -0.550 OA
ATOM      7  O   UNL     1     119.764  15.728  22.021  1.00  0.00    -0.550 OA
ENDBRANCH   4   5
ENDBRANCH   3   4
ENDBRANCH   2   3
ENDBRANCH   1   2
BRANCH   1   8
ATOM      8  C   UNL     1     117.540  15.568  27.705  1.00  0.00     0.000 C 
BRANCH   8   9
ATOM      9  C   UNL     1     116.645  14.360  27.381  1.00  0.00     0.006 C 
BRANCH   9  10
ATOM     10  C   UNL     1     116.444  14.178  25.870  1.00  0.00     0.053 C 
BRANCH  10  11
ATOM     11  C   UNL     1     115.736  12.896  25.555  1.00  0.00     0.041 C 
ATOM     12  O   UNL     1     114.863  12.442  26.341  1.00  0.00    -0.550 OA
ATOM     13  O   UNL     1     116.060  12.187  24.405  1.00  0.00    -0.550 OA
ENDBRANCH  10  11
ENDBRANCH   9  10
ENDBRANCH   8   9
ENDBRANCH   1   8
TORSDOF 8
ENDMDL
MODEL 6
REMARK VINA RESULT:    -1.898      1.994      5.367
REMARK INTER + INTRA:          -3.364
REMARK INTER:                  -2.943
REMARK INTRA:                  -0.421
REMARK UNBOUND:                -0.578
REMARK SMILES O=C([O-])CCCCCCCC(=O)[O-]
REMARK SMILES IDX 7 1 6 2 5 3 4 4 2 5 1 6 3 7 8 8 9 9 10 10 11 11 12 12 13 13
REMARK H PARENT
REMARK Flexibility Score: inf
ROOT
ATOM      1  C   UNL     1     116.589  12.561  24.219  1.00  0.00     0.000 C 
ENDROOT
BRANCH   1   2
ATOM      2  C   UNL     1     115.269  12.302  24.962  1.00  0.00     0.000 C 
BRANCH   2   3
ATOM      3  C   UNL     1     115.262  12.998  26.329  1.00  0.00     0.006 C 
BRANCH   3   4
ATOM      4  C   UNL     1     116.306  14.118  26.382  1.00  0.00     0.053 C 
BRANCH   4   5
ATOM      5  C   UNL     1     116.535  14.552  27.796  1.00  0.00     0.041 C 
ATOM      6  O   UNL     1     116.238  15.721  28.154  1.00  0.00    -0.550 OA
ATOM      7  O   UNL     1     117.121  13.680  28.704  1.00  0.00    -0.550 OA
ENDBRANCH   4   5
ENDBRANCH   3   4
ENDBRANCH   2   3
ENDBRANCH   1   2
BRANCH   1   8
ATOM      8  C   UNL     1     116.642  11.875  22.845  1.00  0.00     0.000 C 
BRANCH   8   9
ATOM      9  C   UNL     1     117.070  12.834  21.722  1.00  0.00     0.006 C 
BRANCH   9  10
ATOM     10  C   UNL     1     117.309  14.260  22.238  1.00  0.00     0.053 C 
BRANCH  10  11
ATOM     11  C   UNL     1     118.435  14.931  21.513  1.00  0.00     0.041 C 
ATOM     12  O   UNL     1     118.460  14.949  20.254  1.00  0.00    -0.550 OA
ATOM     13  O   UNL     1     119.474  15.515  22.229  1.00  0.00    -0.550 OA
ENDBRANCH  10  11
ENDBRANCH   9  10
ENDBRANCH   8   9
ENDBRANCH   1   8
TORSDOF 8
ENDMDL
MODEL 7
REMARK VINA RESULT:    -1.888      2.732      3.797
REMARK INTER + INTRA:          -3.349
REMARK INTER:                  -2.607
REMARK INTRA:                  -0.741
REMARK UNBOUND:                -0.578
REMARK SMILES O=C([O-])CCCCCCCC(=O)[O-]
REMARK SMILES IDX 7 1 6 2 5 3 4 4 2 5 1 6 3 7 8 8 9 9 10 10 11 11 12 12 13 13
REMARK H PARENT
REMARK Flexibility Score: inf
ROOT
ATOM      1  C   UNL     1     116.057  14.944  24.879  1.00  0.00     0.000 C 
ENDROOT
BRANCH   1   2
ATOM      2  C   UNL     1     116.336  13.455  24.626  1.00  0.00     0.000 C 
BRANCH   2   3
ATOM      3  C   UNL     1     115.508  12.573  25.568  1.00  0.00     0.006 C 
BRANCH   3   4
ATOM      4  C   UNL     1     114.647  13.424  26.506  1.00  0.00     0.053 C 
BRANCH   4   5
ATOM      5  C   UNL     1     114.219  12.624  27.695  1.00  0.00     0.041 C 
ATOM      6  O   UNL     1     113.012  12.615  28.051  1.00  0.00    -0.550 OA
ATOM      7  O   UNL     1     115.162  11.926  28.439  1.00  0.00    -0.550 OA
ENDBRANCH   4   5
ENDBRANCH   3   4
ENDBRANCH   2   3
ENDBRANCH   1   2
BRANCH   1   8
ATOM      8  C   UNL     1     117.337  15.751  25.146  1.00  0.00     0.000 C 
BRANCH   8   9
ATOM      9  C   UNL     1     117.112  16.905  26.138  1.00  0.00     0.006 C 
BRANCH   9  10
ATOM     10  C   UNL     1     116.667  16.402  27.518  1.00  0.00     0.053 C 
BRANCH  10  11
ATOM     11  C   UNL     1     117.710  15.538  28.158  1.00  0.00     0.041 C 
ATOM     12  O   UNL     1     117.457  14.336  28.436  1.00  0.00    -0.550 OA
ATOM     13  O   UNL     1     118.955  16.069  28.474  1.00  0.00    -0.550 OA
ENDBRANCH  10  11
ENDBRANCH   9  10
ENDBRANCH   8   9
ENDBRANCH   1   8
TORSDOF 8
ENDMDL
MODEL 8
REMARK VINA RESULT:    -1.877      1.100      5.051
REMARK INTER + INTRA:          -3.332
REMARK INTER:                  -3.017
REMARK INTRA:                  -0.315
REMARK UNBOUND:                -0.578
REMARK SMILES O=C([O-])CCCCCCCC(=O)[O-]
REMARK SMILES IDX 7 1 6 2 5 3 4 4 2 5 1 6 3 7 8 8 9 9 10 10 11 11 12 12 13 13
REMARK H PARENT
REMARK Flexibility Score: inf
ROOT
ATOM      1  C   UNL     1     115.159  13.052  25.552  1.00  0.00     0.000 C 
ENDROOT
BRANCH   1   2
ATOM      2  C   UNL     1     115.800  13.366  26.912  1.00  0.00     0.000 C 
BRANCH   2   3
ATOM      3  C   UNL     1     116.605  14.670  26.852  1.00  0.00     0.006 C 
BRANCH   3   4
ATOM      4  C   UNL     1     117.339  14.927  28.172  1.00  0.00     0.053 C 
BRANCH   4   5
ATOM      5  C   UNL     1     118.463  15.892  27.967  1.00  0.00     0.041 C 
ATOM      6  O   UNL     1     119.055  16.394  28.958  1.00  0.00    -0.550 OA
ATOM      7  O   UNL     1     118.824  16.275  26.682  1.00  0.00    -0.550 OA
ENDBRANCH   4   5
ENDBRANCH   3   4
ENDBRANCH   2   3
ENDBRANCH   1   2
BRANCH   1   8
ATOM      8  C   UNL     1     116.198  12.739  24.464  1.00  0.00     0.000 C 
BRANCH   8   9
ATOM      9  C   UNL     1     116.061  13.654  23.235  1.00  0.00     0.006 C 
BRANCH   9  10
ATOM     10  C   UNL     1     117.328  13.653  22.369  1.00  0.00     0.053 C 
BRANCH  10  11
ATOM     11  C   UNL     1     117.859  15.039  22.161  1.00  0.00     0.041 C 
ATOM     12  O   UNL     1     119.094  15.229  22.004  1.00  0.00    -0.550 OA
ATOM     13  O   UNL     1     116.992  16.125  22.169  1.00  0.00    -0.550 OA
ENDBRANCH  10  11
ENDBRANCH   9  10
ENDBRANCH   8   9
ENDBRANCH   1   8
TORSDOF 8
ENDMDL
MODEL 9
REMARK VINA RESULT:    -1.867      3.011      4.658
REMARK INTER + INTRA:          -3.318
REMARK INTER:                  -2.946
REMARK INTRA:                  -0.373
REMARK UNBOUND:                -0.578
REMARK SMILES O=C([O-])CCCCCCCC(=O)[O-]
REMARK SMILES IDX 7 1 6 2 5 3 4 4 2 5 1 6 3 7 8 8 9 9 10 10 11 11 12 12 13 13
REMARK H PARENT
REMARK Flexibility Score: inf
ROOT
ATOM      1  C   UNL     1     116.472  13.974  22.438  1.00  0.00     0.000 C 
ENDROOT
BRANCH   1   2
ATOM      2  C   UNL     1     117.793  14.379  21.768  1.00  0.00     0.000 C 
BRANCH   2   3
ATOM      3  C   UNL     1     118.364  15.653  22.404  1.00  0.00     0.006 C 
BRANCH   3   4
ATOM      4  C   UNL     1     119.848  15.821  22.065  1.00  0.00     0.053 C 
BRANCH   4   5
ATOM      5  C   UNL     1     120.510  16.732  23.050  1.00  0.00     0.041 C 
ATOM      6  O   UNL     1     120.550  17.972  22.837  1.00  0.00    -0.550 OA
ATOM      7  O   UNL     1     121.124  16.206  24.179  1.00  0.00    -0.550 OA
ENDBRANCH   4   5
ENDBRANCH   3   4
ENDBRANCH   2   3
ENDBRANCH   1   2
BRANCH   1   8
ATOM      8  C   UNL     1     116.439  12.491  22.838  1.00  0.00     0.000 C 
BRANCH   8   9
ATOM      9  C   UNL     1     116.294  12.290  24.356  1.00  0.00     0.006 C 
BRANCH   9  10
ATOM     10  C   UNL     1     116.298  13.623  25.118  1.00  0.00     0.053 C 
BRANCH  10  11
ATOM     11  C   UNL     1     115.909  13.443  26.553  1.00  0.00     0.041 C 
ATOM     12  O   UNL     1     114.939  12.700  26.860  1.00  0.00    -0.550 OA
ATOM     13  O   UNL     1     116.600  14.119  27.552  1.00  0.00    -0.550 OA
ENDBRANCH  10  11
ENDBRANCH   9  10
ENDBRANCH   8   9
ENDBRANCH   1   8
TORSDOF 8
ENDMDL
