MODEL 1
REMARK VINA RESULT:    -4.022      0.000      0.000
REMARK INTER + INTRA:          -8.963
REMARK INTER:                  -6.961
REMARK INTRA:                  -2.002
REMARK UNBOUND:                -2.002
REMARK SMILES CCCCCCCCCCCCCCO
REMARK SMILES IDX 8 1 7 2 6 3 5 4 4 5 3 6 2 7 1 8 9 9 10 10 11 11 12 12 13 13
REMARK SMILES IDX 14 14 15 15
REMARK H PARENT 15 16
REMARK Flexibility Score: inf
ROOT
ATOM      1  C   UNL     1       4.401  12.818  14.384  1.00  0.00     0.000 C 
ENDROOT
BRANCH   1   2
ATOM      2  C   UNL     1       4.710  13.228  12.934  1.00  0.00    -0.000 C 
BRANCH   2   3
ATOM      3  C   UNL     1       3.738  12.594  11.924  1.00  0.00    -0.000 C 
BRANCH   3   4
ATOM      4  C   UNL     1       4.435  12.133  10.631  1.00  0.00    -0.000 C 
BRANCH   4   5
ATOM      5  C   UNL     1       4.108  10.693  10.195  1.00  0.00    -0.000 C 
BRANCH   5   6
ATOM      6  C   UNL     1       3.035  10.031  11.077  1.00  0.00    -0.000 C 
BRANCH   6   7
ATOM      7  C   UNL     1       3.575   8.817  11.849  1.00  0.00    -0.003 C 
ATOM      8  C   UNL     1       3.548   9.022  13.363  1.00  0.00     0.004 C 
ENDBRANCH   6   7
ENDBRANCH   5   6
ENDBRANCH   4   5
ENDBRANCH   3   4
ENDBRANCH   2   3
ENDBRANCH   1   2
BRANCH   1   9
ATOM      9  C   UNL     1       5.407  11.789  14.929  1.00  0.00     0.000 C 
BRANCH   9  10
ATOM     10  C   UNL     1       6.670  11.666  14.058  1.00  0.00     0.000 C 
BRANCH  10  11
ATOM     11  C   UNL     1       7.030  10.232  13.628  1.00  0.00     0.000 C 
BRANCH  11  12
ATOM     12  C   UNL     1       7.016  10.041  12.103  1.00  0.00     0.002 C 
BRANCH  12  13
ATOM     13  C   UNL     1       7.959  11.038  11.417  1.00  0.00     0.028 C 
BRANCH  13  14
ATOM     14  C   UNL     1       8.640  10.430  10.187  1.00  0.00     0.156 C 
BRANCH  14  15
ATOM     15  O   UNL     1       9.040   9.110  10.442  1.00  0.00    -0.396 OA
ATOM     16  H   UNL     1       8.213   8.566  10.516  1.00  0.00     0.210 HD
ENDBRANCH  14  15
ENDBRANCH  13  14
ENDBRANCH  12  13
ENDBRANCH  11  12
ENDBRANCH  10  11
ENDBRANCH   9  10
ENDBRANCH   1   9
TORSDOF 13
ENDMDL
MODEL 2
REMARK VINA RESULT:    -4.007      3.371      4.732
REMARK INTER + INTRA:          -8.937
REMARK INTER:                  -7.235
REMARK INTRA:                  -1.702
REMARK UNBOUND:                -2.002
REMARK SMILES CCCCCCCCCCCCCCO
REMARK SMILES IDX 8 1 7 2 6 3 5 4 4 5 3 6 2 7 1 8 9 9 10 10 11 11 12 12 13 13
REMARK SMILES IDX 14 14 15 15
REMARK H PARENT 15 16
REMARK Flexibility Score: inf
ROOT
ATOM      1  C   UNL     1       4.521  12.652  13.776  1.00  0.00     0.000 C 
ENDROOT
BRANCH   1   2
ATOM      2  C   UNL     1       3.518  12.179  12.710  1.00  0.00    -0.000 C 
BRANCH   2   3
ATOM      3  C   UNL     1       4.032  12.407  11.278  1.00  0.00    -0.000 C 
BRANCH   3   4
ATOM      4  C   UNL     1       4.634  11.137  10.648  1.00  0.00    -0.000 C 
BRANCH   4   5
ATOM      5  C   UNL     1       6.152  11.194  10.396  1.00  0.00    -0.000 C 
BRANCH   5   6
ATOM      6  C   UNL     1       6.935  10.161  11.225  1.00  0.00    -0.000 C 
BRANCH   6   7
ATOM      7  C   UNL     1       6.072   9.504  12.313  1.00  0.00    -0.003 C 
ATOM      8  C   UNL     1       6.661   9.670  13.713  1.00  0.00     0.004 C 
ENDBRANCH   6   7
ENDBRANCH   5   6
ENDBRANCH   4   5
ENDBRANCH   3   4
ENDBRANCH   2   3
ENDBRANCH   1   2
BRANCH   1   9
ATOM      9  C   UNL     1       5.428  13.787  13.266  1.00  0.00     0.000 C 
BRANCH   9  10
ATOM     10  C   UNL     1       6.924  13.428  13.322  1.00  0.00     0.000 C 
BRANCH  10  11
ATOM     11  C   UNL     1       7.710  14.088  14.470  1.00  0.00     0.000 C 
BRANCH  11  12
ATOM     12  C   UNL     1       6.889  15.136  15.236  1.00  0.00     0.002 C 
BRANCH  12  13
ATOM     13  C   UNL     1       6.632  14.684  16.679  1.00  0.00     0.028 C 
BRANCH  13  14
ATOM     14  C   UNL     1       5.139  14.495  16.964  1.00  0.00     0.156 C 
BRANCH  14  15
ATOM     15  O   UNL     1       4.722  15.334  18.008  1.00  0.00    -0.396 OA
ATOM     16  H   UNL     1       3.745  15.196  18.118  1.00  0.00     0.210 HD
ENDBRANCH  14  15
ENDBRANCH  13  14
ENDBRANCH  12  13
ENDBRANCH  11  12
ENDBRANCH  10  11
ENDBRANCH   9  10
ENDBRANCH   1   9
TORSDOF 13
ENDMDL
MODEL 3
REMARK VINA RESULT:    -3.980      2.608      4.242
REMARK INTER + INTRA:          -8.892
REMARK INTER:                  -6.730
REMARK INTRA:                  -2.162
REMARK UNBOUND:                -2.002
REMARK SMILES CCCCCCCCCCCCCCO
REMARK SMILES IDX 8 1 7 2 6 3 5 4 4 5 3 6 2 7 1 8 9 9 10 10 11 11 12 12 13 13
REMARK SMILES IDX 14 14 15 15
REMARK H PARENT 15 16
REMARK Flexibility Score: inf
ROOT
ATOM      1  C   UNL     1       4.281  12.558  11.593  1.00  0.00     0.000 C 
ENDROOT
BRANCH   1   2
ATOM      2  C   UNL     1       4.702  11.789  10.329  1.00  0.00    -0.000 C 
BRANCH   2   3
ATOM      3  C   UNL     1       6.046  11.061  10.505  1.00  0.00    -0.000 C 
BRANCH   3   4
ATOM      4  C   UNL     1       6.907  11.658  11.633  1.00  0.00    -0.000 C 
BRANCH   4   5
ATOM      5  C   UNL     1       7.208  10.697  12.798  1.00  0.00    -0.000 C 
BRANCH   5   6
ATOM      6  C   UNL     1       6.257   9.489  12.836  1.00  0.00    -0.000 C 
BRANCH   6   7
ATOM      7  C   UNL     1       5.712   9.213  14.246  1.00  0.00    -0.003 C 
ATOM      8  C   UNL     1       6.779   9.360  15.330  1.00  0.00     0.004 C 
ENDBRANCH   6   7
ENDBRANCH   5   6
ENDBRANCH   4   5
ENDBRANCH   3   4
ENDBRANCH   2   3
ENDBRANCH   1   2
BRANCH   1   9
ATOM      9  C   UNL     1       3.265  11.778  12.444  1.00  0.00     0.000 C 
BRANCH   9  10
ATOM     10  C   UNL     1       3.454  12.001  13.956  1.00  0.00     0.000 C 
BRANCH  10  11
ATOM     11  C   UNL     1       4.491  13.076  14.333  1.00  0.00     0.000 C 
BRANCH  11  12
ATOM     12  C   UNL     1       5.258  12.744  15.622  1.00  0.00     0.002 C 
BRANCH  12  13
ATOM     13  C   UNL     1       6.712  13.227  15.535  1.00  0.00     0.028 C 
BRANCH  13  14
ATOM     14  C   UNL     1       6.929  14.184  14.359  1.00  0.00     0.156 C 
BRANCH  14  15
ATOM     15  O   UNL     1       6.976  15.514  14.802  1.00  0.00    -0.396 OA
ATOM     16  H   UNL     1       6.137  15.681  15.306  1.00  0.00     0.210 HD
ENDBRANCH  14  15
ENDBRANCH  13  14
ENDBRANCH  12  13
ENDBRANCH  11  12
ENDBRANCH  10  11
ENDBRANCH   9  10
ENDBRANCH   1   9
TORSDOF 13
ENDMDL
MODEL 4
REMARK VINA RESULT:    -3.884      3.322      5.009
REMARK INTER + INTRA:          -8.725
REMARK INTER:                  -7.218
REMARK INTRA:                  -1.507
REMARK UNBOUND:                -2.002
REMARK SMILES CCCCCCCCCCCCCCO
REMARK SMILES IDX 8 1 7 2 6 3 5 4 4 5 3 6 2 7 1 8 9 9 10 10 11 11 12 12 13 13
REMARK SMILES IDX 14 14 15 15
REMARK H PARENT 15 16
REMARK Flexibility Score: inf
ROOT
ATOM      1  C   UNL     1       7.725  11.068  11.902  1.00  0.00     0.000 C 
ENDROOT
BRANCH   1   2
ATOM      2  C   UNL     1       6.610  10.026  11.709  1.00  0.00    -0.000 C 
BRANCH   2   3
ATOM      3  C   UNL     1       5.805  10.260  10.419  1.00  0.00    -0.000 C 
BRANCH   3   4
ATOM      4  C   UNL     1       4.289  10.078  10.617  1.00  0.00    -0.000 C 
BRANCH   4   5
ATOM      5  C   UNL     1       3.654  11.015  11.661  1.00  0.00    -0.000 C 
BRANCH   5   6
ATOM      6  C   UNL     1       4.015  12.493  11.435  1.00  0.00    -0.000 C 
BRANCH   6   7
ATOM      7  C   UNL     1       4.351  13.224  12.744  1.00  0.00    -0.003 C 
ATOM      8  C   UNL     1       4.100  12.363  13.981  1.00  0.00     0.004 C 
ENDBRANCH   6   7
ENDBRANCH   5   6
ENDBRANCH   4   5
ENDBRANCH   3   4
ENDBRANCH   2   3
ENDBRANCH   1   2
BRANCH   1   9
ATOM      9  C   UNL     1       7.661  11.746  13.282  1.00  0.00     0.000 C 
BRANCH   9  10
ATOM     10  C   UNL     1       8.020  13.243  13.231  1.00  0.00     0.000 C 
BRANCH  10  11
ATOM     11  C   UNL     1       8.153  13.929  14.604  1.00  0.00     0.000 C 
BRANCH  11  12
ATOM     12  C   UNL     1       6.995  14.892  14.908  1.00  0.00     0.002 C 
BRANCH  12  13
ATOM     13  C   UNL     1       6.731  14.971  16.418  1.00  0.00     0.028 C 
BRANCH  13  14
ATOM     14  C   UNL     1       5.342  14.441  16.785  1.00  0.00     0.156 C 
BRANCH  14  15
ATOM     15  O   UNL     1       4.716  15.287  17.713  1.00  0.00    -0.396 OA
ATOM     16  H   UNL     1       5.399  15.527  18.392  1.00  0.00     0.210 HD
ENDBRANCH  14  15
ENDBRANCH  13  14
ENDBRANCH  12  13
ENDBRANCH  11  12
ENDBRANCH  10  11
ENDBRANCH   9  10
ENDBRANCH   1   9
TORSDOF 13
ENDMDL
MODEL 5
REMARK VINA RESULT:    -3.881      3.165      4.970
REMARK INTER + INTRA:          -8.719
REMARK INTER:                  -7.098
REMARK INTRA:                  -1.622
REMARK UNBOUND:                -2.002
REMARK SMILES CCCCCCCCCCCCCCO
REMARK SMILES IDX 8 1 7 2 6 3 5 4 4 5 3 6 2 7 1 8 9 9 10 10 11 11 12 12 13 13
REMARK SMILES IDX 14 14 15 15
REMARK H PARENT 15 16
REMARK Flexibility Score: inf
ROOT
ATOM      1  C   UNL     1       4.376  12.576  11.601  1.00  0.00     0.000 C 
ENDROOT
BRANCH   1   2
ATOM      2  C   UNL     1       4.465  11.824  10.262  1.00  0.00    -0.000 C 
BRANCH   2   3
ATOM      3  C   UNL     1       4.189  10.318  10.414  1.00  0.00    -0.000 C 
BRANCH   3   4
ATOM      4  C   UNL     1       5.477   9.482  10.529  1.00  0.00    -0.000 C 
BRANCH   4   5
ATOM      5  C   UNL     1       5.834   9.033  11.958  1.00  0.00    -0.000 C 
BRANCH   5   6
ATOM      6  C   UNL     1       6.795  10.002  12.667  1.00  0.00    -0.000 C 
BRANCH   6   7
ATOM      7  C   UNL     1       6.707   9.905  14.197  1.00  0.00    -0.003 C 
ATOM      8  C   UNL     1       5.590   8.973  14.666  1.00  0.00     0.004 C 
ENDBRANCH   6   7
ENDBRANCH   5   6
ENDBRANCH   4   5
ENDBRANCH   3   4
ENDBRANCH   2   3
ENDBRANCH   1   2
BRANCH   1   9
ATOM      9  C   UNL     1       3.218  12.072  12.481  1.00  0.00     0.000 C 
BRANCH   9  10
ATOM     10  C   UNL     1       3.579  12.028  13.977  1.00  0.00     0.000 C 
BRANCH  10  11
ATOM     11  C   UNL     1       4.638  13.054  14.423  1.00  0.00     0.000 C 
BRANCH  11  12
ATOM     12  C   UNL     1       5.194  12.770  15.827  1.00  0.00     0.002 C 
BRANCH  12  13
ATOM     13  C   UNL     1       6.017  13.959  16.342  1.00  0.00     0.028 C 
BRANCH  13  14
ATOM     14  C   UNL     1       5.596  14.381  17.752  1.00  0.00     0.156 C 
BRANCH  14  15
ATOM     15  O   UNL     1       4.661  15.426  17.699  1.00  0.00    -0.396 OA
ATOM     16  H   UNL     1       4.936  16.095  18.379  1.00  0.00     0.210 HD
ENDBRANCH  14  15
ENDBRANCH  13  14
ENDBRANCH  12  13
ENDBRANCH  11  12
ENDBRANCH  10  11
ENDBRANCH   9  10
ENDBRANCH   1   9
TORSDOF 13
ENDMDL
MODEL 6
REMARK VINA RESULT:    -3.865      2.203      4.870
REMARK INTER + INTRA:          -8.693
REMARK INTER:                  -6.899
REMARK INTRA:                  -1.794
REMARK UNBOUND:                -2.002
REMARK SMILES CCCCCCCCCCCCCCO
REMARK SMILES IDX 8 1 7 2 6 3 5 4 4 5 3 6 2 7 1 8 9 9 10 10 11 11 12 12 13 13
REMARK SMILES IDX 14 14 15 15
REMARK H PARENT 15 16
REMARK Flexibility Score: inf
ROOT
ATOM      1  C   UNL     1       5.361  12.012  14.152  1.00  0.00     0.000 C 
ENDROOT
BRANCH   1   2
ATOM      2  C   UNL     1       6.753  11.403  13.919  1.00  0.00    -0.000 C 
BRANCH   2   3
ATOM      3  C   UNL     1       7.786  12.451  13.471  1.00  0.00    -0.000 C 
BRANCH   3   4
ATOM      4  C   UNL     1       8.486  13.146  14.653  1.00  0.00    -0.000 C 
BRANCH   4   5
ATOM      5  C   UNL     1       8.422  14.684  14.633  1.00  0.00    -0.000 C 
BRANCH   5   6
ATOM      6  C   UNL     1       7.159  15.238  15.313  1.00  0.00    -0.000 C 
BRANCH   6   7
ATOM      7  C   UNL     1       6.805  14.482  16.603  1.00  0.00    -0.003 C 
ATOM      8  C   UNL     1       5.306  14.493  16.901  1.00  0.00     0.004 C 
ENDBRANCH   6   7
ENDBRANCH   5   6
ENDBRANCH   4   5
ENDBRANCH   3   4
ENDBRANCH   2   3
ENDBRANCH   1   2
BRANCH   1   9
ATOM      9  C   UNL     1       5.037  13.136  13.152  1.00  0.00     0.000 C 
BRANCH   9  10
ATOM     10  C   UNL     1       3.812  12.823  12.274  1.00  0.00     0.000 C 
BRANCH  10  11
ATOM     11  C   UNL     1       3.936  11.555  11.408  1.00  0.00     0.000 C 
BRANCH  11  12
ATOM     12  C   UNL     1       4.863  11.744  10.197  1.00  0.00     0.002 C 
BRANCH  12  13
ATOM     13  C   UNL     1       6.063  10.791  10.271  1.00  0.00     0.028 C 
BRANCH  13  14
ATOM     14  C   UNL     1       5.702   9.465  10.947  1.00  0.00     0.156 C 
BRANCH  14  15
ATOM     15  O   UNL     1       6.851   8.832  11.445  1.00  0.00    -0.396 OA
ATOM     16  H   UNL     1       7.631   9.358  11.129  1.00  0.00     0.210 HD
ENDBRANCH  14  15
ENDBRANCH  13  14
ENDBRANCH  12  13
ENDBRANCH  11  12
ENDBRANCH  10  11
ENDBRANCH   9  10
ENDBRANCH   1   9
TORSDOF 13
ENDMDL
MODEL 7
REMARK VINA RESULT:    -3.822      1.610      4.339
REMARK INTER + INTRA:          -8.617
REMARK INTER:                  -7.080
REMARK INTRA:                  -1.537
REMARK UNBOUND:                -2.002
REMARK SMILES CCCCCCCCCCCCCCO
REMARK SMILES IDX 8 1 7 2 6 3 5 4 4 5 3 6 2 7 1 8 9 9 10 10 11 11 12 12 13 13
REMARK SMILES IDX 14 14 15 15
REMARK H PARENT 15 16
REMARK Flexibility Score: inf
ROOT
ATOM      1  C   UNL     1       4.753  13.264  12.680  1.00  0.00     0.000 C 
ENDROOT
BRANCH   1   2
ATOM      2  C   UNL     1       4.770  12.714  14.116  1.00  0.00    -0.000 C 
BRANCH   2   3
ATOM      3  C   UNL     1       5.363  11.297  14.196  1.00  0.00    -0.000 C 
BRANCH   3   4
ATOM      4  C   UNL     1       6.814  11.283  14.710  1.00  0.00    -0.000 C 
BRANCH   4   5
ATOM      5  C   UNL     1       7.779  12.219  13.958  1.00  0.00    -0.000 C 
BRANCH   5   6
ATOM      6  C   UNL     1       8.623  13.091  14.903  1.00  0.00    -0.000 C 
BRANCH   6   7
ATOM      7  C   UNL     1       7.760  13.955  15.835  1.00  0.00    -0.003 C 
ATOM      8  C   UNL     1       7.295  15.252  15.175  1.00  0.00     0.004 C 
ENDBRANCH   6   7
ENDBRANCH   5   6
ENDBRANCH   4   5
ENDBRANCH   3   4
ENDBRANCH   2   3
ENDBRANCH   1   2
BRANCH   1   9
ATOM      9  C   UNL     1       4.030  12.323  11.699  1.00  0.00     0.000 C 
BRANCH   9  10
ATOM     10  C   UNL     1       4.960  11.773  10.602  1.00  0.00     0.000 C 
BRANCH  10  11
ATOM     11  C   UNL     1       5.074  10.238  10.552  1.00  0.00     0.000 C 
BRANCH  11  12
ATOM     12  C   UNL     1       6.515   9.737  10.736  1.00  0.00     0.002 C 
BRANCH  12  13
ATOM     13  C   UNL     1       7.517  10.894  10.619  1.00  0.00     0.028 C 
BRANCH  13  14
ATOM     14  C   UNL     1       8.852  10.439  10.024  1.00  0.00     0.156 C 
BRANCH  14  15
ATOM     15  O   UNL     1       9.091   9.088  10.315  1.00  0.00    -0.396 OA
ATOM     16  H   UNL     1       9.075   8.598   9.452  1.00  0.00     0.210 HD
ENDBRANCH  14  15
ENDBRANCH  13  14
ENDBRANCH  12  13
ENDBRANCH  11  12
ENDBRANCH  10  11
ENDBRANCH   9  10
ENDBRANCH   1   9
TORSDOF 13
ENDMDL
MODEL 8
REMARK VINA RESULT:    -3.772      1.979      4.648
REMARK INTER + INTRA:          -8.531
REMARK INTER:                  -6.700
REMARK INTRA:                  -1.831
REMARK UNBOUND:                -2.002
REMARK SMILES CCCCCCCCCCCCCCO
REMARK SMILES IDX 8 1 7 2 6 3 5 4 4 5 3 6 2 7 1 8 9 9 10 10 11 11 12 12 13 13
REMARK SMILES IDX 14 14 15 15
REMARK H PARENT 15 16
REMARK Flexibility Score: inf
ROOT
ATOM      1  C   UNL     1       4.755  13.363  13.110  1.00  0.00     0.000 C 
ENDROOT
BRANCH   1   2
ATOM      2  C   UNL     1       4.570  12.825  14.539  1.00  0.00    -0.000 C 
BRANCH   2   3
ATOM      3  C   UNL     1       5.253  11.462  14.746  1.00  0.00    -0.000 C 
BRANCH   3   4
ATOM      4  C   UNL     1       6.701  11.588  15.253  1.00  0.00    -0.000 C 
BRANCH   4   5
ATOM      5  C   UNL     1       7.759  11.794  14.153  1.00  0.00    -0.000 C 
BRANCH   5   6
ATOM      6  C   UNL     1       8.347  13.215  14.148  1.00  0.00    -0.000 C 
BRANCH   6   7
ATOM      7  C   UNL     1       8.052  13.979  15.448  1.00  0.00    -0.003 C 
ATOM      8  C   UNL     1       7.306  15.290  15.204  1.00  0.00     0.004 C 
ENDBRANCH   6   7
ENDBRANCH   5   6
ENDBRANCH   4   5
ENDBRANCH   3   4
ENDBRANCH   2   3
ENDBRANCH   1   2
BRANCH   1   9
ATOM      9  C   UNL     1       3.714  12.795  12.130  1.00  0.00     0.000 C 
BRANCH   9  10
ATOM     10  C   UNL     1       4.354  12.123  10.900  1.00  0.00     0.000 C 
BRANCH  10  11
ATOM     11  C   UNL     1       5.789  11.606  11.112  1.00  0.00     0.000 C 
BRANCH  11  12
ATOM     12  C   UNL     1       5.915  10.088  10.915  1.00  0.00     0.002 C 
BRANCH  12  13
ATOM     13  C   UNL     1       4.925   9.334  11.813  1.00  0.00     0.028 C 
BRANCH  13  14
ATOM     14  C   UNL     1       5.567   8.113  12.477  1.00  0.00     0.156 C 
BRANCH  14  15
ATOM     15  O   UNL     1       6.620   8.501  13.319  1.00  0.00    -0.396 OA
ATOM     16  H   UNL     1       6.234   9.107  14.004  1.00  0.00     0.210 HD
ENDBRANCH  14  15
ENDBRANCH  13  14
ENDBRANCH  12  13
ENDBRANCH  11  12
ENDBRANCH  10  11
ENDBRANCH   9  10
ENDBRANCH   1   9
TORSDOF 13
ENDMDL
MODEL 9
REMARK VINA RESULT:    -3.712      1.439      3.363
REMARK INTER + INTRA:          -8.427
REMARK INTER:                  -6.523
REMARK INTRA:                  -1.903
REMARK UNBOUND:                -2.002
REMARK SMILES CCCCCCCCCCCCCCO
REMARK SMILES IDX 8 1 7 2 6 3 5 4 4 5 3 6 2 7 1 8 9 9 10 10 11 11 12 12 13 13
REMARK SMILES IDX 14 14 15 15
REMARK H PARENT 15 16
REMARK Flexibility Score: inf
ROOT
ATOM      1  C   UNL     1       5.592  13.510  14.045  1.00  0.00     0.000 C 
ENDROOT
BRANCH   1   2
ATOM      2  C   UNL     1       6.819  13.264  13.152  1.00  0.00    -0.000 C 
BRANCH   2   3
ATOM      3  C   UNL     1       7.667  12.073  13.632  1.00  0.00    -0.000 C 
BRANCH   3   4
ATOM      4  C   UNL     1       7.382  11.688  15.096  1.00  0.00    -0.000 C 
BRANCH   4   5
ATOM      5  C   UNL     1       6.921  10.234  15.306  1.00  0.00    -0.000 C 
BRANCH   5   6
ATOM      6  C   UNL     1       6.687   9.484  13.984  1.00  0.00    -0.000 C 
BRANCH   6   7
ATOM      7  C   UNL     1       5.229   9.033  13.812  1.00  0.00    -0.003 C 
ATOM      8  C   UNL     1       4.601   8.555  15.121  1.00  0.00     0.004 C 
ENDBRANCH   6   7
ENDBRANCH   5   6
ENDBRANCH   4   5
ENDBRANCH   3   4
ENDBRANCH   2   3
ENDBRANCH   1   2
BRANCH   1   9
ATOM      9  C   UNL     1       4.376  12.669  13.617  1.00  0.00     0.000 C 
BRANCH   9  10
ATOM     10  C   UNL     1       4.026  12.839  12.127  1.00  0.00     0.000 C 
BRANCH  10  11
ATOM     11  C   UNL     1       4.051  11.541  11.299  1.00  0.00     0.000 C 
BRANCH  11  12
ATOM     12  C   UNL     1       5.168  11.522  10.244  1.00  0.00     0.002 C 
BRANCH  12  13
ATOM     13  C   UNL     1       6.036  10.265  10.386  1.00  0.00     0.028 C 
BRANCH  13  14
ATOM     14  C   UNL     1       7.527  10.578  10.241  1.00  0.00     0.156 C 
BRANCH  14  15
ATOM     15  O   UNL     1       8.306   9.572  10.833  1.00  0.00    -0.396 OA
ATOM     16  H   UNL     1       8.194   8.756  10.281  1.00  0.00     0.210 HD
ENDBRANCH  14  15
ENDBRANCH  13  14
ENDBRANCH  12  13
ENDBRANCH  11  12
ENDBRANCH  10  11
ENDBRANCH   9  10
ENDBRANCH   1   9
TORSDOF 13
ENDMDL
