MODEL 1
REMARK VINA RESULT:    -6.350      0.000      0.000
REMARK INTER + INTRA:         -10.277
REMARK INTER:                  -9.506
REMARK INTRA:                  -0.771
REMARK UNBOUND:                -0.771
REMARK SMILES C=C(CC[C@H](C(=O)[O-])[C@H]1[C@@H](O)C[C@@]2(C)C3=C(CC[C@]12C)[C@]1(C)CC[C@@H](OC(C)=O)C(C)(C)[C@H]1CC3)C(C)C
REMARK SMILES IDX 4 1 5 2 6 3 7 4 8 5 9 6 10 7 19 8 12 9 13 10 18 11 20 12
REMARK SMILES IDX 14 13 15 14 17 15 16 16 35 17 21 18 34 19 33 20 23 21 22 22
REMARK SMILES IDX 30 23 24 24 25 25 31 26 32 27 11 28 26 30 27 31 29 32 28 33
REMARK SMILES IDX 3 34 2 35 1 36 36 37 37 38 38 39
REMARK H PARENT 11 29
REMARK Flexibility Score: inf
ROOT
ATOM      1  C   UNL     1       9.795  28.124  14.192  1.00  0.00     0.014 C 
ENDROOT
BRANCH   1   2
ATOM      2  C   UNL     1      11.294  28.404  14.456  1.00  0.00     0.042 C 
BRANCH   2   3
ATOM      3  C   UNL     1      11.725  29.607  13.654  1.00  0.00     0.045 C 
ATOM      4  O   UNL     1      10.957  30.600  13.530  1.00  0.00    -0.550 OA
ATOM      5  O   UNL     1      12.968  29.619  13.033  1.00  0.00    -0.550 OA
ENDBRANCH   2   3
BRANCH   2   6
ATOM      6  C   UNL     1      12.230  27.188  14.105  1.00  0.00     0.033 C 
ATOM      7  C   UNL     1      13.528  27.141  14.982  1.00  0.00     0.119 C 
ATOM      8  C   UNL     1      11.674  25.730  14.204  1.00  0.00    -0.017 C 
ATOM      9  C   UNL     1      13.842  25.655  15.252  1.00  0.00     0.043 C 
ATOM     10  C   UNL     1      12.984  24.880  14.247  1.00  0.00    -0.003 C 
ATOM     11  C   UNL     1      10.848  25.211  13.007  1.00  0.00     0.012 C 
ATOM     12  C   UNL     1      10.820  25.589  15.512  1.00  0.00     0.013 C 
ATOM     13  C   UNL     1      13.787  24.824  12.905  1.00  0.00     0.017 C 
ATOM     14  C   UNL     1      12.649  23.435  14.587  1.00  0.00    -0.064 C 
ATOM     15  C   UNL     1      10.599  23.680  13.105  1.00  0.00     0.032 C 
ATOM     16  C   UNL     1      11.565  22.851  13.985  1.00  0.00    -0.064 C 
ATOM     17  C   UNL     1      13.694  22.571  15.263  1.00  0.00     0.032 C 
ATOM     18  C   UNL     1      11.346  21.326  14.147  1.00  0.00    -0.008 C 
ATOM     19  C   UNL     1      13.116  21.392  16.063  1.00  0.00     0.009 C 
ATOM     20  C   UNL     1      11.682  20.961  15.640  1.00  0.00     0.009 C 
ATOM     21  C   UNL     1       9.855  20.953  13.874  1.00  0.00     0.015 C 
ATOM     22  C   UNL     1      12.262  20.618  13.107  1.00  0.00     0.016 C 
ATOM     23  C   UNL     1      11.274  19.507  16.114  1.00  0.00     0.005 C 
ATOM     24  C   UNL     1       9.488  19.518  14.266  1.00  0.00     0.047 C 
ATOM     25  C   UNL     1       9.776  19.258  15.752  1.00  0.00     0.182 C 
ATOM     26  C   UNL     1      12.167  18.378  15.526  1.00  0.00     0.015 C 
ATOM     27  C   UNL     1      11.398  19.426  17.658  1.00  0.00     0.015 C 
BRANCH   7  28
ATOM     28  O   UNL     1      13.362  27.814  16.205  1.00  0.00    -0.393 OA
ATOM     29  H   UNL     1      13.017  28.720  15.986  1.00  0.00     0.210 HD
ENDBRANCH   7  28
BRANCH  25  30
ATOM     30  O   UNL     1       9.400  17.918  16.087  1.00  0.00    -0.462 OA
BRANCH  30  31
ATOM     31  C   UNL     1       8.241  17.294  15.613  1.00  0.00     0.302 C 
ATOM     32  O   UNL     1       7.097  17.734  15.914  1.00  0.00    -0.253 OA
ATOM     33  C   UNL     1       8.364  16.056  14.792  1.00  0.00     0.139 C 
ENDBRANCH  30  31
ENDBRANCH  25  30
ENDBRANCH   2   6
ENDBRANCH   1   2
BRANCH   1  34
ATOM     34  C   UNL     1       8.845  28.628  15.310  1.00  0.00     0.031 C 
BRANCH  34  35
ATOM     35  C   UNL     1       7.621  27.745  15.538  1.00  0.00    -0.075 C 
ATOM     36  C   UNL     1       7.375  26.752  14.662  1.00  0.00     0.008 C 
BRANCH  35  37
ATOM     37  C   UNL     1       6.772  27.794  16.814  1.00  0.00     0.008 C 
ATOM     38  C   UNL     1       5.584  26.826  16.732  1.00  0.00     0.012 C 
ATOM     39  C   UNL     1       6.287  29.195  17.209  1.00  0.00     0.012 C 
ENDBRANCH  35  37
ENDBRANCH  34  35
ENDBRANCH   1  34
TORSDOF 9
ENDMDL
MODEL 2
REMARK VINA RESULT:    -5.698      3.304     10.299
REMARK INTER + INTRA:          -9.301
REMARK INTER:                  -8.920
REMARK INTRA:                  -0.381
REMARK UNBOUND:                -0.771
REMARK SMILES C=C(CC[C@H](C(=O)[O-])[C@H]1[C@@H](O)C[C@@]2(C)C3=C(CC[C@]12C)[C@]1(C)CC[C@@H](OC(C)=O)C(C)(C)[C@H]1CC3)C(C)C
REMARK SMILES IDX 4 1 5 2 6 3 7 4 8 5 9 6 10 7 19 8 12 9 13 10 18 11 20 12
REMARK SMILES IDX 14 13 15 14 17 15 16 16 35 17 21 18 34 19 33 20 23 21 22 22
REMARK SMILES IDX 30 23 24 24 25 25 31 26 32 27 11 28 26 30 27 31 29 32 28 33
REMARK SMILES IDX 3 34 2 35 1 36 36 37 37 38 38 39
REMARK H PARENT 11 29
REMARK Flexibility Score: inf
ROOT
ATOM      1  C   UNL     1      15.662  17.989  16.088  1.00  0.00     0.014 C 
ENDROOT
BRANCH   1   2
ATOM      2  C   UNL     1      14.231  17.476  16.379  1.00  0.00     0.042 C 
BRANCH   2   3
ATOM      3  C   UNL     1      14.023  16.156  15.678  1.00  0.00     0.045 C 
ATOM      4  O   UNL     1      13.432  16.110  14.565  1.00  0.00    -0.550 OA
ATOM      5  O   UNL     1      14.471  14.979  16.265  1.00  0.00    -0.550 OA
ENDBRANCH   2   3
BRANCH   2   6
ATOM      6  C   UNL     1      13.103  18.479  15.933  1.00  0.00     0.033 C 
ATOM      7  C   UNL     1      12.048  18.754  17.059  1.00  0.00     0.119 C 
ATOM      8  C   UNL     1      13.492  19.913  15.445  1.00  0.00    -0.017 C 
ATOM      9  C   UNL     1      11.633  20.235  16.943  1.00  0.00     0.043 C 
ATOM     10  C   UNL     1      12.137  20.682  15.567  1.00  0.00    -0.003 C 
ATOM     11  C   UNL     1      13.951  20.054  13.977  1.00  0.00     0.012 C 
ATOM     12  C   UNL     1      14.604  20.497  16.385  1.00  0.00     0.013 C 
ATOM     13  C   UNL     1      11.044  20.276  14.524  1.00  0.00     0.017 C 
ATOM     14  C   UNL     1      12.370  22.172  15.361  1.00  0.00    -0.064 C 
ATOM     15  C   UNL     1      14.035  21.545  13.546  1.00  0.00     0.032 C 
ATOM     16  C   UNL     1      13.209  22.574  14.354  1.00  0.00    -0.064 C 
ATOM     17  C   UNL     1      11.416  23.165  15.993  1.00  0.00     0.032 C 
ATOM     18  C   UNL     1      13.279  24.078  13.991  1.00  0.00    -0.008 C 
ATOM     19  C   UNL     1      12.023  24.559  16.227  1.00  0.00     0.009 C 
ATOM     20  C   UNL     1      13.258  24.887  15.340  1.00  0.00     0.009 C 
ATOM     21  C   UNL     1      14.612  24.402  13.245  1.00  0.00     0.015 C 
ATOM     22  C   UNL     1      12.070  24.382  13.059  1.00  0.00     0.016 C 
ATOM     23  C   UNL     1      13.592  26.431  15.236  1.00  0.00     0.005 C 
ATOM     24  C   UNL     1      14.889  25.900  13.082  1.00  0.00     0.047 C 
ATOM     25  C   UNL     1      14.925  26.608  14.444  1.00  0.00     0.182 C 
ATOM     26  C   UNL     1      12.461  27.279  14.588  1.00  0.00     0.015 C 
ATOM     27  C   UNL     1      13.821  26.995  16.663  1.00  0.00     0.015 C 
BRANCH   7  28
ATOM     28  O   UNL     1      12.571  18.512  18.341  1.00  0.00    -0.393 OA
ATOM     29  H   UNL     1      12.171  19.193  18.944  1.00  0.00     0.210 HD
ENDBRANCH   7  28
BRANCH  25  30
ATOM     30  O   UNL     1      15.209  27.999  14.254  1.00  0.00    -0.462 OA
BRANCH  30  31
ATOM     31  C   UNL     1      16.470  28.570  14.457  1.00  0.00     0.302 C 
ATOM     32  O   UNL     1      16.615  29.822  14.505  1.00  0.00    -0.253 OA
ATOM     33  C   UNL     1      17.664  27.683  14.554  1.00  0.00     0.139 C 
ENDBRANCH  30  31
ENDBRANCH  25  30
ENDBRANCH   2   6
ENDBRANCH   1   2
BRANCH   1  34
ATOM     34  C   UNL     1      16.619  16.916  15.504  1.00  0.00     0.031 C 
BRANCH  34  35
ATOM     35  C   UNL     1      17.157  17.247  14.115  1.00  0.00    -0.075 C 
ATOM     36  C   UNL     1      16.283  17.613  13.158  1.00  0.00     0.008 C 
BRANCH  35  37
ATOM     37  C   UNL     1      18.652  17.383  13.801  1.00  0.00     0.008 C 
ATOM     38  C   UNL     1      19.512  17.073  15.033  1.00  0.00     0.012 C 
ATOM     39  C   UNL     1      19.061  18.733  13.195  1.00  0.00     0.012 C 
ENDBRANCH  35  37
ENDBRANCH  34  35
ENDBRANCH   1  34
TORSDOF 9
ENDMDL
MODEL 3
REMARK VINA RESULT:    -4.965      4.149     10.300
REMARK INTER + INTRA:          -8.203
REMARK INTER:                  -8.010
REMARK INTRA:                  -0.193
REMARK UNBOUND:                -0.771
REMARK SMILES C=C(CC[C@H](C(=O)[O-])[C@H]1[C@@H](O)C[C@@]2(C)C3=C(CC[C@]12C)[C@]1(C)CC[C@@H](OC(C)=O)C(C)(C)[C@H]1CC3)C(C)C
REMARK SMILES IDX 4 1 5 2 6 3 7 4 8 5 9 6 10 7 19 8 12 9 13 10 18 11 20 12
REMARK SMILES IDX 14 13 15 14 17 15 16 16 35 17 21 18 34 19 33 20 23 21 22 22
REMARK SMILES IDX 30 23 24 24 25 25 31 26 32 27 11 28 26 30 27 31 29 32 28 33
REMARK SMILES IDX 3 34 2 35 1 36 36 37 37 38 38 39
REMARK H PARENT 11 29
REMARK Flexibility Score: inf
ROOT
ATOM      1  C   UNL     1      13.632  17.524  15.705  1.00  0.00     0.014 C 
ENDROOT
BRANCH   1   2
ATOM      2  C   UNL     1      12.198  17.677  15.146  1.00  0.00     0.042 C 
BRANCH   2   3
ATOM      3  C   UNL     1      12.088  16.928  13.841  1.00  0.00     0.045 C 
ATOM      4  O   UNL     1      12.992  17.032  12.968  1.00  0.00    -0.550 OA
ATOM      5  O   UNL     1      10.979  16.130  13.589  1.00  0.00    -0.550 OA
ENDBRANCH   2   3
BRANCH   2   6
ATOM      6  C   UNL     1      11.772  19.176  14.917  1.00  0.00     0.033 C 
ATOM      7  C   UNL     1      11.018  19.792  16.145  1.00  0.00     0.119 C 
ATOM      8  C   UNL     1      12.860  20.247  14.587  1.00  0.00    -0.017 C 
ATOM      9  C   UNL     1      11.449  21.269  16.250  1.00  0.00     0.043 C 
ATOM     10  C   UNL     1      12.117  21.584  14.907  1.00  0.00    -0.003 C 
ATOM     11  C   UNL     1      13.330  20.342  13.119  1.00  0.00     0.012 C 
ATOM     12  C   UNL     1      14.110  20.017  15.508  1.00  0.00     0.013 C 
ATOM     13  C   UNL     1      10.977  21.969  13.906  1.00  0.00     0.017 C 
ATOM     14  C   UNL     1      13.103  22.742  14.875  1.00  0.00    -0.064 C 
ATOM     15  C   UNL     1      14.191  21.613  12.875  1.00  0.00     0.032 C 
ATOM     16  C   UNL     1      14.030  22.790  13.867  1.00  0.00    -0.064 C 
ATOM     17  C   UNL     1      12.816  23.982  15.698  1.00  0.00     0.032 C 
ATOM     18  C   UNL     1      14.886  24.069  13.694  1.00  0.00    -0.008 C 
ATOM     19  C   UNL     1      14.067  24.800  16.061  1.00  0.00     0.009 C 
ATOM     20  C   UNL     1      15.292  24.561  15.132  1.00  0.00     0.009 C 
ATOM     21  C   UNL     1      16.191  23.754  12.897  1.00  0.00     0.015 C 
ATOM     22  C   UNL     1      14.023  25.094  12.901  1.00  0.00     0.016 C 
ATOM     23  C   UNL     1      16.391  25.697  15.200  1.00  0.00     0.005 C 
ATOM     24  C   UNL     1      17.218  24.890  12.904  1.00  0.00     0.047 C 
ATOM     25  C   UNL     1      17.619  25.266  14.338  1.00  0.00     0.182 C 
ATOM     26  C   UNL     1      15.881  27.096  14.751  1.00  0.00     0.015 C 
ATOM     27  C   UNL     1      16.880  25.841  16.665  1.00  0.00     0.015 C 
BRANCH   7  28
ATOM     28  O   UNL     1      11.330  19.127  17.343  1.00  0.00    -0.393 OA
ATOM     29  H   UNL     1      10.853  19.609  18.069  1.00  0.00     0.210 HD
ENDBRANCH   7  28
BRANCH  25  30
ATOM     30  O   UNL     1      18.596  26.312  14.306  1.00  0.00    -0.462 OA
BRANCH  30  31
ATOM     31  C   UNL     1      19.947  26.105  14.009  1.00  0.00     0.302 C 
ATOM     32  O   UNL     1      20.565  26.878  13.226  1.00  0.00    -0.253 OA
ATOM     33  C   UNL     1      20.645  24.918  14.579  1.00  0.00     0.139 C 
ENDBRANCH  30  31
ENDBRANCH  25  30
ENDBRANCH   2   6
ENDBRANCH   1   2
BRANCH   1  34
ATOM     34  C   UNL     1      13.894  16.177  16.430  1.00  0.00     0.031 C 
BRANCH  34  35
ATOM     35  C   UNL     1      14.799  15.217  15.661  1.00  0.00    -0.075 C 
ATOM     36  C   UNL     1      15.976  15.679  15.197  1.00  0.00     0.008 C 
BRANCH  35  37
ATOM     37  C   UNL     1      14.538  13.710  15.562  1.00  0.00     0.008 C 
ATOM     38  C   UNL     1      13.037  13.407  15.476  1.00  0.00     0.012 C 
ATOM     39  C   UNL     1      15.185  12.872  16.674  1.00  0.00     0.012 C 
ENDBRANCH  35  37
ENDBRANCH  34  35
ENDBRANCH   1  34
TORSDOF 9
ENDMDL
MODEL 4
REMARK VINA RESULT:    -4.935      4.366     10.997
REMARK INTER + INTRA:          -8.159
REMARK INTER:                  -7.097
REMARK INTRA:                  -1.062
REMARK UNBOUND:                -0.771
REMARK SMILES C=C(CC[C@H](C(=O)[O-])[C@H]1[C@@H](O)C[C@@]2(C)C3=C(CC[C@]12C)[C@]1(C)CC[C@@H](OC(C)=O)C(C)(C)[C@H]1CC3)C(C)C
REMARK SMILES IDX 4 1 5 2 6 3 7 4 8 5 9 6 10 7 19 8 12 9 13 10 18 11 20 12
REMARK SMILES IDX 14 13 15 14 17 15 16 16 35 17 21 18 34 19 33 20 23 21 22 22
REMARK SMILES IDX 30 23 24 24 25 25 31 26 32 27 11 28 26 30 27 31 29 32 28 33
REMARK SMILES IDX 3 34 2 35 1 36 36 37 37 38 38 39
REMARK H PARENT 11 29
REMARK Flexibility Score: inf
ROOT
ATOM      1  C   UNL     1       3.813  19.662  13.570  1.00  0.00     0.014 C 
ENDROOT
BRANCH   1   2
ATOM      2  C   UNL     1       2.650  20.165  14.458  1.00  0.00     0.042 C 
BRANCH   2   3
ATOM      3  C   UNL     1       1.447  19.277  14.253  1.00  0.00     0.045 C 
ATOM      4  O   UNL     1       0.926  18.673  15.229  1.00  0.00    -0.550 OA
ATOM      5  O   UNL     1       0.916  19.110  12.980  1.00  0.00    -0.550 OA
ENDBRANCH   2   3
BRANCH   2   6
ATOM      6  C   UNL     1       2.243  21.658  14.172  1.00  0.00     0.033 C 
ATOM      7  C   UNL     1       1.167  22.202  15.173  1.00  0.00     0.119 C 
ATOM      8  C   UNL     1       3.338  22.773  14.178  1.00  0.00    -0.017 C 
ATOM      9  C   UNL     1       1.498  23.686  15.436  1.00  0.00     0.043 C 
ATOM     10  C   UNL     1       2.485  24.073  14.331  1.00  0.00    -0.003 C 
ATOM     11  C   UNL     1       4.177  22.942  12.892  1.00  0.00     0.012 C 
ATOM     12  C   UNL     1       4.307  22.541  15.391  1.00  0.00     0.013 C 
ATOM     13  C   UNL     1       1.639  24.466  13.074  1.00  0.00     0.017 C 
ATOM     14  C   UNL     1       3.400  25.260  14.599  1.00  0.00    -0.064 C 
ATOM     15  C   UNL     1       5.022  24.245  12.927  1.00  0.00     0.032 C 
ATOM     16  C   UNL     1       4.559  25.375  13.877  1.00  0.00    -0.064 C 
ATOM     17  C   UNL     1       2.857  26.457  15.354  1.00  0.00     0.032 C 
ATOM     18  C   UNL     1       5.381  26.684  13.979  1.00  0.00    -0.008 C 
ATOM     19  C   UNL     1       3.935  27.295  16.063  1.00  0.00     0.009 C 
ATOM     20  C   UNL     1       5.370  27.128  15.488  1.00  0.00     0.009 C 
ATOM     21  C   UNL     1       6.861  26.439  13.549  1.00  0.00     0.015 C 
ATOM     22  C   UNL     1       4.720  27.716  13.018  1.00  0.00     0.016 C 
ATOM     23  C   UNL     1       6.368  28.292  15.883  1.00  0.00     0.005 C 
ATOM     24  C   UNL     1       7.805  27.604  13.866  1.00  0.00     0.047 C 
ATOM     25  C   UNL     1       7.796  27.931  15.367  1.00  0.00     0.182 C 
ATOM     26  C   UNL     1       5.942  29.693  15.359  1.00  0.00     0.015 C 
ATOM     27  C   UNL     1       6.444  28.389  17.429  1.00  0.00     0.015 C 
BRANCH   7  28
ATOM     28  O   UNL     1       1.175  21.498  16.389  1.00  0.00    -0.393 OA
ATOM     29  H   UNL     1       1.928  20.852  16.339  1.00  0.00     0.210 HD
ENDBRANCH   7  28
BRANCH  25  30
ATOM     30  O   UNL     1       8.705  29.006  15.629  1.00  0.00    -0.462 OA
BRANCH  30  31
ATOM     31  C   UNL     1       9.842  29.269  14.856  1.00  0.00     0.302 C 
ATOM     32  O   UNL     1      10.879  28.558  14.965  1.00  0.00    -0.253 OA
ATOM     33  C   UNL     1       9.844  30.444  13.940  1.00  0.00     0.139 C 
ENDBRANCH  30  31
ENDBRANCH  25  30
ENDBRANCH   2   6
ENDBRANCH   1   2
BRANCH   1  34
ATOM     34  C   UNL     1       4.280  18.217  13.887  1.00  0.00     0.031 C 
BRANCH  34  35
ATOM     35  C   UNL     1       5.733  18.114  14.345  1.00  0.00    -0.075 C 
ATOM     36  C   UNL     1       6.548  19.166  14.134  1.00  0.00     0.008 C 
BRANCH  35  37
ATOM     37  C   UNL     1       6.265  16.966  15.210  1.00  0.00     0.008 C 
ATOM     38  C   UNL     1       7.500  17.396  16.012  1.00  0.00     0.012 C 
ATOM     39  C   UNL     1       6.556  15.667  14.445  1.00  0.00     0.012 C 
ENDBRANCH  35  37
ENDBRANCH  34  35
ENDBRANCH   1  34
TORSDOF 9
ENDMDL
MODEL 5
REMARK VINA RESULT:    -4.731      2.608      9.280
REMARK INTER + INTRA:          -7.853
REMARK INTER:                  -7.062
REMARK INTRA:                  -0.791
REMARK UNBOUND:                -0.771
REMARK SMILES C=C(CC[C@H](C(=O)[O-])[C@H]1[C@@H](O)C[C@@]2(C)C3=C(CC[C@]12C)[C@]1(C)CC[C@@H](OC(C)=O)C(C)(C)[C@H]1CC3)C(C)C
REMARK SMILES IDX 4 1 5 2 6 3 7 4 8 5 9 6 10 7 19 8 12 9 13 10 18 11 20 12
REMARK SMILES IDX 14 13 15 14 17 15 16 16 35 17 21 18 34 19 33 20 23 21 22 22
REMARK SMILES IDX 30 23 24 24 25 25 31 26 32 27 11 28 26 30 27 31 29 32 28 33
REMARK SMILES IDX 3 34 2 35 1 36 36 37 37 38 38 39
REMARK H PARENT 11 29
REMARK Flexibility Score: inf
ROOT
ATOM      1  C   UNL     1      10.812  16.244  13.089  1.00  0.00     0.014 C 
ENDROOT
BRANCH   1   2
ATOM      2  C   UNL     1      12.325  16.327  13.405  1.00  0.00     0.042 C 
BRANCH   2   3
ATOM      3  C   UNL     1      12.832  14.956  13.779  1.00  0.00     0.045 C 
ATOM      4  O   UNL     1      12.882  14.037  12.917  1.00  0.00    -0.550 OA
ATOM      5  O   UNL     1      13.233  14.695  15.083  1.00  0.00    -0.550 OA
ENDBRANCH   2   3
BRANCH   2   6
ATOM      6  C   UNL     1      12.668  17.336  14.564  1.00  0.00     0.033 C 
ATOM      7  C   UNL     1      14.192  17.356  14.927  1.00  0.00     0.119 C 
ATOM      8  C   UNL     1      12.316  18.851  14.399  1.00  0.00    -0.017 C 
ATOM      9  C   UNL     1      14.557  18.812  15.282  1.00  0.00     0.043 C 
ATOM     10  C   UNL     1      13.214  19.518  15.490  1.00  0.00    -0.003 C 
ATOM     11  C   UNL     1      10.862  19.271  14.704  1.00  0.00     0.012 C 
ATOM     12  C   UNL     1      12.687  19.314  12.947  1.00  0.00     0.013 C 
ATOM     13  C   UNL     1      12.778  19.249  16.969  1.00  0.00     0.017 C 
ATOM     14  C   UNL     1      13.189  21.031  15.322  1.00  0.00    -0.064 C 
ATOM     15  C   UNL     1      10.716  20.817  14.776  1.00  0.00     0.032 C 
ATOM     16  C   UNL     1      11.992  21.645  15.061  1.00  0.00    -0.064 C 
ATOM     17  C   UNL     1      14.369  21.849  15.806  1.00  0.00     0.032 C 
ATOM     18  C   UNL     1      11.914  23.191  15.110  1.00  0.00    -0.008 C 
ATOM     19  C   UNL     1      14.524  23.208  15.102  1.00  0.00     0.009 C 
ATOM     20  C   UNL     1      13.224  23.748  14.440  1.00  0.00     0.009 C 
ATOM     21  C   UNL     1      10.687  23.707  14.294  1.00  0.00     0.015 C 
ATOM     22  C   UNL     1      11.756  23.595  16.606  1.00  0.00     0.016 C 
ATOM     23  C   UNL     1      13.248  25.300  14.132  1.00  0.00     0.005 C 
ATOM     24  C   UNL     1      10.679  25.222  14.068  1.00  0.00     0.047 C 
ATOM     25  C   UNL     1      11.954  25.680  13.345  1.00  0.00     0.182 C 
ATOM     26  C   UNL     1      13.390  26.192  15.398  1.00  0.00     0.015 C 
ATOM     27  C   UNL     1      14.458  25.616  13.215  1.00  0.00     0.015 C 
BRANCH   7  28
ATOM     28  O   UNL     1      14.994  16.919  13.859  1.00  0.00    -0.393 OA
ATOM     29  H   UNL     1      15.938  17.021  14.151  1.00  0.00     0.210 HD
ENDBRANCH   7  28
BRANCH  25  30
ATOM     30  O   UNL     1      11.901  27.095  13.129  1.00  0.00    -0.462 OA
BRANCH  30  31
ATOM     31  C   UNL     1      10.828  27.902  13.522  1.00  0.00     0.302 C 
ATOM     32  O   UNL     1       9.745  27.901  12.875  1.00  0.00    -0.253 OA
ATOM     33  C   UNL     1      10.995  28.820  14.684  1.00  0.00     0.139 C 
ENDBRANCH  30  31
ENDBRANCH  25  30
ENDBRANCH   2   6
ENDBRANCH   1   2
BRANCH   1  34
ATOM     34  C   UNL     1       9.958  15.610  14.219  1.00  0.00     0.031 C 
BRANCH  34  35
ATOM     35  C   UNL     1       8.451  15.691  13.984  1.00  0.00    -0.075 C 
ATOM     36  C   UNL     1       7.847  14.676  13.338  1.00  0.00     0.008 C 
BRANCH  35  37
ATOM     37  C   UNL     1       7.556  16.763  14.619  1.00  0.00     0.008 C 
ATOM     38  C   UNL     1       7.449  18.003  13.722  1.00  0.00     0.012 C 
ATOM     39  C   UNL     1       7.955  17.171  16.043  1.00  0.00     0.012 C 
ENDBRANCH  35  37
ENDBRANCH  34  35
ENDBRANCH   1  34
TORSDOF 9
ENDMDL
MODEL 6
REMARK VINA RESULT:    -4.035      3.790      9.967
REMARK INTER + INTRA:          -6.812
REMARK INTER:                  -6.459
REMARK INTRA:                  -0.353
REMARK UNBOUND:                -0.771
REMARK SMILES C=C(CC[C@H](C(=O)[O-])[C@H]1[C@@H](O)C[C@@]2(C)C3=C(CC[C@]12C)[C@]1(C)CC[C@@H](OC(C)=O)C(C)(C)[C@H]1CC3)C(C)C
REMARK SMILES IDX 4 1 5 2 6 3 7 4 8 5 9 6 10 7 19 8 12 9 13 10 18 11 20 12
REMARK SMILES IDX 14 13 15 14 17 15 16 16 35 17 21 18 34 19 33 20 23 21 22 22
REMARK SMILES IDX 30 23 24 24 25 25 31 26 32 27 11 28 26 30 27 31 29 32 28 33
REMARK SMILES IDX 3 34 2 35 1 36 36 37 37 38 38 39
REMARK H PARENT 11 29
REMARK Flexibility Score: inf
ROOT
ATOM      1  C   UNL     1       9.393  18.245  15.821  1.00  0.00     0.014 C 
ENDROOT
BRANCH   1   2
ATOM      2  C   UNL     1       8.505  17.214  15.084  1.00  0.00     0.042 C 
BRANCH   2   3
ATOM      3  C   UNL     1       9.285  16.610  13.942  1.00  0.00     0.045 C 
ATOM      4  O   UNL     1       9.461  17.259  12.875  1.00  0.00    -0.550 OA
ATOM      5  O   UNL     1       9.802  15.325  14.056  1.00  0.00    -0.550 OA
ENDBRANCH   2   3
BRANCH   2   6
ATOM      6  C   UNL     1       7.166  17.826  14.526  1.00  0.00     0.033 C 
ATOM      7  C   UNL     1       5.894  17.293  15.270  1.00  0.00     0.119 C 
ATOM      8  C   UNL     1       6.963  19.376  14.530  1.00  0.00    -0.017 C 
ATOM      9  C   UNL     1       4.894  18.464  15.359  1.00  0.00     0.043 C 
ATOM     10  C   UNL     1       5.415  19.507  14.365  1.00  0.00    -0.003 C 
ATOM     11  C   UNL     1       7.602  20.170  13.369  1.00  0.00     0.012 C 
ATOM     12  C   UNL     1       7.477  19.962  15.892  1.00  0.00     0.013 C 
ATOM     13  C   UNL     1       4.859  19.116  12.955  1.00  0.00     0.017 C 
ATOM     14  C   UNL     1       4.994  20.952  14.588  1.00  0.00    -0.064 C 
ATOM     15  C   UNL     1       7.097  21.639  13.337  1.00  0.00     0.032 C 
ATOM     16  C   UNL     1       5.751  21.951  14.034  1.00  0.00    -0.064 C 
ATOM     17  C   UNL     1       3.590  21.249  15.074  1.00  0.00     0.032 C 
ATOM     18  C   UNL     1       5.215  23.404  14.063  1.00  0.00    -0.008 C 
ATOM     19  C   UNL     1       3.446  22.595  15.803  1.00  0.00     0.009 C 
ATOM     20  C   UNL     1       4.557  23.634  15.474  1.00  0.00     0.009 C 
ATOM     21  C   UNL     1       6.383  24.426  13.894  1.00  0.00     0.015 C 
ATOM     22  C   UNL     1       4.218  23.548  12.876  1.00  0.00     0.016 C 
ATOM     23  C   UNL     1       4.178  25.127  15.835  1.00  0.00     0.005 C 
ATOM     24  C   UNL     1       5.988  25.879  14.172  1.00  0.00     0.047 C 
ATOM     25  C   UNL     1       5.422  26.038  15.591  1.00  0.00     0.182 C 
ATOM     26  C   UNL     1       2.948  25.673  15.056  1.00  0.00     0.015 C 
ATOM     27  C   UNL     1       3.833  25.209  17.346  1.00  0.00     0.015 C 
BRANCH   7  28
ATOM     28  O   UNL     1       6.193  16.833  16.564  1.00  0.00    -0.393 OA
ATOM     29  H   UNL     1       5.324  16.686  17.021  1.00  0.00     0.210 HD
ENDBRANCH   7  28
BRANCH  25  30
ATOM     30  O   UNL     1       5.087  27.410  15.824  1.00  0.00    -0.462 OA
BRANCH  30  31
ATOM     31  C   UNL     1       5.969  28.343  16.380  1.00  0.00     0.302 C 
ATOM     32  O   UNL     1       5.929  28.620  17.611  1.00  0.00    -0.253 OA
ATOM     33  C   UNL     1       6.925  29.063  15.491  1.00  0.00     0.139 C 
ENDBRANCH  30  31
ENDBRANCH  25  30
ENDBRANCH   2   6
ENDBRANCH   1   2
BRANCH   1  34
ATOM     34  C   UNL     1      10.894  18.189  15.430  1.00  0.00     0.031 C 
BRANCH  34  35
ATOM     35  C   UNL     1      11.554  19.558  15.283  1.00  0.00    -0.075 C 
ATOM     36  C   UNL     1      11.216  20.322  14.226  1.00  0.00     0.008 C 
BRANCH  35  37
ATOM     37  C   UNL     1      12.424  20.196  16.373  1.00  0.00     0.008 C 
ATOM     38  C   UNL     1      13.842  20.478  15.861  1.00  0.00     0.012 C 
ATOM     39  C   UNL     1      12.482  19.409  17.690  1.00  0.00     0.012 C 
ENDBRANCH  35  37
ENDBRANCH  34  35
ENDBRANCH   1  34
TORSDOF 9
ENDMDL
MODEL 7
REMARK VINA RESULT:    -3.882      2.990      6.153
REMARK INTER + INTRA:          -6.583
REMARK INTER:                  -5.591
REMARK INTRA:                  -0.992
REMARK UNBOUND:                -0.771
REMARK SMILES C=C(CC[C@H](C(=O)[O-])[C@H]1[C@@H](O)C[C@@]2(C)C3=C(CC[C@]12C)[C@]1(C)CC[C@@H](OC(C)=O)C(C)(C)[C@H]1CC3)C(C)C
REMARK SMILES IDX 4 1 5 2 6 3 7 4 8 5 9 6 10 7 19 8 12 9 13 10 18 11 20 12
REMARK SMILES IDX 14 13 15 14 17 15 16 16 35 17 21 18 34 19 33 20 23 21 22 22
REMARK SMILES IDX 30 23 24 24 25 25 31 26 32 27 11 28 26 30 27 31 29 32 28 33
REMARK SMILES IDX 3 34 2 35 1 36 36 37 37 38 38 39
REMARK H PARENT 11 29
REMARK Flexibility Score: inf
ROOT
ATOM      1  C   UNL     1      15.625  26.484  14.479  1.00  0.00     0.014 C 
ENDROOT
BRANCH   1   2
ATOM      2  C   UNL     1      14.158  26.788  14.092  1.00  0.00     0.042 C 
BRANCH   2   3
ATOM      3  C   UNL     1      13.861  28.242  14.366  1.00  0.00     0.045 C 
ATOM      4  O   UNL     1      13.252  28.941  13.512  1.00  0.00    -0.550 OA
ATOM      5  O   UNL     1      14.273  28.822  15.560  1.00  0.00    -0.550 OA
ENDBRANCH   2   3
BRANCH   2   6
ATOM      6  C   UNL     1      13.110  25.896  14.857  1.00  0.00     0.033 C 
ATOM      7  C   UNL     1      11.662  26.015  14.272  1.00  0.00     0.119 C 
ATOM      8  C   UNL     1      13.335  24.352  14.955  1.00  0.00    -0.017 C 
ATOM      9  C   UNL     1      11.011  24.620  14.377  1.00  0.00     0.043 C 
ATOM     10  C   UNL     1      11.911  23.835  15.337  1.00  0.00    -0.003 C 
ATOM     11  C   UNL     1      14.298  23.850  16.052  1.00  0.00     0.012 C 
ATOM     12  C   UNL     1      13.820  23.810  13.564  1.00  0.00     0.013 C 
ATOM     13  C   UNL     1      11.444  24.181  16.790  1.00  0.00     0.017 C 
ATOM     14  C   UNL     1      11.872  22.316  15.243  1.00  0.00    -0.064 C 
ATOM     15  C   UNL     1      14.216  22.307  16.223  1.00  0.00     0.032 C 
ATOM     16  C   UNL     1      12.931  21.598  15.733  1.00  0.00    -0.064 C 
ATOM     17  C   UNL     1      10.551  21.625  14.970  1.00  0.00     0.032 C 
ATOM     18  C   UNL     1      12.807  20.059  15.847  1.00  0.00    -0.008 C 
ATOM     19  C   UNL     1      10.690  20.232  14.332  1.00  0.00     0.009 C 
ATOM     20  C   UNL     1      12.070  19.550  14.553  1.00  0.00     0.009 C 
ATOM     21  C   UNL     1      14.219  19.395  15.901  1.00  0.00     0.015 C 
ATOM     22  C   UNL     1      12.036  19.757  17.166  1.00  0.00     0.016 C 
ATOM     23  C   UNL     1      12.068  17.986  14.317  1.00  0.00     0.005 C 
ATOM     24  C   UNL     1      14.200  17.871  15.749  1.00  0.00     0.047 C 
ATOM     25  C   UNL     1      13.531  17.454  14.430  1.00  0.00     0.182 C 
ATOM     26  C   UNL     1      11.134  17.203  15.284  1.00  0.00     0.015 C 
ATOM     27  C   UNL     1      11.578  17.692  12.875  1.00  0.00     0.015 C 
BRANCH   7  28
ATOM     28  O   UNL     1      11.668  26.429  12.929  1.00  0.00    -0.393 OA
ATOM     29  H   UNL     1      11.485  27.405  12.932  1.00  0.00     0.210 HD
ENDBRANCH   7  28
BRANCH  25  30
ATOM     30  O   UNL     1      13.553  16.028  14.311  1.00  0.00    -0.462 OA
BRANCH  30  31
ATOM     31  C   UNL     1      14.601  15.224  14.773  1.00  0.00     0.302 C 
ATOM     32  O   UNL     1      15.744  15.280  14.241  1.00  0.00    -0.253 OA
ATOM     33  C   UNL     1      14.342  14.246  15.867  1.00  0.00     0.139 C 
ENDBRANCH  30  31
ENDBRANCH  25  30
ENDBRANCH   2   6
ENDBRANCH   1   2
BRANCH   1  34
ATOM     34  C   UNL     1      16.669  26.933  13.423  1.00  0.00     0.031 C 
BRANCH  34  35
ATOM     35  C   UNL     1      18.116  26.866  13.906  1.00  0.00    -0.075 C 
ATOM     36  C   UNL     1      18.751  28.019  14.190  1.00  0.00     0.008 C 
BRANCH  35  37
ATOM     37  C   UNL     1      18.821  25.556  14.278  1.00  0.00     0.008 C 
ATOM     38  C   UNL     1      20.286  25.800  14.662  1.00  0.00     0.012 C 
ATOM     39  C   UNL     1      18.728  24.452  13.216  1.00  0.00     0.012 C 
ENDBRANCH  35  37
ENDBRANCH  34  35
ENDBRANCH   1  34
TORSDOF 9
ENDMDL
MODEL 8
REMARK VINA RESULT:    -3.860      3.024     10.116
REMARK INTER + INTRA:          -6.549
REMARK INTER:                  -9.211
REMARK INTRA:                   2.662
REMARK UNBOUND:                -0.771
REMARK SMILES C=C(CC[C@H](C(=O)[O-])[C@H]1[C@@H](O)C[C@@]2(C)C3=C(CC[C@]12C)[C@]1(C)CC[C@@H](OC(C)=O)C(C)(C)[C@H]1CC3)C(C)C
REMARK SMILES IDX 4 1 5 2 6 3 7 4 8 5 9 6 10 7 19 8 12 9 13 10 18 11 20 12
REMARK SMILES IDX 14 13 15 14 17 15 16 16 35 17 21 18 34 19 33 20 23 21 22 22
REMARK SMILES IDX 30 23 24 24 25 25 31 26 32 27 11 28 26 30 27 31 29 32 28 33
REMARK SMILES IDX 3 34 2 35 1 36 36 37 37 38 38 39
REMARK H PARENT 11 29
REMARK Flexibility Score: inf
ROOT
ATOM      1  C   UNL     1      14.121  15.840  15.982  1.00  0.00     0.014 C 
ENDROOT
BRANCH   1   2
ATOM      2  C   UNL     1      14.513  17.250  15.479  1.00  0.00     0.042 C 
BRANCH   2   3
ATOM      3  C   UNL     1      15.507  17.862  16.435  1.00  0.00     0.045 C 
ATOM      4  O   UNL     1      16.635  18.247  16.023  1.00  0.00    -0.550 OA
ATOM      5  O   UNL     1      15.189  17.989  17.782  1.00  0.00    -0.550 OA
ENDBRANCH   2   3
BRANCH   2   6
ATOM      6  C   UNL     1      13.285  18.223  15.323  1.00  0.00     0.033 C 
ATOM      7  C   UNL     1      12.417  18.328  16.624  1.00  0.00     0.119 C 
ATOM      8  C   UNL     1      13.526  19.716  14.928  1.00  0.00    -0.017 C 
ATOM      9  C   UNL     1      11.926  19.787  16.727  1.00  0.00     0.043 C 
ATOM     10  C   UNL     1      12.178  20.389  15.341  1.00  0.00    -0.003 C 
ATOM     11  C   UNL     1      13.733  20.021  13.428  1.00  0.00     0.012 C 
ATOM     12  C   UNL     1      14.751  20.274  15.735  1.00  0.00     0.013 C 
ATOM     13  C   UNL     1      10.947  20.019  14.448  1.00  0.00     0.017 C 
ATOM     14  C   UNL     1      12.311  21.903  15.253  1.00  0.00    -0.064 C 
ATOM     15  C   UNL     1      13.682  21.548  13.143  1.00  0.00     0.032 C 
ATOM     16  C   UNL     1      12.955  22.446  14.173  1.00  0.00    -0.064 C 
ATOM     17  C   UNL     1      11.431  22.775  16.126  1.00  0.00     0.032 C 
ATOM     18  C   UNL     1      12.901  23.979  13.958  1.00  0.00    -0.008 C 
ATOM     19  C   UNL     1      12.007  24.174  16.402  1.00  0.00     0.009 C 
ATOM     20  C   UNL     1      13.066  24.656  15.369  1.00  0.00     0.009 C 
ATOM     21  C   UNL     1      14.079  24.449  13.047  1.00  0.00     0.015 C 
ATOM     22  C   UNL     1      11.544  24.297  13.265  1.00  0.00     0.016 C 
ATOM     23  C   UNL     1      13.311  26.219  15.371  1.00  0.00     0.005 C 
ATOM     24  C   UNL     1      14.260  25.969  12.996  1.00  0.00     0.047 C 
ATOM     25  C   UNL     1      14.488  26.549  14.400  1.00  0.00     0.182 C 
ATOM     26  C   UNL     1      12.054  27.056  14.999  1.00  0.00     0.015 C 
ATOM     27  C   UNL     1      13.746  26.661  16.793  1.00  0.00     0.015 C 
BRANCH   7  28
ATOM     28  O   UNL     1      13.152  17.999  17.775  1.00  0.00    -0.393 OA
ATOM     29  H   UNL     1      12.555  18.166  18.551  1.00  0.00     0.210 HD
ENDBRANCH   7  28
BRANCH  25  30
ATOM     30  O   UNL     1      14.677  27.965  14.310  1.00  0.00    -0.462 OA
BRANCH  30  31
ATOM     31  C   UNL     1      15.903  28.601  14.535  1.00  0.00     0.302 C 
ATOM     32  O   UNL     1      16.057  29.825  14.268  1.00  0.00    -0.253 OA
ATOM     33  C   UNL     1      17.057  27.803  15.038  1.00  0.00     0.139 C 
ENDBRANCH  30  31
ENDBRANCH  25  30
ENDBRANCH   2   6
ENDBRANCH   1   2
BRANCH   1  34
ATOM     34  C   UNL     1      14.428  14.697  14.978  1.00  0.00     0.031 C 
BRANCH  34  35
ATOM     35  C   UNL     1      13.232  13.799  14.667  1.00  0.00    -0.075 C 
ATOM     36  C   UNL     1      12.877  12.869  15.574  1.00  0.00     0.008 C 
BRANCH  35  37
ATOM     37  C   UNL     1      12.292  14.030  13.479  1.00  0.00     0.008 C 
ATOM     38  C   UNL     1      11.444  15.293  13.674  1.00  0.00     0.012 C 
ATOM     39  C   UNL     1      11.392  12.836  13.132  1.00  0.00     0.012 C 
ENDBRANCH  35  37
ENDBRANCH  34  35
ENDBRANCH   1  34
TORSDOF 9
ENDMDL
MODEL 9
REMARK VINA RESULT:    -3.793      2.316      3.859
REMARK INTER + INTRA:          -6.449
REMARK INTER:                  -8.641
REMARK INTRA:                   2.192
REMARK UNBOUND:                -0.771
REMARK SMILES C=C(CC[C@H](C(=O)[O-])[C@H]1[C@@H](O)C[C@@]2(C)C3=C(CC[C@]12C)[C@]1(C)CC[C@@H](OC(C)=O)C(C)(C)[C@H]1CC3)C(C)C
REMARK SMILES IDX 4 1 5 2 6 3 7 4 8 5 9 6 10 7 19 8 12 9 13 10 18 11 20 12
REMARK SMILES IDX 14 13 15 14 17 15 16 16 35 17 21 18 34 19 33 20 23 21 22 22
REMARK SMILES IDX 30 23 24 24 25 25 31 26 32 27 11 28 26 30 27 31 29 32 28 33
REMARK SMILES IDX 3 34 2 35 1 36 36 37 37 38 38 39
REMARK H PARENT 11 29
REMARK Flexibility Score: inf
ROOT
ATOM      1  C   UNL     1      12.621  29.061  15.521  1.00  0.00     0.014 C 
ENDROOT
BRANCH   1   2
ATOM      2  C   UNL     1      13.275  27.659  15.505  1.00  0.00     0.042 C 
BRANCH   2   3
ATOM      3  C   UNL     1      14.597  27.734  14.781  1.00  0.00     0.045 C 
ATOM      4  O   UNL     1      15.447  26.811  14.908  1.00  0.00    -0.550 OA
ATOM      5  O   UNL     1      14.889  28.831  13.980  1.00  0.00    -0.550 OA
ENDBRANCH   2   3
BRANCH   2   6
ATOM      6  C   UNL     1      12.379  26.556  14.829  1.00  0.00     0.033 C 
ATOM      7  C   UNL     1      12.573  26.477  13.276  1.00  0.00     0.119 C 
ATOM      8  C   UNL     1      12.508  25.067  15.285  1.00  0.00    -0.017 C 
ATOM      9  C   UNL     1      12.465  24.990  12.878  1.00  0.00     0.043 C 
ATOM     10  C   UNL     1      11.847  24.298  14.097  1.00  0.00    -0.003 C 
ATOM     11  C   UNL     1      11.743  24.654  16.561  1.00  0.00     0.012 C 
ATOM     12  C   UNL     1      14.026  24.710  15.464  1.00  0.00     0.013 C 
ATOM     13  C   UNL     1      10.295  24.461  13.979  1.00  0.00     0.017 C 
ATOM     14  C   UNL     1      12.094  22.804  14.249  1.00  0.00    -0.064 C 
ATOM     15  C   UNL     1      11.726  23.111  16.745  1.00  0.00     0.032 C 
ATOM     16  C   UNL     1      11.960  22.237  15.489  1.00  0.00    -0.064 C 
ATOM     17  C   UNL     1      12.108  21.926  13.014  1.00  0.00     0.032 C 
ATOM     18  C   UNL     1      11.987  20.693  15.617  1.00  0.00    -0.008 C 
ATOM     19  C   UNL     1      12.908  20.623  13.176  1.00  0.00     0.009 C 
ATOM     20  C   UNL     1      13.109  20.163  14.649  1.00  0.00     0.009 C 
ATOM     21  C   UNL     1      12.355  20.268  17.073  1.00  0.00     0.015 C 
ATOM     22  C   UNL     1      10.561  20.179  15.265  1.00  0.00     0.016 C 
ATOM     23  C   UNL     1      13.506  18.639  14.805  1.00  0.00     0.005 C 
ATOM     24  C   UNL     1      12.663  18.776  17.230  1.00  0.00     0.047 C 
ATOM     25  C   UNL     1      13.814  18.348  16.308  1.00  0.00     0.182 C 
ATOM     26  C   UNL     1      12.431  17.649  14.274  1.00  0.00     0.015 C 
ATOM     27  C   UNL     1      14.807  18.371  14.004  1.00  0.00     0.015 C 
BRANCH   7  28
ATOM     28  O   UNL     1      13.824  26.979  12.875  1.00  0.00    -0.393 OA
ATOM     29  H   UNL     1      14.353  27.118  13.704  1.00  0.00     0.210 HD
ENDBRANCH   7  28
BRANCH  25  30
ATOM     30  O   UNL     1      14.090  16.956  16.498  1.00  0.00    -0.462 OA
BRANCH  30  31
ATOM     31  C   UNL     1      15.332  16.367  16.236  1.00  0.00     0.302 C 
ATOM     32  O   UNL     1      16.403  17.018  16.380  1.00  0.00    -0.253 OA
ATOM     33  C   UNL     1      15.381  14.969  15.719  1.00  0.00     0.139 C 
ENDBRANCH  30  31
ENDBRANCH  25  30
ENDBRANCH   2   6
ENDBRANCH   1   2
BRANCH   1  34
ATOM     34  C   UNL     1      11.456  29.233  14.510  1.00  0.00     0.031 C 
BRANCH  34  35
ATOM     35  C   UNL     1      10.101  29.507  15.157  1.00  0.00    -0.075 C 
ATOM     36  C   UNL     1       9.883  30.720  15.699  1.00  0.00     0.008 C 
BRANCH  35  37
ATOM     37  C   UNL     1       8.906  28.552  15.046  1.00  0.00     0.008 C 
ATOM     38  C   UNL     1       8.909  27.807  13.706  1.00  0.00     0.012 C 
ATOM     39  C   UNL     1       7.538  29.206  15.286  1.00  0.00     0.012 C 
ENDBRANCH  35  37
ENDBRANCH  34  35
ENDBRANCH   1  34
TORSDOF 9
ENDMDL
