MODEL 1
REMARK VINA RESULT:    -2.871      0.000      0.000
REMARK INTER + INTRA:          -4.358
REMARK INTER:                  -3.962
REMARK INTRA:                  -0.396
REMARK UNBOUND:                -0.396
REMARK SMILES CCCCCCCCO
REMARK SMILES IDX 5 1 4 2 3 3 2 4 1 5 6 6 7 7 8 8 9 9
REMARK H PARENT 9 10
REMARK Flexibility Score: inf
ROOT
ATOM      1  C   UNL     1     140.566 132.717 138.952  1.00  0.00     0.000 C 
ENDROOT
BRANCH   1   2
ATOM      2  C   UNL     1     141.407 133.031 140.195  1.00  0.00    -0.000 C 
BRANCH   2   3
ATOM      3  C   UNL     1     141.263 131.923 141.249  1.00  0.00    -0.000 C 
BRANCH   3   4
ATOM      4  C   UNL     1     140.014 131.056 141.027  1.00  0.00    -0.003 C 
ATOM      5  C   UNL     1     138.955 131.256 142.113  1.00  0.00     0.004 C 
ENDBRANCH   3   4
ENDBRANCH   2   3
ENDBRANCH   1   2
BRANCH   1   6
ATOM      6  C   UNL     1     139.912 133.987 138.393  1.00  0.00     0.002 C 
BRANCH   6   7
ATOM      7  C   UNL     1     139.159 134.748 139.493  1.00  0.00     0.028 C 
BRANCH   7   8
ATOM      8  C   UNL     1     139.607 136.206 139.583  1.00  0.00     0.156 C 
BRANCH   8   9
ATOM      9  O   UNL     1     139.446 136.682 140.892  1.00  0.00    -0.396 OA
ATOM     10  H   UNL     1     140.310 137.100 141.140  1.00  0.00     0.210 HD
ENDBRANCH   8   9
ENDBRANCH   7   8
ENDBRANCH   6   7
ENDBRANCH   1   6
TORSDOF 7
ENDMDL
MODEL 2
REMARK VINA RESULT:    -2.816     12.184     15.158
REMARK INTER + INTRA:          -4.282
REMARK INTER:                  -3.910
REMARK INTRA:                  -0.373
REMARK UNBOUND:                -0.396
REMARK SMILES CCCCCCCCO
REMARK SMILES IDX 5 1 4 2 3 3 2 4 1 5 6 6 7 7 8 8 9 9
REMARK H PARENT 9 10
REMARK Flexibility Score: inf
ROOT
ATOM      1  C   UNL     1     140.883 148.676 138.888  1.00  0.00     0.000 C 
ENDROOT
BRANCH   1   2
ATOM      2  C   UNL     1     140.363 148.399 140.303  1.00  0.00    -0.000 C 
BRANCH   2   3
ATOM      3  C   UNL     1     140.414 149.671 141.165  1.00  0.00    -0.000 C 
BRANCH   3   4
ATOM      4  C   UNL     1     141.710 150.471 140.957  1.00  0.00    -0.003 C 
ATOM      5  C   UNL     1     142.712 150.280 142.096  1.00  0.00     0.004 C 
ENDBRANCH   3   4
ENDBRANCH   2   3
ENDBRANCH   1   2
BRANCH   1   6
ATOM      6  C   UNL     1     141.627 147.458 138.327  1.00  0.00     0.002 C 
BRANCH   6   7
ATOM      7  C   UNL     1     142.467 146.776 139.416  1.00  0.00     0.028 C 
BRANCH   7   8
ATOM      8  C   UNL     1     142.109 145.297 139.565  1.00  0.00     0.156 C 
BRANCH   8   9
ATOM      9  O   UNL     1     142.224 144.905 140.906  1.00  0.00    -0.396 OA
ATOM     10  H   UNL     1     141.541 144.200 141.045  1.00  0.00     0.210 HD
ENDBRANCH   8   9
ENDBRANCH   7   8
ENDBRANCH   6   7
ENDBRANCH   1   6
TORSDOF 7
ENDMDL
MODEL 3
REMARK VINA RESULT:    -2.765     14.354     15.968
REMARK INTER + INTRA:          -4.212
REMARK INTER:                  -3.607
REMARK INTRA:                  -0.605
REMARK UNBOUND:                -0.396
REMARK SMILES CCCCCCCCO
REMARK SMILES IDX 5 1 4 2 3 3 2 4 1 5 6 6 7 7 8 8 9 9
REMARK H PARENT 9 10
REMARK Flexibility Score: inf
ROOT
ATOM      1  C   UNL     1     143.032 148.680 140.120  1.00  0.00     0.000 C 
ENDROOT
BRANCH   1   2
ATOM      2  C   UNL     1     142.796 147.956 138.788  1.00  0.00    -0.000 C 
BRANCH   2   3
ATOM      3  C   UNL     1     141.401 147.313 138.754  1.00  0.00    -0.000 C 
BRANCH   3   4
ATOM      4  C   UNL     1     140.372 148.176 138.006  1.00  0.00    -0.003 C 
ATOM      5  C   UNL     1     141.013 149.075 136.948  1.00  0.00     0.004 C 
ENDBRANCH   3   4
ENDBRANCH   2   3
ENDBRANCH   1   2
BRANCH   1   6
ATOM      6  C   UNL     1     143.040 150.202 139.925  1.00  0.00     0.002 C 
BRANCH   6   7
ATOM      7  C   UNL     1     141.757 150.834 140.480  1.00  0.00     0.028 C 
BRANCH   7   8
ATOM      8  C   UNL     1     141.135 149.981 141.586  1.00  0.00     0.156 C 
BRANCH   8   9
ATOM      9  O   UNL     1     139.752 149.869 141.390  1.00  0.00    -0.396 OA
ATOM     10  H   UNL     1     139.504 148.958 141.694  1.00  0.00     0.210 HD
ENDBRANCH   8   9
ENDBRANCH   7   8
ENDBRANCH   6   7
ENDBRANCH   1   6
TORSDOF 7
ENDMDL
MODEL 4
REMARK VINA RESULT:    -2.724      8.477      9.645
REMARK INTER + INTRA:          -4.156
REMARK INTER:                  -3.747
REMARK INTRA:                  -0.409
REMARK UNBOUND:                -0.396
REMARK SMILES CCCCCCCCO
REMARK SMILES IDX 5 1 4 2 3 3 2 4 1 5 6 6 7 7 8 8 9 9
REMARK H PARENT 9 10
REMARK Flexibility Score: inf
ROOT
ATOM      1  C   UNL     1     140.423 141.173 142.816  1.00  0.00     0.000 C 
ENDROOT
BRANCH   1   2
ATOM      2  C   UNL     1     138.960 140.787 142.564  1.00  0.00    -0.000 C 
BRANCH   2   3
ATOM      3  C   UNL     1     138.155 141.993 142.055  1.00  0.00    -0.000 C 
BRANCH   3   4
ATOM      4  C   UNL     1     137.452 141.710 140.718  1.00  0.00    -0.003 C 
ATOM      5  C   UNL     1     138.324 142.045 139.508  1.00  0.00     0.004 C 
ENDBRANCH   3   4
ENDBRANCH   2   3
ENDBRANCH   1   2
BRANCH   1   6
ATOM      6  C   UNL     1     140.594 142.697 142.841  1.00  0.00     0.002 C 
BRANCH   6   7
ATOM      7  C   UNL     1     141.871 143.119 142.101  1.00  0.00     0.028 C 
BRANCH   7   8
ATOM      8  C   UNL     1     141.556 143.903 140.827  1.00  0.00     0.156 C 
BRANCH   8   9
ATOM      9  O   UNL     1     142.344 145.061 140.764  1.00  0.00    -0.396 OA
ATOM     10  H   UNL     1     142.040 145.556 139.961  1.00  0.00     0.210 HD
ENDBRANCH   8   9
ENDBRANCH   7   8
ENDBRANCH   6   7
ENDBRANCH   1   6
TORSDOF 7
ENDMDL
MODEL 5
REMARK VINA RESULT:    -2.715      7.648      8.948
REMARK INTER + INTRA:          -4.143
REMARK INTER:                  -3.769
REMARK INTRA:                  -0.374
REMARK UNBOUND:                -0.396
REMARK SMILES CCCCCCCCO
REMARK SMILES IDX 5 1 4 2 3 3 2 4 1 5 6 6 7 7 8 8 9 9
REMARK H PARENT 9 10
REMARK Flexibility Score: inf
ROOT
ATOM      1  C   UNL     1     142.304 141.780 141.322  1.00  0.00     0.000 C 
ENDROOT
BRANCH   1   2
ATOM      2  C   UNL     1     141.455 142.964 141.802  1.00  0.00    -0.000 C 
BRANCH   2   3
ATOM      3  C   UNL     1     140.615 142.574 143.028  1.00  0.00    -0.000 C 
BRANCH   3   4
ATOM      4  C   UNL     1     139.182 142.163 142.654  1.00  0.00    -0.003 C 
ATOM      5  C   UNL     1     138.950 140.656 142.771  1.00  0.00     0.004 C 
ENDBRANCH   3   4
ENDBRANCH   2   3
ENDBRANCH   1   2
BRANCH   1   6
ATOM      6  C   UNL     1     142.773 140.924 142.504  1.00  0.00     0.002 C 
BRANCH   6   7
ATOM      7  C   UNL     1     143.387 139.604 142.018  1.00  0.00     0.028 C 
BRANCH   7   8
ATOM      8  C   UNL     1     144.048 139.756 140.648  1.00  0.00     0.156 C 
BRANCH   8   9
ATOM      9  O   UNL     1     145.358 139.258 140.686  1.00  0.00    -0.396 OA
ATOM     10  H   UNL     1     145.781 139.660 141.487  1.00  0.00     0.210 HD
ENDBRANCH   8   9
ENDBRANCH   7   8
ENDBRANCH   6   7
ENDBRANCH   1   6
TORSDOF 7
ENDMDL
MODEL 6
REMARK VINA RESULT:    -2.666      5.588      8.338
REMARK INTER + INTRA:          -4.075
REMARK INTER:                  -3.611
REMARK INTRA:                  -0.464
REMARK UNBOUND:                -0.396
REMARK SMILES CCCCCCCCO
REMARK SMILES IDX 5 1 4 2 3 3 2 4 1 5 6 6 7 7 8 8 9 9
REMARK H PARENT 9 10
REMARK Flexibility Score: inf
ROOT
ATOM      1  C   UNL     1     142.599 140.767 142.716  1.00  0.00     0.000 C 
ENDROOT
BRANCH   1   2
ATOM      2  C   UNL     1     142.063 141.815 141.733  1.00  0.00    -0.000 C 
BRANCH   2   3
ATOM      3  C   UNL     1     141.332 142.942 142.478  1.00  0.00    -0.000 C 
BRANCH   3   4
ATOM      4  C   UNL     1     139.937 142.520 142.966  1.00  0.00    -0.003 C 
ATOM      5  C   UNL     1     139.048 142.000 141.836  1.00  0.00     0.004 C 
ENDBRANCH   3   4
ENDBRANCH   2   3
ENDBRANCH   1   2
BRANCH   1   6
ATOM      6  C   UNL     1     142.322 139.345 142.212  1.00  0.00     0.002 C 
BRANCH   6   7
ATOM      7  C   UNL     1     140.939 138.859 142.668  1.00  0.00     0.028 C 
BRANCH   7   8
ATOM      8  C   UNL     1     140.199 138.124 141.551  1.00  0.00     0.156 C 
BRANCH   8   9
ATOM      9  O   UNL     1     139.184 137.322 142.090  1.00  0.00    -0.396 OA
ATOM     10  H   UNL     1     139.608 136.454 142.312  1.00  0.00     0.210 HD
ENDBRANCH   8   9
ENDBRANCH   7   8
ENDBRANCH   6   7
ENDBRANCH   1   6
TORSDOF 7
ENDMDL
MODEL 7
REMARK VINA RESULT:    -2.664      6.706      8.279
REMARK INTER + INTRA:          -4.072
REMARK INTER:                  -3.620
REMARK INTRA:                  -0.452
REMARK UNBOUND:                -0.396
REMARK SMILES CCCCCCCCO
REMARK SMILES IDX 5 1 4 2 3 3 2 4 1 5 6 6 7 7 8 8 9 9
REMARK H PARENT 9 10
REMARK Flexibility Score: inf
ROOT
ATOM      1  C   UNL     1     142.805 141.088 141.677  1.00  0.00     0.000 C 
ENDROOT
BRANCH   1   2
ATOM      2  C   UNL     1     143.068 139.655 142.156  1.00  0.00    -0.000 C 
BRANCH   2   3
ATOM      3  C   UNL     1     141.970 139.191 143.125  1.00  0.00    -0.000 C 
BRANCH   3   4
ATOM      4  C   UNL     1     140.712 138.693 142.396  1.00  0.00    -0.003 C 
ATOM      5  C   UNL     1     139.444 139.426 142.836  1.00  0.00     0.004 C 
ENDBRANCH   3   4
ENDBRANCH   2   3
ENDBRANCH   1   2
BRANCH   1   6
ATOM      6  C   UNL     1     142.258 141.958 142.816  1.00  0.00     0.002 C 
BRANCH   6   7
ATOM      7  C   UNL     1     141.136 142.878 142.316  1.00  0.00     0.028 C 
BRANCH   7   8
ATOM      8  C   UNL     1     141.507 143.561 140.999  1.00  0.00     0.156 C 
BRANCH   8   9
ATOM      9  O   UNL     1     142.248 144.723 141.250  1.00  0.00    -0.396 OA
ATOM     10  H   UNL     1     141.635 145.344 141.722  1.00  0.00     0.210 HD
ENDBRANCH   8   9
ENDBRANCH   7   8
ENDBRANCH   6   7
ENDBRANCH   1   6
TORSDOF 7
ENDMDL
MODEL 8
REMARK VINA RESULT:    -2.661      5.973      8.049
REMARK INTER + INTRA:          -4.068
REMARK INTER:                  -3.583
REMARK INTRA:                  -0.486
REMARK UNBOUND:                -0.396
REMARK SMILES CCCCCCCCO
REMARK SMILES IDX 5 1 4 2 3 3 2 4 1 5 6 6 7 7 8 8 9 9
REMARK H PARENT 9 10
REMARK Flexibility Score: inf
ROOT
ATOM      1  C   UNL     1     141.536 141.845 141.903  1.00  0.00     0.000 C 
ENDROOT
BRANCH   1   2
ATOM      2  C   UNL     1     142.499 140.988 142.733  1.00  0.00    -0.000 C 
BRANCH   2   3
ATOM      3  C   UNL     1     141.993 139.541 142.839  1.00  0.00    -0.000 C 
BRANCH   3   4
ATOM      4  C   UNL     1     141.159 139.117 141.620  1.00  0.00    -0.003 C 
ATOM      5  C   UNL     1     139.935 138.284 142.001  1.00  0.00     0.004 C 
ENDBRANCH   3   4
ENDBRANCH   2   3
ENDBRANCH   1   2
BRANCH   1   6
ATOM      6  C   UNL     1     140.667 142.728 142.807  1.00  0.00     0.002 C 
BRANCH   6   7
ATOM      7  C   UNL     1     139.330 142.043 143.125  1.00  0.00     0.028 C 
BRANCH   7   8
ATOM      8  C   UNL     1     138.481 141.846 141.869  1.00  0.00     0.156 C 
BRANCH   8   9
ATOM      9  O   UNL     1     137.248 142.496 142.013  1.00  0.00    -0.396 OA
ATOM     10  H   UNL     1     137.245 143.230 141.346  1.00  0.00     0.210 HD
ENDBRANCH   8   9
ENDBRANCH   7   8
ENDBRANCH   6   7
ENDBRANCH   1   6
TORSDOF 7
ENDMDL
MODEL 9
REMARK VINA RESULT:    -2.632      6.545      8.090
REMARK INTER + INTRA:          -4.029
REMARK INTER:                  -3.534
REMARK INTRA:                  -0.495
REMARK UNBOUND:                -0.396
REMARK SMILES CCCCCCCCO
REMARK SMILES IDX 5 1 4 2 3 3 2 4 1 5 6 6 7 7 8 8 9 9
REMARK H PARENT 9 10
REMARK Flexibility Score: inf
ROOT
ATOM      1  C   UNL     1     140.988 139.157 141.818  1.00  0.00     0.000 C 
ENDROOT
BRANCH   1   2
ATOM      2  C   UNL     1     142.209 139.534 142.666  1.00  0.00    -0.000 C 
BRANCH   2   3
ATOM      3  C   UNL     1     143.120 140.514 141.911  1.00  0.00    -0.000 C 
BRANCH   3   4
ATOM      4  C   UNL     1     142.369 141.765 141.429  1.00  0.00    -0.003 C 
ATOM      5  C   UNL     1     142.023 142.723 142.569  1.00  0.00     0.004 C 
ENDBRANCH   3   4
ENDBRANCH   2   3
ENDBRANCH   1   2
BRANCH   1   6
ATOM      6  C   UNL     1     139.746 138.962 142.697  1.00  0.00     0.002 C 
BRANCH   6   7
ATOM      7  C   UNL     1     139.145 140.314 143.107  1.00  0.00     0.028 C 
BRANCH   7   8
ATOM      8  C   UNL     1     138.559 141.061 141.908  1.00  0.00     0.156 C 
BRANCH   8   9
ATOM      9  O   UNL     1     137.581 141.969 142.336  1.00  0.00    -0.396 OA
ATOM     10  H   UNL     1     137.054 141.498 143.032  1.00  0.00     0.210 HD
ENDBRANCH   8   9
ENDBRANCH   7   8
ENDBRANCH   6   7
ENDBRANCH   1   6
TORSDOF 7
ENDMDL
