MODEL 1
REMARK VINA RESULT:    -4.396      0.000      0.000
REMARK INTER + INTRA:          -8.295
REMARK INTER:                  -7.479
REMARK INTRA:                  -0.816
REMARK UNBOUND:                -0.816
REMARK SMILES CCCCCCCCCCCCCC(=O)[O-]
REMARK SMILES IDX 8 1 9 2 10 3 11 4 12 5 13 6 14 7 15 8 16 9 7 10 6 11 5 12
REMARK SMILES IDX 4 13 3 14 2 15 1 16
REMARK H PARENT
REMARK Flexibility Score: inf
ROOT
ATOM      1  C   UNL     1      39.361  -6.241   8.795  1.00  0.00     0.000 C 
ENDROOT
BRANCH   1   2
ATOM      2  C   UNL     1      40.225  -6.704   9.982  1.00  0.00     0.000 C 
BRANCH   2   3
ATOM      3  C   UNL     1      39.444  -7.584  10.971  1.00  0.00     0.000 C 
BRANCH   3   4
ATOM      4  C   UNL     1      38.100  -8.070  10.401  1.00  0.00     0.000 C 
BRANCH   4   5
ATOM      5  C   UNL     1      36.909  -7.772  11.330  1.00  0.00     0.006 C 
BRANCH   5   6
ATOM      6  C   UNL     1      37.291  -6.994  12.602  1.00  0.00     0.053 C 
BRANCH   6   7
ATOM      7  C   UNL     1      36.097  -6.624  13.429  1.00  0.00     0.041 C 
ATOM      8  O   UNL     1      34.938  -6.727  12.949  1.00  0.00    -0.550 OA
ATOM      9  O   UNL     1      36.260  -6.198  14.742  1.00  0.00    -0.550 OA
ENDBRANCH   6   7
ENDBRANCH   5   6
ENDBRANCH   4   5
ENDBRANCH   3   4
ENDBRANCH   2   3
ENDBRANCH   1   2
BRANCH   1  10
ATOM     10  C   UNL     1      39.924  -6.703   7.442  1.00  0.00     0.000 C 
BRANCH  10  11
ATOM     11  C   UNL     1      41.060  -7.730   7.590  1.00  0.00    -0.000 C 
BRANCH  11  12
ATOM     12  C   UNL     1      41.904  -7.865   6.314  1.00  0.00    -0.000 C 
BRANCH  12  13
ATOM     13  C   UNL     1      43.416  -7.779   6.590  1.00  0.00    -0.000 C 
BRANCH  13  14
ATOM     14  C   UNL     1      44.237  -8.652   5.619  1.00  0.00    -0.000 C 
BRANCH  14  15
ATOM     15  C   UNL     1      44.895  -9.868   6.291  1.00  0.00    -0.003 C 
ATOM     16  C   UNL     1      44.747  -9.866   7.811  1.00  0.00     0.004 C 
ENDBRANCH  14  15
ENDBRANCH  13  14
ENDBRANCH  12  13
ENDBRANCH  11  12
ENDBRANCH  10  11
ENDBRANCH   1  10
TORSDOF 12
ENDMDL
MODEL 2
REMARK VINA RESULT:    -4.360      3.650      8.262
REMARK INTER + INTRA:          -8.234
REMARK INTER:                  -6.510
REMARK INTRA:                  -1.723
REMARK UNBOUND:                -0.816
REMARK SMILES CCCCCCCCCCCCCC(=O)[O-]
REMARK SMILES IDX 8 1 9 2 10 3 11 4 12 5 13 6 14 7 15 8 16 9 7 10 6 11 5 12
REMARK SMILES IDX 4 13 3 14 2 15 1 16
REMARK H PARENT
REMARK Flexibility Score: inf
ROOT
ATOM      1  C   UNL     1      37.753  -9.569  12.647  1.00  0.00     0.000 C 
ENDROOT
BRANCH   1   2
ATOM      2  C   UNL     1      37.159  -9.601  11.228  1.00  0.00     0.000 C 
BRANCH   2   3
ATOM      3  C   UNL     1      36.999  -8.197  10.625  1.00  0.00     0.000 C 
BRANCH   3   4
ATOM      4  C   UNL     1      38.193  -7.277  10.934  1.00  0.00     0.000 C 
BRANCH   4   5
ATOM      5  C   UNL     1      38.931  -6.802   9.669  1.00  0.00     0.006 C 
BRANCH   5   6
ATOM      6  C   UNL     1      40.459  -6.958   9.744  1.00  0.00     0.053 C 
BRANCH   6   7
ATOM      7  C   UNL     1      40.968  -8.054   8.857  1.00  0.00     0.041 C 
ATOM      8  O   UNL     1      40.278  -9.091   8.672  1.00  0.00    -0.550 OA
ATOM      9  O   UNL     1      42.189  -7.918   8.207  1.00  0.00    -0.550 OA
ENDBRANCH   6   7
ENDBRANCH   5   6
ENDBRANCH   4   5
ENDBRANCH   3   4
ENDBRANCH   2   3
ENDBRANCH   1   2
BRANCH   1  10
ATOM     10  C   UNL     1      36.893 -10.337  13.663  1.00  0.00     0.000 C 
BRANCH  10  11
ATOM     11  C   UNL     1      35.386 -10.103  13.463  1.00  0.00    -0.000 C 
BRANCH  11  12
ATOM     12  C   UNL     1      34.685  -9.639  14.749  1.00  0.00    -0.000 C 
BRANCH  12  13
ATOM     13  C   UNL     1      34.588  -8.107  14.852  1.00  0.00    -0.000 C 
BRANCH  13  14
ATOM     14  C   UNL     1      34.595  -7.427  13.467  1.00  0.00    -0.000 C 
BRANCH  14  15
ATOM     15  C   UNL     1      35.614  -6.281  13.350  1.00  0.00    -0.003 C 
ATOM     16  C   UNL     1      36.726  -6.359  14.393  1.00  0.00     0.004 C 
ENDBRANCH  14  15
ENDBRANCH  13  14
ENDBRANCH  12  13
ENDBRANCH  11  12
ENDBRANCH  10  11
ENDBRANCH   1  10
TORSDOF 12
ENDMDL
MODEL 3
REMARK VINA RESULT:    -4.339      3.994      7.926
REMARK INTER + INTRA:          -8.199
REMARK INTER:                  -6.765
REMARK INTRA:                  -1.434
REMARK UNBOUND:                -0.816
REMARK SMILES CCCCCCCCCCCCCC(=O)[O-]
REMARK SMILES IDX 8 1 9 2 10 3 11 4 12 5 13 6 14 7 15 8 16 9 7 10 6 11 5 12
REMARK SMILES IDX 4 13 3 14 2 15 1 16
REMARK H PARENT
REMARK Flexibility Score: inf
ROOT
ATOM      1  C   UNL     1      37.884  -7.873  10.511  1.00  0.00     0.000 C 
ENDROOT
BRANCH   1   2
ATOM      2  C   UNL     1      39.205  -7.492  11.200  1.00  0.00     0.000 C 
BRANCH   2   3
ATOM      3  C   UNL     1      40.259  -6.974  10.209  1.00  0.00     0.000 C 
BRANCH   3   4
ATOM      4  C   UNL     1      39.635  -6.308   8.971  1.00  0.00     0.000 C 
BRANCH   4   5
ATOM      5  C   UNL     1      40.085  -6.955   7.648  1.00  0.00     0.006 C 
BRANCH   5   6
ATOM      6  C   UNL     1      41.225  -7.976   7.810  1.00  0.00     0.053 C 
BRANCH   6   7
ATOM      7  C   UNL     1      42.305  -7.799   6.788  1.00  0.00     0.041 C 
ATOM      8  O   UNL     1      42.043  -7.917   5.562  1.00  0.00    -0.550 OA
ATOM      9  O   UNL     1      43.596  -7.468   7.184  1.00  0.00    -0.550 OA
ENDBRANCH   6   7
ENDBRANCH   5   6
ENDBRANCH   4   5
ENDBRANCH   3   4
ENDBRANCH   2   3
ENDBRANCH   1   2
BRANCH   1  10
ATOM     10  C   UNL     1      37.782  -9.380  10.226  1.00  0.00     0.000 C 
BRANCH  10  11
ATOM     11  C   UNL     1      37.557 -10.211  11.501  1.00  0.00    -0.000 C 
BRANCH  11  12
ATOM     12  C   UNL     1      36.077 -10.550  11.733  1.00  0.00    -0.000 C 
BRANCH  12  13
ATOM     13  C   UNL     1      35.465  -9.766  12.907  1.00  0.00    -0.000 C 
BRANCH  13  14
ATOM     14  C   UNL     1      36.537  -9.038  13.744  1.00  0.00    -0.000 C 
BRANCH  14  15
ATOM     15  C   UNL     1      36.301  -7.524  13.863  1.00  0.00    -0.003 C 
ATOM     16  C   UNL     1      35.209  -7.012  12.926  1.00  0.00     0.004 C 
ENDBRANCH  14  15
ENDBRANCH  13  14
ENDBRANCH  12  13
ENDBRANCH  11  12
ENDBRANCH  10  11
ENDBRANCH   1  10
TORSDOF 12
ENDMDL
MODEL 4
REMARK VINA RESULT:    -4.289      4.701      8.323
REMARK INTER + INTRA:          -8.113
REMARK INTER:                  -7.381
REMARK INTRA:                  -0.731
REMARK UNBOUND:                -0.816
REMARK SMILES CCCCCCCCCCCCCC(=O)[O-]
REMARK SMILES IDX 8 1 9 2 10 3 11 4 12 5 13 6 14 7 15 8 16 9 7 10 6 11 5 12
REMARK SMILES IDX 4 13 3 14 2 15 1 16
REMARK H PARENT
REMARK Flexibility Score: inf
ROOT
ATOM      1  C   UNL     1      39.706  -6.621   7.627  1.00  0.00     0.000 C 
ENDROOT
BRANCH   1   2
ATOM      2  C   UNL     1      40.945  -7.507   7.411  1.00  0.00     0.000 C 
BRANCH   2   3
ATOM      3  C   UNL     1      41.566  -7.324   6.017  1.00  0.00     0.000 C 
BRANCH   3   4
ATOM      4  C   UNL     1      40.547  -6.834   4.973  1.00  0.00     0.000 C 
BRANCH   4   5
ATOM      5  C   UNL     1      40.992  -5.547   4.255  1.00  0.00     0.006 C 
BRANCH   5   6
ATOM      6  C   UNL     1      40.505  -5.445   2.799  1.00  0.00     0.053 C 
BRANCH   6   7
ATOM      7  C   UNL     1      39.795  -4.156   2.519  1.00  0.00     0.041 C 
ATOM      8  O   UNL     1      39.023  -4.060   1.529  1.00  0.00    -0.550 OA
ATOM      9  O   UNL     1      39.956  -3.069   3.370  1.00  0.00    -0.550 OA
ENDBRANCH   6   7
ENDBRANCH   5   6
ENDBRANCH   4   5
ENDBRANCH   3   4
ENDBRANCH   2   3
ENDBRANCH   1   2
BRANCH   1  10
ATOM     10  C   UNL     1      39.491  -6.260   9.105  1.00  0.00     0.000 C 
BRANCH  10  11
ATOM     11  C   UNL     1      40.134  -7.276  10.065  1.00  0.00    -0.000 C 
BRANCH  11  12
ATOM     12  C   UNL     1      39.175  -7.724  11.179  1.00  0.00    -0.000 C 
BRANCH  12  13
ATOM     13  C   UNL     1      37.782  -8.102  10.647  1.00  0.00    -0.000 C 
BRANCH  13  14
ATOM     14  C   UNL     1      36.661  -7.760  11.650  1.00  0.00    -0.000 C 
BRANCH  14  15
ATOM     15  C   UNL     1      37.153  -7.632  13.101  1.00  0.00    -0.003 C 
ATOM     16  C   UNL     1      36.811  -6.285  13.733  1.00  0.00     0.004 C 
ENDBRANCH  14  15
ENDBRANCH  13  14
ENDBRANCH  12  13
ENDBRANCH  11  12
ENDBRANCH  10  11
ENDBRANCH   1  10
TORSDOF 12
ENDMDL
MODEL 5
REMARK VINA RESULT:    -4.275      3.873      9.542
REMARK INTER + INTRA:          -8.090
REMARK INTER:                  -7.278
REMARK INTRA:                  -0.812
REMARK UNBOUND:                -0.816
REMARK SMILES CCCCCCCCCCCCCC(=O)[O-]
REMARK SMILES IDX 8 1 9 2 10 3 11 4 12 5 13 6 14 7 15 8 16 9 7 10 6 11 5 12
REMARK SMILES IDX 4 13 3 14 2 15 1 16
REMARK H PARENT
REMARK Flexibility Score: inf
ROOT
ATOM      1  C   UNL     1      35.277  -7.029  12.529  1.00  0.00     0.000 C 
ENDROOT
BRANCH   1   2
ATOM      2  C   UNL     1      36.329  -7.541  11.529  1.00  0.00     0.000 C 
BRANCH   2   3
ATOM      3  C   UNL     1      37.732  -7.641  12.148  1.00  0.00     0.000 C 
BRANCH   3   4
ATOM      4  C   UNL     1      38.591  -8.741  11.499  1.00  0.00     0.000 C 
BRANCH   4   5
ATOM      5  C   UNL     1      38.232  -8.993  10.023  1.00  0.00     0.006 C 
BRANCH   5   6
ATOM      6  C   UNL     1      39.388  -8.721   9.045  1.00  0.00     0.053 C 
BRANCH   6   7
ATOM      7  C   UNL     1      39.385  -7.315   8.528  1.00  0.00     0.041 C 
ATOM      8  O   UNL     1      40.333  -6.903   7.808  1.00  0.00    -0.550 OA
ATOM      9  O   UNL     1      38.320  -6.468   8.810  1.00  0.00    -0.550 OA
ENDBRANCH   6   7
ENDBRANCH   5   6
ENDBRANCH   4   5
ENDBRANCH   3   4
ENDBRANCH   2   3
ENDBRANCH   1   2
BRANCH   1  10
ATOM     10  C   UNL     1      35.897  -6.611  13.871  1.00  0.00     0.000 C 
BRANCH  10  11
ATOM     11  C   UNL     1      35.217  -7.286  15.075  1.00  0.00    -0.000 C 
BRANCH  11  12
ATOM     12  C   UNL     1      34.009  -8.143  14.667  1.00  0.00    -0.000 C 
BRANCH  12  13
ATOM     13  C   UNL     1      32.760  -7.851  15.517  1.00  0.00    -0.000 C 
BRANCH  13  14
ATOM     14  C   UNL     1      31.477  -8.431  14.887  1.00  0.00    -0.000 C 
BRANCH  14  15
ATOM     15  C   UNL     1      31.460  -9.968  14.830  1.00  0.00    -0.003 C 
ATOM     16  C   UNL     1      30.290 -10.583  15.594  1.00  0.00     0.004 C 
ENDBRANCH  14  15
ENDBRANCH  13  14
ENDBRANCH  12  13
ENDBRANCH  11  12
ENDBRANCH  10  11
ENDBRANCH   1  10
TORSDOF 12
ENDMDL
MODEL 6
REMARK VINA RESULT:    -4.246      1.735      2.986
REMARK INTER + INTRA:          -8.040
REMARK INTER:                  -6.392
REMARK INTRA:                  -1.648
REMARK UNBOUND:                -0.816
REMARK SMILES CCCCCCCCCCCCCC(=O)[O-]
REMARK SMILES IDX 8 1 9 2 10 3 11 4 12 5 13 6 14 7 15 8 16 9 7 10 6 11 5 12
REMARK SMILES IDX 4 13 3 14 2 15 1 16
REMARK H PARENT
REMARK Flexibility Score: inf
ROOT
ATOM      1  C   UNL     1      39.669  -6.727   8.697  1.00  0.00     0.000 C 
ENDROOT
BRANCH   1   2
ATOM      2  C   UNL     1      40.266  -6.931  10.101  1.00  0.00     0.000 C 
BRANCH   2   3
ATOM      3  C   UNL     1      39.267  -7.570  11.079  1.00  0.00     0.000 C 
BRANCH   3   4
ATOM      4  C   UNL     1      37.811  -7.469  10.593  1.00  0.00     0.000 C 
BRANCH   4   5
ATOM      5  C   UNL     1      36.814  -8.185  11.523  1.00  0.00     0.006 C 
BRANCH   5   6
ATOM      6  C   UNL     1      37.056  -7.918  13.018  1.00  0.00     0.053 C 
BRANCH   6   7
ATOM      7  C   UNL     1      36.223  -6.788  13.542  1.00  0.00     0.041 C 
ATOM      8  O   UNL     1      36.624  -6.106  14.521  1.00  0.00    -0.550 OA
ATOM      9  O   UNL     1      35.019  -6.463  12.928  1.00  0.00    -0.550 OA
ENDBRANCH   6   7
ENDBRANCH   5   6
ENDBRANCH   4   5
ENDBRANCH   3   4
ENDBRANCH   2   3
ENDBRANCH   1   2
BRANCH   1  10
ATOM     10  C   UNL     1      40.528  -7.366   7.594  1.00  0.00     0.000 C 
BRANCH  10  11
ATOM     11  C   UNL     1      41.914  -7.801   8.099  1.00  0.00    -0.000 C 
BRANCH  11  12
ATOM     12  C   UNL     1      42.292  -9.218   7.640  1.00  0.00    -0.000 C 
BRANCH  12  13
ATOM     13  C   UNL     1      41.981 -10.288   8.701  1.00  0.00    -0.000 C 
BRANCH  13  14
ATOM     14  C   UNL     1      40.650 -11.018   8.422  1.00  0.00    -0.000 C 
BRANCH  14  15
ATOM     15  C   UNL     1      39.615 -10.861   9.549  1.00  0.00    -0.003 C 
ATOM     16  C   UNL     1      38.177 -10.811   9.038  1.00  0.00     0.004 C 
ENDBRANCH  14  15
ENDBRANCH  13  14
ENDBRANCH  12  13
ENDBRANCH  11  12
ENDBRANCH  10  11
ENDBRANCH   1  10
TORSDOF 12
ENDMDL
MODEL 7
REMARK VINA RESULT:    -4.239      1.215      2.230
REMARK INTER + INTRA:          -8.028
REMARK INTER:                  -7.124
REMARK INTRA:                  -0.905
REMARK UNBOUND:                -0.816
REMARK SMILES CCCCCCCCCCCCCC(=O)[O-]
REMARK SMILES IDX 8 1 9 2 10 3 11 4 12 5 13 6 14 7 15 8 16 9 7 10 6 11 5 12
REMARK SMILES IDX 4 13 3 14 2 15 1 16
REMARK H PARENT
REMARK Flexibility Score: inf
ROOT
ATOM      1  C   UNL     1      39.144  -7.475  11.206  1.00  0.00     0.000 C 
ENDROOT
BRANCH   1   2
ATOM      2  C   UNL     1      37.729  -7.460  10.602  1.00  0.00     0.000 C 
BRANCH   2   3
ATOM      3  C   UNL     1      36.918  -8.712  10.968  1.00  0.00     0.000 C 
BRANCH   3   4
ATOM      4  C   UNL     1      37.577  -9.541  12.085  1.00  0.00     0.000 C 
BRANCH   4   5
ATOM      5  C   UNL     1      36.867  -9.392  13.444  1.00  0.00     0.006 C 
BRANCH   5   6
ATOM      6  C   UNL     1      35.743  -8.341  13.448  1.00  0.00     0.053 C 
BRANCH   6   7
ATOM      7  C   UNL     1      36.085  -7.139  14.274  1.00  0.00     0.041 C 
ATOM      8  O   UNL     1      35.454  -6.902  15.338  1.00  0.00    -0.550 OA
ATOM      9  O   UNL     1      37.121  -6.296  13.890  1.00  0.00    -0.550 OA
ENDBRANCH   6   7
ENDBRANCH   5   6
ENDBRANCH   4   5
ENDBRANCH   3   4
ENDBRANCH   2   3
ENDBRANCH   1   2
BRANCH   1  10
ATOM     10  C   UNL     1      40.226  -7.103  10.180  1.00  0.00     0.000 C 
BRANCH  10  11
ATOM     11  C   UNL     1      39.638  -6.580   8.859  1.00  0.00    -0.000 C 
BRANCH  11  12
ATOM     12  C   UNL     1      40.339  -7.170   7.626  1.00  0.00    -0.000 C 
BRANCH  12  13
ATOM     13  C   UNL     1      41.649  -7.896   7.979  1.00  0.00    -0.000 C 
BRANCH  13  14
ATOM     14  C   UNL     1      42.182  -8.743   6.804  1.00  0.00    -0.000 C 
BRANCH  14  15
ATOM     15  C   UNL     1      43.713  -8.711   6.668  1.00  0.00    -0.003 C 
ATOM     16  C   UNL     1      44.438  -9.115   7.950  1.00  0.00     0.004 C 
ENDBRANCH  14  15
ENDBRANCH  13  14
ENDBRANCH  12  13
ENDBRANCH  11  12
ENDBRANCH  10  11
ENDBRANCH   1  10
TORSDOF 12
ENDMDL
MODEL 8
REMARK VINA RESULT:    -4.173      2.528      4.257
REMARK INTER + INTRA:          -7.916
REMARK INTER:                  -6.200
REMARK INTRA:                  -1.716
REMARK UNBOUND:                -0.816
REMARK SMILES CCCCCCCCCCCCCC(=O)[O-]
REMARK SMILES IDX 8 1 9 2 10 3 11 4 12 5 13 6 14 7 15 8 16 9 7 10 6 11 5 12
REMARK SMILES IDX 4 13 3 14 2 15 1 16
REMARK H PARENT
REMARK Flexibility Score: inf
ROOT
ATOM      1  C   UNL     1      36.822  -9.351  11.258  1.00  0.00     0.000 C 
ENDROOT
BRANCH   1   2
ATOM      2  C   UNL     1      37.624  -9.778  12.500  1.00  0.00     0.000 C 
BRANCH   2   3
ATOM      3  C   UNL     1      36.738 -10.407  13.587  1.00  0.00     0.000 C 
BRANCH   3   4
ATOM      4  C   UNL     1      35.251 -10.044  13.425  1.00  0.00     0.000 C 
BRANCH   4   5
ATOM      5  C   UNL     1      34.653  -9.383  14.681  1.00  0.00     0.006 C 
BRANCH   5   6
ATOM      6  C   UNL     1      34.191  -7.932  14.461  1.00  0.00     0.053 C 
BRANCH   6   7
ATOM      7  C   UNL     1      35.224  -7.099  13.767  1.00  0.00     0.041 C 
ATOM      8  O   UNL     1      34.990  -6.621  12.626  1.00  0.00    -0.550 OA
ATOM      9  O   UNL     1      36.434  -6.820  14.392  1.00  0.00    -0.550 OA
ENDBRANCH   6   7
ENDBRANCH   5   6
ENDBRANCH   4   5
ENDBRANCH   3   4
ENDBRANCH   2   3
ENDBRANCH   1   2
BRANCH   1  10
ATOM     10  C   UNL     1      37.338  -8.039  10.646  1.00  0.00     0.000 C 
BRANCH  10  11
ATOM     11  C   UNL     1      38.455  -7.393  11.483  1.00  0.00    -0.000 C 
BRANCH  11  12
ATOM     12  C   UNL     1      39.739  -7.155  10.672  1.00  0.00    -0.000 C 
BRANCH  12  13
ATOM     13  C   UNL     1      39.485  -7.126   9.155  1.00  0.00    -0.000 C 
BRANCH  13  14
ATOM     14  C   UNL     1      40.355  -8.151   8.398  1.00  0.00    -0.000 C 
BRANCH  14  15
ATOM     15  C   UNL     1      40.536  -9.479   9.150  1.00  0.00    -0.003 C 
ATOM     16  C   UNL     1      39.454 -10.506   8.823  1.00  0.00     0.004 C 
ENDBRANCH  14  15
ENDBRANCH  13  14
ENDBRANCH  12  13
ENDBRANCH  11  12
ENDBRANCH  10  11
ENDBRANCH   1  10
TORSDOF 12
ENDMDL
MODEL 9
REMARK VINA RESULT:    -4.165      2.633      4.319
REMARK INTER + INTRA:          -7.903
REMARK INTER:                  -6.563
REMARK INTRA:                  -1.340
REMARK UNBOUND:                -0.816
REMARK SMILES CCCCCCCCCCCCCC(=O)[O-]
REMARK SMILES IDX 8 1 9 2 10 3 11 4 12 5 13 6 14 7 15 8 16 9 7 10 6 11 5 12
REMARK SMILES IDX 4 13 3 14 2 15 1 16
REMARK H PARENT
REMARK Flexibility Score: inf
ROOT
ATOM      1  C   UNL     1      36.858  -9.389  11.056  1.00  0.00     0.000 C 
ENDROOT
BRANCH   1   2
ATOM      2  C   UNL     1      36.804  -7.858  11.200  1.00  0.00     0.000 C 
BRANCH   2   3
ATOM      3  C   UNL     1      37.615  -7.350  12.403  1.00  0.00     0.000 C 
BRANCH   3   4
ATOM      4  C   UNL     1      36.746  -6.613  13.437  1.00  0.00     0.000 C 
BRANCH   4   5
ATOM      5  C   UNL     1      35.277  -7.072  13.425  1.00  0.00     0.006 C 
BRANCH   5   6
ATOM      6  C   UNL     1      34.972  -8.210  14.415  1.00  0.00     0.053 C 
BRANCH   6   7
ATOM      7  C   UNL     1      33.792  -7.910  15.289  1.00  0.00     0.041 C 
ATOM      8  O   UNL     1      33.958  -7.361  16.410  1.00  0.00    -0.550 OA
ATOM      9  O   UNL     1      32.506  -8.203  14.853  1.00  0.00    -0.550 OA
ENDBRANCH   6   7
ENDBRANCH   5   6
ENDBRANCH   4   5
ENDBRANCH   3   4
ENDBRANCH   2   3
ENDBRANCH   1   2
BRANCH   1  10
ATOM     10  C   UNL     1      37.714  -9.839   9.862  1.00  0.00     0.000 C 
BRANCH  10  11
ATOM     11  C   UNL     1      38.893 -10.734  10.280  1.00  0.00    -0.000 C 
BRANCH  11  12
ATOM     12  C   UNL     1      40.240  -9.996  10.233  1.00  0.00    -0.000 C 
BRANCH  12  13
ATOM     13  C   UNL     1      40.632  -9.568   8.808  1.00  0.00    -0.000 C 
BRANCH  13  14
ATOM     14  C   UNL     1      41.045  -8.083   8.737  1.00  0.00    -0.000 C 
BRANCH  14  15
ATOM     15  C   UNL     1      40.338  -7.198   9.776  1.00  0.00    -0.003 C 
ATOM     16  C   UNL     1      39.384  -6.183   9.149  1.00  0.00     0.004 C 
ENDBRANCH  14  15
ENDBRANCH  13  14
ENDBRANCH  12  13
ENDBRANCH  11  12
ENDBRANCH  10  11
ENDBRANCH   1  10
TORSDOF 12
ENDMDL
