MODEL 1
REMARK VINA RESULT:    -3.198      0.000      0.000
REMARK INTER + INTRA:          -4.000
REMARK INTER:                  -3.946
REMARK INTRA:                  -0.053
REMARK UNBOUND:                -0.053
REMARK SMILES CCCCCC(=O)[O-]
REMARK SMILES IDX 4 1 5 2 6 3 7 4 8 5 3 6 2 7 1 8
REMARK H PARENT
REMARK Flexibility Score: inf
ROOT
ATOM      1  C   UNL     1       4.694  -3.197  -0.398  1.00  0.00     0.006 C 
ENDROOT
BRANCH   1   2
ATOM      2  C   UNL     1       4.264  -3.497   1.042  1.00  0.00     0.053 C 
BRANCH   2   3
ATOM      3  C   UNL     1       2.874  -4.049   1.069  1.00  0.00     0.041 C 
ATOM      4  O   UNL     1       2.160  -3.917   2.098  1.00  0.00    -0.550 OA
ATOM      5  O   UNL     1       2.348  -4.665  -0.059  1.00  0.00    -0.550 OA
ENDBRANCH   2   3
ENDBRANCH   1   2
BRANCH   1   6
ATOM      6  C   UNL     1       5.195  -1.755  -0.535  1.00  0.00     0.000 C 
BRANCH   6   7
ATOM      7  C   UNL     1       5.603  -1.449  -1.980  1.00  0.00    -0.003 C 
ATOM      8  C   UNL     1       5.479   0.041  -2.285  1.00  0.00     0.004 C 
ENDBRANCH   6   7
ENDBRANCH   1   6
TORSDOF 4
ENDMDL
MODEL 2
REMARK VINA RESULT:    -3.141      0.363      1.151
REMARK INTER + INTRA:          -3.929
REMARK INTER:                  -3.883
REMARK INTRA:                  -0.046
REMARK UNBOUND:                -0.053
REMARK SMILES CCCCCC(=O)[O-]
REMARK SMILES IDX 4 1 5 2 6 3 7 4 8 5 3 6 2 7 1 8
REMARK H PARENT
REMARK Flexibility Score: inf
ROOT
ATOM      1  C   UNL     1       4.826  -3.078  -0.468  1.00  0.00     0.006 C 
ENDROOT
BRANCH   1   2
ATOM      2  C   UNL     1       4.412  -3.389   0.974  1.00  0.00     0.053 C 
BRANCH   2   3
ATOM      3  C   UNL     1       3.142  -4.179   0.995  1.00  0.00     0.041 C 
ATOM      4  O   UNL     1       2.991  -5.157   0.217  1.00  0.00    -0.550 OA
ATOM      5  O   UNL     1       2.144  -3.866   1.909  1.00  0.00    -0.550 OA
ENDBRANCH   2   3
ENDBRANCH   1   2
BRANCH   1   6
ATOM      6  C   UNL     1       5.211  -1.602  -0.624  1.00  0.00     0.000 C 
BRANCH   6   7
ATOM      7  C   UNL     1       5.563  -1.277  -2.080  1.00  0.00    -0.003 C 
ATOM      8  C   UNL     1       5.557   0.229  -2.326  1.00  0.00     0.004 C 
ENDBRANCH   6   7
ENDBRANCH   1   6
TORSDOF 4
ENDMDL
MODEL 3
REMARK VINA RESULT:    -3.116      3.789      4.662
REMARK INTER + INTRA:          -3.899
REMARK INTER:                  -3.689
REMARK INTRA:                  -0.210
REMARK UNBOUND:                -0.053
REMARK SMILES CCCCCC(=O)[O-]
REMARK SMILES IDX 4 1 5 2 6 3 7 4 8 5 3 6 2 7 1 8
REMARK H PARENT
REMARK Flexibility Score: inf
ROOT
ATOM      1  C   UNL     1       5.590  -1.457   0.741  1.00  0.00     0.006 C 
ENDROOT
BRANCH   1   2
ATOM      2  C   UNL     1       5.244  -1.639  -0.740  1.00  0.00     0.053 C 
BRANCH   2   3
ATOM      3  C   UNL     1       5.686  -0.448  -1.531  1.00  0.00     0.041 C 
ATOM      4  O   UNL     1       6.741   0.164  -1.219  1.00  0.00    -0.550 OA
ATOM      5  O   UNL     1       4.958  -0.043  -2.643  1.00  0.00    -0.550 OA
ENDBRANCH   2   3
ENDBRANCH   1   2
BRANCH   1   6
ATOM      6  C   UNL     1       6.678  -2.444   1.178  1.00  0.00     0.000 C 
BRANCH   6   7
ATOM      7  C   UNL     1       7.783  -1.732   1.966  1.00  0.00    -0.003 C 
ATOM      8  C   UNL     1       7.435  -0.265   2.202  1.00  0.00     0.004 C 
ENDBRANCH   6   7
ENDBRANCH   1   6
TORSDOF 4
ENDMDL
MODEL 4
REMARK VINA RESULT:    -3.089      2.613      4.947
REMARK INTER + INTRA:          -3.865
REMARK INTER:                  -3.812
REMARK INTRA:                  -0.052
REMARK UNBOUND:                -0.053
REMARK SMILES CCCCCC(=O)[O-]
REMARK SMILES IDX 4 1 5 2 6 3 7 4 8 5 3 6 2 7 1 8
REMARK H PARENT
REMARK Flexibility Score: inf
ROOT
ATOM      1  C   UNL     1       4.158  -3.713   1.155  1.00  0.00     0.006 C 
ENDROOT
BRANCH   1   2
ATOM      2  C   UNL     1       4.560  -3.186  -0.226  1.00  0.00     0.053 C 
BRANCH   2   3
ATOM      3  C   UNL     1       5.132  -1.808  -0.114  1.00  0.00     0.041 C 
ATOM      4  O   UNL     1       4.939  -0.966  -1.030  1.00  0.00    -0.550 OA
ATOM      5  O   UNL     1       5.838  -1.439   1.023  1.00  0.00    -0.550 OA
ENDBRANCH   2   3
ENDBRANCH   1   2
BRANCH   1   6
ATOM      6  C   UNL     1       2.673  -4.091   1.190  1.00  0.00     0.000 C 
BRANCH   6   7
ATOM      7  C   UNL     1       2.225  -4.432   2.616  1.00  0.00    -0.003 C 
ATOM      8  C   UNL     1       1.073  -5.433   2.607  1.00  0.00     0.004 C 
ENDBRANCH   6   7
ENDBRANCH   1   6
TORSDOF 4
ENDMDL
MODEL 5
REMARK VINA RESULT:    -3.068      2.710      4.691
REMARK INTER + INTRA:          -3.839
REMARK INTER:                  -3.790
REMARK INTRA:                  -0.049
REMARK UNBOUND:                -0.053
REMARK SMILES CCCCCC(=O)[O-]
REMARK SMILES IDX 4 1 5 2 6 3 7 4 8 5 3 6 2 7 1 8
REMARK H PARENT
REMARK Flexibility Score: inf
ROOT
ATOM      1  C   UNL     1       4.497  -3.458   0.294  1.00  0.00     0.006 C 
ENDROOT
BRANCH   1   2
ATOM      2  C   UNL     1       4.975  -2.003   0.248  1.00  0.00     0.053 C 
BRANCH   2   3
ATOM      3  C   UNL     1       5.253  -1.586  -1.162  1.00  0.00     0.041 C 
ATOM      4  O   UNL     1       5.125  -0.381  -1.502  1.00  0.00    -0.550 OA
ATOM      5  O   UNL     1       5.699  -2.520  -2.087  1.00  0.00    -0.550 OA
ENDBRANCH   2   3
ENDBRANCH   1   2
BRANCH   1   6
ATOM      6  C   UNL     1       3.717  -3.741   1.582  1.00  0.00     0.000 C 
BRANCH   6   7
ATOM      7  C   UNL     1       2.342  -4.343   1.272  1.00  0.00    -0.003 C 
ATOM      8  C   UNL     1       1.593  -4.698   2.553  1.00  0.00     0.004 C 
ENDBRANCH   6   7
ENDBRANCH   1   6
TORSDOF 4
ENDMDL
MODEL 6
REMARK VINA RESULT:    -3.049      7.932      8.708
REMARK INTER + INTRA:          -3.815
REMARK INTER:                  -3.756
REMARK INTRA:                  -0.059
REMARK UNBOUND:                -0.053
REMARK SMILES CCCCCC(=O)[O-]
REMARK SMILES IDX 4 1 5 2 6 3 7 4 8 5 3 6 2 7 1 8
REMARK H PARENT
REMARK Flexibility Score: inf
ROOT
ATOM      1  C   UNL     1      -4.498  -3.111  -1.924  1.00  0.00     0.006 C 
ENDROOT
BRANCH   1   2
ATOM      2  C   UNL     1      -4.447  -1.623  -1.565  1.00  0.00     0.053 C 
BRANCH   2   3
ATOM      3  C   UNL     1      -4.765  -1.422  -0.117  1.00  0.00     0.041 C 
ATOM      4  O   UNL     1      -4.291  -0.434   0.504  1.00  0.00    -0.550 OA
ATOM      5  O   UNL     1      -5.623  -2.298   0.534  1.00  0.00    -0.550 OA
ENDBRANCH   2   3
ENDBRANCH   1   2
BRANCH   1   6
ATOM      6  C   UNL     1      -3.918  -3.361  -3.321  1.00  0.00     0.000 C 
BRANCH   6   7
ATOM      7  C   UNL     1      -2.431  -3.726  -3.241  1.00  0.00    -0.003 C 
ATOM      8  C   UNL     1      -1.875  -4.075  -4.619  1.00  0.00     0.004 C 
ENDBRANCH   6   7
ENDBRANCH   1   6
TORSDOF 4
ENDMDL
MODEL 7
REMARK VINA RESULT:    -3.023      2.164      3.178
REMARK INTER + INTRA:          -3.784
REMARK INTER:                  -3.617
REMARK INTRA:                  -0.167
REMARK UNBOUND:                -0.053
REMARK SMILES CCCCCC(=O)[O-]
REMARK SMILES IDX 4 1 5 2 6 3 7 4 8 5 3 6 2 7 1 8
REMARK H PARENT
REMARK Flexibility Score: inf
ROOT
ATOM      1  C   UNL     1       5.228  -0.819  -2.498  1.00  0.00     0.006 C 
ENDROOT
BRANCH   1   2
ATOM      2  C   UNL     1       5.937  -1.873  -1.641  1.00  0.00     0.053 C 
BRANCH   2   3
ATOM      3  C   UNL     1       5.093  -2.243  -0.462  1.00  0.00     0.041 C 
ATOM      4  O   UNL     1       5.008  -1.466   0.524  1.00  0.00    -0.550 OA
ATOM      5  O   UNL     1       4.363  -3.425  -0.474  1.00  0.00    -0.550 OA
ENDBRANCH   2   3
ENDBRANCH   1   2
BRANCH   1   6
ATOM      6  C   UNL     1       5.847   0.567  -2.291  1.00  0.00     0.000 C 
BRANCH   6   7
ATOM      7  C   UNL     1       7.266   0.456  -1.720  1.00  0.00    -0.003 C 
ATOM      8  C   UNL     1       8.170   1.555  -2.272  1.00  0.00     0.004 C 
ENDBRANCH   6   7
ENDBRANCH   1   6
TORSDOF 4
ENDMDL
MODEL 8
REMARK VINA RESULT:    -2.987      3.799      4.377
REMARK INTER + INTRA:          -3.739
REMARK INTER:                  -3.501
REMARK INTRA:                  -0.238
REMARK UNBOUND:                -0.053
REMARK SMILES CCCCCC(=O)[O-]
REMARK SMILES IDX 4 1 5 2 6 3 7 4 8 5 3 6 2 7 1 8
REMARK H PARENT
REMARK Flexibility Score: inf
ROOT
ATOM      1  C   UNL     1       5.244  -1.509   0.464  1.00  0.00     0.006 C 
ENDROOT
BRANCH   1   2
ATOM      2  C   UNL     1       6.625  -1.757   1.080  1.00  0.00     0.053 C 
BRANCH   2   3
ATOM      3  C   UNL     1       7.340  -0.461   1.301  1.00  0.00     0.041 C 
ATOM      4  O   UNL     1       7.769   0.200   0.319  1.00  0.00    -0.550 OA
ATOM      5  O   UNL     1       7.490   0.039   2.587  1.00  0.00    -0.550 OA
ENDBRANCH   2   3
ENDBRANCH   1   2
BRANCH   1   6
ATOM      6  C   UNL     1       5.041  -2.361  -0.793  1.00  0.00     0.000 C 
BRANCH   6   7
ATOM      7  C   UNL     1       5.814  -1.779  -1.983  1.00  0.00    -0.003 C 
ATOM      8  C   UNL     1       5.405  -0.334  -2.252  1.00  0.00     0.004 C 
ENDBRANCH   6   7
ENDBRANCH   1   6
TORSDOF 4
ENDMDL
MODEL 9
REMARK VINA RESULT:    -2.894      2.880      3.285
REMARK INTER + INTRA:          -3.624
REMARK INTER:                  -3.362
REMARK INTRA:                  -0.262
REMARK UNBOUND:                -0.053
REMARK SMILES CCCCCC(=O)[O-]
REMARK SMILES IDX 4 1 5 2 6 3 7 4 8 5 3 6 2 7 1 8
REMARK H PARENT
REMARK Flexibility Score: inf
ROOT
ATOM      1  C   UNL     1       5.260  -2.925  -0.990  1.00  0.00     0.006 C 
ENDROOT
BRANCH   1   2
ATOM      2  C   UNL     1       5.067  -2.229   0.361  1.00  0.00     0.053 C 
BRANCH   2   3
ATOM      3  C   UNL     1       6.379  -2.076   1.064  1.00  0.00     0.041 C 
ATOM      4  O   UNL     1       7.063  -3.091   1.356  1.00  0.00    -0.550 OA
ATOM      5  O   UNL     1       6.869  -0.809   1.352  1.00  0.00    -0.550 OA
ENDBRANCH   2   3
ENDBRANCH   1   2
BRANCH   1   6
ATOM      6  C   UNL     1       6.107  -2.067  -1.936  1.00  0.00     0.000 C 
BRANCH   6   7
ATOM      7  C   UNL     1       5.333  -0.825  -2.393  1.00  0.00    -0.003 C 
ATOM      8  C   UNL     1       6.114   0.452  -2.098  1.00  0.00     0.004 C 
ENDBRANCH   6   7
ENDBRANCH   1   6
TORSDOF 4
ENDMDL
