MODEL 1
REMARK VINA RESULT:    -3.684      0.000      0.000
REMARK INTER + INTRA:          -5.698
REMARK INTER:                  -4.976
REMARK INTRA:                  -0.723
REMARK UNBOUND:                -0.723
REMARK SMILES C[C@@H](O)[C@H](O)[C@@H](O)[C@@H](O)C=O
REMARK SMILES IDX 4 1 2 2 1 3 3 4 6 6 8 7 10 8 11 9 9 10 7 12 5 14
REMARK H PARENT 3 5 9 11 7 13 5 15
REMARK Flexibility Score: inf
ROOT
ATOM      1  C   UNL     1      -8.660   0.476  10.127  1.00  0.00     0.174 C 
ENDROOT
BRANCH   1   2
ATOM      2  C   UNL     1      -7.410   0.896  10.957  1.00  0.00     0.142 C 
ATOM      3  C   UNL     1      -6.494  -0.275  11.350  1.00  0.00     0.041 C 
BRANCH   2   4
ATOM      4  O   UNL     1      -6.672   1.888  10.291  1.00  0.00    -0.391 OA
ATOM      5  H   UNL     1      -6.015   2.250  10.941  1.00  0.00     0.211 HD
ENDBRANCH   2   4
ENDBRANCH   1   2
BRANCH   1   6
ATOM      6  C   UNL     1      -8.429  -0.486   8.917  1.00  0.00     0.181 C 
BRANCH   6   7
ATOM      7  C   UNL     1      -7.848   0.133   7.621  1.00  0.00     0.209 C 
BRANCH   7   8
ATOM      8  C   UNL     1      -6.391  -0.204   7.426  1.00  0.00     0.258 C 
ATOM      9  O   UNL     1      -5.515   0.446   7.975  1.00  0.00    -0.300 OA
ENDBRANCH   7   8
BRANCH   7  10
ATOM     10  O   UNL     1      -8.064   1.520   7.595  1.00  0.00    -0.383 OA
ATOM     11  H   UNL     1      -7.524   1.914   8.329  1.00  0.00     0.211 HD
ENDBRANCH   7  10
ENDBRANCH   6   7
BRANCH   6  12
ATOM     12  O   UNL     1      -9.626  -1.161   8.625  1.00  0.00    -0.387 OA
ATOM     13  H   UNL     1      -9.677  -1.254   7.636  1.00  0.00     0.211 HD
ENDBRANCH   6  12
ENDBRANCH   1   6
BRANCH   1  14
ATOM     14  O   UNL     1      -9.668  -0.015  10.974  1.00  0.00    -0.388 OA
ATOM     15  H   UNL     1      -9.571   0.448  11.848  1.00  0.00     0.211 HD
ENDBRANCH   1  14
TORSDOF 8
ENDMDL
MODEL 2
REMARK VINA RESULT:    -3.554      1.685      2.860
REMARK INTER + INTRA:          -5.524
REMARK INTER:                  -5.159
REMARK INTRA:                  -0.365
REMARK UNBOUND:                -0.723
REMARK SMILES C[C@@H](O)[C@H](O)[C@@H](O)[C@@H](O)C=O
REMARK SMILES IDX 4 1 2 2 1 3 3 4 6 6 8 7 10 8 11 9 9 10 7 12 5 14
REMARK H PARENT 3 5 9 11 7 13 5 15
REMARK Flexibility Score: inf
ROOT
ATOM      1  C   UNL     1      -7.921   0.192   8.525  1.00  0.00     0.174 C 
ENDROOT
BRANCH   1   2
ATOM      2  C   UNL     1      -8.647  -0.582   9.666  1.00  0.00     0.142 C 
ATOM      3  C   UNL     1      -9.023   0.288  10.878  1.00  0.00     0.041 C 
BRANCH   2   4
ATOM      4  O   UNL     1      -9.781  -1.253   9.179  1.00  0.00    -0.391 OA
ATOM      5  H   UNL     1      -9.947  -0.917   8.259  1.00  0.00     0.211 HD
ENDBRANCH   2   4
ENDBRANCH   1   2
BRANCH   1   6
ATOM      6  C   UNL     1      -8.783   0.642   7.301  1.00  0.00     0.181 C 
BRANCH   6   7
ATOM      7  C   UNL     1      -8.655  -0.191   6.001  1.00  0.00     0.209 C 
BRANCH   7   8
ATOM      8  C   UNL     1      -7.219  -0.488   5.648  1.00  0.00     0.258 C 
ATOM      9  O   UNL     1      -6.429   0.413   5.412  1.00  0.00    -0.300 OA
ENDBRANCH   7   8
BRANCH   7  10
ATOM     10  O   UNL     1      -9.327   0.439   4.941  1.00  0.00    -0.383 OA
ATOM     11  H   UNL     1      -9.726   1.273   5.303  1.00  0.00     0.211 HD
ENDBRANCH   7  10
ENDBRANCH   6   7
BRANCH   6  12
ATOM     12  O   UNL     1      -8.528   1.995   7.024  1.00  0.00    -0.387 OA
ATOM     13  H   UNL     1      -9.292   2.518   7.385  1.00  0.00     0.211 HD
ENDBRANCH   6  12
ENDBRANCH   1   6
BRANCH   1  14
ATOM     14  O   UNL     1      -7.195   1.274   9.053  1.00  0.00    -0.388 OA
ATOM     15  H   UNL     1      -6.273   0.951   9.232  1.00  0.00     0.211 HD
ENDBRANCH   1  14
TORSDOF 8
ENDMDL
MODEL 3
REMARK VINA RESULT:    -3.500      1.478      2.361
REMARK INTER + INTRA:          -5.450
REMARK INTER:                  -4.603
REMARK INTRA:                  -0.847
REMARK UNBOUND:                -0.723
REMARK SMILES C[C@@H](O)[C@H](O)[C@@H](O)[C@@H](O)C=O
REMARK SMILES IDX 4 1 2 2 1 3 3 4 6 6 8 7 10 8 11 9 9 10 7 12 5 14
REMARK H PARENT 3 5 9 11 7 13 5 15
REMARK Flexibility Score: inf
ROOT
ATOM      1  C   UNL     1      -6.669  -0.149   8.653  1.00  0.00     0.174 C 
ENDROOT
BRANCH   1   2
ATOM      2  C   UNL     1      -6.448   0.566  10.020  1.00  0.00     0.142 C 
ATOM      3  C   UNL     1      -4.970   0.804  10.375  1.00  0.00     0.041 C 
BRANCH   2   4
ATOM      4  O   UNL     1      -7.163   1.774  10.080  1.00  0.00    -0.391 OA
ATOM      5  H   UNL     1      -6.968   2.186  10.962  1.00  0.00     0.211 HD
ENDBRANCH   2   4
ENDBRANCH   1   2
BRANCH   1   6
ATOM      6  C   UNL     1      -8.145  -0.403   8.207  1.00  0.00     0.181 C 
BRANCH   6   7
ATOM      7  C   UNL     1      -8.716   0.512   7.093  1.00  0.00     0.209 C 
BRANCH   7   8
ATOM      8  C   UNL     1      -8.413  -0.009   5.711  1.00  0.00     0.258 C 
ATOM      9  O   UNL     1      -7.465   0.419   5.071  1.00  0.00    -0.300 OA
ENDBRANCH   7   8
BRANCH   7  10
ATOM     10  O   UNL     1      -8.265   1.831   7.258  1.00  0.00    -0.383 OA
ATOM     11  H   UNL     1      -8.674   2.373   6.534  1.00  0.00     0.211 HD
ENDBRANCH   7  10
ENDBRANCH   6   7
BRANCH   6  12
ATOM     12  O   UNL     1      -8.986  -0.361   9.332  1.00  0.00    -0.387 OA
ATOM     13  H   UNL     1      -9.172  -1.301   9.594  1.00  0.00     0.211 HD
ENDBRANCH   6  12
ENDBRANCH   1   6
BRANCH   1  14
ATOM     14  O   UNL     1      -5.942   0.499   7.640  1.00  0.00    -0.388 OA
ATOM     15  H   UNL     1      -6.468   0.418   6.801  1.00  0.00     0.211 HD
ENDBRANCH   1  14
TORSDOF 8
ENDMDL
MODEL 4
REMARK VINA RESULT:    -3.474      2.050      2.654
REMARK INTER + INTRA:          -5.415
REMARK INTER:                  -4.746
REMARK INTRA:                  -0.669
REMARK UNBOUND:                -0.723
REMARK SMILES C[C@@H](O)[C@H](O)[C@@H](O)[C@@H](O)C=O
REMARK SMILES IDX 4 1 2 2 1 3 3 4 6 6 8 7 10 8 11 9 9 10 7 12 5 14
REMARK H PARENT 3 5 9 11 7 13 5 15
REMARK Flexibility Score: inf
ROOT
ATOM      1  C   UNL     1      -8.990  -0.600   7.778  1.00  0.00     0.174 C 
ENDROOT
BRANCH   1   2
ATOM      2  C   UNL     1      -8.123   0.444   8.543  1.00  0.00     0.142 C 
ATOM      3  C   UNL     1      -6.790  -0.111   9.075  1.00  0.00     0.041 C 
BRANCH   2   4
ATOM      4  O   UNL     1      -7.894   1.584   7.754  1.00  0.00    -0.391 OA
ATOM      5  H   UNL     1      -8.409   2.330   8.161  1.00  0.00     0.211 HD
ENDBRANCH   2   4
ENDBRANCH   1   2
BRANCH   1   6
ATOM      6  C   UNL     1      -8.325  -1.340   6.572  1.00  0.00     0.181 C 
BRANCH   6   7
ATOM      7  C   UNL     1      -8.383  -0.638   5.192  1.00  0.00     0.209 C 
BRANCH   7   8
ATOM      8  C   UNL     1      -7.020  -0.213   4.706  1.00  0.00     0.258 C 
ATOM      9  O   UNL     1      -6.211   0.297   5.465  1.00  0.00    -0.300 OA
ENDBRANCH   7   8
BRANCH   7  10
ATOM     10  O   UNL     1      -9.279   0.443   5.224  1.00  0.00    -0.383 OA
ATOM     11  H   UNL     1      -8.788   1.240   4.895  1.00  0.00     0.211 HD
ENDBRANCH   7  10
ENDBRANCH   6   7
BRANCH   6  12
ATOM     12  O   UNL     1      -8.862  -2.635   6.468  1.00  0.00    -0.387 OA
ATOM     13  H   UNL     1      -9.799  -2.591   6.795  1.00  0.00     0.211 HD
ENDBRANCH   6  12
ENDBRANCH   1   6
BRANCH   1  14
ATOM     14  O   UNL     1      -9.558  -1.517   8.679  1.00  0.00    -0.388 OA
ATOM     15  H   UNL     1      -8.824  -1.862   9.252  1.00  0.00     0.211 HD
ENDBRANCH   1  14
TORSDOF 8
ENDMDL
MODEL 5
REMARK VINA RESULT:    -3.468      1.319      3.847
REMARK INTER + INTRA:          -5.407
REMARK INTER:                  -4.731
REMARK INTRA:                  -0.676
REMARK UNBOUND:                -0.723
REMARK SMILES C[C@@H](O)[C@H](O)[C@@H](O)[C@@H](O)C=O
REMARK SMILES IDX 4 1 2 2 1 3 3 4 6 6 8 7 10 8 11 9 9 10 7 12 5 14
REMARK H PARENT 3 5 9 11 7 13 5 15
REMARK Flexibility Score: inf
ROOT
ATOM      1  C   UNL     1      -8.356  -0.746   8.503  1.00  0.00     0.174 C 
ENDROOT
BRANCH   1   2
ATOM      2  C   UNL     1      -7.878   0.274   7.426  1.00  0.00     0.142 C 
ATOM      3  C   UNL     1      -8.680   0.227   6.114  1.00  0.00     0.041 C 
BRANCH   2   4
ATOM      4  O   UNL     1      -7.864   1.581   7.941  1.00  0.00    -0.391 OA
ATOM      5  H   UNL     1      -8.523   2.109   7.417  1.00  0.00     0.211 HD
ENDBRANCH   2   4
ENDBRANCH   1   2
BRANCH   1   6
ATOM      6  C   UNL     1      -7.976  -0.452   9.990  1.00  0.00     0.181 C 
BRANCH   6   7
ATOM      7  C   UNL     1      -9.012   0.320  10.846  1.00  0.00     0.209 C 
BRANCH   7   8
ATOM      8  C   UNL     1      -8.401   0.908  12.094  1.00  0.00     0.258 C 
ATOM      9  O   UNL     1      -7.889   2.016  12.082  1.00  0.00    -0.300 OA
ENDBRANCH   7   8
BRANCH   7  10
ATOM     10  O   UNL     1     -10.113  -0.498  11.147  1.00  0.00    -0.383 OA
ATOM     11  H   UNL     1     -10.931   0.028  10.948  1.00  0.00     0.211 HD
ENDBRANCH   7  10
ENDBRANCH   6   7
BRANCH   6  12
ATOM     12  O   UNL     1      -6.738   0.212  10.031  1.00  0.00    -0.387 OA
ATOM     13  H   UNL     1      -6.891   1.139   9.706  1.00  0.00     0.211 HD
ENDBRANCH   6  12
ENDBRANCH   1   6
BRANCH   1  14
ATOM     14  O   UNL     1      -9.735  -0.983   8.374  1.00  0.00    -0.388 OA
ATOM     15  H   UNL     1      -9.875  -1.964   8.450  1.00  0.00     0.211 HD
ENDBRANCH   1  14
TORSDOF 8
ENDMDL
MODEL 6
REMARK VINA RESULT:    -3.433      1.307      3.971
REMARK INTER + INTRA:          -5.360
REMARK INTER:                  -4.643
REMARK INTRA:                  -0.717
REMARK UNBOUND:                -0.723
REMARK SMILES C[C@@H](O)[C@H](O)[C@@H](O)[C@@H](O)C=O
REMARK SMILES IDX 4 1 2 2 1 3 3 4 6 6 8 7 10 8 11 9 9 10 7 12 5 14
REMARK H PARENT 3 5 9 11 7 13 5 15
REMARK Flexibility Score: inf
ROOT
ATOM      1  C   UNL     1      -8.375   0.541   8.768  1.00  0.00     0.174 C 
ENDROOT
BRANCH   1   2
ATOM      2  C   UNL     1      -8.672  -0.872   8.182  1.00  0.00     0.142 C 
ATOM      3  C   UNL     1      -7.454  -1.810   8.151  1.00  0.00     0.041 C 
BRANCH   2   4
ATOM      4  O   UNL     1      -9.740  -1.484   8.859  1.00  0.00    -0.391 OA
ATOM      5  H   UNL     1      -9.411  -2.359   9.195  1.00  0.00     0.211 HD
ENDBRANCH   2   4
ENDBRANCH   1   2
BRANCH   1   6
ATOM      6  C   UNL     1      -7.576   0.608  10.110  1.00  0.00     0.181 C 
BRANCH   6   7
ATOM      7  C   UNL     1      -8.352   0.286  11.412  1.00  0.00     0.209 C 
BRANCH   7   8
ATOM      8  C   UNL     1      -8.019  -1.081  11.956  1.00  0.00     0.258 C 
ATOM      9  O   UNL     1      -8.651  -2.067  11.611  1.00  0.00    -0.300 OA
ENDBRANCH   7   8
BRANCH   7  10
ATOM     10  O   UNL     1      -9.734   0.440  11.215  1.00  0.00    -0.383 OA
ATOM     11  H   UNL     1      -9.976  -0.090  10.412  1.00  0.00     0.211 HD
ENDBRANCH   7  10
ENDBRANCH   6   7
BRANCH   6  12
ATOM     12  O   UNL     1      -6.962   1.867  10.223  1.00  0.00    -0.387 OA
ATOM     13  H   UNL     1      -6.123   1.833   9.691  1.00  0.00     0.211 HD
ENDBRANCH   6  12
ENDBRANCH   1   6
BRANCH   1  14
ATOM     14  O   UNL     1      -7.785   1.361   7.791  1.00  0.00    -0.388 OA
ATOM     15  H   UNL     1      -6.808   1.380   7.970  1.00  0.00     0.211 HD
ENDBRANCH   1  14
TORSDOF 8
ENDMDL
MODEL 7
REMARK VINA RESULT:    -3.416     14.342     15.643
REMARK INTER + INTRA:          -5.337
REMARK INTER:                  -5.168
REMARK INTRA:                  -0.169
REMARK UNBOUND:                -0.723
REMARK SMILES C[C@@H](O)[C@H](O)[C@@H](O)[C@@H](O)C=O
REMARK SMILES IDX 4 1 2 2 1 3 3 4 6 6 8 7 10 8 11 9 9 10 7 12 5 14
REMARK H PARENT 3 5 9 11 7 13 5 15
REMARK Flexibility Score: inf
ROOT
ATOM      1  C   UNL     1      -8.912  -7.094  -3.851  1.00  0.00     0.174 C 
ENDROOT
BRANCH   1   2
ATOM      2  C   UNL     1      -8.828  -5.541  -3.935  1.00  0.00     0.142 C 
ATOM      3  C   UNL     1      -7.429  -4.970  -3.646  1.00  0.00     0.041 C 
BRANCH   2   4
ATOM      4  O   UNL     1      -9.295  -5.076  -5.175  1.00  0.00    -0.391 OA
ATOM      5  H   UNL     1     -10.133  -4.572  -5.002  1.00  0.00     0.211 HD
ENDBRANCH   2   4
ENDBRANCH   1   2
BRANCH   1   6
ATOM      6  C   UNL     1      -7.705  -7.846  -3.204  1.00  0.00     0.181 C 
BRANCH   6   7
ATOM      7  C   UNL     1      -6.868  -8.768  -4.126  1.00  0.00     0.209 C 
BRANCH   7   8
ATOM      8  C   UNL     1      -7.610 -10.024  -4.509  1.00  0.00     0.258 C 
ATOM      9  O   UNL     1      -8.362 -10.043  -5.470  1.00  0.00    -0.300 OA
ENDBRANCH   7   8
BRANCH   7  10
ATOM     10  O   UNL     1      -5.627  -9.061  -3.538  1.00  0.00    -0.383 OA
ATOM     11  H   UNL     1      -4.963  -9.127  -4.273  1.00  0.00     0.211 HD
ENDBRANCH   7  10
ENDBRANCH   6   7
BRANCH   6  12
ATOM     12  O   UNL     1      -8.153  -8.572  -2.088  1.00  0.00    -0.387 OA
ATOM     13  H   UNL     1      -7.584  -8.307  -1.317  1.00  0.00     0.211 HD
ENDBRANCH   6  12
ENDBRANCH   1   6
BRANCH   1  14
ATOM     14  O   UNL     1     -10.125  -7.487  -3.258  1.00  0.00    -0.388 OA
ATOM     15  H   UNL     1      -9.929  -8.266  -2.675  1.00  0.00     0.211 HD
ENDBRANCH   1  14
TORSDOF 8
ENDMDL
MODEL 8
REMARK VINA RESULT:    -3.397      2.078      4.346
REMARK INTER + INTRA:          -5.311
REMARK INTER:                  -4.783
REMARK INTRA:                  -0.529
REMARK UNBOUND:                -0.723
REMARK SMILES C[C@@H](O)[C@H](O)[C@@H](O)[C@@H](O)C=O
REMARK SMILES IDX 4 1 2 2 1 3 3 4 6 6 8 7 10 8 11 9 9 10 7 12 5 14
REMARK H PARENT 3 5 9 11 7 13 5 15
REMARK Flexibility Score: inf
ROOT
ATOM      1  C   UNL     1      -8.350  -1.244   6.469  1.00  0.00     0.174 C 
ENDROOT
BRANCH   1   2
ATOM      2  C   UNL     1      -8.454  -0.431   5.144  1.00  0.00     0.142 C 
ATOM      3  C   UNL     1      -8.954  -1.247   3.940  1.00  0.00     0.041 C 
BRANCH   2   4
ATOM      4  O   UNL     1      -9.247   0.716   5.316  1.00  0.00    -0.391 OA
ATOM      5  H   UNL     1     -10.128   0.528   4.898  1.00  0.00     0.211 HD
ENDBRANCH   2   4
ENDBRANCH   1   2
BRANCH   1   6
ATOM      6  C   UNL     1      -8.952  -0.597   7.758  1.00  0.00     0.181 C 
BRANCH   6   7
ATOM      7  C   UNL     1      -8.013   0.303   8.602  1.00  0.00     0.209 C 
BRANCH   7   8
ATOM      8  C   UNL     1      -8.493   0.458  10.023  1.00  0.00     0.258 C 
ATOM      9  O   UNL     1      -8.202  -0.362  10.879  1.00  0.00    -0.300 OA
ENDBRANCH   7   8
BRANCH   7  10
ATOM     10  O   UNL     1      -7.831   1.549   7.980  1.00  0.00    -0.383 OA
ATOM     11  H   UNL     1      -7.013   1.481   7.422  1.00  0.00     0.211 HD
ENDBRANCH   7  10
ENDBRANCH   6   7
BRANCH   6  12
ATOM     12  O   UNL     1      -9.501  -1.602   8.570  1.00  0.00    -0.387 OA
ATOM     13  H   UNL     1      -9.224  -2.475   8.185  1.00  0.00     0.211 HD
ENDBRANCH   6  12
ENDBRANCH   1   6
BRANCH   1  14
ATOM     14  O   UNL     1      -8.845  -2.546   6.283  1.00  0.00    -0.388 OA
ATOM     15  H   UNL     1      -9.834  -2.500   6.357  1.00  0.00     0.211 HD
ENDBRANCH   1  14
TORSDOF 8
ENDMDL
MODEL 9
REMARK VINA RESULT:    -3.359      1.400      1.801
REMARK INTER + INTRA:          -5.260
REMARK INTER:                  -4.923
REMARK INTRA:                  -0.338
REMARK UNBOUND:                -0.723
REMARK SMILES C[C@@H](O)[C@H](O)[C@@H](O)[C@@H](O)C=O
REMARK SMILES IDX 4 1 2 2 1 3 3 4 6 6 8 7 10 8 11 9 9 10 7 12 5 14
REMARK H PARENT 3 5 9 11 7 13 5 15
REMARK Flexibility Score: inf
ROOT
ATOM      1  C   UNL     1      -7.696   0.319   9.035  1.00  0.00     0.174 C 
ENDROOT
BRANCH   1   2
ATOM      2  C   UNL     1      -8.129   0.611  10.503  1.00  0.00     0.142 C 
ATOM      3  C   UNL     1      -7.643  -0.433  11.522  1.00  0.00     0.041 C 
BRANCH   2   4
ATOM      4  O   UNL     1      -7.732   1.899  10.899  1.00  0.00    -0.391 OA
ATOM      5  H   UNL     1      -6.743   1.936  10.825  1.00  0.00     0.211 HD
ENDBRANCH   2   4
ENDBRANCH   1   2
BRANCH   1   6
ATOM      6  C   UNL     1      -8.424  -0.846   8.290  1.00  0.00     0.181 C 
BRANCH   6   7
ATOM      7  C   UNL     1      -8.550  -0.732   6.749  1.00  0.00     0.209 C 
BRANCH   7   8
ATOM      8  C   UNL     1      -7.207  -0.732   6.062  1.00  0.00     0.258 C 
ATOM      9  O   UNL     1      -6.707   0.305   5.657  1.00  0.00    -0.300 OA
ENDBRANCH   7   8
BRANCH   7  10
ATOM     10  O   UNL     1      -9.310   0.395   6.397  1.00  0.00    -0.383 OA
ATOM     11  H   UNL     1     -10.266   0.140   6.476  1.00  0.00     0.211 HD
ENDBRANCH   7  10
ENDBRANCH   6   7
BRANCH   6  12
ATOM     12  O   UNL     1      -9.695  -1.038   8.856  1.00  0.00    -0.387 OA
ATOM     13  H   UNL     1     -10.291  -1.373   8.135  1.00  0.00     0.211 HD
ENDBRANCH   6  12
ENDBRANCH   1   6
BRANCH   1  14
ATOM     14  O   UNL     1      -7.726   1.499   8.272  1.00  0.00    -0.388 OA
ATOM     15  H   UNL     1      -6.985   2.078   8.594  1.00  0.00     0.211 HD
ENDBRANCH   1  14
TORSDOF 8
ENDMDL
