MODEL 1
REMARK VINA RESULT:    -3.193      0.000      0.000
REMARK INTER + INTRA:          -3.865
REMARK INTER:                  -3.753
REMARK INTRA:                  -0.111
REMARK UNBOUND:                -0.111
REMARK SMILES O=C([O-])CCC(=O)[O-]
REMARK SMILES IDX 4 1 2 2 1 3 3 4 5 5 6 6 7 7 8 8
REMARK H PARENT
REMARK Flexibility Score: inf
ROOT
ATOM      1  C   UNL     1      -0.722  48.153  23.629  1.00  0.00     0.059 C 
ENDROOT
BRANCH   1   2
ATOM      2  C   UNL     1      -0.601  46.667  23.770  1.00  0.00     0.042 C 
ATOM      3  O   UNL     1      -0.138  46.167  24.829  1.00  0.00    -0.550 OA
ATOM      4  O   UNL     1      -0.960  45.835  22.717  1.00  0.00    -0.550 OA
ENDBRANCH   1   2
BRANCH   1   5
ATOM      5  C   UNL     1       0.646  48.818  23.440  1.00  0.00     0.059 C 
BRANCH   5   6
ATOM      6  C   UNL     1       0.930  49.094  21.995  1.00  0.00     0.042 C 
ATOM      7  O   UNL     1       0.869  50.271  21.552  1.00  0.00    -0.550 OA
ATOM      8  O   UNL     1       1.223  48.047  21.130  1.00  0.00    -0.550 OA
ENDBRANCH   5   6
ENDBRANCH   1   5
TORSDOF 3
ENDMDL
MODEL 2
REMARK VINA RESULT:    -3.178      0.123      3.755
REMARK INTER + INTRA:          -3.847
REMARK INTER:                  -3.741
REMARK INTRA:                  -0.106
REMARK UNBOUND:                -0.111
REMARK SMILES O=C([O-])CCC(=O)[O-]
REMARK SMILES IDX 4 1 2 2 1 3 3 4 5 5 6 6 7 7 8 8
REMARK H PARENT
REMARK Flexibility Score: inf
ROOT
ATOM      1  C   UNL     1       0.709  48.855  23.416  1.00  0.00     0.059 C 
ENDROOT
BRANCH   1   2
ATOM      2  C   UNL     1       1.006  49.130  21.974  1.00  0.00     0.042 C 
ATOM      3  O   UNL     1       1.288  48.183  21.194  1.00  0.00    -0.550 OA
ATOM      4  O   UNL     1       1.011  50.436  21.500  1.00  0.00    -0.550 OA
ENDBRANCH   1   2
BRANCH   1   5
ATOM      5  C   UNL     1      -0.668  48.209  23.598  1.00  0.00     0.059 C 
BRANCH   5   6
ATOM      6  C   UNL     1      -0.566  46.720  23.730  1.00  0.00     0.042 C 
ATOM      7  O   UNL     1      -0.159  46.206  24.805  1.00  0.00    -0.550 OA
ATOM      8  O   UNL     1      -0.881  45.902  22.652  1.00  0.00    -0.550 OA
ENDBRANCH   5   6
ENDBRANCH   1   5
TORSDOF 3
ENDMDL
MODEL 3
REMARK VINA RESULT:    -3.055      2.012      3.286
REMARK INTER + INTRA:          -3.703
REMARK INTER:                  -3.614
REMARK INTRA:                  -0.089
REMARK UNBOUND:                -0.111
REMARK SMILES O=C([O-])CCC(=O)[O-]
REMARK SMILES IDX 4 1 2 2 1 3 3 4 5 5 6 6 7 7 8 8
REMARK H PARENT
REMARK Flexibility Score: inf
ROOT
ATOM      1  C   UNL     1       1.794  49.612  22.488  1.00  0.00     0.059 C 
ENDROOT
BRANCH   1   2
ATOM      2  C   UNL     1       0.907  48.435  22.218  1.00  0.00     0.042 C 
ATOM      3  O   UNL     1       1.136  47.682  21.236  1.00  0.00    -0.550 OA
ATOM      4  O   UNL     1      -0.197  48.195  23.027  1.00  0.00    -0.550 OA
ENDBRANCH   1   2
BRANCH   1   5
ATOM      5  C   UNL     1       1.809  50.592  21.310  1.00  0.00     0.059 C 
BRANCH   5   6
ATOM      6  C   UNL     1       1.088  51.863  21.640  1.00  0.00     0.042 C 
ATOM      7  O   UNL     1       0.154  51.860  22.484  1.00  0.00    -0.550 OA
ATOM      8  O   UNL     1       1.421  53.042  20.985  1.00  0.00    -0.550 OA
ENDBRANCH   5   6
ENDBRANCH   1   5
TORSDOF 3
ENDMDL
MODEL 4
REMARK VINA RESULT:    -3.035     17.218     17.960
REMARK INTER + INTRA:          -3.678
REMARK INTER:                  -3.649
REMARK INTRA:                  -0.030
REMARK UNBOUND:                -0.111
REMARK SMILES O=C([O-])CCC(=O)[O-]
REMARK SMILES IDX 4 1 2 2 1 3 3 4 5 5 6 6 7 7 8 8
REMARK H PARENT
REMARK Flexibility Score: inf
ROOT
ATOM      1  C   UNL     1      -6.857  45.132  39.450  1.00  0.00     0.059 C 
ENDROOT
BRANCH   1   2
ATOM      2  C   UNL     1      -5.764  44.256  38.918  1.00  0.00     0.042 C 
ATOM      3  O   UNL     1      -4.615  44.728  38.718  1.00  0.00    -0.550 OA
ATOM      4  O   UNL     1      -6.027  42.928  38.605  1.00  0.00    -0.550 OA
ENDBRANCH   1   2
BRANCH   1   5
ATOM      5  C   UNL     1      -6.881  46.495  38.751  1.00  0.00     0.059 C 
BRANCH   5   6
ATOM      6  C   UNL     1      -8.042  47.327  39.203  1.00  0.00     0.042 C 
ATOM      7  O   UNL     1      -8.112  47.720  40.397  1.00  0.00    -0.550 OA
ATOM      8  O   UNL     1      -9.065  47.634  38.315  1.00  0.00    -0.550 OA
ENDBRANCH   5   6
ENDBRANCH   1   5
TORSDOF 3
ENDMDL
MODEL 5
REMARK VINA RESULT:    -3.030     17.284     18.055
REMARK INTER + INTRA:          -3.672
REMARK INTER:                  -3.643
REMARK INTRA:                  -0.029
REMARK UNBOUND:                -0.111
REMARK SMILES O=C([O-])CCC(=O)[O-]
REMARK SMILES IDX 4 1 2 2 1 3 3 4 5 5 6 6 7 7 8 8
REMARK H PARENT
REMARK Flexibility Score: inf
ROOT
ATOM      1  C   UNL     1      -6.890  46.448  38.726  1.00  0.00     0.059 C 
ENDROOT
BRANCH   1   2
ATOM      2  C   UNL     1      -8.042  47.296  39.169  1.00  0.00     0.042 C 
ATOM      3  O   UNL     1      -8.100  47.716  40.354  1.00  0.00    -0.550 OA
ATOM      4  O   UNL     1      -9.073  47.589  38.284  1.00  0.00    -0.550 OA
ENDBRANCH   1   2
BRANCH   1   5
ATOM      5  C   UNL     1      -6.837  45.120  39.489  1.00  0.00     0.059 C 
BRANCH   5   6
ATOM      6  C   UNL     1      -5.745  44.232  38.977  1.00  0.00     0.042 C 
ATOM      7  O   UNL     1      -4.572  44.675  38.861  1.00  0.00    -0.550 OA
ATOM      8  O   UNL     1      -6.030  42.929  38.591  1.00  0.00    -0.550 OA
ENDBRANCH   5   6
ENDBRANCH   1   5
TORSDOF 3
ENDMDL
MODEL 6
REMARK VINA RESULT:    -2.992      3.397      5.774
REMARK INTER + INTRA:          -3.628
REMARK INTER:                  -3.589
REMARK INTRA:                  -0.038
REMARK UNBOUND:                -0.111
REMARK SMILES O=C([O-])CCC(=O)[O-]
REMARK SMILES IDX 4 1 2 2 1 3 3 4 5 5 6 6 7 7 8 8
REMARK H PARENT
REMARK Flexibility Score: inf
ROOT
ATOM      1  C   UNL     1      -2.610  45.604  24.531  1.00  0.00     0.059 C 
ENDROOT
BRANCH   1   2
ATOM      2  C   UNL     1      -1.237  45.933  24.029  1.00  0.00     0.042 C 
ATOM      3  O   UNL     1      -0.991  45.909  22.795  1.00  0.00    -0.550 OA
ATOM      4  O   UNL     1      -0.218  46.225  24.928  1.00  0.00    -0.550 OA
ENDBRANCH   1   2
BRANCH   1   5
ATOM      5  C   UNL     1      -3.137  44.299  23.925  1.00  0.00     0.059 C 
BRANCH   5   6
ATOM      6  C   UNL     1      -4.610  44.144  24.145  1.00  0.00     0.042 C 
ATOM      7  O   UNL     1      -5.356  45.159  24.177  1.00  0.00    -0.550 OA
ATOM      8  O   UNL     1      -5.155  42.884  24.355  1.00  0.00    -0.550 OA
ENDBRANCH   5   6
ENDBRANCH   1   5
TORSDOF 3
ENDMDL
MODEL 7
REMARK VINA RESULT:    -2.945      2.459      4.816
REMARK INTER + INTRA:          -3.573
REMARK INTER:                  -3.475
REMARK INTRA:                  -0.097
REMARK UNBOUND:                -0.111
REMARK SMILES O=C([O-])CCC(=O)[O-]
REMARK SMILES IDX 4 1 2 2 1 3 3 4 5 5 6 6 7 7 8 8
REMARK H PARENT
REMARK Flexibility Score: inf
ROOT
ATOM      1  C   UNL     1       1.790  51.316  22.259  1.00  0.00     0.059 C 
ENDROOT
BRANCH   1   2
ATOM      2  C   UNL     1       0.958  52.474  21.800  1.00  0.00     0.042 C 
ATOM      3  O   UNL     1       1.369  53.222  20.875  1.00  0.00    -0.550 OA
ATOM      4  O   UNL     1      -0.252  52.752  22.423  1.00  0.00    -0.550 OA
ENDBRANCH   1   2
BRANCH   1   5
ATOM      5  C   UNL     1       1.750  50.158  21.257  1.00  0.00     0.059 C 
BRANCH   5   6
ATOM      6  C   UNL     1       1.017  48.975  21.809  1.00  0.00     0.042 C 
ATOM      7  O   UNL     1       0.255  49.109  22.803  1.00  0.00    -0.550 OA
ATOM      8  O   UNL     1       1.206  47.716  21.253  1.00  0.00    -0.550 OA
ENDBRANCH   5   6
ENDBRANCH   1   5
TORSDOF 3
ENDMDL
MODEL 8
REMARK VINA RESULT:    -2.905      2.508      3.778
REMARK INTER + INTRA:          -3.526
REMARK INTER:                  -3.407
REMARK INTRA:                  -0.119
REMARK UNBOUND:                -0.111
REMARK SMILES O=C([O-])CCC(=O)[O-]
REMARK SMILES IDX 4 1 2 2 1 3 3 4 5 5 6 6 7 7 8 8
REMARK H PARENT
REMARK Flexibility Score: inf
ROOT
ATOM      1  C   UNL     1       2.125  49.980  21.604  1.00  0.00     0.059 C 
ENDROOT
BRANCH   1   2
ATOM      2  C   UNL     1       1.144  48.893  21.923  1.00  0.00     0.042 C 
ATOM      3  O   UNL     1       1.182  47.802  21.297  1.00  0.00    -0.550 OA
ATOM      4  O   UNL     1       0.161  49.102  22.883  1.00  0.00    -0.550 OA
ENDBRANCH   1   2
BRANCH   1   5
ATOM      5  C   UNL     1       1.673  51.333  22.163  1.00  0.00     0.059 C 
BRANCH   5   6
ATOM      6  C   UNL     1       2.557  51.792  23.281  1.00  0.00     0.042 C 
ATOM      7  O   UNL     1       3.433  52.673  23.075  1.00  0.00    -0.550 OA
ATOM      8  O   UNL     1       2.442  51.218  24.541  1.00  0.00    -0.550 OA
ENDBRANCH   5   6
ENDBRANCH   1   5
TORSDOF 3
ENDMDL
