MODEL 1
REMARK VINA RESULT:    -4.427      0.000      0.000
REMARK INTER + INTRA:          -9.009
REMARK INTER:                  -7.791
REMARK INTRA:                  -1.218
REMARK UNBOUND:                -1.218
REMARK SMILES CCCCCCC=CCCCCCCCC(=O)[O-]
REMARK SMILES IDX 10 1 11 2 12 3 13 4 14 5 15 6 16 7 17 8 18 9 9 10 8 11 7 12
REMARK SMILES IDX 6 13 5 14 4 15 3 16 2 17 1 18
REMARK H PARENT
REMARK Flexibility Score: inf
ROOT
ATOM      1  C   UNL     1      13.062  35.710  19.124  1.00  0.00     0.004 C 
ENDROOT
BRANCH   1   2
ATOM      2  C   UNL     1      12.253  36.995  18.875  1.00  0.00     0.000 C 
BRANCH   2   3
ATOM      3  C   UNL     1      10.744  36.803  19.105  1.00  0.00     0.000 C 
BRANCH   3   4
ATOM      4  C   UNL     1      10.335  35.426  19.665  1.00  0.00     0.000 C 
BRANCH   4   5
ATOM      5  C   UNL     1       9.652  35.458  21.044  1.00  0.00     0.006 C 
BRANCH   5   6
ATOM      6  C   UNL     1      10.334  36.421  22.024  1.00  0.00     0.053 C 
BRANCH   6   7
ATOM      7  C   UNL     1      10.996  35.658  23.129  1.00  0.00     0.041 C 
ATOM      8  O   UNL     1      11.463  34.509  22.913  1.00  0.00    -0.550 OA
ATOM      9  O   UNL     1      11.052  36.196  24.408  1.00  0.00    -0.550 OA
ENDBRANCH   6   7
ENDBRANCH   5   6
ENDBRANCH   4   5
ENDBRANCH   3   4
ENDBRANCH   2   3
ENDBRANCH   1   2
BRANCH   1  10
ATOM     10  C   UNL     1      13.712  35.699  20.514  1.00  0.00     0.027 C 
BRANCH  10  11
ATOM     11  C   UNL     1      14.608  34.504  20.695  1.00  0.00    -0.031 C 
ATOM     12  C   UNL     1      14.847  33.643  19.693  1.00  0.00    -0.031 C 
BRANCH  12  13
ATOM     13  C   UNL     1      15.720  32.434  19.885  1.00  0.00     0.027 C 
BRANCH  13  14
ATOM     14  C   UNL     1      16.907  32.723  20.816  1.00  0.00     0.004 C 
BRANCH  14  15
ATOM     15  C   UNL     1      17.379  31.486  21.608  1.00  0.00     0.000 C 
BRANCH  15  16
ATOM     16  C   UNL     1      16.252  30.866  22.452  1.00  0.00    -0.000 C 
BRANCH  16  17
ATOM     17  C   UNL     1      16.606  30.791  23.945  1.00  0.00    -0.003 C 
ATOM     18  C   UNL     1      18.053  31.194  24.230  1.00  0.00     0.004 C 
ENDBRANCH  16  17
ENDBRANCH  15  16
ENDBRANCH  14  15
ENDBRANCH  13  14
ENDBRANCH  12  13
ENDBRANCH  10  11
ENDBRANCH   1  10
TORSDOF 13
ENDMDL
MODEL 2
REMARK VINA RESULT:    -4.374      2.517      3.291
REMARK INTER + INTRA:          -8.917
REMARK INTER:                  -8.096
REMARK INTRA:                  -0.821
REMARK UNBOUND:                -1.218
REMARK SMILES CCCCCCC=CCCCCCCCC(=O)[O-]
REMARK SMILES IDX 10 1 11 2 12 3 13 4 14 5 15 6 16 7 17 8 18 9 9 10 8 11 7 12
REMARK SMILES IDX 6 13 5 14 4 15 3 16 2 17 1 18
REMARK H PARENT
REMARK Flexibility Score: inf
ROOT
ATOM      1  C   UNL     1      11.828  35.593  22.325  1.00  0.00     0.004 C 
ENDROOT
BRANCH   1   2
ATOM      2  C   UNL     1      10.356  35.970  22.089  1.00  0.00     0.000 C 
BRANCH   2   3
ATOM      3  C   UNL     1      10.127  36.669  20.738  1.00  0.00     0.000 C 
BRANCH   3   4
ATOM      4  C   UNL     1       9.159  35.945  19.780  1.00  0.00     0.000 C 
BRANCH   4   5
ATOM      5  C   UNL     1       8.572  34.627  20.318  1.00  0.00     0.006 C 
BRANCH   5   6
ATOM      6  C   UNL     1       7.039  34.604  20.291  1.00  0.00     0.053 C 
BRANCH   6   7
ATOM      7  C   UNL     1       6.539  33.194  20.257  1.00  0.00     0.041 C 
ATOM      8  O   UNL     1       5.584  32.843  20.998  1.00  0.00    -0.550 OA
ATOM      9  O   UNL     1       7.161  32.256  19.443  1.00  0.00    -0.550 OA
ENDBRANCH   6   7
ENDBRANCH   5   6
ENDBRANCH   4   5
ENDBRANCH   3   4
ENDBRANCH   2   3
ENDBRANCH   1   2
BRANCH   1  10
ATOM     10  C   UNL     1      12.710  35.936  21.117  1.00  0.00     0.027 C 
BRANCH  10  11
ATOM     11  C   UNL     1      13.313  34.700  20.505  1.00  0.00    -0.031 C 
ATOM     12  C   UNL     1      14.630  34.451  20.572  1.00  0.00    -0.031 C 
BRANCH  12  13
ATOM     13  C   UNL     1      15.234  33.230  19.935  1.00  0.00     0.027 C 
BRANCH  13  14
ATOM     14  C   UNL     1      15.901  32.312  20.970  1.00  0.00     0.004 C 
BRANCH  14  15
ATOM     15  C   UNL     1      17.415  32.567  21.127  1.00  0.00     0.000 C 
BRANCH  15  16
ATOM     16  C   UNL     1      18.103  31.495  21.990  1.00  0.00    -0.000 C 
BRANCH  16  17
ATOM     17  C   UNL     1      17.179  30.936  23.083  1.00  0.00    -0.003 C 
ATOM     18  C   UNL     1      17.725  31.166  24.492  1.00  0.00     0.004 C 
ENDBRANCH  16  17
ENDBRANCH  15  16
ENDBRANCH  14  15
ENDBRANCH  13  14
ENDBRANCH  12  13
ENDBRANCH  10  11
ENDBRANCH   1  10
TORSDOF 13
ENDMDL
MODEL 3
REMARK VINA RESULT:    -4.252      2.925      3.931
REMARK INTER + INTRA:          -8.702
REMARK INTER:                  -7.731
REMARK INTRA:                  -0.971
REMARK UNBOUND:                -1.218
REMARK SMILES CCCCCCC=CCCCCCCCC(=O)[O-]
REMARK SMILES IDX 10 1 11 2 12 3 13 4 14 5 15 6 16 7 17 8 18 9 9 10 8 11 7 12
REMARK SMILES IDX 6 13 5 14 4 15 3 16 2 17 1 18
REMARK H PARENT
REMARK Flexibility Score: inf
ROOT
ATOM      1  C   UNL     1      10.296  36.233  22.032  1.00  0.00     0.004 C 
ENDROOT
BRANCH   1   2
ATOM      2  C   UNL     1      10.056  36.612  20.560  1.00  0.00     0.000 C 
BRANCH   2   3
ATOM      3  C   UNL     1       9.029  35.700  19.868  1.00  0.00     0.000 C 
BRANCH   3   4
ATOM      4  C   UNL     1       9.138  34.203  20.222  1.00  0.00     0.000 C 
BRANCH   4   5
ATOM      5  C   UNL     1       7.977  33.326  19.719  1.00  0.00     0.006 C 
BRANCH   5   6
ATOM      6  C   UNL     1       6.640  33.670  20.386  1.00  0.00     0.053 C 
BRANCH   6   7
ATOM      7  C   UNL     1       5.876  32.422  20.698  1.00  0.00     0.041 C 
ATOM      8  O   UNL     1       4.902  32.457  21.494  1.00  0.00    -0.550 OA
ATOM      9  O   UNL     1       6.271  31.209  20.147  1.00  0.00    -0.550 OA
ENDBRANCH   6   7
ENDBRANCH   5   6
ENDBRANCH   4   5
ENDBRANCH   3   4
ENDBRANCH   2   3
ENDBRANCH   1   2
BRANCH   1  10
ATOM     10  C   UNL     1      11.781  35.987  22.328  1.00  0.00     0.027 C 
BRANCH  10  11
ATOM     11  C   UNL     1      12.585  35.874  21.061  1.00  0.00    -0.031 C 
ATOM     12  C   UNL     1      13.261  34.756  20.752  1.00  0.00    -0.031 C 
BRANCH  12  13
ATOM     13  C   UNL     1      14.087  34.657  19.500  1.00  0.00     0.027 C 
BRANCH  13  14
ATOM     14  C   UNL     1      14.966  33.397  19.490  1.00  0.00     0.004 C 
BRANCH  14  15
ATOM     15  C   UNL     1      15.393  32.937  20.900  1.00  0.00     0.000 C 
BRANCH  15  16
ATOM     16  C   UNL     1      16.899  32.638  20.987  1.00  0.00    -0.000 C 
BRANCH  16  17
ATOM     17  C   UNL     1      17.244  31.673  22.131  1.00  0.00    -0.003 C 
ATOM     18  C   UNL     1      16.026  30.903  22.642  1.00  0.00     0.004 C 
ENDBRANCH  16  17
ENDBRANCH  15  16
ENDBRANCH  14  15
ENDBRANCH  13  14
ENDBRANCH  12  13
ENDBRANCH  10  11
ENDBRANCH   1  10
TORSDOF 13
ENDMDL
MODEL 4
REMARK VINA RESULT:    -4.235      2.755      6.636
REMARK INTER + INTRA:          -8.672
REMARK INTER:                  -6.761
REMARK INTRA:                  -1.911
REMARK UNBOUND:                -1.218
REMARK SMILES CCCCCCC=CCCCCCCCC(=O)[O-]
REMARK SMILES IDX 10 1 11 2 12 3 13 4 14 5 15 6 16 7 17 8 18 9 9 10 8 11 7 12
REMARK SMILES IDX 6 13 5 14 4 15 3 16 2 17 1 18
REMARK H PARENT
REMARK Flexibility Score: inf
ROOT
ATOM      1  C   UNL     1      12.150  35.232  21.681  1.00  0.00     0.004 C 
ENDROOT
BRANCH   1   2
ATOM      2  C   UNL     1      13.245  35.866  20.807  1.00  0.00     0.000 C 
BRANCH   2   3
ATOM      3  C   UNL     1      13.315  35.250  19.399  1.00  0.00     0.000 C 
BRANCH   3   4
ATOM      4  C   UNL     1      14.371  34.141  19.219  1.00  0.00     0.000 C 
BRANCH   4   5
ATOM      5  C   UNL     1      15.270  33.890  20.444  1.00  0.00     0.006 C 
BRANCH   5   6
ATOM      6  C   UNL     1      15.061  32.502  21.061  1.00  0.00     0.053 C 
BRANCH   6   7
ATOM      7  C   UNL     1      16.333  32.007  21.674  1.00  0.00     0.041 C 
ATOM      8  O   UNL     1      16.299  31.198  22.638  1.00  0.00    -0.550 OA
ATOM      9  O   UNL     1      17.556  32.478  21.214  1.00  0.00    -0.550 OA
ENDBRANCH   6   7
ENDBRANCH   5   6
ENDBRANCH   4   5
ENDBRANCH   3   4
ENDBRANCH   2   3
ENDBRANCH   1   2
BRANCH   1  10
ATOM     10  C   UNL     1      11.111  36.264  22.141  1.00  0.00     0.027 C 
BRANCH  10  11
ATOM     11  C   UNL     1       9.824  36.131  21.372  1.00  0.00    -0.031 C 
ATOM     12  C   UNL     1       9.736  36.478  20.079  1.00  0.00    -0.031 C 
BRANCH  12  13
ATOM     13  C   UNL     1       8.441  36.372  19.322  1.00  0.00     0.027 C 
BRANCH  13  14
ATOM     14  C   UNL     1       7.614  35.156  19.765  1.00  0.00     0.004 C 
BRANCH  14  15
ATOM     15  C   UNL     1       7.905  33.885  18.940  1.00  0.00     0.000 C 
BRANCH  15  16
ATOM     16  C   UNL     1       8.821  32.900  19.688  1.00  0.00    -0.000 C 
BRANCH  16  17
ATOM     17  C   UNL     1      10.271  32.943  19.182  1.00  0.00    -0.003 C 
ATOM     18  C   UNL     1      11.227  32.131  20.056  1.00  0.00     0.004 C 
ENDBRANCH  16  17
ENDBRANCH  15  16
ENDBRANCH  14  15
ENDBRANCH  13  14
ENDBRANCH  12  13
ENDBRANCH  10  11
ENDBRANCH   1  10
TORSDOF 13
ENDMDL
MODEL 5
REMARK VINA RESULT:    -4.218      2.764      7.303
REMARK INTER + INTRA:          -8.641
REMARK INTER:                  -7.733
REMARK INTRA:                  -0.908
REMARK UNBOUND:                -1.218
REMARK SMILES CCCCCCC=CCCCCCCCC(=O)[O-]
REMARK SMILES IDX 10 1 11 2 12 3 13 4 14 5 15 6 16 7 17 8 18 9 9 10 8 11 7 12
REMARK SMILES IDX 6 13 5 14 4 15 3 16 2 17 1 18
REMARK H PARENT
REMARK Flexibility Score: inf
ROOT
ATOM      1  C   UNL     1      11.935  34.981  21.936  1.00  0.00     0.004 C 
ENDROOT
BRANCH   1   2
ATOM      2  C   UNL     1      13.010  35.822  21.224  1.00  0.00     0.000 C 
BRANCH   2   3
ATOM      3  C   UNL     1      13.776  35.027  20.153  1.00  0.00     0.000 C 
BRANCH   3   4
ATOM      4  C   UNL     1      14.912  34.131  20.688  1.00  0.00     0.000 C 
BRANCH   4   5
ATOM      5  C   UNL     1      14.665  32.617  20.559  1.00  0.00     0.006 C 
BRANCH   5   6
ATOM      6  C   UNL     1      14.505  31.923  21.917  1.00  0.00     0.053 C 
BRANCH   6   7
ATOM      7  C   UNL     1      13.223  31.152  21.962  1.00  0.00     0.041 C 
ATOM      8  O   UNL     1      13.152  30.079  22.616  1.00  0.00    -0.550 OA
ATOM      9  O   UNL     1      12.121  31.592  21.239  1.00  0.00    -0.550 OA
ENDBRANCH   6   7
ENDBRANCH   5   6
ENDBRANCH   4   5
ENDBRANCH   3   4
ENDBRANCH   2   3
ENDBRANCH   1   2
BRANCH   1  10
ATOM     10  C   UNL     1      10.878  35.858  22.619  1.00  0.00     0.027 C 
BRANCH  10  11
ATOM     11  C   UNL     1       9.999  36.549  21.611  1.00  0.00    -0.031 C 
ATOM     12  C   UNL     1       9.847  36.074  20.365  1.00  0.00    -0.031 C 
BRANCH  12  13
ATOM     13  C   UNL     1       8.991  36.783  19.352  1.00  0.00     0.027 C 
BRANCH  13  14
ATOM     14  C   UNL     1       7.643  36.076  19.143  1.00  0.00     0.004 C 
BRANCH  14  15
ATOM     15  C   UNL     1       7.699  34.559  19.419  1.00  0.00     0.000 C 
BRANCH  15  16
ATOM     16  C   UNL     1       6.611  34.104  20.408  1.00  0.00    -0.000 C 
BRANCH  16  17
ATOM     17  C   UNL     1       6.278  32.611  20.273  1.00  0.00    -0.003 C 
ATOM     18  C   UNL     1       5.063  32.198  21.104  1.00  0.00     0.004 C 
ENDBRANCH  16  17
ENDBRANCH  15  16
ENDBRANCH  14  15
ENDBRANCH  13  14
ENDBRANCH  12  13
ENDBRANCH  10  11
ENDBRANCH   1  10
TORSDOF 13
ENDMDL
MODEL 6
REMARK VINA RESULT:    -4.166      2.573      7.173
REMARK INTER + INTRA:          -8.550
REMARK INTER:                  -7.532
REMARK INTRA:                  -1.018
REMARK UNBOUND:                -1.218
REMARK SMILES CCCCCCC=CCCCCCCCC(=O)[O-]
REMARK SMILES IDX 10 1 11 2 12 3 13 4 14 5 15 6 16 7 17 8 18 9 9 10 8 11 7 12
REMARK SMILES IDX 6 13 5 14 4 15 3 16 2 17 1 18
REMARK H PARENT
REMARK Flexibility Score: inf
ROOT
ATOM      1  C   UNL     1      14.315  34.045  20.371  1.00  0.00     0.004 C 
ENDROOT
BRANCH   1   2
ATOM      2  C   UNL     1      15.280  32.848  20.403  1.00  0.00     0.000 C 
BRANCH   2   3
ATOM      3  C   UNL     1      16.703  33.240  20.838  1.00  0.00     0.000 C 
BRANCH   3   4
ATOM      4  C   UNL     1      17.704  32.070  20.937  1.00  0.00     0.000 C 
BRANCH   4   5
ATOM      5  C   UNL     1      17.287  30.931  21.884  1.00  0.00     0.006 C 
BRANCH   5   6
ATOM      6  C   UNL     1      18.343  30.631  22.955  1.00  0.00     0.053 C 
BRANCH   6   7
ATOM      7  C   UNL     1      17.886  31.125  24.291  1.00  0.00     0.041 C 
ATOM      8  O   UNL     1      18.631  31.870  24.980  1.00  0.00    -0.550 OA
ATOM      9  O   UNL     1      16.657  30.721  24.798  1.00  0.00    -0.550 OA
ENDBRANCH   6   7
ENDBRANCH   5   6
ENDBRANCH   4   5
ENDBRANCH   3   4
ENDBRANCH   2   3
ENDBRANCH   1   2
BRANCH   1  10
ATOM     10  C   UNL     1      14.248  34.694  18.981  1.00  0.00     0.027 C 
BRANCH  10  11
ATOM     11  C   UNL     1      13.328  35.884  18.971  1.00  0.00    -0.031 C 
ATOM     12  C   UNL     1      12.009  35.757  19.181  1.00  0.00    -0.031 C 
BRANCH  12  13
ATOM     13  C   UNL     1      11.087  36.945  19.142  1.00  0.00     0.027 C 
BRANCH  13  14
ATOM     14  C   UNL     1       9.664  36.584  19.593  1.00  0.00     0.004 C 
BRANCH  14  15
ATOM     15  C   UNL     1       9.626  35.774  20.907  1.00  0.00     0.000 C 
BRANCH  15  16
ATOM     16  C   UNL     1      10.008  36.625  22.130  1.00  0.00    -0.000 C 
BRANCH  16  17
ATOM     17  C   UNL     1      11.002  35.911  23.058  1.00  0.00    -0.003 C 
ATOM     18  C   UNL     1      11.472  34.568  22.500  1.00  0.00     0.004 C 
ENDBRANCH  16  17
ENDBRANCH  15  16
ENDBRANCH  14  15
ENDBRANCH  13  14
ENDBRANCH  12  13
ENDBRANCH  10  11
ENDBRANCH   1  10
TORSDOF 13
ENDMDL
MODEL 7
REMARK VINA RESULT:    -4.103      3.422      7.745
REMARK INTER + INTRA:          -8.439
REMARK INTER:                  -7.561
REMARK INTRA:                  -0.878
REMARK UNBOUND:                -1.218
REMARK SMILES CCCCCCC=CCCCCCCCC(=O)[O-]
REMARK SMILES IDX 10 1 11 2 12 3 13 4 14 5 15 6 16 7 17 8 18 9 9 10 8 11 7 12
REMARK SMILES IDX 6 13 5 14 4 15 3 16 2 17 1 18
REMARK H PARENT
REMARK Flexibility Score: inf
ROOT
ATOM      1  C   UNL     1      11.964  34.926  21.910  1.00  0.00     0.004 C 
ENDROOT
BRANCH   1   2
ATOM      2  C   UNL     1      13.057  35.679  21.132  1.00  0.00     0.000 C 
BRANCH   2   3
ATOM      3  C   UNL     1      13.109  35.287  19.645  1.00  0.00     0.000 C 
BRANCH   3   4
ATOM      4  C   UNL     1      14.278  34.362  19.251  1.00  0.00     0.000 C 
BRANCH   4   5
ATOM      5  C   UNL     1      15.245  34.007  20.395  1.00  0.00     0.006 C 
BRANCH   5   6
ATOM      6  C   UNL     1      15.377  32.496  20.615  1.00  0.00     0.053 C 
BRANCH   6   7
ATOM      7  C   UNL     1      16.801  32.067  20.445  1.00  0.00     0.041 C 
ATOM      8  O   UNL     1      17.128  31.323  19.483  1.00  0.00    -0.550 OA
ATOM      9  O   UNL     1      17.757  32.446  21.379  1.00  0.00    -0.550 OA
ENDBRANCH   6   7
ENDBRANCH   5   6
ENDBRANCH   4   5
ENDBRANCH   3   4
ENDBRANCH   2   3
ENDBRANCH   1   2
BRANCH   1  10
ATOM     10  C   UNL     1      10.941  35.882  22.536  1.00  0.00     0.027 C 
BRANCH  10  11
ATOM     11  C   UNL     1      10.009  36.449  21.500  1.00  0.00    -0.031 C 
ATOM     12  C   UNL     1       9.543  35.703  20.487  1.00  0.00    -0.031 C 
BRANCH  12  13
ATOM     13  C   UNL     1       8.635  36.281  19.436  1.00  0.00     0.027 C 
BRANCH  13  14
ATOM     14  C   UNL     1       7.409  35.391  19.183  1.00  0.00     0.004 C 
BRANCH  14  15
ATOM     15  C   UNL     1       6.985  34.568  20.418  1.00  0.00     0.000 C 
BRANCH  15  16
ATOM     16  C   UNL     1       6.723  33.091  20.075  1.00  0.00    -0.000 C 
BRANCH  16  17
ATOM     17  C   UNL     1       5.533  32.508  20.851  1.00  0.00    -0.003 C 
ATOM     18  C   UNL     1       4.770  31.449  20.054  1.00  0.00     0.004 C 
ENDBRANCH  16  17
ENDBRANCH  15  16
ENDBRANCH  14  15
ENDBRANCH  13  14
ENDBRANCH  12  13
ENDBRANCH  10  11
ENDBRANCH   1  10
TORSDOF 13
ENDMDL
MODEL 8
REMARK VINA RESULT:    -4.030     18.301     21.301
REMARK INTER + INTRA:          -8.311
REMARK INTER:                  -6.807
REMARK INTRA:                  -1.504
REMARK UNBOUND:                -1.218
REMARK SMILES CCCCCCC=CCCCCCCCC(=O)[O-]
REMARK SMILES IDX 10 1 11 2 12 3 13 4 14 5 15 6 16 7 17 8 18 9 9 10 8 11 7 12
REMARK SMILES IDX 6 13 5 14 4 15 3 16 2 17 1 18
REMARK H PARENT
REMARK Flexibility Score: inf
ROOT
ATOM      1  C   UNL     1       7.725  47.771  33.722  1.00  0.00     0.004 C 
ENDROOT
BRANCH   1   2
ATOM      2  C   UNL     1       8.765  48.861  33.409  1.00  0.00     0.000 C 
BRANCH   2   3
ATOM      3  C   UNL     1       9.542  48.588  32.110  1.00  0.00     0.000 C 
BRANCH   3   4
ATOM      4  C   UNL     1       9.525  49.737  31.081  1.00  0.00     0.000 C 
BRANCH   4   5
ATOM      5  C   UNL     1       8.175  49.963  30.377  1.00  0.00     0.006 C 
BRANCH   5   6
ATOM      6  C   UNL     1       7.418  48.657  30.109  1.00  0.00     0.053 C 
BRANCH   6   7
ATOM      7  C   UNL     1       6.013  48.947  29.683  1.00  0.00     0.041 C 
ATOM      8  O   UNL     1       5.542  48.411  28.645  1.00  0.00    -0.550 OA
ATOM      9  O   UNL     1       5.239  49.848  30.403  1.00  0.00    -0.550 OA
ENDBRANCH   6   7
ENDBRANCH   5   6
ENDBRANCH   4   5
ENDBRANCH   3   4
ENDBRANCH   2   3
ENDBRANCH   1   2
BRANCH   1  10
ATOM     10  C   UNL     1       6.291  48.314  33.672  1.00  0.00     0.027 C 
BRANCH  10  11
ATOM     11  C   UNL     1       6.013  49.248  34.819  1.00  0.00    -0.031 C 
ATOM     12  C   UNL     1       4.997  49.037  35.670  1.00  0.00    -0.031 C 
BRANCH  12  13
ATOM     13  C   UNL     1       4.704  49.988  36.797  1.00  0.00     0.027 C 
BRANCH  13  14
ATOM     14  C   UNL     1       4.644  49.270  38.154  1.00  0.00     0.004 C 
BRANCH  14  15
ATOM     15  C   UNL     1       5.764  49.701  39.124  1.00  0.00     0.000 C 
BRANCH  15  16
ATOM     16  C   UNL     1       6.964  48.739  39.098  1.00  0.00    -0.000 C 
BRANCH  16  17
ATOM     17  C   UNL     1       6.582  47.333  38.611  1.00  0.00    -0.003 C 
ATOM     18  C   UNL     1       7.445  46.857  37.442  1.00  0.00     0.004 C 
ENDBRANCH  16  17
ENDBRANCH  15  16
ENDBRANCH  14  15
ENDBRANCH  13  14
ENDBRANCH  12  13
ENDBRANCH  10  11
ENDBRANCH   1  10
TORSDOF 13
ENDMDL
MODEL 9
REMARK VINA RESULT:    -3.997     18.653     20.952
REMARK INTER + INTRA:          -8.253
REMARK INTER:                  -6.759
REMARK INTRA:                  -1.494
REMARK UNBOUND:                -1.218
REMARK SMILES CCCCCCC=CCCCCCCCC(=O)[O-]
REMARK SMILES IDX 10 1 11 2 12 3 13 4 14 5 15 6 16 7 17 8 18 9 9 10 8 11 7 12
REMARK SMILES IDX 6 13 5 14 4 15 3 16 2 17 1 18
REMARK H PARENT
REMARK Flexibility Score: inf
ROOT
ATOM      1  C   UNL     1       6.315  48.648  34.545  1.00  0.00     0.004 C 
ENDROOT
BRANCH   1   2
ATOM      2  C   UNL     1       6.416  49.860  35.487  1.00  0.00     0.000 C 
BRANCH   2   3
ATOM      3  C   UNL     1       6.872  49.477  36.905  1.00  0.00     0.000 C 
BRANCH   3   4
ATOM      4  C   UNL     1       5.940  48.503  37.654  1.00  0.00     0.000 C 
BRANCH   4   5
ATOM      5  C   UNL     1       6.520  47.908  38.949  1.00  0.00     0.006 C 
BRANCH   5   6
ATOM      6  C   UNL     1       7.927  47.329  38.759  1.00  0.00     0.053 C 
BRANCH   6   7
ATOM      7  C   UNL     1       7.849  45.916  38.275  1.00  0.00     0.041 C 
ATOM      8  O   UNL     1       8.147  45.637  37.084  1.00  0.00    -0.550 OA
ATOM      9  O   UNL     1       7.399  44.913  39.125  1.00  0.00    -0.550 OA
ENDBRANCH   6   7
ENDBRANCH   5   6
ENDBRANCH   4   5
ENDBRANCH   3   4
ENDBRANCH   2   3
ENDBRANCH   1   2
BRANCH   1  10
ATOM     10  C   UNL     1       7.572  47.771  34.599  1.00  0.00     0.027 C 
BRANCH  10  11
ATOM     11  C   UNL     1       8.370  47.871  33.327  1.00  0.00    -0.031 C 
ATOM     12  C   UNL     1       8.858  49.043  32.891  1.00  0.00    -0.031 C 
BRANCH  12  13
ATOM     13  C   UNL     1       9.630  49.145  31.605  1.00  0.00     0.027 C 
BRANCH  13  14
ATOM     14  C   UNL     1       8.933  50.059  30.586  1.00  0.00     0.004 C 
BRANCH  14  15
ATOM     15  C   UNL     1       7.393  50.000  30.665  1.00  0.00     0.000 C 
BRANCH  15  16
ATOM     16  C   UNL     1       6.799  48.930  29.732  1.00  0.00    -0.000 C 
BRANCH  16  17
ATOM     17  C   UNL     1       5.896  47.935  30.476  1.00  0.00    -0.003 C 
ATOM     18  C   UNL     1       4.870  48.625  31.376  1.00  0.00     0.004 C 
ENDBRANCH  16  17
ENDBRANCH  15  16
ENDBRANCH  14  15
ENDBRANCH  13  14
ENDBRANCH  12  13
ENDBRANCH  10  11
ENDBRANCH   1  10
TORSDOF 13
ENDMDL
