MODEL 1
REMARK VINA RESULT:    -4.910      0.000      0.000
REMARK INTER + INTRA:         -14.927
REMARK INTER:                 -11.225
REMARK INTRA:                  -3.702
REMARK UNBOUND:                -3.702
REMARK SMILES CCCCCCCCCCCCCCCCCCCCCCCC(=O)[O-]
REMARK SMILES IDX 13 1 14 2 15 3 16 4 17 5 18 6 19 7 20 8 21 9 22 10 23 11
REMARK SMILES IDX 24 12 25 13 26 14 12 15 11 16 10 17 9 18 8 19 7 20 6 21 5 22
REMARK SMILES IDX 4 23 3 24 2 25 1 26
REMARK H PARENT
REMARK Flexibility Score: inf
ROOT
ATOM      1  C   UNL     1      21.327  23.135   9.859  1.00  0.00     0.000 C 
ENDROOT
BRANCH   1   2
ATOM      2  C   UNL     1      21.324  23.315   8.333  1.00  0.00     0.000 C 
BRANCH   2   3
ATOM      3  C   UNL     1      21.510  21.991   7.577  1.00  0.00     0.000 C 
BRANCH   3   4
ATOM      4  C   UNL     1      21.000  22.107   6.135  1.00  0.00     0.000 C 
BRANCH   4   5
ATOM      5  C   UNL     1      21.801  21.205   5.189  1.00  0.00     0.000 C 
BRANCH   5   6
ATOM      6  C   UNL     1      20.969  20.835   3.951  1.00  0.00     0.000 C 
BRANCH   6   7
ATOM      7  C   UNL     1      19.479  21.177   4.117  1.00  0.00     0.000 C 
BRANCH   7   8
ATOM      8  C   UNL     1      18.591  19.921   4.148  1.00  0.00     0.000 C 
BRANCH   8   9
ATOM      9  C   UNL     1      19.117  18.836   5.107  1.00  0.00     0.000 C 
BRANCH   9  10
ATOM     10  C   UNL     1      18.081  17.779   5.532  1.00  0.00     0.006 C 
BRANCH  10  11
ATOM     11  C   UNL     1      18.346  17.205   6.930  1.00  0.00     0.053 C 
BRANCH  11  12
ATOM     12  C   UNL     1      18.169  15.719   6.932  1.00  0.00     0.041 C 
ATOM     13  O   UNL     1      17.778  15.129   5.890  1.00  0.00    -0.550 OA
ATOM     14  O   UNL     1      18.400  14.990   8.091  1.00  0.00    -0.550 OA
ENDBRANCH  11  12
ENDBRANCH  10  11
ENDBRANCH   9  10
ENDBRANCH   8   9
ENDBRANCH   7   8
ENDBRANCH   6   7
ENDBRANCH   5   6
ENDBRANCH   4   5
ENDBRANCH   3   4
ENDBRANCH   2   3
ENDBRANCH   1   2
BRANCH   1  15
ATOM     15  C   UNL     1      19.937  23.345  10.487  1.00  0.00     0.000 C 
BRANCH  15  16
ATOM     16  C   UNL     1      19.184  22.018  10.732  1.00  0.00     0.000 C 
BRANCH  16  17
ATOM     17  C   UNL     1      17.664  22.107  10.500  1.00  0.00     0.000 C 
BRANCH  17  18
ATOM     18  C   UNL     1      16.998  20.807  10.011  1.00  0.00    -0.000 C 
BRANCH  18  19
ATOM     19  C   UNL     1      17.463  20.313   8.625  1.00  0.00    -0.000 C 
BRANCH  19  20
ATOM     20  C   UNL     1      17.966  21.413   7.674  1.00  0.00    -0.000 C 
BRANCH  20  21
ATOM     21  C   UNL     1      16.876  21.916   6.716  1.00  0.00    -0.000 C 
BRANCH  21  22
ATOM     22  C   UNL     1      16.951  23.440   6.548  1.00  0.00    -0.000 C 
BRANCH  22  23
ATOM     23  C   UNL     1      17.988  24.094   7.476  1.00  0.00    -0.000 C 
BRANCH  23  24
ATOM     24  C   UNL     1      17.395  25.174   8.405  1.00  0.00    -0.000 C 
BRANCH  24  25
ATOM     25  C   UNL     1      18.231  26.461   8.404  1.00  0.00    -0.003 C 
ATOM     26  C   UNL     1      17.436  27.638   8.962  1.00  0.00     0.004 C 
ENDBRANCH  24  25
ENDBRANCH  23  24
ENDBRANCH  22  23
ENDBRANCH  21  22
ENDBRANCH  20  21
ENDBRANCH  19  20
ENDBRANCH  18  19
ENDBRANCH  17  18
ENDBRANCH  16  17
ENDBRANCH  15  16
ENDBRANCH   1  15
TORSDOF 22
ENDMDL
MODEL 2
REMARK VINA RESULT:    -4.902      1.704      3.612
REMARK INTER + INTRA:         -14.909
REMARK INTER:                 -10.926
REMARK INTRA:                  -3.984
REMARK UNBOUND:                -3.702
REMARK SMILES CCCCCCCCCCCCCCCCCCCCCCCC(=O)[O-]
REMARK SMILES IDX 13 1 14 2 15 3 16 4 17 5 18 6 19 7 20 8 21 9 22 10 23 11
REMARK SMILES IDX 24 12 25 13 26 14 12 15 11 16 10 17 9 18 8 19 7 20 6 21 5 22
REMARK SMILES IDX 4 23 3 24 2 25 1 26
REMARK H PARENT
REMARK Flexibility Score: inf
ROOT
ATOM      1  C   UNL     1      21.983  21.313   8.007  1.00  0.00     0.000 C 
ENDROOT
BRANCH   1   2
ATOM      2  C   UNL     1      23.137  20.305   7.891  1.00  0.00     0.000 C 
BRANCH   2   3
ATOM      3  C   UNL     1      22.858  19.196   6.865  1.00  0.00     0.000 C 
BRANCH   3   4
ATOM      4  C   UNL     1      24.045  19.024   5.909  1.00  0.00     0.000 C 
BRANCH   4   5
ATOM      5  C   UNL     1      23.589  19.072   4.445  1.00  0.00     0.000 C 
BRANCH   5   6
ATOM      6  C   UNL     1      22.078  18.817   4.335  1.00  0.00     0.000 C 
BRANCH   6   7
ATOM      7  C   UNL     1      21.751  17.387   3.878  1.00  0.00     0.000 C 
BRANCH   7   8
ATOM      8  C   UNL     1      20.305  16.982   4.212  1.00  0.00     0.000 C 
BRANCH   8   9
ATOM      9  C   UNL     1      19.558  18.045   5.039  1.00  0.00     0.000 C 
BRANCH   9  10
ATOM     10  C   UNL     1      19.362  17.699   6.527  1.00  0.00     0.006 C 
BRANCH  10  11
ATOM     11  C   UNL     1      19.509  16.199   6.819  1.00  0.00     0.053 C 
BRANCH  11  12
ATOM     12  C   UNL     1      18.175  15.586   7.111  1.00  0.00     0.041 C 
ATOM     13  O   UNL     1      17.133  16.065   6.592  1.00  0.00    -0.550 OA
ATOM     14  O   UNL     1      18.078  14.510   7.985  1.00  0.00    -0.550 OA
ENDBRANCH  11  12
ENDBRANCH  10  11
ENDBRANCH   9  10
ENDBRANCH   8   9
ENDBRANCH   7   8
ENDBRANCH   6   7
ENDBRANCH   5   6
ENDBRANCH   4   5
ENDBRANCH   3   4
ENDBRANCH   2   3
ENDBRANCH   1   2
BRANCH   1  15
ATOM     15  C   UNL     1      20.807  20.981   7.072  1.00  0.00     0.000 C 
BRANCH  15  16
ATOM     16  C   UNL     1      20.720  21.934   5.858  1.00  0.00     0.000 C 
BRANCH  16  17
ATOM     17  C   UNL     1      19.361  21.904   5.132  1.00  0.00     0.000 C 
BRANCH  17  18
ATOM     18  C   UNL     1      18.127  22.048   6.042  1.00  0.00    -0.000 C 
BRANCH  18  19
ATOM     19  C   UNL     1      17.537  23.471   6.128  1.00  0.00    -0.000 C 
BRANCH  19  20
ATOM     20  C   UNL     1      17.208  23.957   7.550  1.00  0.00    -0.000 C 
BRANCH  20  21
ATOM     21  C   UNL     1      18.208  25.001   8.070  1.00  0.00    -0.000 C 
BRANCH  21  22
ATOM     22  C   UNL     1      19.533  24.340   8.473  1.00  0.00    -0.000 C 
BRANCH  22  23
ATOM     23  C   UNL     1      19.694  24.202   9.996  1.00  0.00    -0.000 C 
BRANCH  23  24
ATOM     24  C   UNL     1      19.889  22.746  10.469  1.00  0.00    -0.000 C 
BRANCH  24  25
ATOM     25  C   UNL     1      18.554  22.060  10.795  1.00  0.00    -0.003 C 
ATOM     26  C   UNL     1      18.179  21.042   9.722  1.00  0.00     0.004 C 
ENDBRANCH  24  25
ENDBRANCH  23  24
ENDBRANCH  22  23
ENDBRANCH  21  22
ENDBRANCH  20  21
ENDBRANCH  19  20
ENDBRANCH  18  19
ENDBRANCH  17  18
ENDBRANCH  16  17
ENDBRANCH  15  16
ENDBRANCH   1  15
TORSDOF 22
ENDMDL
MODEL 3
REMARK VINA RESULT:    -4.739      1.450      2.566
REMARK INTER + INTRA:         -14.535
REMARK INTER:                 -10.354
REMARK INTRA:                  -4.181
REMARK UNBOUND:                -3.702
REMARK SMILES CCCCCCCCCCCCCCCCCCCCCCCC(=O)[O-]
REMARK SMILES IDX 13 1 14 2 15 3 16 4 17 5 18 6 19 7 20 8 21 9 22 10 23 11
REMARK SMILES IDX 24 12 25 13 26 14 12 15 11 16 10 17 9 18 8 19 7 20 6 21 5 22
REMARK SMILES IDX 4 23 3 24 2 25 1 26
REMARK H PARENT
REMARK Flexibility Score: inf
ROOT
ATOM      1  C   UNL     1      21.380  22.694   7.530  1.00  0.00     0.000 C 
ENDROOT
BRANCH   1   2
ATOM      2  C   UNL     1      21.426  21.231   7.998  1.00  0.00     0.000 C 
BRANCH   2   3
ATOM      3  C   UNL     1      22.815  20.596   7.831  1.00  0.00     0.000 C 
BRANCH   3   4
ATOM      4  C   UNL     1      22.733  19.314   6.993  1.00  0.00     0.000 C 
BRANCH   4   5
ATOM      5  C   UNL     1      23.700  19.366   5.804  1.00  0.00     0.000 C 
BRANCH   5   6
ATOM      6  C   UNL     1      22.931  19.376   4.474  1.00  0.00     0.000 C 
BRANCH   6   7
ATOM      7  C   UNL     1      22.143  20.678   4.257  1.00  0.00     0.000 C 
BRANCH   7   8
ATOM      8  C   UNL     1      20.652  20.419   3.980  1.00  0.00     0.000 C 
BRANCH   8   9
ATOM      9  C   UNL     1      20.234  18.960   4.246  1.00  0.00     0.000 C 
BRANCH   9  10
ATOM     10  C   UNL     1      18.951  18.788   5.080  1.00  0.00     0.006 C 
BRANCH  10  11
ATOM     11  C   UNL     1      19.223  18.273   6.500  1.00  0.00     0.053 C 
BRANCH  11  12
ATOM     12  C   UNL     1      18.723  16.872   6.657  1.00  0.00     0.041 C 
ATOM     13  O   UNL     1      19.444  16.003   7.215  1.00  0.00    -0.550 OA
ATOM     14  O   UNL     1      17.477  16.515   6.157  1.00  0.00    -0.550 OA
ENDBRANCH  11  12
ENDBRANCH  10  11
ENDBRANCH   9  10
ENDBRANCH   8   9
ENDBRANCH   7   8
ENDBRANCH   6   7
ENDBRANCH   5   6
ENDBRANCH   4   5
ENDBRANCH   3   4
ENDBRANCH   2   3
ENDBRANCH   1   2
BRANCH   1  15
ATOM     15  C   UNL     1      19.964  23.147   7.131  1.00  0.00     0.000 C 
BRANCH  15  16
ATOM     16  C   UNL     1      19.032  21.964   6.783  1.00  0.00     0.000 C 
BRANCH  16  17
ATOM     17  C   UNL     1      17.565  22.175   7.204  1.00  0.00     0.000 C 
BRANCH  17  18
ATOM     18  C   UNL     1      16.997  21.109   8.159  1.00  0.00    -0.000 C 
BRANCH  18  19
ATOM     19  C   UNL     1      18.015  20.502   9.147  1.00  0.00    -0.000 C 
BRANCH  19  20
ATOM     20  C   UNL     1      18.383  21.402  10.339  1.00  0.00    -0.000 C 
BRANCH  20  21
ATOM     21  C   UNL     1      17.153  21.882  11.125  1.00  0.00    -0.000 C 
BRANCH  21  22
ATOM     22  C   UNL     1      17.042  23.412  11.092  1.00  0.00    -0.000 C 
BRANCH  22  23
ATOM     23  C   UNL     1      18.184  24.079  10.307  1.00  0.00    -0.000 C 
BRANCH  23  24
ATOM     24  C   UNL     1      17.714  25.208   9.367  1.00  0.00    -0.000 C 
BRANCH  24  25
ATOM     25  C   UNL     1      18.695  26.389   9.345  1.00  0.00    -0.003 C 
ATOM     26  C   UNL     1      18.151  27.544   8.509  1.00  0.00     0.004 C 
ENDBRANCH  24  25
ENDBRANCH  23  24
ENDBRANCH  22  23
ENDBRANCH  21  22
ENDBRANCH  20  21
ENDBRANCH  19  20
ENDBRANCH  18  19
ENDBRANCH  17  18
ENDBRANCH  16  17
ENDBRANCH  15  16
ENDBRANCH   1  15
TORSDOF 22
ENDMDL
MODEL 4
REMARK VINA RESULT:    -4.554      3.696      4.945
REMARK INTER + INTRA:         -14.112
REMARK INTER:                 -11.175
REMARK INTRA:                  -2.937
REMARK UNBOUND:                -3.702
REMARK SMILES CCCCCCCCCCCCCCCCCCCCCCCC(=O)[O-]
REMARK SMILES IDX 13 1 14 2 15 3 16 4 17 5 18 6 19 7 20 8 21 9 22 10 23 11
REMARK SMILES IDX 24 12 25 13 26 14 12 15 11 16 10 17 9 18 8 19 7 20 6 21 5 22
REMARK SMILES IDX 4 23 3 24 2 25 1 26
REMARK H PARENT
REMARK Flexibility Score: inf
ROOT
ATOM      1  C   UNL     1      20.962  23.474   9.625  1.00  0.00     0.000 C 
ENDROOT
BRANCH   1   2
ATOM      2  C   UNL     1      20.843  21.993   9.232  1.00  0.00     0.000 C 
BRANCH   2   3
ATOM      3  C   UNL     1      21.760  21.612   8.059  1.00  0.00     0.000 C 
BRANCH   3   4
ATOM      4  C   UNL     1      21.340  22.341   6.777  1.00  0.00     0.000 C 
BRANCH   4   5
ATOM      5  C   UNL     1      20.917  21.347   5.688  1.00  0.00     0.000 C 
BRANCH   5   6
ATOM      6  C   UNL     1      21.985  21.258   4.586  1.00  0.00     0.000 C 
BRANCH   6   7
ATOM      7  C   UNL     1      22.070  19.857   3.959  1.00  0.00     0.000 C 
BRANCH   7   8
ATOM      8  C   UNL     1      22.839  18.865   4.848  1.00  0.00     0.000 C 
BRANCH   8   9
ATOM      9  C   UNL     1      24.316  18.710   4.439  1.00  0.00     0.000 C 
BRANCH   9  10
ATOM     10  C   UNL     1      25.054  17.523   5.086  1.00  0.00     0.006 C 
BRANCH  10  11
ATOM     11  C   UNL     1      25.462  16.445   4.073  1.00  0.00     0.053 C 
BRANCH  11  12
ATOM     12  C   UNL     1      26.921  16.134   4.192  1.00  0.00     0.041 C 
ATOM     13  O   UNL     1      27.330  14.953   4.040  1.00  0.00    -0.550 OA
ATOM     14  O   UNL     1      27.825  17.141   4.508  1.00  0.00    -0.550 OA
ENDBRANCH  11  12
ENDBRANCH  10  11
ENDBRANCH   9  10
ENDBRANCH   8   9
ENDBRANCH   7   8
ENDBRANCH   6   7
ENDBRANCH   5   6
ENDBRANCH   4   5
ENDBRANCH   3   4
ENDBRANCH   2   3
ENDBRANCH   1   2
BRANCH   1  15
ATOM     15  C   UNL     1      19.594  24.165   9.766  1.00  0.00     0.000 C 
BRANCH  15  16
ATOM     16  C   UNL     1      19.187  24.950   8.499  1.00  0.00     0.000 C 
BRANCH  16  17
ATOM     17  C   UNL     1      17.669  25.184   8.366  1.00  0.00     0.000 C 
BRANCH  17  18
ATOM     18  C   UNL     1      16.907  24.105   7.574  1.00  0.00    -0.000 C 
BRANCH  18  19
ATOM     19  C   UNL     1      17.767  23.277   6.596  1.00  0.00    -0.000 C 
BRANCH  19  20
ATOM     20  C   UNL     1      17.023  22.141   5.873  1.00  0.00    -0.000 C 
BRANCH  20  21
ATOM     21  C   UNL     1      17.210  20.777   6.556  1.00  0.00    -0.000 C 
BRANCH  21  22
ATOM     22  C   UNL     1      18.068  20.908   7.821  1.00  0.00    -0.000 C 
BRANCH  22  23
ATOM     23  C   UNL     1      17.432  20.234   9.048  1.00  0.00    -0.000 C 
BRANCH  23  24
ATOM     24  C   UNL     1      16.875  21.233  10.084  1.00  0.00    -0.000 C 
BRANCH  24  25
ATOM     25  C   UNL     1      17.856  21.474  11.241  1.00  0.00    -0.003 C 
ATOM     26  C   UNL     1      17.339  22.553  12.188  1.00  0.00     0.004 C 
ENDBRANCH  24  25
ENDBRANCH  23  24
ENDBRANCH  22  23
ENDBRANCH  21  22
ENDBRANCH  20  21
ENDBRANCH  19  20
ENDBRANCH  18  19
ENDBRANCH  17  18
ENDBRANCH  16  17
ENDBRANCH  15  16
ENDBRANCH   1  15
TORSDOF 22
ENDMDL
MODEL 5
REMARK VINA RESULT:    -4.512      4.678      5.569
REMARK INTER + INTRA:         -14.017
REMARK INTER:                 -10.951
REMARK INTRA:                  -3.067
REMARK UNBOUND:                -3.702
REMARK SMILES CCCCCCCCCCCCCCCCCCCCCCCC(=O)[O-]
REMARK SMILES IDX 13 1 14 2 15 3 16 4 17 5 18 6 19 7 20 8 21 9 22 10 23 11
REMARK SMILES IDX 24 12 25 13 26 14 12 15 11 16 10 17 9 18 8 19 7 20 6 21 5 22
REMARK SMILES IDX 4 23 3 24 2 25 1 26
REMARK H PARENT
REMARK Flexibility Score: inf
ROOT
ATOM      1  C   UNL     1      20.981  22.811   7.535  1.00  0.00     0.000 C 
ENDROOT
BRANCH   1   2
ATOM      2  C   UNL     1      21.860  21.672   8.075  1.00  0.00     0.000 C 
BRANCH   2   3
ATOM      3  C   UNL     1      21.957  20.483   7.105  1.00  0.00     0.000 C 
BRANCH   3   4
ATOM      4  C   UNL     1      23.324  19.797   7.216  1.00  0.00     0.000 C 
BRANCH   4   5
ATOM      5  C   UNL     1      23.516  18.762   6.101  1.00  0.00     0.000 C 
BRANCH   5   6
ATOM      6  C   UNL     1      22.339  17.775   6.062  1.00  0.00     0.000 C 
BRANCH   6   7
ATOM      7  C   UNL     1      22.677  16.483   5.301  1.00  0.00     0.000 C 
BRANCH   7   8
ATOM      8  C   UNL     1      23.822  16.682   4.293  1.00  0.00     0.000 C 
BRANCH   8   9
ATOM      9  C   UNL     1      24.789  15.484   4.236  1.00  0.00     0.000 C 
BRANCH   9  10
ATOM     10  C   UNL     1      26.285  15.848   4.256  1.00  0.00     0.006 C 
BRANCH  10  11
ATOM     11  C   UNL     1      27.130  14.870   5.083  1.00  0.00     0.053 C 
BRANCH  11  12
ATOM     12  C   UNL     1      28.406  15.517   5.521  1.00  0.00     0.041 C 
ATOM     13  O   UNL     1      29.378  14.809   5.893  1.00  0.00    -0.550 OA
ATOM     14  O   UNL     1      28.511  16.902   5.553  1.00  0.00    -0.550 OA
ENDBRANCH  11  12
ENDBRANCH  10  11
ENDBRANCH   9  10
ENDBRANCH   8   9
ENDBRANCH   7   8
ENDBRANCH   6   7
ENDBRANCH   5   6
ENDBRANCH   4   5
ENDBRANCH   3   4
ENDBRANCH   2   3
ENDBRANCH   1   2
BRANCH   1  15
ATOM     15  C   UNL     1      20.268  22.442   6.221  1.00  0.00     0.000 C 
BRANCH  15  16
ATOM     16  C   UNL     1      18.829  23.000   6.144  1.00  0.00     0.000 C 
BRANCH  16  17
ATOM     17  C   UNL     1      17.747  22.015   6.626  1.00  0.00     0.000 C 
BRANCH  17  18
ATOM     18  C   UNL     1      18.206  20.551   6.766  1.00  0.00    -0.000 C 
BRANCH  18  19
ATOM     19  C   UNL     1      18.362  20.048   8.216  1.00  0.00    -0.000 C 
BRANCH  19  20
ATOM     20  C   UNL     1      17.195  20.398   9.157  1.00  0.00    -0.000 C 
BRANCH  20  21
ATOM     21  C   UNL     1      17.657  21.094  10.446  1.00  0.00    -0.000 C 
BRANCH  21  22
ATOM     22  C   UNL     1      18.857  22.011  10.177  1.00  0.00    -0.000 C 
BRANCH  22  23
ATOM     23  C   UNL     1      18.562  23.489  10.483  1.00  0.00    -0.000 C 
BRANCH  23  24
ATOM     24  C   UNL     1      17.217  23.984   9.911  1.00  0.00    -0.000 C 
BRANCH  24  25
ATOM     25  C   UNL     1      17.408  25.029   8.803  1.00  0.00    -0.003 C 
ATOM     26  C   UNL     1      18.805  25.641   8.857  1.00  0.00     0.004 C 
ENDBRANCH  24  25
ENDBRANCH  23  24
ENDBRANCH  22  23
ENDBRANCH  21  22
ENDBRANCH  20  21
ENDBRANCH  19  20
ENDBRANCH  18  19
ENDBRANCH  17  18
ENDBRANCH  16  17
ENDBRANCH  15  16
ENDBRANCH   1  15
TORSDOF 22
ENDMDL
MODEL 6
REMARK VINA RESULT:    -4.486      2.741      6.569
REMARK INTER + INTRA:         -13.957
REMARK INTER:                 -10.894
REMARK INTRA:                  -3.063
REMARK UNBOUND:                -3.702
REMARK SMILES CCCCCCCCCCCCCCCCCCCCCCCC(=O)[O-]
REMARK SMILES IDX 13 1 14 2 15 3 16 4 17 5 18 6 19 7 20 8 21 9 22 10 23 11
REMARK SMILES IDX 24 12 25 13 26 14 12 15 11 16 10 17 9 18 8 19 7 20 6 21 5 22
REMARK SMILES IDX 4 23 3 24 2 25 1 26
REMARK H PARENT
REMARK Flexibility Score: inf
ROOT
ATOM      1  C   UNL     1      21.016  23.584   8.711  1.00  0.00     0.000 C 
ENDROOT
BRANCH   1   2
ATOM      2  C   UNL     1      19.690  23.972   9.384  1.00  0.00     0.000 C 
BRANCH   2   3
ATOM      3  C   UNL     1      19.090  25.268   8.817  1.00  0.00     0.000 C 
BRANCH   3   4
ATOM      4  C   UNL     1      17.567  25.289   8.993  1.00  0.00     0.000 C 
BRANCH   4   5
ATOM      5  C   UNL     1      16.908  24.117   8.256  1.00  0.00     0.000 C 
BRANCH   5   6
ATOM      6  C   UNL     1      17.254  24.148   6.759  1.00  0.00     0.000 C 
BRANCH   6   7
ATOM      7  C   UNL     1      17.554  22.751   6.193  1.00  0.00     0.000 C 
BRANCH   7   8
ATOM      8  C   UNL     1      16.916  21.631   7.033  1.00  0.00     0.000 C 
BRANCH   8   9
ATOM      9  C   UNL     1      17.890  21.015   8.055  1.00  0.00     0.000 C 
BRANCH   9  10
ATOM     10  C   UNL     1      17.933  19.476   8.074  1.00  0.00     0.006 C 
BRANCH  10  11
ATOM     11  C   UNL     1      18.550  18.876   6.803  1.00  0.00     0.053 C 
BRANCH  11  12
ATOM     12  C   UNL     1      18.581  17.383   6.886  1.00  0.00     0.041 C 
ATOM     13  O   UNL     1      17.517  16.740   7.093  1.00  0.00    -0.550 OA
ATOM     14  O   UNL     1      19.786  16.701   6.772  1.00  0.00    -0.550 OA
ENDBRANCH  11  12
ENDBRANCH  10  11
ENDBRANCH   9  10
ENDBRANCH   8   9
ENDBRANCH   7   8
ENDBRANCH   6   7
ENDBRANCH   5   6
ENDBRANCH   4   5
ENDBRANCH   3   4
ENDBRANCH   2   3
ENDBRANCH   1   2
BRANCH   1  15
ATOM     15  C   UNL     1      21.394  22.111   8.944  1.00  0.00     0.000 C 
BRANCH  15  16
ATOM     16  C   UNL     1      21.581  21.325   7.626  1.00  0.00     0.000 C 
BRANCH  16  17
ATOM     17  C   UNL     1      21.114  22.086   6.370  1.00  0.00     0.000 C 
BRANCH  17  18
ATOM     18  C   UNL     1      20.806  21.205   5.145  1.00  0.00    -0.000 C 
BRANCH  18  19
ATOM     19  C   UNL     1      21.934  21.121   4.096  1.00  0.00    -0.000 C 
BRANCH  19  20
ATOM     20  C   UNL     1      22.583  19.735   3.944  1.00  0.00    -0.000 C 
BRANCH  20  21
ATOM     21  C   UNL     1      22.063  18.718   4.971  1.00  0.00    -0.000 C 
BRANCH  21  22
ATOM     22  C   UNL     1      23.217  17.902   5.570  1.00  0.00    -0.000 C 
BRANCH  22  23
ATOM     23  C   UNL     1      24.601  18.466   5.207  1.00  0.00    -0.000 C 
BRANCH  23  24
ATOM     24  C   UNL     1      25.473  17.491   4.389  1.00  0.00    -0.000 C 
BRANCH  24  25
ATOM     25  C   UNL     1      26.547  16.812   5.252  1.00  0.00    -0.003 C 
ATOM     26  C   UNL     1      27.670  16.244   4.390  1.00  0.00     0.004 C 
ENDBRANCH  24  25
ENDBRANCH  23  24
ENDBRANCH  22  23
ENDBRANCH  21  22
ENDBRANCH  20  21
ENDBRANCH  19  20
ENDBRANCH  18  19
ENDBRANCH  17  18
ENDBRANCH  16  17
ENDBRANCH  15  16
ENDBRANCH   1  15
TORSDOF 22
ENDMDL
MODEL 7
REMARK VINA RESULT:    -4.462      2.322      3.381
REMARK INTER + INTRA:         -13.903
REMARK INTER:                 -10.781
REMARK INTRA:                  -3.122
REMARK UNBOUND:                -3.702
REMARK SMILES CCCCCCCCCCCCCCCCCCCCCCCC(=O)[O-]
REMARK SMILES IDX 13 1 14 2 15 3 16 4 17 5 18 6 19 7 20 8 21 9 22 10 23 11
REMARK SMILES IDX 24 12 25 13 26 14 12 15 11 16 10 17 9 18 8 19 7 20 6 21 5 22
REMARK SMILES IDX 4 23 3 24 2 25 1 26
REMARK H PARENT
REMARK Flexibility Score: inf
ROOT
ATOM      1  C   UNL     1      21.031  22.349   6.876  1.00  0.00     0.000 C 
ENDROOT
BRANCH   1   2
ATOM      2  C   UNL     1      21.185  20.830   7.046  1.00  0.00     0.000 C 
BRANCH   2   3
ATOM      3  C   UNL     1      22.012  20.185   5.923  1.00  0.00     0.000 C 
BRANCH   3   4
ATOM      4  C   UNL     1      23.159  19.346   6.500  1.00  0.00     0.000 C 
BRANCH   4   5
ATOM      5  C   UNL     1      24.143  18.924   5.402  1.00  0.00     0.000 C 
BRANCH   5   6
ATOM      6  C   UNL     1      23.515  17.865   4.483  1.00  0.00     0.000 C 
BRANCH   6   7
ATOM      7  C   UNL     1      23.933  16.434   4.858  1.00  0.00     0.000 C 
BRANCH   7   8
ATOM      8  C   UNL     1      22.765  15.438   4.753  1.00  0.00     0.000 C 
BRANCH   8   9
ATOM      9  C   UNL     1      21.426  16.026   5.235  1.00  0.00     0.000 C 
BRANCH   9  10
ATOM     10  C   UNL     1      21.257  16.107   6.763  1.00  0.00     0.006 C 
BRANCH  10  11
ATOM     11  C   UNL     1      19.872  15.648   7.240  1.00  0.00     0.053 C 
BRANCH  11  12
ATOM     12  C   UNL     1      18.802  16.523   6.667  1.00  0.00     0.041 C 
ATOM     13  O   UNL     1      18.789  17.756   6.925  1.00  0.00    -0.550 OA
ATOM     14  O   UNL     1      17.799  15.974   5.879  1.00  0.00    -0.550 OA
ENDBRANCH  11  12
ENDBRANCH  10  11
ENDBRANCH   9  10
ENDBRANCH   8   9
ENDBRANCH   7   8
ENDBRANCH   6   7
ENDBRANCH   5   6
ENDBRANCH   4   5
ENDBRANCH   3   4
ENDBRANCH   2   3
ENDBRANCH   1   2
BRANCH   1  15
ATOM     15  C   UNL     1      19.676  22.745   6.262  1.00  0.00     0.000 C 
BRANCH  15  16
ATOM     16  C   UNL     1      18.701  21.552   6.143  1.00  0.00     0.000 C 
BRANCH  16  17
ATOM     17  C   UNL     1      17.338  21.784   6.823  1.00  0.00     0.000 C 
BRANCH  17  18
ATOM     18  C   UNL     1      16.957  20.750   7.899  1.00  0.00    -0.000 C 
BRANCH  18  19
ATOM     19  C   UNL     1      18.038  20.489   8.969  1.00  0.00    -0.000 C 
BRANCH  19  20
ATOM     20  C   UNL     1      18.038  21.473  10.152  1.00  0.00    -0.000 C 
BRANCH  20  21
ATOM     21  C   UNL     1      19.079  22.592   9.996  1.00  0.00    -0.000 C 
BRANCH  21  22
ATOM     22  C   UNL     1      18.456  23.966  10.275  1.00  0.00    -0.000 C 
BRANCH  22  23
ATOM     23  C   UNL     1      17.215  24.247   9.411  1.00  0.00    -0.000 C 
BRANCH  23  24
ATOM     24  C   UNL     1      17.429  25.358   8.361  1.00  0.00    -0.000 C 
BRANCH  24  25
ATOM     25  C   UNL     1      17.658  26.731   9.010  1.00  0.00    -0.003 C 
ATOM     26  C   UNL     1      19.059  27.256   8.712  1.00  0.00     0.004 C 
ENDBRANCH  24  25
ENDBRANCH  23  24
ENDBRANCH  22  23
ENDBRANCH  21  22
ENDBRANCH  20  21
ENDBRANCH  19  20
ENDBRANCH  18  19
ENDBRANCH  17  18
ENDBRANCH  16  17
ENDBRANCH  15  16
ENDBRANCH   1  15
TORSDOF 22
ENDMDL
MODEL 8
REMARK VINA RESULT:    -4.448      3.774      7.388
REMARK INTER + INTRA:         -13.871
REMARK INTER:                 -10.210
REMARK INTRA:                  -3.662
REMARK UNBOUND:                -3.702
REMARK SMILES CCCCCCCCCCCCCCCCCCCCCCCC(=O)[O-]
REMARK SMILES IDX 13 1 14 2 15 3 16 4 17 5 18 6 19 7 20 8 21 9 22 10 23 11
REMARK SMILES IDX 24 12 25 13 26 14 12 15 11 16 10 17 9 18 8 19 7 20 6 21 5 22
REMARK SMILES IDX 4 23 3 24 2 25 1 26
REMARK H PARENT
REMARK Flexibility Score: inf
ROOT
ATOM      1  C   UNL     1      22.182  21.343   8.157  1.00  0.00     0.000 C 
ENDROOT
BRANCH   1   2
ATOM      2  C   UNL     1      20.968  21.129   7.240  1.00  0.00     0.000 C 
BRANCH   2   3
ATOM      3  C   UNL     1      20.678  22.342   6.344  1.00  0.00     0.000 C 
BRANCH   3   4
ATOM      4  C   UNL     1      19.497  22.060   5.405  1.00  0.00     0.000 C 
BRANCH   4   5
ATOM      5  C   UNL     1      18.241  22.816   5.852  1.00  0.00     0.000 C 
BRANCH   5   6
ATOM      6  C   UNL     1      17.178  21.843   6.387  1.00  0.00     0.000 C 
BRANCH   6   7
ATOM      7  C   UNL     1      17.366  21.525   7.879  1.00  0.00     0.000 C 
BRANCH   7   8
ATOM      8  C   UNL     1      17.511  22.796   8.733  1.00  0.00     0.000 C 
BRANCH   8   9
ATOM      9  C   UNL     1      18.685  22.723   9.728  1.00  0.00     0.000 C 
BRANCH   9  10
ATOM     10  C   UNL     1      19.534  24.003   9.835  1.00  0.00     0.006 C 
BRANCH  10  11
ATOM     11  C   UNL     1      19.370  24.936   8.627  1.00  0.00     0.053 C 
BRANCH  11  12
ATOM     12  C   UNL     1      18.674  26.199   9.027  1.00  0.00     0.041 C 
ATOM     13  O   UNL     1      19.193  27.316   8.765  1.00  0.00    -0.550 OA
ATOM     14  O   UNL     1      17.472  26.143   9.721  1.00  0.00    -0.550 OA
ENDBRANCH  11  12
ENDBRANCH  10  11
ENDBRANCH   9  10
ENDBRANCH   8   9
ENDBRANCH   7   8
ENDBRANCH   6   7
ENDBRANCH   5   6
ENDBRANCH   4   5
ENDBRANCH   3   4
ENDBRANCH   2   3
ENDBRANCH   1   2
BRANCH   1  15
ATOM     15  C   UNL     1      23.250  20.245   7.999  1.00  0.00     0.000 C 
BRANCH  15  16
ATOM     16  C   UNL     1      22.915  19.244   6.870  1.00  0.00     0.000 C 
BRANCH  16  17
ATOM     17  C   UNL     1      24.045  19.062   5.838  1.00  0.00     0.000 C 
BRANCH  17  18
ATOM     18  C   UNL     1      23.875  17.865   4.883  1.00  0.00    -0.000 C 
BRANCH  18  19
ATOM     19  C   UNL     1      22.438  17.313   4.773  1.00  0.00    -0.000 C 
BRANCH  19  20
ATOM     20  C   UNL     1      21.465  18.182   3.959  1.00  0.00    -0.000 C 
BRANCH  20  21
ATOM     21  C   UNL     1      20.008  17.706   4.064  1.00  0.00    -0.000 C 
BRANCH  21  22
ATOM     22  C   UNL     1      19.211  18.585   5.038  1.00  0.00    -0.000 C 
BRANCH  22  23
ATOM     23  C   UNL     1      19.164  18.008   6.463  1.00  0.00    -0.000 C 
BRANCH  23  24
ATOM     24  C   UNL     1      18.184  16.827   6.622  1.00  0.00    -0.000 C 
BRANCH  24  25
ATOM     25  C   UNL     1      18.826  15.635   7.347  1.00  0.00    -0.003 C 
ATOM     26  C   UNL     1      20.347  15.672   7.231  1.00  0.00     0.004 C 
ENDBRANCH  24  25
ENDBRANCH  23  24
ENDBRANCH  22  23
ENDBRANCH  21  22
ENDBRANCH  20  21
ENDBRANCH  19  20
ENDBRANCH  18  19
ENDBRANCH  17  18
ENDBRANCH  16  17
ENDBRANCH  15  16
ENDBRANCH   1  15
TORSDOF 22
ENDMDL
