MODEL 1
REMARK VINA RESULT:    -4.530      0.000      0.000
REMARK INTER + INTRA:          -5.293
REMARK INTER:                  -4.794
REMARK INTRA:                  -0.499
REMARK UNBOUND:                -0.499
REMARK SMILES CC1=CC[C@@]23[C@H]([C@H](C(C)C)CC[C@@H]2C)[C@H]13
REMARK SMILES IDX 14 1 13 2 12 3 11 4 7 5 6 6 5 7 15 8 2 9 3 10 4 11 1 12 8 13
REMARK SMILES IDX 9 14 10 15
REMARK H PARENT
REMARK Flexibility Score: inf
ROOT
ATOM      1  C   UNL     1      59.872  42.216  41.139  1.00  0.00     0.008 C 
ATOM      2  C   UNL     1      59.412  42.611  42.554  1.00  0.00    -0.007 C 
ATOM      3  C   UNL     1      60.284  43.743  43.185  1.00  0.00     0.004 C 
ATOM      4  C   UNL     1      59.896  45.190  42.756  1.00  0.00     0.004 C 
ATOM      5  C   UNL     1      58.357  45.433  42.693  1.00  0.00    -0.004 C 
ATOM      6  C   UNL     1      57.800  44.309  41.808  1.00  0.00     0.007 C 
ATOM      7  C   UNL     1      57.921  43.002  42.679  1.00  0.00    -0.013 C 
ATOM      8  C   UNL     1      56.706  43.286  41.808  1.00  0.00     0.025 C 
ATOM      9  C   UNL     1      55.584  43.538  42.752  1.00  0.00    -0.073 C 
ATOM     10  C   UNL     1      55.932  43.343  44.013  1.00  0.00    -0.027 C 
ATOM     11  C   UNL     1      57.354  42.929  44.125  1.00  0.00     0.035 C 
ATOM     12  C   UNL     1      54.209  43.946  42.325  1.00  0.00     0.039 C 
ENDROOT
BRANCH   5  13
ATOM     13  C   UNL     1      57.989  46.849  42.163  1.00  0.00    -0.014 C 
ATOM     14  C   UNL     1      56.489  47.125  42.356  1.00  0.00     0.007 C 
ATOM     15  C   UNL     1      58.377  47.110  40.696  1.00  0.00     0.007 C 
ENDBRANCH   5  13
TORSDOF 1
ENDMDL
MODEL 2
REMARK VINA RESULT:    -4.257     21.176     22.796
REMARK INTER + INTRA:          -5.004
REMARK INTER:                  -4.519
REMARK INTRA:                  -0.486
REMARK UNBOUND:                -0.499
REMARK SMILES CC1=CC[C@@]23[C@H]([C@H](C(C)C)CC[C@@H]2C)[C@H]13
REMARK SMILES IDX 14 1 13 2 12 3 11 4 7 5 6 6 5 7 15 8 2 9 3 10 4 11 1 12 8 13
REMARK SMILES IDX 9 14 10 15
REMARK H PARENT
REMARK Flexibility Score: inf
ROOT
ATOM      1  C   UNL     1      57.360  27.497  25.196  1.00  0.00     0.008 C 
ATOM      2  C   UNL     1      56.580  27.604  26.517  1.00  0.00    -0.007 C 
ATOM      3  C   UNL     1      56.924  28.896  27.326  1.00  0.00     0.004 C 
ATOM      4  C   UNL     1      56.159  30.177  26.878  1.00  0.00     0.004 C 
ATOM      5  C   UNL     1      54.654  29.926  26.551  1.00  0.00    -0.004 C 
ATOM      6  C   UNL     1      54.641  28.764  25.549  1.00  0.00     0.007 C 
ATOM      7  C   UNL     1      55.043  27.493  26.389  1.00  0.00    -0.013 C 
ATOM      8  C   UNL     1      53.955  27.451  25.324  1.00  0.00     0.025 C 
ATOM      9  C   UNL     1      52.678  27.255  26.062  1.00  0.00    -0.073 C 
ATOM     10  C   UNL     1      52.866  27.074  27.358  1.00  0.00    -0.027 C 
ATOM     11  C   UNL     1      54.309  27.121  27.708  1.00  0.00     0.035 C 
ATOM     12  C   UNL     1      51.330  27.243  25.411  1.00  0.00     0.039 C 
ENDROOT
BRANCH   5  13
ATOM     13  C   UNL     1      53.934  31.194  26.006  1.00  0.00    -0.014 C 
ATOM     14  C   UNL     1      52.504  31.283  26.563  1.00  0.00     0.007 C 
ATOM     15  C   UNL     1      53.899  31.307  24.471  1.00  0.00     0.007 C 
ENDBRANCH   5  13
TORSDOF 1
ENDMDL
MODEL 3
REMARK VINA RESULT:    -3.852     20.996     23.005
REMARK INTER + INTRA:          -4.576
REMARK INTER:                  -4.302
REMARK INTRA:                  -0.274
REMARK UNBOUND:                -0.499
REMARK SMILES CC1=CC[C@@]23[C@H]([C@H](C(C)C)CC[C@@H]2C)[C@H]13
REMARK SMILES IDX 14 1 13 2 12 3 11 4 7 5 6 6 5 7 15 8 2 9 3 10 4 11 1 12 8 13
REMARK SMILES IDX 9 14 10 15
REMARK H PARENT
REMARK Flexibility Score: inf
ROOT
ATOM      1  C   UNL     1      54.058  31.450  23.972  1.00  0.00     0.008 C 
ATOM      2  C   UNL     1      54.429  31.313  25.459  1.00  0.00    -0.007 C 
ATOM      3  C   UNL     1      53.181  31.291  26.399  1.00  0.00     0.004 C 
ATOM      4  C   UNL     1      52.487  29.903  26.540  1.00  0.00     0.004 C 
ATOM      5  C   UNL     1      53.487  28.712  26.662  1.00  0.00    -0.004 C 
ATOM      6  C   UNL     1      54.442  28.856  25.470  1.00  0.00     0.007 C 
ATOM      7  C   UNL     1      55.335  30.109  25.807  1.00  0.00    -0.013 C 
ATOM      8  C   UNL     1      55.910  28.852  25.170  1.00  0.00     0.025 C 
ATOM      9  C   UNL     1      56.781  28.237  26.208  1.00  0.00    -0.073 C 
ATOM     10  C   UNL     1      56.880  28.987  27.293  1.00  0.00    -0.027 C 
ATOM     11  C   UNL     1      56.086  30.236  27.163  1.00  0.00     0.035 C 
ATOM     12  C   UNL     1      57.483  26.926  26.040  1.00  0.00     0.039 C 
ENDROOT
BRANCH   5  13
ATOM     13  C   UNL     1      52.777  27.328  26.696  1.00  0.00    -0.014 C 
ATOM     14  C   UNL     1      52.409  26.875  25.274  1.00  0.00     0.007 C 
ATOM     15  C   UNL     1      51.530  27.263  27.597  1.00  0.00     0.007 C 
ENDBRANCH   5  13
TORSDOF 1
ENDMDL
MODEL 4
REMARK VINA RESULT:    -3.779     20.819     22.869
REMARK INTER + INTRA:          -4.498
REMARK INTER:                  -3.996
REMARK INTRA:                  -0.503
REMARK UNBOUND:                -0.499
REMARK SMILES CC1=CC[C@@]23[C@H]([C@H](C(C)C)CC[C@@H]2C)[C@H]13
REMARK SMILES IDX 14 1 13 2 12 3 11 4 7 5 6 6 5 7 15 8 2 9 3 10 4 11 1 12 8 13
REMARK SMILES IDX 9 14 10 15
REMARK H PARENT
REMARK Flexibility Score: inf
ROOT
ATOM      1  C   UNL     1      56.903  29.874  28.000  1.00  0.00     0.008 C 
ATOM      2  C   UNL     1      56.767  29.632  26.487  1.00  0.00    -0.007 C 
ATOM      3  C   UNL     1      56.855  28.121  26.101  1.00  0.00     0.004 C 
ATOM      4  C   UNL     1      55.525  27.323  26.255  1.00  0.00     0.004 C 
ATOM      5  C   UNL     1      54.266  28.106  25.769  1.00  0.00    -0.004 C 
ATOM      6  C   UNL     1      54.316  29.455  26.499  1.00  0.00     0.007 C 
ATOM      7  C   UNL     1      55.507  30.241  25.830  1.00  0.00    -0.013 C 
ATOM      8  C   UNL     1      54.198  30.920  26.209  1.00  0.00     0.025 C 
ATOM      9  C   UNL     1      53.541  31.275  24.922  1.00  0.00    -0.073 C 
ATOM     10  C   UNL     1      54.302  31.004  23.875  1.00  0.00    -0.027 C 
ATOM     11  C   UNL     1      55.604  30.418  24.288  1.00  0.00     0.035 C 
ATOM     12  C   UNL     1      52.179  31.887  24.821  1.00  0.00     0.039 C 
ENDROOT
BRANCH   5  13
ATOM     13  C   UNL     1      52.938  27.336  26.027  1.00  0.00    -0.014 C 
ATOM     14  C   UNL     1      51.778  27.989  25.258  1.00  0.00     0.007 C 
ATOM     15  C   UNL     1      52.555  27.187  27.510  1.00  0.00     0.007 C 
ENDBRANCH   5  13
TORSDOF 1
ENDMDL
MODEL 5
REMARK VINA RESULT:    -3.601     18.724     20.409
REMARK INTER + INTRA:          -4.311
REMARK INTER:                  -3.850
REMARK INTRA:                  -0.461
REMARK UNBOUND:                -0.499
REMARK SMILES CC1=CC[C@@]23[C@H]([C@H](C(C)C)CC[C@@H]2C)[C@H]13
REMARK SMILES IDX 14 1 13 2 12 3 11 4 7 5 6 6 5 7 15 8 2 9 3 10 4 11 1 12 8 13
REMARK SMILES IDX 9 14 10 15
REMARK H PARENT
REMARK Flexibility Score: inf
ROOT
ATOM      1  C   UNL     1      50.897  34.294  30.620  1.00  0.00     0.008 C 
ATOM      2  C   UNL     1      50.262  32.979  30.136  1.00  0.00    -0.007 C 
ATOM      3  C   UNL     1      48.700  33.009  30.164  1.00  0.00     0.004 C 
ATOM      4  C   UNL     1      48.032  33.680  28.927  1.00  0.00     0.004 C 
ATOM      5  C   UNL     1      48.709  33.308  27.571  1.00  0.00    -0.004 C 
ATOM      6  C   UNL     1      50.201  33.611  27.762  1.00  0.00     0.007 C 
ATOM      7  C   UNL     1      50.725  32.494  28.742  1.00  0.00    -0.013 C 
ATOM      8  C   UNL     1      51.538  32.970  27.546  1.00  0.00     0.025 C 
ATOM      9  C   UNL     1      51.560  31.826  26.594  1.00  0.00    -0.073 C 
ATOM     10  C   UNL     1      50.985  30.744  27.092  1.00  0.00    -0.027 C 
ATOM     11  C   UNL     1      50.476  30.985  28.467  1.00  0.00     0.035 C 
ATOM     12  C   UNL     1      52.181  31.884  25.233  1.00  0.00     0.039 C 
ENDROOT
BRANCH   5  13
ATOM     13  C   UNL     1      48.094  34.069  26.360  1.00  0.00    -0.014 C 
ATOM     14  C   UNL     1      48.860  33.736  25.069  1.00  0.00     0.007 C 
ATOM     15  C   UNL     1      48.011  35.597  26.531  1.00  0.00     0.007 C 
ENDBRANCH   5  13
TORSDOF 1
ENDMDL
MODEL 6
REMARK VINA RESULT:    -3.585     19.039     20.721
REMARK INTER + INTRA:          -4.294
REMARK INTER:                  -3.794
REMARK INTRA:                  -0.500
REMARK UNBOUND:                -0.499
REMARK SMILES CC1=CC[C@@]23[C@H]([C@H](C(C)C)CC[C@@H]2C)[C@H]13
REMARK SMILES IDX 14 1 13 2 12 3 11 4 7 5 6 6 5 7 15 8 2 9 3 10 4 11 1 12 8 13
REMARK SMILES IDX 9 14 10 15
REMARK H PARENT
REMARK Flexibility Score: inf
ROOT
ATOM      1  C   UNL     1      50.880  33.973  30.479  1.00  0.00     0.008 C 
ATOM      2  C   UNL     1      49.503  33.291  30.568  1.00  0.00    -0.007 C 
ATOM      3  C   UNL     1      48.358  34.146  29.935  1.00  0.00     0.004 C 
ATOM      4  C   UNL     1      48.219  34.018  28.389  1.00  0.00     0.004 C 
ATOM      5  C   UNL     1      48.387  32.559  27.863  1.00  0.00    -0.004 C 
ATOM      6  C   UNL     1      49.715  32.063  28.450  1.00  0.00     0.007 C 
ATOM      7  C   UNL     1      49.435  31.860  29.987  1.00  0.00    -0.013 C 
ATOM      8  C   UNL     1      50.275  30.880  29.180  1.00  0.00     0.025 C 
ATOM      9  C   UNL     1      49.471  29.631  29.100  1.00  0.00    -0.073 C 
ATOM     10  C   UNL     1      48.360  29.699  29.814  1.00  0.00    -0.027 C 
ATOM     11  C   UNL     1      48.232  31.014  30.493  1.00  0.00     0.035 C 
ATOM     12  C   UNL     1      49.881  28.423  28.318  1.00  0.00     0.039 C 
ENDROOT
BRANCH   5  13
ATOM     13  C   UNL     1      48.349  32.468  26.310  1.00  0.00    -0.014 C 
ATOM     14  C   UNL     1      48.265  31.001  25.857  1.00  0.00     0.007 C 
ATOM     15  C   UNL     1      49.521  33.163  25.593  1.00  0.00     0.007 C 
ENDBRANCH   5  13
TORSDOF 1
ENDMDL
MODEL 7
REMARK VINA RESULT:    -3.567     18.982     20.786
REMARK INTER + INTRA:          -4.274
REMARK INTER:                  -3.784
REMARK INTRA:                  -0.490
REMARK UNBOUND:                -0.499
REMARK SMILES CC1=CC[C@@]23[C@H]([C@H](C(C)C)CC[C@@H]2C)[C@H]13
REMARK SMILES IDX 14 1 13 2 12 3 11 4 7 5 6 6 5 7 15 8 2 9 3 10 4 11 1 12 8 13
REMARK SMILES IDX 9 14 10 15
REMARK H PARENT
REMARK Flexibility Score: inf
ROOT
ATOM      1  C   UNL     1      48.184  34.000  30.262  1.00  0.00     0.008 C 
ATOM      2  C   UNL     1      49.642  33.804  29.812  1.00  0.00    -0.007 C 
ATOM      3  C   UNL     1      50.494  32.990  30.838  1.00  0.00     0.004 C 
ATOM      4  C   UNL     1      50.351  31.442  30.731  1.00  0.00     0.004 C 
ATOM      5  C   UNL     1      50.318  30.916  29.263  1.00  0.00    -0.004 C 
ATOM      6  C   UNL     1      49.223  31.731  28.561  1.00  0.00     0.007 C 
ATOM      7  C   UNL     1      49.823  33.180  28.408  1.00  0.00    -0.013 C 
ATOM      8  C   UNL     1      49.008  32.519  27.305  1.00  0.00     0.025 C 
ATOM      9  C   UNL     1      49.969  32.251  26.201  1.00  0.00    -0.073 C 
ATOM     10  C   UNL     1      51.172  32.742  26.448  1.00  0.00    -0.027 C 
ATOM     11  C   UNL     1      51.219  33.422  27.769  1.00  0.00     0.035 C 
ATOM     12  C   UNL     1      49.613  31.526  24.941  1.00  0.00     0.039 C 
ENDROOT
BRANCH   5  13
ATOM     13  C   UNL     1      50.070  29.382  29.176  1.00  0.00    -0.014 C 
ATOM     14  C   UNL     1      50.865  28.772  28.010  1.00  0.00     0.007 C 
ATOM     15  C   UNL     1      48.590  28.972  29.062  1.00  0.00     0.007 C 
ENDBRANCH   5  13
TORSDOF 1
ENDMDL
MODEL 8
REMARK VINA RESULT:    -3.368     19.102     20.635
REMARK INTER + INTRA:          -4.064
REMARK INTER:                  -3.561
REMARK INTRA:                  -0.502
REMARK UNBOUND:                -0.499
REMARK SMILES CC1=CC[C@@]23[C@H]([C@H](C(C)C)CC[C@@H]2C)[C@H]13
REMARK SMILES IDX 14 1 13 2 12 3 11 4 7 5 6 6 5 7 15 8 2 9 3 10 4 11 1 12 8 13
REMARK SMILES IDX 9 14 10 15
REMARK H PARENT
REMARK Flexibility Score: inf
ROOT
ATOM      1  C   UNL     1      48.707  28.594  28.681  1.00  0.00     0.008 C 
ATOM      2  C   UNL     1      49.864  29.481  29.173  1.00  0.00    -0.007 C 
ATOM      3  C   UNL     1      51.056  29.543  28.166  1.00  0.00     0.004 C 
ATOM      4  C   UNL     1      50.886  30.568  27.005  1.00  0.00     0.004 C 
ATOM      5  C   UNL     1      50.269  31.928  27.456  1.00  0.00    -0.004 C 
ATOM      6  C   UNL     1      48.983  31.564  28.211  1.00  0.00     0.007 C 
ATOM      7  C   UNL     1      49.469  30.924  29.566  1.00  0.00    -0.013 C 
ATOM      8  C   UNL     1      48.283  31.875  29.497  1.00  0.00     0.025 C 
ATOM      9  C   UNL     1      48.722  33.117  30.189  1.00  0.00    -0.073 C 
ATOM     10  C   UNL     1      49.922  32.996  30.731  1.00  0.00    -0.027 C 
ATOM     11  C   UNL     1      50.492  31.645  30.488  1.00  0.00     0.035 C 
ATOM     12  C   UNL     1      47.893  34.360  30.282  1.00  0.00     0.039 C 
ENDROOT
BRANCH   5  13
ATOM     13  C   UNL     1      50.010  32.898  26.267  1.00  0.00    -0.014 C 
ATOM     14  C   UNL     1      49.681  34.309  26.783  1.00  0.00     0.007 C 
ATOM     15  C   UNL     1      48.917  32.440  25.285  1.00  0.00     0.007 C 
ENDBRANCH   5  13
TORSDOF 1
ENDMDL
MODEL 9
REMARK VINA RESULT:    -3.360     18.986     20.567
REMARK INTER + INTRA:          -4.056
REMARK INTER:                  -3.554
REMARK INTRA:                  -0.502
REMARK UNBOUND:                -0.499
REMARK SMILES CC1=CC[C@@]23[C@H]([C@H](C(C)C)CC[C@@H]2C)[C@H]13
REMARK SMILES IDX 14 1 13 2 12 3 11 4 7 5 6 6 5 7 15 8 2 9 3 10 4 11 1 12 8 13
REMARK SMILES IDX 9 14 10 15
REMARK H PARENT
REMARK Flexibility Score: inf
ROOT
ATOM      1  C   UNL     1      52.543  31.333  26.518  1.00  0.00     0.008 C 
ATOM      2  C   UNL     1      51.048  30.982  26.615  1.00  0.00    -0.007 C 
ATOM      3  C   UNL     1      50.701  30.138  27.883  1.00  0.00     0.004 C 
ATOM      4  C   UNL     1      50.497  30.965  29.189  1.00  0.00     0.004 C 
ATOM      5  C   UNL     1      49.694  32.285  28.975  1.00  0.00    -0.004 C 
ATOM      6  C   UNL     1      50.410  33.019  27.832  1.00  0.00     0.007 C 
ATOM      7  C   UNL     1      50.080  32.185  26.537  1.00  0.00    -0.013 C 
ATOM      8  C   UNL     1      50.098  33.707  26.539  1.00  0.00     0.025 C 
ATOM      9  C   UNL     1      48.683  34.127  26.354  1.00  0.00    -0.073 C 
ATOM     10  C   UNL     1      47.875  33.101  26.144  1.00  0.00    -0.027 C 
ATOM     11  C   UNL     1      48.619  31.815  26.156  1.00  0.00     0.035 C 
ATOM     12  C   UNL     1      48.223  35.551  26.382  1.00  0.00     0.039 C 
ENDROOT
BRANCH   5  13
ATOM     13  C   UNL     1      49.592  33.147  30.267  1.00  0.00    -0.014 C 
ATOM     14  C   UNL     1      48.350  34.052  30.214  1.00  0.00     0.007 C 
ATOM     15  C   UNL     1      50.837  33.996  30.578  1.00  0.00     0.007 C 
ENDBRANCH   5  13
TORSDOF 1
ENDMDL
