MODEL 1
REMARK VINA RESULT:    -2.799      0.000      0.000
REMARK INTER + INTRA:          -6.104
REMARK INTER:                  -4.762
REMARK INTRA:                  -1.342
REMARK UNBOUND:                -1.342
REMARK SMILES CCCCCCCCCCCCCC(=O)[O-]
REMARK SMILES IDX 8 1 9 2 10 3 11 4 12 5 13 6 14 7 15 8 16 9 7 10 6 11 5 12
REMARK SMILES IDX 4 13 3 14 2 15 1 16
REMARK H PARENT
REMARK Flexibility Score: inf
ROOT
ATOM      1  C   UNL     1      52.960 -35.966  24.742  1.00  0.00     0.000 C 
ENDROOT
BRANCH   1   2
ATOM      2  C   UNL     1      51.500 -35.680  24.345  1.00  0.00     0.000 C 
BRANCH   2   3
ATOM      3  C   UNL     1      51.403 -34.862  23.042  1.00  0.00     0.000 C 
BRANCH   3   4
ATOM      4  C   UNL     1      50.362 -33.731  23.101  1.00  0.00     0.000 C 
BRANCH   4   5
ATOM      5  C   UNL     1      50.825 -32.534  23.948  1.00  0.00     0.006 C 
BRANCH   5   6
ATOM      6  C   UNL     1      51.865 -31.675  23.217  1.00  0.00     0.053 C 
BRANCH   6   7
ATOM      7  C   UNL     1      51.432 -30.246  23.113  1.00  0.00     0.041 C 
ATOM      8  O   UNL     1      50.333 -29.953  22.574  1.00  0.00    -0.550 OA
ATOM      9  O   UNL     1      52.231 -29.237  23.638  1.00  0.00    -0.550 OA
ENDBRANCH   6   7
ENDBRANCH   5   6
ENDBRANCH   4   5
ENDBRANCH   3   4
ENDBRANCH   2   3
ENDBRANCH   1   2
BRANCH   1  10
ATOM     10  C   UNL     1      53.762 -34.681  25.000  1.00  0.00     0.000 C 
BRANCH  10  11
ATOM     11  C   UNL     1      55.138 -34.704  24.313  1.00  0.00    -0.000 C 
BRANCH  11  12
ATOM     12  C   UNL     1      55.042 -34.597  22.780  1.00  0.00    -0.000 C 
BRANCH  12  13
ATOM     13  C   UNL     1      55.505 -35.846  22.004  1.00  0.00    -0.000 C 
BRANCH  13  14
ATOM     14  C   UNL     1      56.545 -36.716  22.731  1.00  0.00    -0.000 C 
BRANCH  14  15
ATOM     15  C   UNL     1      57.987 -36.399  22.309  1.00  0.00    -0.003 C 
ATOM     16  C   UNL     1      58.669 -35.487  23.325  1.00  0.00     0.004 C 
ENDBRANCH  14  15
ENDBRANCH  13  14
ENDBRANCH  12  13
ENDBRANCH  11  12
ENDBRANCH  10  11
ENDBRANCH   1  10
TORSDOF 12
ENDMDL
MODEL 2
REMARK VINA RESULT:    -2.680      1.992      4.128
REMARK INTER + INTRA:          -5.903
REMARK INTER:                  -3.967
REMARK INTRA:                  -1.936
REMARK UNBOUND:                -1.342
REMARK SMILES CCCCCCCCCCCCCC(=O)[O-]
REMARK SMILES IDX 8 1 9 2 10 3 11 4 12 5 13 6 14 7 15 8 16 9 7 10 6 11 5 12
REMARK SMILES IDX 4 13 3 14 2 15 1 16
REMARK H PARENT
REMARK Flexibility Score: inf
ROOT
ATOM      1  C   UNL     1      56.606 -36.639  22.674  1.00  0.00     0.000 C 
ENDROOT
BRANCH   1   2
ATOM      2  C   UNL     1      55.762 -35.648  21.854  1.00  0.00     0.000 C 
BRANCH   2   3
ATOM      3  C   UNL     1      54.330 -35.508  22.409  1.00  0.00     0.000 C 
BRANCH   3   4
ATOM      4  C   UNL     1      54.244 -35.666  23.937  1.00  0.00     0.000 C 
BRANCH   4   5
ATOM      5  C   UNL     1      52.850 -35.335  24.495  1.00  0.00     0.006 C 
BRANCH   5   6
ATOM      6  C   UNL     1      51.878 -34.885  23.397  1.00  0.00     0.053 C 
BRANCH   6   7
ATOM      7  C   UNL     1      51.218 -33.584  23.738  1.00  0.00     0.041 C 
ATOM      8  O   UNL     1      50.501 -32.994  22.887  1.00  0.00    -0.550 OA
ATOM      9  O   UNL     1      51.371 -33.037  25.005  1.00  0.00    -0.550 OA
ENDBRANCH   6   7
ENDBRANCH   5   6
ENDBRANCH   4   5
ENDBRANCH   3   4
ENDBRANCH   2   3
ENDBRANCH   1   2
BRANCH   1  10
ATOM     10  C   UNL     1      58.107 -36.310  22.634  1.00  0.00     0.000 C 
BRANCH  10  11
ATOM     11  C   UNL     1      58.457 -35.082  23.492  1.00  0.00    -0.000 C 
BRANCH  11  12
ATOM     12  C   UNL     1      57.772 -35.102  24.871  1.00  0.00    -0.000 C 
BRANCH  12  13
ATOM     13  C   UNL     1      57.225 -33.743  25.350  1.00  0.00    -0.000 C 
BRANCH  13  14
ATOM     14  C   UNL     1      57.220 -32.630  24.288  1.00  0.00    -0.000 C 
BRANCH  14  15
ATOM     15  C   UNL     1      55.823 -32.363  23.710  1.00  0.00    -0.003 C 
ATOM     16  C   UNL     1      54.809 -32.102  24.820  1.00  0.00     0.004 C 
ENDBRANCH  14  15
ENDBRANCH  13  14
ENDBRANCH  12  13
ENDBRANCH  11  12
ENDBRANCH  10  11
ENDBRANCH   1  10
TORSDOF 12
ENDMDL
MODEL 3
REMARK VINA RESULT:    -2.680      3.457      6.305
REMARK INTER + INTRA:          -5.902
REMARK INTER:                  -4.090
REMARK INTRA:                  -1.812
REMARK UNBOUND:                -1.342
REMARK SMILES CCCCCCCCCCCCCC(=O)[O-]
REMARK SMILES IDX 8 1 9 2 10 3 11 4 12 5 13 6 14 7 15 8 16 9 7 10 6 11 5 12
REMARK SMILES IDX 4 13 3 14 2 15 1 16
REMARK H PARENT
REMARK Flexibility Score: inf
ROOT
ATOM      1  C   UNL     1      53.886 -33.176  25.994  1.00  0.00     0.000 C 
ENDROOT
BRANCH   1   2
ATOM      2  C   UNL     1      54.489 -34.478  25.438  1.00  0.00     0.000 C 
BRANCH   2   3
ATOM      3  C   UNL     1      53.439 -35.333  24.699  1.00  0.00     0.000 C 
BRANCH   3   4
ATOM      4  C   UNL     1      53.569 -35.280  23.167  1.00  0.00     0.000 C 
BRANCH   4   5
ATOM      5  C   UNL     1      54.971 -34.854  22.700  1.00  0.00     0.006 C 
BRANCH   5   6
ATOM      6  C   UNL     1      55.723 -35.998  22.008  1.00  0.00     0.053 C 
BRANCH   6   7
ATOM      7  C   UNL     1      56.984 -36.354  22.735  1.00  0.00     0.041 C 
ATOM      8  O   UNL     1      56.936 -36.756  23.927  1.00  0.00    -0.550 OA
ATOM      9  O   UNL     1      58.209 -36.266  22.086  1.00  0.00    -0.550 OA
ENDBRANCH   6   7
ENDBRANCH   5   6
ENDBRANCH   4   5
ENDBRANCH   3   4
ENDBRANCH   2   3
ENDBRANCH   1   2
BRANCH   1  10
ATOM     10  C   UNL     1      54.072 -31.986  25.040  1.00  0.00     0.000 C 
BRANCH  10  11
ATOM     11  C   UNL     1      52.730 -31.363  24.618  1.00  0.00    -0.000 C 
BRANCH  11  12
ATOM     12  C   UNL     1      52.253 -31.849  23.237  1.00  0.00    -0.000 C 
BRANCH  12  13
ATOM     13  C   UNL     1      50.731 -32.049  23.102  1.00  0.00    -0.000 C 
BRANCH  13  14
ATOM     14  C   UNL     1      50.061 -32.778  24.280  1.00  0.00    -0.000 C 
BRANCH  14  15
ATOM     15  C   UNL     1      50.026 -34.302  24.096  1.00  0.00    -0.003 C 
ATOM     16  C   UNL     1      49.876 -34.674  22.624  1.00  0.00     0.004 C 
ENDBRANCH  14  15
ENDBRANCH  13  14
ENDBRANCH  12  13
ENDBRANCH  11  12
ENDBRANCH  10  11
ENDBRANCH   1  10
TORSDOF 12
ENDMDL
MODEL 4
REMARK VINA RESULT:    -2.670      1.920      4.030
REMARK INTER + INTRA:          -5.886
REMARK INTER:                  -4.900
REMARK INTRA:                  -0.986
REMARK UNBOUND:                -1.342
REMARK SMILES CCCCCCCCCCCCCC(=O)[O-]
REMARK SMILES IDX 8 1 9 2 10 3 11 4 12 5 13 6 14 7 15 8 16 9 7 10 6 11 5 12
REMARK SMILES IDX 4 13 3 14 2 15 1 16
REMARK H PARENT
REMARK Flexibility Score: inf
ROOT
ATOM      1  C   UNL     1      50.340 -32.322  22.933  1.00  0.00     0.000 C 
ENDROOT
BRANCH   1   2
ATOM      2  C   UNL     1      51.717 -31.653  23.094  1.00  0.00     0.000 C 
BRANCH   2   3
ATOM      3  C   UNL     1      51.597 -30.162  23.470  1.00  0.00     0.000 C 
BRANCH   3   4
ATOM      4  C   UNL     1      50.415 -29.449  22.790  1.00  0.00     0.000 C 
BRANCH   4   5
ATOM      5  C   UNL     1      50.073 -28.100  23.445  1.00  0.00     0.006 C 
BRANCH   5   6
ATOM      6  C   UNL     1      51.151 -27.649  24.439  1.00  0.00     0.053 C 
BRANCH   6   7
ATOM      7  C   UNL     1      51.994 -26.544  23.880  1.00  0.00     0.041 C 
ATOM      8  O   UNL     1      51.653 -25.343  24.041  1.00  0.00    -0.550 OA
ATOM      9  O   UNL     1      53.171 -26.840  23.206  1.00  0.00    -0.550 OA
ENDBRANCH   6   7
ENDBRANCH   5   6
ENDBRANCH   4   5
ENDBRANCH   3   4
ENDBRANCH   2   3
ENDBRANCH   1   2
BRANCH   1  10
ATOM     10  C   UNL     1      50.258 -33.681  23.645  1.00  0.00     0.000 C 
BRANCH  10  11
ATOM     11  C   UNL     1      51.224 -34.715  23.040  1.00  0.00    -0.000 C 
BRANCH  11  12
ATOM     12  C   UNL     1      52.000 -35.505  24.109  1.00  0.00    -0.000 C 
BRANCH  12  13
ATOM     13  C   UNL     1      53.293 -34.831  24.612  1.00  0.00    -0.000 C 
BRANCH  13  14
ATOM     14  C   UNL     1      54.255 -34.359  23.508  1.00  0.00    -0.000 C 
BRANCH  14  15
ATOM     15  C   UNL     1      55.289 -35.426  23.123  1.00  0.00    -0.003 C 
ATOM     16  C   UNL     1      55.095 -35.885  21.681  1.00  0.00     0.004 C 
ENDBRANCH  14  15
ENDBRANCH  13  14
ENDBRANCH  12  13
ENDBRANCH  11  12
ENDBRANCH  10  11
ENDBRANCH   1  10
TORSDOF 12
ENDMDL
MODEL 5
REMARK VINA RESULT:    -2.655      3.567      6.330
REMARK INTER + INTRA:          -5.859
REMARK INTER:                  -3.950
REMARK INTRA:                  -1.909
REMARK UNBOUND:                -1.342
REMARK SMILES CCCCCCCCCCCCCC(=O)[O-]
REMARK SMILES IDX 8 1 9 2 10 3 11 4 12 5 13 6 14 7 15 8 16 9 7 10 6 11 5 12
REMARK SMILES IDX 4 13 3 14 2 15 1 16
REMARK H PARENT
REMARK Flexibility Score: inf
ROOT
ATOM      1  C   UNL     1      53.515 -32.726  23.605  1.00  0.00     0.000 C 
ENDROOT
BRANCH   1   2
ATOM      2  C   UNL     1      54.569 -33.103  24.662  1.00  0.00     0.000 C 
BRANCH   2   3
ATOM      3  C   UNL     1      55.500 -34.232  24.175  1.00  0.00     0.000 C 
BRANCH   3   4
ATOM      4  C   UNL     1      55.161 -34.744  22.764  1.00  0.00     0.000 C 
BRANCH   4   5
ATOM      5  C   UNL     1      55.822 -36.095  22.443  1.00  0.00     0.006 C 
BRANCH   5   6
ATOM      6  C   UNL     1      56.958 -36.430  23.418  1.00  0.00     0.053 C 
BRANCH   6   7
ATOM      7  C   UNL     1      58.300 -36.104  22.841  1.00  0.00     0.041 C 
ATOM      8  O   UNL     1      58.822 -36.861  21.980  1.00  0.00    -0.550 OA
ATOM      9  O   UNL     1      58.964 -34.949  23.233  1.00  0.00    -0.550 OA
ENDBRANCH   6   7
ENDBRANCH   5   6
ENDBRANCH   4   5
ENDBRANCH   3   4
ENDBRANCH   2   3
ENDBRANCH   1   2
BRANCH   1  10
ATOM     10  C   UNL     1      52.161 -32.354  24.230  1.00  0.00     0.000 C 
BRANCH  10  11
ATOM     11  C   UNL     1      51.017 -33.243  23.711  1.00  0.00    -0.000 C 
BRANCH  11  12
ATOM     12  C   UNL     1      51.510 -34.601  23.180  1.00  0.00    -0.000 C 
BRANCH  12  13
ATOM     13  C   UNL     1      51.251 -35.802  24.112  1.00  0.00    -0.000 C 
BRANCH  13  14
ATOM     14  C   UNL     1      52.464 -36.256  24.942  1.00  0.00    -0.000 C 
BRANCH  14  15
ATOM     15  C   UNL     1      52.497 -35.629  26.343  1.00  0.00    -0.003 C 
ATOM     16  C   UNL     1      51.087 -35.324  26.842  1.00  0.00     0.004 C 
ENDBRANCH  14  15
ENDBRANCH  13  14
ENDBRANCH  12  13
ENDBRANCH  11  12
ENDBRANCH  10  11
ENDBRANCH   1  10
TORSDOF 12
ENDMDL
MODEL 6
REMARK VINA RESULT:    -2.628      3.385      5.531
REMARK INTER + INTRA:          -5.813
REMARK INTER:                  -4.281
REMARK INTRA:                  -1.532
REMARK UNBOUND:                -1.342
REMARK SMILES CCCCCCCCCCCCCC(=O)[O-]
REMARK SMILES IDX 8 1 9 2 10 3 11 4 12 5 13 6 14 7 15 8 16 9 7 10 6 11 5 12
REMARK SMILES IDX 4 13 3 14 2 15 1 16
REMARK H PARENT
REMARK Flexibility Score: inf
ROOT
ATOM      1  C   UNL     1      50.560 -32.936  23.759  1.00  0.00     0.000 C 
ENDROOT
BRANCH   1   2
ATOM      2  C   UNL     1      50.452 -34.304  23.062  1.00  0.00     0.000 C 
BRANCH   2   3
ATOM      3  C   UNL     1      51.606 -35.249  23.458  1.00  0.00     0.000 C 
BRANCH   3   4
ATOM      4  C   UNL     1      52.994 -34.589  23.386  1.00  0.00     0.000 C 
BRANCH   4   5
ATOM      5  C   UNL     1      54.141 -35.578  23.650  1.00  0.00     0.006 C 
BRANCH   5   6
ATOM      6  C   UNL     1      55.126 -35.650  22.476  1.00  0.00     0.053 C 
BRANCH   6   7
ATOM      7  C   UNL     1      56.506 -36.016  22.930  1.00  0.00     0.041 C 
ATOM      8  O   UNL     1      57.460 -36.033  22.109  1.00  0.00    -0.550 OA
ATOM      9  O   UNL     1      56.743 -36.310  24.267  1.00  0.00    -0.550 OA
ENDBRANCH   6   7
ENDBRANCH   5   6
ENDBRANCH   4   5
ENDBRANCH   3   4
ENDBRANCH   2   3
ENDBRANCH   1   2
BRANCH   1  10
ATOM     10  C   UNL     1      50.558 -31.766  22.762  1.00  0.00     0.000 C 
BRANCH  10  11
ATOM     11  C   UNL     1      51.588 -30.684  23.131  1.00  0.00    -0.000 C 
BRANCH  11  12
ATOM     12  C   UNL     1      52.142 -30.850  24.558  1.00  0.00    -0.000 C 
BRANCH  12  13
ATOM     13  C   UNL     1      53.670 -31.031  24.651  1.00  0.00    -0.000 C 
BRANCH  13  14
ATOM     14  C   UNL     1      54.140 -32.125  25.626  1.00  0.00    -0.000 C 
BRANCH  14  15
ATOM     15  C   UNL     1      55.584 -32.575  25.365  1.00  0.00    -0.003 C 
ATOM     16  C   UNL     1      55.983 -32.330  23.913  1.00  0.00     0.004 C 
ENDBRANCH  14  15
ENDBRANCH  13  14
ENDBRANCH  12  13
ENDBRANCH  11  12
ENDBRANCH  10  11
ENDBRANCH   1  10
TORSDOF 12
ENDMDL
MODEL 7
REMARK VINA RESULT:    -2.626      2.682      6.211
REMARK INTER + INTRA:          -5.810
REMARK INTER:                  -4.257
REMARK INTRA:                  -1.554
REMARK UNBOUND:                -1.342
REMARK SMILES CCCCCCCCCCCCCC(=O)[O-]
REMARK SMILES IDX 8 1 9 2 10 3 11 4 12 5 13 6 14 7 15 8 16 9 7 10 6 11 5 12
REMARK SMILES IDX 4 13 3 14 2 15 1 16
REMARK H PARENT
REMARK Flexibility Score: inf
ROOT
ATOM      1  C   UNL     1      54.823 -34.906  22.852  1.00  0.00     0.000 C 
ENDROOT
BRANCH   1   2
ATOM      2  C   UNL     1      55.533 -35.961  21.985  1.00  0.00     0.000 C 
BRANCH   2   3
ATOM      3  C   UNL     1      56.678 -36.661  22.745  1.00  0.00     0.000 C 
BRANCH   3   4
ATOM      4  C   UNL     1      58.080 -36.217  22.291  1.00  0.00     0.000 C 
BRANCH   4   5
ATOM      5  C   UNL     1      58.961 -35.735  23.456  1.00  0.00     0.006 C 
BRANCH   5   6
ATOM      6  C   UNL     1      58.140 -35.065  24.565  1.00  0.00     0.053 C 
BRANCH   6   7
ATOM      7  C   UNL     1      58.075 -33.579  24.389  1.00  0.00     0.041 C 
ATOM      8  O   UNL     1      57.079 -32.933  24.810  1.00  0.00    -0.550 OA
ATOM      9  O   UNL     1      59.128 -32.904  23.784  1.00  0.00    -0.550 OA
ENDBRANCH   6   7
ENDBRANCH   5   6
ENDBRANCH   4   5
ENDBRANCH   3   4
ENDBRANCH   2   3
ENDBRANCH   1   2
BRANCH   1  10
ATOM     10  C   UNL     1      54.431 -35.449  24.236  1.00  0.00     0.000 C 
BRANCH  10  11
ATOM     11  C   UNL     1      52.912 -35.652  24.373  1.00  0.00    -0.000 C 
BRANCH  11  12
ATOM     12  C   UNL     1      52.111 -34.926  23.276  1.00  0.00    -0.000 C 
BRANCH  12  13
ATOM     13  C   UNL     1      50.909 -34.103  23.779  1.00  0.00    -0.000 C 
BRANCH  13  14
ATOM     14  C   UNL     1      51.232 -32.654  24.182  1.00  0.00    -0.000 C 
BRANCH  14  15
ATOM     15  C   UNL     1      52.471 -32.099  23.467  1.00  0.00    -0.003 C 
ATOM     16  C   UNL     1      53.543 -31.679  24.469  1.00  0.00     0.004 C 
ENDBRANCH  14  15
ENDBRANCH  13  14
ENDBRANCH  12  13
ENDBRANCH  11  12
ENDBRANCH  10  11
ENDBRANCH   1  10
TORSDOF 12
ENDMDL
MODEL 8
REMARK VINA RESULT:    -2.617      3.406      6.542
REMARK INTER + INTRA:          -5.796
REMARK INTER:                  -4.115
REMARK INTRA:                  -1.681
REMARK UNBOUND:                -1.342
REMARK SMILES CCCCCCCCCCCCCC(=O)[O-]
REMARK SMILES IDX 8 1 9 2 10 3 11 4 12 5 13 6 14 7 15 8 16 9 7 10 6 11 5 12
REMARK SMILES IDX 4 13 3 14 2 15 1 16
REMARK H PARENT
REMARK Flexibility Score: inf
ROOT
ATOM      1  C   UNL     1      54.258 -35.470  24.216  1.00  0.00     0.000 C 
ENDROOT
BRANCH   1   2
ATOM      2  C   UNL     1      54.677 -34.553  23.054  1.00  0.00     0.000 C 
BRANCH   2   3
ATOM      3  C   UNL     1      55.446 -35.320  21.958  1.00  0.00     0.000 C 
BRANCH   3   4
ATOM      4  C   UNL     1      55.875 -36.735  22.383  1.00  0.00     0.000 C 
BRANCH   4   5
ATOM      5  C   UNL     1      57.370 -36.827  22.733  1.00  0.00     0.006 C 
BRANCH   5   6
ATOM      6  C   UNL     1      57.601 -37.076  24.229  1.00  0.00     0.053 C 
BRANCH   6   7
ATOM      7  C   UNL     1      58.300 -35.924  24.882  1.00  0.00     0.041 C 
ATOM      8  O   UNL     1      59.370 -36.109  25.519  1.00  0.00    -0.550 OA
ATOM      9  O   UNL     1      57.784 -34.639  24.763  1.00  0.00    -0.550 OA
ENDBRANCH   6   7
ENDBRANCH   5   6
ENDBRANCH   4   5
ENDBRANCH   3   4
ENDBRANCH   2   3
ENDBRANCH   1   2
BRANCH   1  10
ATOM     10  C   UNL     1      52.734 -35.520  24.408  1.00  0.00     0.000 C 
BRANCH  10  11
ATOM     11  C   UNL     1      51.976 -34.955  23.195  1.00  0.00    -0.000 C 
BRANCH  11  12
ATOM     12  C   UNL     1      50.812 -34.031  23.595  1.00  0.00    -0.000 C 
BRANCH  12  13
ATOM     13  C   UNL     1      50.919 -32.582  23.080  1.00  0.00    -0.000 C 
BRANCH  13  14
ATOM     14  C   UNL     1      52.171 -31.816  23.540  1.00  0.00    -0.000 C 
BRANCH  14  15
ATOM     15  C   UNL     1      52.255 -31.673  25.066  1.00  0.00    -0.003 C 
ATOM     16  C   UNL     1      53.650 -32.024  25.575  1.00  0.00     0.004 C 
ENDBRANCH  14  15
ENDBRANCH  13  14
ENDBRANCH  12  13
ENDBRANCH  11  12
ENDBRANCH  10  11
ENDBRANCH   1  10
TORSDOF 12
ENDMDL
MODEL 9
REMARK VINA RESULT:    -2.612      3.367      6.199
REMARK INTER + INTRA:          -5.787
REMARK INTER:                  -4.022
REMARK INTRA:                  -1.765
REMARK UNBOUND:                -1.342
REMARK SMILES CCCCCCCCCCCCCC(=O)[O-]
REMARK SMILES IDX 8 1 9 2 10 3 11 4 12 5 13 6 14 7 15 8 16 9 7 10 6 11 5 12
REMARK SMILES IDX 4 13 3 14 2 15 1 16
REMARK H PARENT
REMARK Flexibility Score: inf
ROOT
ATOM      1  C   UNL     1      52.590 -34.341  26.074  1.00  0.00     0.000 C 
ENDROOT
BRANCH   1   2
ATOM      2  C   UNL     1      54.018 -34.733  25.657  1.00  0.00     0.000 C 
BRANCH   2   3
ATOM      3  C   UNL     1      54.699 -33.634  24.816  1.00  0.00     0.000 C 
BRANCH   3   4
ATOM      4  C   UNL     1      54.639 -33.892  23.300  1.00  0.00     0.000 C 
BRANCH   4   5
ATOM      5  C   UNL     1      54.330 -35.358  22.955  1.00  0.00     0.006 C 
BRANCH   5   6
ATOM      6  C   UNL     1      55.370 -35.960  22.001  1.00  0.00     0.053 C 
BRANCH   6   7
ATOM      7  C   UNL     1      56.665 -36.244  22.698  1.00  0.00     0.041 C 
ATOM      8  O   UNL     1      57.759 -36.075  22.098  1.00  0.00    -0.550 OA
ATOM      9  O   UNL     1      56.664 -36.670  24.021  1.00  0.00    -0.550 OA
ENDBRANCH   6   7
ENDBRANCH   5   6
ENDBRANCH   4   5
ENDBRANCH   3   4
ENDBRANCH   2   3
ENDBRANCH   1   2
BRANCH   1  10
ATOM     10  C   UNL     1      51.522 -35.258  25.455  1.00  0.00     0.000 C 
BRANCH  10  11
ATOM     11  C   UNL     1      50.426 -34.464  24.724  1.00  0.00    -0.000 C 
BRANCH  11  12
ATOM     12  C   UNL     1      50.879 -33.951  23.345  1.00  0.00    -0.000 C 
BRANCH  12  13
ATOM     13  C   UNL     1      50.617 -32.455  23.083  1.00  0.00    -0.000 C 
BRANCH  13  14
ATOM     14  C   UNL     1      51.872 -31.567  23.054  1.00  0.00    -0.000 C 
BRANCH  14  15
ATOM     15  C   UNL     1      52.057 -30.753  24.343  1.00  0.00    -0.003 C 
ATOM     16  C   UNL     1      52.246 -29.271  24.035  1.00  0.00     0.004 C 
ENDBRANCH  14  15
ENDBRANCH  13  14
ENDBRANCH  12  13
ENDBRANCH  11  12
ENDBRANCH  10  11
ENDBRANCH   1  10
TORSDOF 12
ENDMDL
