MODEL 1
REMARK VINA RESULT:    -4.520      0.000      0.000
REMARK INTER + INTRA:          -6.316
REMARK INTER:                  -6.106
REMARK INTRA:                  -0.210
REMARK UNBOUND:                -0.210
REMARK SMILES CCCCCCC=CC(=O)[O-]
REMARK SMILES IDX 5 1 6 2 7 3 8 4 9 5 10 6 11 7 4 8 3 9 2 10 1 11
REMARK H PARENT
REMARK Flexibility Score: inf
ROOT
ATOM      1  C   UNL     1      -9.884  14.578 -13.909  1.00  0.00     0.004 C 
ENDROOT
BRANCH   1   2
ATOM      2  C   UNL     1     -11.174  14.290 -13.128  1.00  0.00     0.027 C 
BRANCH   2   3
ATOM      3  C   UNL     1     -11.022  14.546 -11.655  1.00  0.00    -0.025 C 
ATOM      4  C   UNL     1     -10.921  15.788 -11.167  1.00  0.00     0.020 C 
BRANCH   4   5
ATOM      5  C   UNL     1     -10.778  16.061  -9.729  1.00  0.00     0.064 C 
ATOM      6  O   UNL     1     -11.627  15.640  -8.898  1.00  0.00    -0.545 OA
ATOM      7  O   UNL     1      -9.688  16.793  -9.278  1.00  0.00    -0.545 OA
ENDBRANCH   4   5
ENDBRANCH   2   3
ENDBRANCH   1   2
BRANCH   1   8
ATOM      8  C   UNL     1     -10.093  14.483 -15.430  1.00  0.00     0.000 C 
BRANCH   8   9
ATOM      9  C   UNL     1      -8.854  13.917 -16.155  1.00  0.00    -0.000 C 
BRANCH   9  10
ATOM     10  C   UNL     1      -8.246  14.884 -17.185  1.00  0.00    -0.003 C 
ATOM     11  C   UNL     1      -7.484  16.040 -16.542  1.00  0.00     0.004 C 
ENDBRANCH   9  10
ENDBRANCH   8   9
ENDBRANCH   1   8
TORSDOF 6
ENDMDL
MODEL 2
REMARK VINA RESULT:    -4.375     14.976     16.171
REMARK INTER + INTRA:          -6.120
REMARK INTER:                  -5.380
REMARK INTRA:                  -0.740
REMARK UNBOUND:                -0.210
REMARK SMILES CCCCCCC=CC(=O)[O-]
REMARK SMILES IDX 5 1 6 2 7 3 8 4 9 5 10 6 11 7 4 8 3 9 2 10 1 11
REMARK H PARENT
REMARK Flexibility Score: inf
ROOT
ATOM      1  C   UNL     1     -20.614  18.269 -25.567  1.00  0.00     0.004 C 
ENDROOT
BRANCH   1   2
ATOM      2  C   UNL     1     -19.754  17.937 -24.338  1.00  0.00     0.027 C 
BRANCH   2   3
ATOM      3  C   UNL     1     -20.178  16.660 -23.670  1.00  0.00    -0.025 C 
ATOM      4  C   UNL     1     -20.544  16.630 -22.383  1.00  0.00     0.020 C 
BRANCH   4   5
ATOM      5  C   UNL     1     -20.970  15.392 -21.713  1.00  0.00     0.064 C 
ATOM      6  O   UNL     1     -20.195  14.404 -21.616  1.00  0.00    -0.545 OA
ATOM      7  O   UNL     1     -22.248  15.312 -21.176  1.00  0.00    -0.545 OA
ENDBRANCH   4   5
ENDBRANCH   2   3
ENDBRANCH   1   2
BRANCH   1   8
ATOM      8  C   UNL     1     -21.391  19.585 -25.392  1.00  0.00     0.000 C 
BRANCH   8   9
ATOM      9  C   UNL     1     -22.571  19.440 -24.408  1.00  0.00    -0.000 C 
BRANCH   9  10
ATOM     10  C   UNL     1     -23.464  18.221 -24.692  1.00  0.00    -0.003 C 
ATOM     11  C   UNL     1     -24.002  17.564 -23.423  1.00  0.00     0.004 C 
ENDBRANCH   9  10
ENDBRANCH   8   9
ENDBRANCH   1   8
TORSDOF 6
ENDMDL
MODEL 3
REMARK VINA RESULT:    -4.350     15.746     16.946
REMARK INTER + INTRA:          -6.086
REMARK INTER:                  -5.361
REMARK INTRA:                  -0.724
REMARK UNBOUND:                -0.210
REMARK SMILES CCCCCCC=CC(=O)[O-]
REMARK SMILES IDX 5 1 6 2 7 3 8 4 9 5 10 6 11 7 4 8 3 9 2 10 1 11
REMARK H PARENT
REMARK Flexibility Score: inf
ROOT
ATOM      1  C   UNL     1     -21.397  16.499 -21.723  1.00  0.00     0.004 C 
ENDROOT
BRANCH   1   2
ATOM      2  C   UNL     1     -20.312  16.607 -22.805  1.00  0.00     0.027 C 
BRANCH   2   3
ATOM      3  C   UNL     1     -20.858  17.096 -24.117  1.00  0.00    -0.025 C 
ATOM      4  C   UNL     1     -20.274  18.094 -24.791  1.00  0.00     0.020 C 
BRANCH   4   5
ATOM      5  C   UNL     1     -20.788  18.582 -26.079  1.00  0.00     0.064 C 
ATOM      6  O   UNL     1     -20.661  17.902 -27.132  1.00  0.00    -0.545 OA
ATOM      7  O   UNL     1     -21.427  19.814 -26.137  1.00  0.00    -0.545 OA
ENDBRANCH   4   5
ENDBRANCH   2   3
ENDBRANCH   1   2
BRANCH   1   8
ATOM      8  C   UNL     1     -22.813  16.654 -22.304  1.00  0.00     0.000 C 
BRANCH   8   9
ATOM      9  C   UNL     1     -23.577  17.836 -21.671  1.00  0.00    -0.000 C 
BRANCH   9  10
ATOM     10  C   UNL     1     -22.753  19.132 -21.593  1.00  0.00    -0.003 C 
ATOM     11  C   UNL     1     -22.923  20.023 -22.821  1.00  0.00     0.004 C 
ENDBRANCH   9  10
ENDBRANCH   8   9
ENDBRANCH   1   8
TORSDOF 6
ENDMDL
MODEL 4
REMARK VINA RESULT:    -4.326     14.877     16.022
REMARK INTER + INTRA:          -6.053
REMARK INTER:                  -5.455
REMARK INTRA:                  -0.598
REMARK UNBOUND:                -0.210
REMARK SMILES CCCCCCC=CC(=O)[O-]
REMARK SMILES IDX 5 1 6 2 7 3 8 4 9 5 10 6 11 7 4 8 3 9 2 10 1 11
REMARK H PARENT
REMARK Flexibility Score: inf
ROOT
ATOM      1  C   UNL     1     -20.664  18.200 -25.415  1.00  0.00     0.004 C 
ENDROOT
BRANCH   1   2
ATOM      2  C   UNL     1     -19.912  17.572 -24.232  1.00  0.00     0.027 C 
BRANCH   2   3
ATOM      3  C   UNL     1     -20.744  16.561 -23.495  1.00  0.00    -0.025 C 
ATOM      4  C   UNL     1     -20.790  16.532 -22.158  1.00  0.00     0.020 C 
BRANCH   4   5
ATOM      5  C   UNL     1     -21.603  15.555 -21.418  1.00  0.00     0.064 C 
ATOM      6  O   UNL     1     -22.862  15.581 -21.472  1.00  0.00    -0.545 OA
ATOM      7  O   UNL     1     -20.974  14.586 -20.649  1.00  0.00    -0.545 OA
ENDBRANCH   4   5
ENDBRANCH   2   3
ENDBRANCH   1   2
BRANCH   1   8
ATOM      8  C   UNL     1     -21.259  19.574 -25.061  1.00  0.00     0.000 C 
BRANCH   8   9
ATOM      9  C   UNL     1     -22.683  19.461 -24.478  1.00  0.00    -0.000 C 
BRANCH   9  10
ATOM     10  C   UNL     1     -22.907  20.323 -23.225  1.00  0.00    -0.003 C 
ATOM     11  C   UNL     1     -22.895  19.512 -21.931  1.00  0.00     0.004 C 
ENDBRANCH   9  10
ENDBRANCH   8   9
ENDBRANCH   1   8
TORSDOF 6
ENDMDL
MODEL 5
REMARK VINA RESULT:    -4.316      4.205      6.482
REMARK INTER + INTRA:          -6.041
REMARK INTER:                  -5.767
REMARK INTRA:                  -0.273
REMARK UNBOUND:                -0.210
REMARK SMILES CCCCCCC=CC(=O)[O-]
REMARK SMILES IDX 5 1 6 2 7 3 8 4 9 5 10 6 11 7 4 8 3 9 2 10 1 11
REMARK H PARENT
REMARK Flexibility Score: inf
ROOT
ATOM      1  C   UNL     1     -11.131  14.013 -13.295  1.00  0.00     0.004 C 
ENDROOT
BRANCH   1   2
ATOM      2  C   UNL     1      -9.874  14.788 -13.719  1.00  0.00     0.027 C 
BRANCH   2   3
ATOM      3  C   UNL     1      -9.482  14.508 -15.142  1.00  0.00    -0.025 C 
ATOM      4  C   UNL     1     -10.343  13.972 -16.015  1.00  0.00     0.020 C 
BRANCH   4   5
ATOM      5  C   UNL     1      -9.981  13.698 -17.413  1.00  0.00     0.064 C 
ATOM      6  O   UNL     1      -9.099  12.846 -17.703  1.00  0.00    -0.545 OA
ATOM      7  O   UNL     1     -10.623  14.388 -18.433  1.00  0.00    -0.545 OA
ENDBRANCH   4   5
ENDBRANCH   2   3
ENDBRANCH   1   2
BRANCH   1   8
ATOM      8  C   UNL     1     -11.649  14.457 -11.916  1.00  0.00     0.000 C 
BRANCH   8   9
ATOM      9  C   UNL     1     -10.807  15.604 -11.319  1.00  0.00    -0.000 C 
BRANCH   9  10
ATOM     10  C   UNL     1     -11.000  15.786  -9.804  1.00  0.00    -0.003 C 
ATOM     11  C   UNL     1      -9.962  16.714  -9.176  1.00  0.00     0.004 C 
ENDBRANCH   9  10
ENDBRANCH   8   9
ENDBRANCH   1   8
TORSDOF 6
ENDMDL
MODEL 6
REMARK VINA RESULT:    -4.283     16.865     17.983
REMARK INTER + INTRA:          -5.995
REMARK INTER:                  -5.330
REMARK INTRA:                  -0.666
REMARK UNBOUND:                -0.210
REMARK SMILES CCCCCCC=CC(=O)[O-]
REMARK SMILES IDX 5 1 6 2 7 3 8 4 9 5 10 6 11 7 4 8 3 9 2 10 1 11
REMARK H PARENT
REMARK Flexibility Score: inf
ROOT
ATOM      1  C   UNL     1     -22.883  17.924 -25.207  1.00  0.00     0.004 C 
ENDROOT
BRANCH   1   2
ATOM      2  C   UNL     1     -21.439  18.401 -25.420  1.00  0.00     0.027 C 
BRANCH   2   3
ATOM      3  C   UNL     1     -21.310  19.896 -25.330  1.00  0.00    -0.025 C 
ATOM      4  C   UNL     1     -22.349  20.670 -24.995  1.00  0.00     0.020 C 
BRANCH   4   5
ATOM      5  C   UNL     1     -22.242  22.133 -24.894  1.00  0.00     0.064 C 
ATOM      6  O   UNL     1     -21.134  22.717 -25.036  1.00  0.00    -0.545 OA
ATOM      7  O   UNL     1     -23.381  22.885 -24.641  1.00  0.00    -0.545 OA
ENDBRANCH   4   5
ENDBRANCH   2   3
ENDBRANCH   1   2
BRANCH   1   8
ATOM      8  C   UNL     1     -23.057  17.177 -23.873  1.00  0.00     0.000 C 
BRANCH   8   9
ATOM      9  C   UNL     1     -23.661  18.077 -22.775  1.00  0.00    -0.000 C 
BRANCH   9  10
ATOM     10  C   UNL     1     -22.612  18.691 -21.834  1.00  0.00    -0.003 C 
ATOM     11  C   UNL     1     -22.991  20.087 -21.344  1.00  0.00     0.004 C 
ENDBRANCH   9  10
ENDBRANCH   8   9
ENDBRANCH   1   8
TORSDOF 6
ENDMDL
MODEL 7
REMARK VINA RESULT:    -4.232     16.536     17.732
REMARK INTER + INTRA:          -5.927
REMARK INTER:                  -5.306
REMARK INTRA:                  -0.621
REMARK UNBOUND:                -0.210
REMARK SMILES CCCCCCC=CC(=O)[O-]
REMARK SMILES IDX 5 1 6 2 7 3 8 4 9 5 10 6 11 7 4 8 3 9 2 10 1 11
REMARK H PARENT
REMARK Flexibility Score: inf
ROOT
ATOM      1  C   UNL     1     -23.068  20.561 -22.917  1.00  0.00     0.004 C 
ENDROOT
BRANCH   1   2
ATOM      2  C   UNL     1     -22.401  20.797 -24.280  1.00  0.00     0.027 C 
BRANCH   2   3
ATOM      3  C   UNL     1     -22.362  19.554 -25.123  1.00  0.00    -0.025 C 
ATOM      4  C   UNL     1     -21.326  19.284 -25.926  1.00  0.00     0.020 C 
BRANCH   4   5
ATOM      5  C   UNL     1     -21.266  18.069 -26.753  1.00  0.00     0.064 C 
ATOM      6  O   UNL     1     -21.486  16.931 -26.257  1.00  0.00    -0.545 OA
ATOM      7  O   UNL     1     -20.963  18.177 -28.103  1.00  0.00    -0.545 OA
ENDBRANCH   4   5
ENDBRANCH   2   3
ENDBRANCH   1   2
BRANCH   1   8
ATOM      8  C   UNL     1     -23.367  19.073 -22.667  1.00  0.00     0.000 C 
BRANCH   8   9
ATOM      9  C   UNL     1     -22.393  18.445 -21.648  1.00  0.00    -0.000 C 
BRANCH   9  10
ATOM     10  C   UNL     1     -21.966  17.011 -22.006  1.00  0.00    -0.003 C 
ATOM     11  C   UNL     1     -20.681  16.958 -22.829  1.00  0.00     0.004 C 
ENDBRANCH   9  10
ENDBRANCH   8   9
ENDBRANCH   1   8
TORSDOF 6
ENDMDL
MODEL 8
REMARK VINA RESULT:    -4.193     16.885     17.985
REMARK INTER + INTRA:          -5.874
REMARK INTER:                  -5.222
REMARK INTRA:                  -0.652
REMARK UNBOUND:                -0.210
REMARK SMILES CCCCCCC=CC(=O)[O-]
REMARK SMILES IDX 5 1 6 2 7 3 8 4 9 5 10 6 11 7 4 8 3 9 2 10 1 11
REMARK H PARENT
REMARK Flexibility Score: inf
ROOT
ATOM      1  C   UNL     1     -24.212  18.363 -21.969  1.00  0.00     0.004 C 
ENDROOT
BRANCH   1   2
ATOM      2  C   UNL     1     -24.170  17.479 -23.224  1.00  0.00     0.027 C 
BRANCH   2   3
ATOM      3  C   UNL     1     -22.888  17.637 -23.993  1.00  0.00    -0.025 C 
ATOM      4  C   UNL     1     -22.885  17.868 -25.311  1.00  0.00     0.020 C 
BRANCH   4   5
ATOM      5  C   UNL     1     -21.643  18.033 -26.080  1.00  0.00     0.064 C 
ATOM      6  O   UNL     1     -20.560  18.336 -25.512  1.00  0.00    -0.545 OA
ATOM      7  O   UNL     1     -21.663  17.849 -27.456  1.00  0.00    -0.545 OA
ENDBRANCH   4   5
ENDBRANCH   2   3
ENDBRANCH   1   2
BRANCH   1   8
ATOM      8  C   UNL     1     -22.860  19.041 -21.690  1.00  0.00     0.000 C 
BRANCH   8   9
ATOM      9  C   UNL     1     -23.018  20.533 -21.332  1.00  0.00    -0.000 C 
BRANCH   9  10
ATOM     10  C   UNL     1     -23.611  21.381 -22.470  1.00  0.00    -0.003 C 
ATOM     11  C   UNL     1     -22.810  21.284 -23.767  1.00  0.00     0.004 C 
ENDBRANCH   9  10
ENDBRANCH   8   9
ENDBRANCH   1   8
TORSDOF 6
ENDMDL
MODEL 9
REMARK VINA RESULT:    -4.141     16.208     17.109
REMARK INTER + INTRA:          -5.804
REMARK INTER:                  -5.160
REMARK INTRA:                  -0.644
REMARK UNBOUND:                -0.210
REMARK SMILES CCCCCCC=CC(=O)[O-]
REMARK SMILES IDX 5 1 6 2 7 3 8 4 9 5 10 6 11 7 4 8 3 9 2 10 1 11
REMARK H PARENT
REMARK Flexibility Score: inf
ROOT
ATOM      1  C   UNL     1     -23.647  18.001 -22.616  1.00  0.00     0.004 C 
ENDROOT
BRANCH   1   2
ATOM      2  C   UNL     1     -22.998  19.151 -21.831  1.00  0.00     0.027 C 
BRANCH   2   3
ATOM      3  C   UNL     1     -23.013  20.445 -22.595  1.00  0.00    -0.025 C 
ATOM      4  C   UNL     1     -22.600  20.514 -23.866  1.00  0.00     0.020 C 
BRANCH   4   5
ATOM      5  C   UNL     1     -22.613  21.768 -24.633  1.00  0.00     0.064 C 
ATOM      6  O   UNL     1     -23.619  22.528 -24.624  1.00  0.00    -0.545 OA
ATOM      7  O   UNL     1     -21.498  22.124 -25.380  1.00  0.00    -0.545 OA
ENDBRANCH   4   5
ENDBRANCH   2   3
ENDBRANCH   1   2
BRANCH   1   8
ATOM      8  C   UNL     1     -22.795  16.721 -22.579  1.00  0.00     0.000 C 
BRANCH   8   9
ATOM      9  C   UNL     1     -21.386  16.974 -22.002  1.00  0.00    -0.000 C 
BRANCH   9  10
ATOM     10  C   UNL     1     -20.250  16.665 -22.992  1.00  0.00    -0.003 C 
ATOM     11  C   UNL     1     -20.303  17.529 -24.250  1.00  0.00     0.004 C 
ENDBRANCH   9  10
ENDBRANCH   8   9
ENDBRANCH   1   8
TORSDOF 6
ENDMDL
