MODEL 1
REMARK VINA RESULT:    -3.748      0.000      0.000
REMARK INTER + INTRA:          -4.587
REMARK INTER:                  -4.515
REMARK INTRA:                  -0.072
REMARK UNBOUND:                -0.072
REMARK SMILES CC[C@H](C)[C@@H]([NH3+])C(=O)[O-]
REMARK SMILES IDX 3 1 4 2 5 3 6 4 7 8 8 9 9 10 2 11 1 12
REMARK H PARENT 6 5 6 6 6 7
REMARK Flexibility Score: inf
ROOT
ATOM      1  C   UNL     1     166.356 175.982  74.339  1.00  0.00     0.050 C 
ATOM      2  C   UNL     1     166.615 175.652  72.857  1.00  0.00     0.014 C 
ENDROOT
BRANCH   1   3
ATOM      3  C   UNL     1     164.914 176.522  74.594  1.00  0.00     0.230 C 
BRANCH   3   4
ATOM      4  N   UNL     1     164.041 176.404  73.416  1.00  0.00    -0.350 N 
ATOM      5  H   UNL     1     163.066 176.138  73.687  1.00  0.00     0.345 HD
ATOM      6  H   UNL     1     164.421 175.693  72.750  1.00  0.00     0.345 HD
ATOM      7  H   UNL     1     164.007 177.320  72.913  1.00  0.00     0.345 HD
ENDBRANCH   3   4
BRANCH   3   8
ATOM      8  C   UNL     1     164.291 175.861  75.800  1.00  0.00     0.099 C 
ATOM      9  O   UNL     1     164.642 174.704  76.158  1.00  0.00    -0.544 OA
ATOM     10  O   UNL     1     163.353 176.552  76.557  1.00  0.00    -0.544 OA
ENDBRANCH   3   8
ENDBRANCH   1   3
BRANCH   1  11
ATOM     11  C   UNL     1     167.425 176.960  74.891  1.00  0.00     0.006 C 
ATOM     12  C   UNL     1     168.693 176.996  74.037  1.00  0.00     0.004 C 
ENDBRANCH   1  11
TORSDOF 4
ENDMDL
MODEL 2
REMARK VINA RESULT:    -3.619      3.460      4.480
REMARK INTER + INTRA:          -4.432
REMARK INTER:                  -4.341
REMARK INTRA:                  -0.091
REMARK UNBOUND:                -0.072
REMARK SMILES CC[C@H](C)[C@@H]([NH3+])C(=O)[O-]
REMARK SMILES IDX 3 1 4 2 5 3 6 4 7 8 8 9 9 10 2 11 1 12
REMARK H PARENT 6 5 6 6 6 7
REMARK Flexibility Score: inf
ROOT
ATOM      1  C   UNL     1     166.976 175.555  74.086  1.00  0.00     0.050 C 
ATOM      2  C   UNL     1     166.720 174.998  75.499  1.00  0.00     0.014 C 
ENDROOT
BRANCH   1   3
ATOM      3  C   UNL     1     167.800 176.881  74.100  1.00  0.00     0.230 C 
BRANCH   3   4
ATOM      4  N   UNL     1     167.745 177.576  75.395  1.00  0.00    -0.350 N 
ATOM      5  H   UNL     1     167.094 177.098  76.059  1.00  0.00     0.345 HD
ATOM      6  H   UNL     1     167.440 178.567  75.265  1.00  0.00     0.345 HD
ATOM      7  H   UNL     1     168.700 177.594  75.823  1.00  0.00     0.345 HD
ENDBRANCH   3   4
BRANCH   3   8
ATOM      8  C   UNL     1     169.227 176.639  73.673  1.00  0.00     0.099 C 
ATOM      9  O   UNL     1     169.965 175.836  74.305  1.00  0.00    -0.544 OA
ATOM     10  O   UNL     1     169.723 177.272  72.540  1.00  0.00    -0.544 OA
ENDBRANCH   3   8
ENDBRANCH   1   3
BRANCH   1  11
ATOM     11  C   UNL     1     165.650 175.728  73.302  1.00  0.00     0.006 C 
ATOM     12  C   UNL     1     164.524 176.305  74.162  1.00  0.00     0.004 C 
ENDBRANCH   1  11
TORSDOF 4
ENDMDL
MODEL 3
REMARK VINA RESULT:    -3.553      2.202      2.665
REMARK INTER + INTRA:          -4.352
REMARK INTER:                  -4.291
REMARK INTRA:                  -0.062
REMARK UNBOUND:                -0.072
REMARK SMILES CC[C@H](C)[C@@H]([NH3+])C(=O)[O-]
REMARK SMILES IDX 3 1 4 2 5 3 6 4 7 8 8 9 9 10 2 11 1 12
REMARK H PARENT 6 5 6 6 6 7
REMARK Flexibility Score: inf
ROOT
ATOM      1  C   UNL     1     168.383 175.841  73.704  1.00  0.00     0.050 C 
ATOM      2  C   UNL     1     167.180 175.632  72.765  1.00  0.00     0.014 C 
ENDROOT
BRANCH   1   3
ATOM      3  C   UNL     1     167.958 176.269  75.144  1.00  0.00     0.230 C 
BRANCH   3   4
ATOM      4  N   UNL     1     167.702 177.713  75.260  1.00  0.00    -0.350 N 
ATOM      5  H   UNL     1     167.420 178.126  74.342  1.00  0.00     0.345 HD
ATOM      6  H   UNL     1     168.551 178.207  75.616  1.00  0.00     0.345 HD
ATOM      7  H   UNL     1     166.931 177.876  75.948  1.00  0.00     0.345 HD
ENDBRANCH   3   4
BRANCH   3   8
ATOM      8  C   UNL     1     166.773 175.466  75.622  1.00  0.00     0.099 C 
ATOM      9  O   UNL     1     166.909 174.268  75.991  1.00  0.00    -0.544 OA
ATOM     10  O   UNL     1     165.522 176.065  75.702  1.00  0.00    -0.544 OA
ENDBRANCH   3   8
ENDBRANCH   1   3
BRANCH   1  11
ATOM     11  C   UNL     1     169.400 176.843  73.099  1.00  0.00     0.006 C 
ATOM     12  C   UNL     1     169.297 176.944  71.576  1.00  0.00     0.004 C 
ENDBRANCH   1  11
TORSDOF 4
ENDMDL
MODEL 4
REMARK VINA RESULT:    -3.545      2.203      2.992
REMARK INTER + INTRA:          -4.343
REMARK INTER:                  -4.274
REMARK INTRA:                  -0.069
REMARK UNBOUND:                -0.072
REMARK SMILES CC[C@H](C)[C@@H]([NH3+])C(=O)[O-]
REMARK SMILES IDX 3 1 4 2 5 3 6 4 7 8 8 9 9 10 2 11 1 12
REMARK H PARENT 6 5 6 6 6 7
REMARK Flexibility Score: inf
ROOT
ATOM      1  C   UNL     1     167.847 176.365  73.402  1.00  0.00     0.050 C 
ATOM      2  C   UNL     1     169.246 176.854  73.826  1.00  0.00     0.014 C 
ENDROOT
BRANCH   1   3
ATOM      3  C   UNL     1     166.987 175.877  74.610  1.00  0.00     0.230 C 
BRANCH   3   4
ATOM      4  N   UNL     1     167.605 176.174  75.911  1.00  0.00    -0.350 N 
ATOM      5  H   UNL     1     168.634 175.987  75.897  1.00  0.00     0.345 HD
ATOM      6  H   UNL     1     167.160 175.602  76.665  1.00  0.00     0.345 HD
ATOM      7  H   UNL     1     167.453 177.181  76.148  1.00  0.00     0.345 HD
ENDBRANCH   3   4
BRANCH   3   8
ATOM      8  C   UNL     1     165.584 176.429  74.535  1.00  0.00     0.099 C 
ATOM      9  O   UNL     1     165.140 177.192  75.435  1.00  0.00    -0.544 OA
ATOM     10  O   UNL     1     164.784 176.132  73.438  1.00  0.00    -0.544 OA
ENDBRANCH   3   8
ENDBRANCH   1   3
BRANCH   1  11
ATOM     11  C   UNL     1     167.944 175.273  72.306  1.00  0.00     0.006 C 
ATOM     12  C   UNL     1     167.815 175.841  70.891  1.00  0.00     0.004 C 
ENDBRANCH   1  11
TORSDOF 4
ENDMDL
MODEL 5
REMARK VINA RESULT:    -3.528      1.991      2.224
REMARK INTER + INTRA:          -4.322
REMARK INTER:                  -4.299
REMARK INTRA:                  -0.023
REMARK UNBOUND:                -0.072
REMARK SMILES CC[C@H](C)[C@@H]([NH3+])C(=O)[O-]
REMARK SMILES IDX 3 1 4 2 5 3 6 4 7 8 8 9 9 10 2 11 1 12
REMARK H PARENT 6 5 6 6 6 7
REMARK Flexibility Score: inf
ROOT
ATOM      1  C   UNL     1     167.620 175.868  75.329  1.00  0.00     0.050 C 
ATOM      2  C   UNL     1     168.116 174.570  74.662  1.00  0.00     0.014 C 
ENDROOT
BRANCH   1   3
ATOM      3  C   UNL     1     166.067 175.910  75.485  1.00  0.00     0.230 C 
BRANCH   3   4
ATOM      4  N   UNL     1     165.548 177.272  75.682  1.00  0.00    -0.350 N 
ATOM      5  H   UNL     1     166.271 177.993  75.457  1.00  0.00     0.345 HD
ATOM      6  H   UNL     1     165.227 177.401  76.669  1.00  0.00     0.345 HD
ATOM      7  H   UNL     1     164.721 177.425  75.060  1.00  0.00     0.345 HD
ENDBRANCH   3   4
BRANCH   3   8
ATOM      8  C   UNL     1     165.385 175.231  74.322  1.00  0.00     0.099 C 
ATOM      9  O   UNL     1     164.835 174.105  74.462  1.00  0.00    -0.544 OA
ATOM     10  O   UNL     1     165.319 175.874  73.092  1.00  0.00    -0.544 OA
ENDBRANCH   3   8
ENDBRANCH   1   3
BRANCH   1  11
ATOM     11  C   UNL     1     168.141 177.119  74.578  1.00  0.00     0.006 C 
ATOM     12  C   UNL     1     169.349 176.817  73.689  1.00  0.00     0.004 C 
ENDBRANCH   1  11
TORSDOF 4
ENDMDL
MODEL 6
REMARK VINA RESULT:    -3.416      3.868      4.819
REMARK INTER + INTRA:          -4.187
REMARK INTER:                  -4.149
REMARK INTRA:                  -0.037
REMARK UNBOUND:                -0.072
REMARK SMILES CC[C@H](C)[C@@H]([NH3+])C(=O)[O-]
REMARK SMILES IDX 3 1 4 2 5 3 6 4 7 8 8 9 9 10 2 11 1 12
REMARK H PARENT 6 5 6 6 6 7
REMARK Flexibility Score: inf
ROOT
ATOM      1  C   UNL     1     167.546 176.069  74.180  1.00  0.00     0.050 C 
ATOM      2  C   UNL     1     168.079 174.793  74.859  1.00  0.00     0.014 C 
ENDROOT
BRANCH   1   3
ATOM      3  C   UNL     1     168.658 176.855  73.416  1.00  0.00     0.230 C 
BRANCH   3   4
ATOM      4  N   UNL     1     169.982 176.732  74.045  1.00  0.00    -0.350 N 
ATOM      5  H   UNL     1     170.712 176.461  73.347  1.00  0.00     0.345 HD
ATOM      6  H   UNL     1     169.956 176.023  74.812  1.00  0.00     0.345 HD
ATOM      7  H   UNL     1     170.252 177.648  74.470  1.00  0.00     0.345 HD
ENDBRANCH   3   4
BRANCH   3   8
ATOM      8  C   UNL     1     168.707 176.451  71.962  1.00  0.00     0.099 C 
ATOM      9  O   UNL     1     169.529 176.984  71.169  1.00  0.00    -0.544 OA
ATOM     10  O   UNL     1     167.868 175.446  71.498  1.00  0.00    -0.544 OA
ENDBRANCH   3   8
ENDBRANCH   1   3
BRANCH   1  11
ATOM     11  C   UNL     1     166.813 176.981  75.196  1.00  0.00     0.006 C 
ATOM     12  C   UNL     1     165.340 176.609  75.371  1.00  0.00     0.004 C 
ENDBRANCH   1  11
TORSDOF 4
ENDMDL
MODEL 7
REMARK VINA RESULT:    -3.379      3.536      4.349
REMARK INTER + INTRA:          -4.143
REMARK INTER:                  -4.067
REMARK INTRA:                  -0.077
REMARK UNBOUND:                -0.072
REMARK SMILES CC[C@H](C)[C@@H]([NH3+])C(=O)[O-]
REMARK SMILES IDX 3 1 4 2 5 3 6 4 7 8 8 9 9 10 2 11 1 12
REMARK H PARENT 6 5 6 6 6 7
REMARK Flexibility Score: inf
ROOT
ATOM      1  C   UNL     1     166.759 176.047  73.454  1.00  0.00     0.050 C 
ATOM      2  C   UNL     1     165.550 175.498  72.671  1.00  0.00     0.014 C 
ENDROOT
BRANCH   1   3
ATOM      3  C   UNL     1     168.093 175.323  73.091  1.00  0.00     0.230 C 
BRANCH   3   4
ATOM      4  N   UNL     1     168.171 174.943  71.672  1.00  0.00    -0.350 N 
ATOM      5  H   UNL     1     167.225 174.726  71.282  1.00  0.00     0.345 HD
ATOM      6  H   UNL     1     168.794 174.112  71.551  1.00  0.00     0.345 HD
ATOM      7  H   UNL     1     168.585 175.730  71.122  1.00  0.00     0.345 HD
ENDBRANCH   3   4
BRANCH   3   8
ATOM      8  C   UNL     1     169.288 176.149  73.499  1.00  0.00     0.099 C 
ATOM      9  O   UNL     1     170.025 175.792  74.457  1.00  0.00    -0.544 OA
ATOM     10  O   UNL     1     169.611 177.294  72.782  1.00  0.00    -0.544 OA
ENDBRANCH   3   8
ENDBRANCH   1   3
BRANCH   1  11
ATOM     11  C   UNL     1     166.500 176.012  74.982  1.00  0.00     0.006 C 
ATOM     12  C   UNL     1     165.381 176.960  75.415  1.00  0.00     0.004 C 
ENDBRANCH   1  11
TORSDOF 4
ENDMDL
MODEL 8
REMARK VINA RESULT:    -3.354      2.436      3.591
REMARK INTER + INTRA:          -4.113
REMARK INTER:                  -4.124
REMARK INTRA:                   0.011
REMARK UNBOUND:                -0.072
REMARK SMILES CC[C@H](C)[C@@H]([NH3+])C(=O)[O-]
REMARK SMILES IDX 3 1 4 2 5 3 6 4 7 8 8 9 9 10 2 11 1 12
REMARK H PARENT 6 5 6 6 6 7
REMARK Flexibility Score: inf
ROOT
ATOM      1  C   UNL     1     165.456 176.122  75.112  1.00  0.00     0.050 C 
ATOM      2  C   UNL     1     166.801 176.870  75.044  1.00  0.00     0.014 C 
ENDROOT
BRANCH   1   3
ATOM      3  C   UNL     1     165.085 175.422  73.767  1.00  0.00     0.230 C 
BRANCH   3   4
ATOM      4  N   UNL     1     164.176 176.224  72.935  1.00  0.00    -0.350 N 
ATOM      5  H   UNL     1     163.175 176.040  73.177  1.00  0.00     0.345 HD
ATOM      6  H   UNL     1     164.331 176.017  71.922  1.00  0.00     0.345 HD
ATOM      7  H   UNL     1     164.372 177.240  73.082  1.00  0.00     0.345 HD
ENDBRANCH   3   4
BRANCH   3   8
ATOM      8  C   UNL     1     166.325 175.032  72.998  1.00  0.00     0.099 C 
ATOM      9  O   UNL     1     167.023 174.044  73.353  1.00  0.00    -0.544 OA
ATOM     10  O   UNL     1     166.678 175.740  71.857  1.00  0.00    -0.544 OA
ENDBRANCH   3   8
ENDBRANCH   1   3
BRANCH   1  11
ATOM     11  C   UNL     1     164.317 177.059  75.588  1.00  0.00     0.006 C 
ATOM     12  C   UNL     1     163.291 176.346  76.470  1.00  0.00     0.004 C 
ENDBRANCH   1  11
TORSDOF 4
ENDMDL
MODEL 9
REMARK VINA RESULT:    -3.337      3.231      3.741
REMARK INTER + INTRA:          -4.092
REMARK INTER:                  -3.947
REMARK INTRA:                  -0.144
REMARK UNBOUND:                -0.072
REMARK SMILES CC[C@H](C)[C@@H]([NH3+])C(=O)[O-]
REMARK SMILES IDX 3 1 4 2 5 3 6 4 7 8 8 9 9 10 2 11 1 12
REMARK H PARENT 6 5 6 6 6 7
REMARK Flexibility Score: inf
ROOT
ATOM      1  C   UNL     1     166.995 176.292  73.737  1.00  0.00     0.050 C 
ATOM      2  C   UNL     1     166.279 176.632  75.058  1.00  0.00     0.014 C 
ENDROOT
BRANCH   1   3
ATOM      3  C   UNL     1     166.130 175.399  72.794  1.00  0.00     0.230 C 
BRANCH   3   4
ATOM      4  N   UNL     1     164.806 175.975  72.514  1.00  0.00    -0.350 N 
ATOM      5  H   UNL     1     164.400 176.430  73.364  1.00  0.00     0.345 HD
ATOM      6  H   UNL     1     164.151 175.236  72.171  1.00  0.00     0.345 HD
ATOM      7  H   UNL     1     164.891 176.696  71.760  1.00  0.00     0.345 HD
ENDBRANCH   3   4
BRANCH   3   8
ATOM      8  C   UNL     1     166.868 175.085  71.515  1.00  0.00     0.099 C 
ATOM      9  O   UNL     1     167.082 173.892  71.167  1.00  0.00    -0.544 OA
ATOM     10  O   UNL     1     167.275 176.120  70.683  1.00  0.00    -0.544 OA
ENDBRANCH   3   8
ENDBRANCH   1   3
BRANCH   1  11
ATOM     11  C   UNL     1     168.381 175.649  74.001  1.00  0.00     0.006 C 
ATOM     12  C   UNL     1     169.541 176.600  73.702  1.00  0.00     0.004 C 
ENDBRANCH   1  11
TORSDOF 4
ENDMDL
