MODEL 1
REMARK VINA RESULT:    -5.574      0.000      0.000
REMARK INTER + INTRA:          -6.988
REMARK INTER:                  -6.714
REMARK INTRA:                  -0.274
REMARK UNBOUND:                -0.274
REMARK SMILES Oc1cc(O)c2cc(O)c(-c3ccc(O)c(O)c3)[o+]c2c1
REMARK SMILES IDX 10 1 19 2 20 3 21 4 2 5 3 6 4 7 6 8 7 9 8 10 11 11 12 12
REMARK SMILES IDX 13 13 14 14 18 15 16 16 15 17 17 19 9 21 1 23 5 25
REMARK H PARENT 15 18 17 20 9 22 1 24 5 26
REMARK Flexibility Score: inf
ROOT
ATOM      1  C   UNL     1      -8.206  90.148 -13.868  1.00  0.00     0.402 A 
ATOM      2  O   UNL     1      -7.699  91.158 -14.569  1.00  0.00    -0.202 OA
ATOM      3  C   UNL     1      -6.399  91.307 -14.799  1.00  0.00     0.368 A 
ATOM      4  C   UNL     1      -5.962  92.401 -15.550  1.00  0.00     0.162 A 
ATOM      5  C   UNL     1      -4.599  92.581 -15.809  1.00  0.00     0.128 A 
ATOM      6  C   UNL     1      -3.671  91.661 -15.316  1.00  0.00     0.093 A 
ATOM      7  C   UNL     1      -4.083  90.557 -14.560  1.00  0.00     0.136 A 
ATOM      8  C   UNL     1      -5.465  90.371 -14.291  1.00  0.00     0.125 A 
ATOM      9  C   UNL     1      -5.967  89.302 -13.533  1.00  0.00     0.078 A 
ATOM     10  C   UNL     1      -7.342  89.188 -13.307  1.00  0.00     0.223 A 
ENDROOT
BRANCH   1  11
ATOM     11  C   UNL     1      -9.674  90.087 -13.690  1.00  0.00     0.087 A 
ATOM     12  C   UNL     1     -10.447  89.095 -14.316  1.00  0.00     0.022 A 
ATOM     13  C   UNL     1     -11.833  89.072 -14.151  1.00  0.00     0.051 A 
ATOM     14  C   UNL     1     -12.476  90.040 -13.373  1.00  0.00     0.157 A 
ATOM     15  C   UNL     1     -10.320  91.071 -12.927  1.00  0.00     0.068 A 
ATOM     16  C   UNL     1     -11.710  91.055 -12.755  1.00  0.00     0.158 A 
BRANCH  14  17
ATOM     17  O   UNL     1     -13.864  89.958 -13.244  1.00  0.00    -0.504 OA
ATOM     18  H   UNL     1     -14.495  89.795 -14.015  1.00  0.00     0.293 HD
ENDBRANCH  14  17
BRANCH  16  19
ATOM     19  O   UNL     1     -12.281  92.060 -11.971  1.00  0.00    -0.504 OA
ATOM     20  H   UNL     1     -12.124  93.047 -12.116  1.00  0.00     0.293 HD
ENDBRANCH  16  19
ENDBRANCH   1  11
BRANCH  10  21
ATOM     21  O   UNL     1      -7.837  88.155 -12.513  1.00  0.00    -0.500 OA
ATOM     22  H   UNL     1      -8.306  88.336 -11.632  1.00  0.00     0.294 HD
ENDBRANCH  10  21
BRANCH   5  23
ATOM     23  O   UNL     1      -4.157  93.669 -16.557  1.00  0.00    -0.507 OA
ATOM     24  H   UNL     1      -3.419  94.277 -16.224  1.00  0.00     0.293 HD
ENDBRANCH   5  23
BRANCH   7  25
ATOM     25  O   UNL     1      -3.092  89.682 -14.106  1.00  0.00    -0.507 OA
ATOM     26  H   UNL     1      -2.108  89.907 -14.062  1.00  0.00     0.293 HD
ENDBRANCH   7  25
TORSDOF 6
ENDMDL
MODEL 2
REMARK VINA RESULT:    -5.520      8.138     11.441
REMARK INTER + INTRA:          -6.924
REMARK INTER:                  -6.633
REMARK INTRA:                  -0.291
REMARK UNBOUND:                -0.274
REMARK SMILES Oc1cc(O)c2cc(O)c(-c3ccc(O)c(O)c3)[o+]c2c1
REMARK SMILES IDX 10 1 19 2 20 3 21 4 2 5 3 6 4 7 6 8 7 9 8 10 11 11 12 12
REMARK SMILES IDX 13 13 14 14 18 15 16 16 15 17 17 19 9 21 1 23 5 25
REMARK H PARENT 15 18 17 20 9 22 1 24 5 26
REMARK Flexibility Score: inf
ROOT
ATOM      1  C   UNL     1      -7.557  83.582  -8.732  1.00  0.00     0.402 A 
ATOM      2  O   UNL     1      -8.450  82.612  -8.908  1.00  0.00    -0.202 OA
ATOM      3  C   UNL     1      -9.755  82.833  -9.017  1.00  0.00     0.368 A 
ATOM      4  C   UNL     1     -10.616  81.748  -9.203  1.00  0.00     0.162 A 
ATOM      5  C   UNL     1     -11.994  81.953  -9.324  1.00  0.00     0.128 A 
ATOM      6  C   UNL     1     -12.512  83.248  -9.260  1.00  0.00     0.093 A 
ATOM      7  C   UNL     1     -11.671  84.352  -9.074  1.00  0.00     0.136 A 
ATOM      8  C   UNL     1     -10.272  84.150  -8.948  1.00  0.00     0.125 A 
ATOM      9  C   UNL     1      -9.356  85.194  -8.747  1.00  0.00     0.078 A 
ATOM     10  C   UNL     1      -7.991  84.916  -8.627  1.00  0.00     0.223 A 
ENDROOT
BRANCH   1  11
ATOM     11  C   UNL     1      -6.127  83.208  -8.635  1.00  0.00     0.087 A 
ATOM     12  C   UNL     1      -5.455  83.199  -7.402  1.00  0.00     0.022 A 
ATOM     13  C   UNL     1      -4.101  82.865  -7.340  1.00  0.00     0.051 A 
ATOM     14  C   UNL     1      -3.389  82.548  -8.501  1.00  0.00     0.157 A 
ATOM     15  C   UNL     1      -5.409  82.911  -9.804  1.00  0.00     0.068 A 
ATOM     16  C   UNL     1      -4.051  82.574  -9.751  1.00  0.00     0.158 A 
BRANCH  14  17
ATOM     17  O   UNL     1      -2.038  82.218  -8.369  1.00  0.00    -0.504 OA
ATOM     18  H   UNL     1      -1.621  81.875  -7.517  1.00  0.00     0.293 HD
ENDBRANCH  14  17
BRANCH  16  19
ATOM     19  O   UNL     1      -3.405  82.278 -10.953  1.00  0.00    -0.504 OA
ATOM     20  H   UNL     1      -3.046  82.976 -11.587  1.00  0.00     0.293 HD
ENDBRANCH  16  19
ENDBRANCH   1  11
BRANCH  10  21
ATOM     21  O   UNL     1      -7.086  85.948  -8.378  1.00  0.00    -0.500 OA
ATOM     22  H   UNL     1      -6.093  85.840  -8.554  1.00  0.00     0.294 HD
ENDBRANCH  10  21
BRANCH   5  23
ATOM     23  O   UNL     1     -12.857  80.875  -9.509  1.00  0.00    -0.507 OA
ATOM     24  H   UNL     1     -12.599  79.936  -9.232  1.00  0.00     0.293 HD
ENDBRANCH   5  23
BRANCH   7  25
ATOM     25  O   UNL     1     -12.269  85.615  -9.024  1.00  0.00    -0.507 OA
ATOM     26  H   UNL     1     -12.424  86.205  -9.828  1.00  0.00     0.293 HD
ENDBRANCH   7  25
TORSDOF 6
ENDMDL
MODEL 3
REMARK VINA RESULT:    -5.453      1.667      6.842
REMARK INTER + INTRA:          -6.842
REMARK INTER:                  -6.526
REMARK INTRA:                  -0.317
REMARK UNBOUND:                -0.274
REMARK SMILES Oc1cc(O)c2cc(O)c(-c3ccc(O)c(O)c3)[o+]c2c1
REMARK SMILES IDX 10 1 19 2 20 3 21 4 2 5 3 6 4 7 6 8 7 9 8 10 11 11 12 12
REMARK SMILES IDX 13 13 14 14 18 15 16 16 15 17 17 19 9 21 1 23 5 25
REMARK H PARENT 15 18 17 20 9 22 1 24 5 26
REMARK Flexibility Score: inf
ROOT
ATOM      1  C   UNL     1      -8.672  90.232 -13.759  1.00  0.00     0.402 A 
ATOM      2  O   UNL     1      -9.207  91.434 -13.562  1.00  0.00    -0.202 OA
ATOM      3  C   UNL     1     -10.513  91.639 -13.429  1.00  0.00     0.368 A 
ATOM      4  C   UNL     1     -10.980  92.939 -13.222  1.00  0.00     0.162 A 
ATOM      5  C   UNL     1     -12.350  93.182 -13.076  1.00  0.00     0.128 A 
ATOM      6  C   UNL     1     -13.254  92.120 -13.137  1.00  0.00     0.093 A 
ATOM      7  C   UNL     1     -12.812  90.808 -13.344  1.00  0.00     0.136 A 
ATOM      8  C   UNL     1     -11.423  90.556 -13.495  1.00  0.00     0.125 A 
ATOM      9  C   UNL     1     -10.891  89.276 -13.719  1.00  0.00     0.078 A 
ATOM     10  C   UNL     1      -9.510  89.106 -13.863  1.00  0.00     0.223 A 
ENDROOT
BRANCH   1  11
ATOM     11  C   UNL     1      -7.200  90.133 -13.881  1.00  0.00     0.087 A 
ATOM     12  C   UNL     1      -6.368  90.163 -12.750  1.00  0.00     0.022 A 
ATOM     13  C   UNL     1      -4.981  90.091 -12.892  1.00  0.00     0.051 A 
ATOM     14  C   UNL     1      -4.397  90.000 -14.159  1.00  0.00     0.157 A 
ATOM     15  C   UNL     1      -6.614  90.064 -15.154  1.00  0.00     0.068 A 
ATOM     16  C   UNL     1      -5.224  89.990 -15.306  1.00  0.00     0.158 A 
BRANCH  14  17
ATOM     17  O   UNL     1      -3.004  89.926 -14.233  1.00  0.00    -0.504 OA
ATOM     18  H   UNL     1      -2.414  90.676 -14.563  1.00  0.00     0.293 HD
ENDBRANCH  14  17
BRANCH  16  19
ATOM     19  O   UNL     1      -4.714  89.911 -16.604  1.00  0.00    -0.504 OA
ATOM     20  H   UNL     1      -5.019  89.235 -17.290  1.00  0.00     0.293 HD
ENDBRANCH  16  19
ENDBRANCH   1  11
BRANCH  10  21
ATOM     21  O   UNL     1      -8.985  87.843 -14.133  1.00  0.00    -0.500 OA
ATOM     22  H   UNL     1      -8.244  87.709 -14.812  1.00  0.00     0.294 HD
ENDBRANCH  10  21
BRANCH   5  23
ATOM     23  O   UNL     1     -12.822  94.476 -12.870  1.00  0.00    -0.507 OA
ATOM     24  H   UNL     1     -12.190  95.257 -12.741  1.00  0.00     0.293 HD
ENDBRANCH   5  23
BRANCH   7  25
ATOM     25  O   UNL     1     -13.781  89.801 -13.389  1.00  0.00    -0.507 OA
ATOM     26  H   UNL     1     -13.802  89.001 -12.773  1.00  0.00     0.293 HD
ENDBRANCH   7  25
TORSDOF 6
ENDMDL
MODEL 4
REMARK VINA RESULT:    -5.442      4.484      6.683
REMARK INTER + INTRA:          -6.829
REMARK INTER:                  -6.629
REMARK INTRA:                  -0.201
REMARK UNBOUND:                -0.274
REMARK SMILES Oc1cc(O)c2cc(O)c(-c3ccc(O)c(O)c3)[o+]c2c1
REMARK SMILES IDX 10 1 19 2 20 3 21 4 2 5 3 6 4 7 6 8 7 9 8 10 11 11 12 12
REMARK SMILES IDX 13 13 14 14 18 15 16 16 15 17 17 19 9 21 1 23 5 25
REMARK H PARENT 15 18 17 20 9 22 1 24 5 26
REMARK Flexibility Score: inf
ROOT
ATOM      1  C   UNL     1      -4.417  91.235 -14.769  1.00  0.00     0.402 A 
ATOM      2  O   UNL     1      -4.167  92.309 -14.026  1.00  0.00    -0.202 OA
ATOM      3  C   UNL     1      -4.373  92.354 -12.715  1.00  0.00     0.368 A 
ATOM      4  C   UNL     1      -4.076  93.528 -12.018  1.00  0.00     0.162 A 
ATOM      5  C   UNL     1      -4.282  93.601 -10.637  1.00  0.00     0.128 A 
ATOM      6  C   UNL     1      -4.785  92.495  -9.950  1.00  0.00     0.093 A 
ATOM      7  C   UNL     1      -5.091  91.306 -10.624  1.00  0.00     0.136 A 
ATOM      8  C   UNL     1      -4.887  91.227 -12.027  1.00  0.00     0.125 A 
ATOM      9  C   UNL     1      -5.177  90.083 -12.786  1.00  0.00     0.078 A 
ATOM     10  C   UNL     1      -4.954  90.082 -14.166  1.00  0.00     0.223 A 
ENDROOT
BRANCH   1  11
ATOM     11  C   UNL     1      -4.134  91.306 -16.221  1.00  0.00     0.087 A 
ATOM     12  C   UNL     1      -2.824  91.451 -16.706  1.00  0.00     0.022 A 
ATOM     13  C   UNL     1      -2.586  91.539 -18.078  1.00  0.00     0.051 A 
ATOM     14  C   UNL     1      -3.644  91.498 -18.992  1.00  0.00     0.157 A 
ATOM     15  C   UNL     1      -5.199  91.287 -17.135  1.00  0.00     0.068 A 
ATOM     16  C   UNL     1      -4.969  91.373 -18.514  1.00  0.00     0.158 A 
BRANCH  14  17
ATOM     17  O   UNL     1      -3.337  91.586 -20.351  1.00  0.00    -0.504 OA
ATOM     18  H   UNL     1      -2.987  90.816 -20.903  1.00  0.00     0.293 HD
ENDBRANCH  14  17
BRANCH  16  19
ATOM     19  O   UNL     1      -6.077  91.334 -19.363  1.00  0.00    -0.504 OA
ATOM     20  H   UNL     1      -6.447  92.140 -19.845  1.00  0.00     0.293 HD
ENDBRANCH  16  19
ENDBRANCH   1  11
BRANCH  10  21
ATOM     21  O   UNL     1      -5.288  88.963 -14.928  1.00  0.00    -0.500 OA
ATOM     22  H   UNL     1      -4.684  88.149 -14.973  1.00  0.00     0.294 HD
ENDBRANCH  10  21
BRANCH   5  23
ATOM     23  O   UNL     1      -3.988  94.770  -9.937  1.00  0.00    -0.507 OA
ATOM     24  H   UNL     1      -4.702  95.278  -9.431  1.00  0.00     0.293 HD
ENDBRANCH   5  23
BRANCH   7  25
ATOM     25  O   UNL     1      -5.587  90.244  -9.863  1.00  0.00    -0.507 OA
ATOM     26  H   UNL     1      -5.228  89.973  -8.959  1.00  0.00     0.293 HD
ENDBRANCH   7  25
TORSDOF 6
ENDMDL
MODEL 5
REMARK VINA RESULT:    -5.402      8.740      9.548
REMARK INTER + INTRA:          -6.781
REMARK INTER:                  -6.567
REMARK INTRA:                  -0.214
REMARK UNBOUND:                -0.274
REMARK SMILES Oc1cc(O)c2cc(O)c(-c3ccc(O)c(O)c3)[o+]c2c1
REMARK SMILES IDX 10 1 19 2 20 3 21 4 2 5 3 6 4 7 6 8 7 9 8 10 11 11 12 12
REMARK SMILES IDX 13 13 14 14 18 15 16 16 15 17 17 19 9 21 1 23 5 25
REMARK H PARENT 15 18 17 20 9 22 1 24 5 26
REMARK Flexibility Score: inf
ROOT
ATOM      1  C   UNL     1      -8.803  83.422  -8.365  1.00  0.00     0.402 A 
ATOM      2  O   UNL     1      -7.853  83.119  -9.246  1.00  0.00    -0.202 OA
ATOM      3  C   UNL     1      -6.559  83.097  -8.945  1.00  0.00     0.368 A 
ATOM      4  C   UNL     1      -5.636  82.763  -9.939  1.00  0.00     0.162 A 
ATOM      5  C   UNL     1      -4.268  82.729  -9.649  1.00  0.00     0.128 A 
ATOM      6  C   UNL     1      -3.824  83.029  -8.360  1.00  0.00     0.093 A 
ATOM      7  C   UNL     1      -4.729  83.366  -7.346  1.00  0.00     0.136 A 
ATOM      8  C   UNL     1      -6.118  83.405  -7.636  1.00  0.00     0.125 A 
ATOM      9  C   UNL     1      -7.095  83.745  -6.687  1.00  0.00     0.078 A 
ATOM     10  C   UNL     1      -8.446  83.766  -7.048  1.00  0.00     0.223 A 
ENDROOT
BRANCH   1  11
ATOM     11  C   UNL     1     -10.212  83.402  -8.820  1.00  0.00     0.087 A 
ATOM     12  C   UNL     1     -10.973  84.580  -8.896  1.00  0.00     0.022 A 
ATOM     13  C   UNL     1     -12.307  84.532  -9.306  1.00  0.00     0.051 A 
ATOM     14  C   UNL     1     -12.910  83.314  -9.634  1.00  0.00     0.157 A 
ATOM     15  C   UNL     1     -10.822  82.177  -9.128  1.00  0.00     0.068 A 
ATOM     16  C   UNL     1     -12.159  82.119  -9.541  1.00  0.00     0.158 A 
BRANCH  14  17
ATOM     17  O   UNL     1     -14.246  83.335 -10.042  1.00  0.00    -0.504 OA
ATOM     18  H   UNL     1     -14.883  84.095  -9.851  1.00  0.00     0.293 HD
ENDBRANCH  14  17
BRANCH  16  19
ATOM     19  O   UNL     1     -12.694  80.865  -9.844  1.00  0.00    -0.504 OA
ATOM     20  H   UNL     1     -12.666  80.074  -9.217  1.00  0.00     0.293 HD
ENDBRANCH  16  19
ENDBRANCH   1  11
BRANCH  10  21
ATOM     21  O   UNL     1      -9.412  84.151  -6.120  1.00  0.00    -0.500 OA
ATOM     22  H   UNL     1     -10.392  84.228  -6.371  1.00  0.00     0.294 HD
ENDBRANCH  10  21
BRANCH   5  23
ATOM     23  O   UNL     1      -3.342  82.397 -10.636  1.00  0.00    -0.507 OA
ATOM     24  H   UNL     1      -3.443  82.724 -11.589  1.00  0.00     0.293 HD
ENDBRANCH   5  23
BRANCH   7  25
ATOM     25  O   UNL     1      -4.203  83.650  -6.082  1.00  0.00    -0.507 OA
ATOM     26  H   UNL     1      -4.484  84.433  -5.509  1.00  0.00     0.293 HD
ENDBRANCH   7  25
TORSDOF 6
ENDMDL
MODEL 6
REMARK VINA RESULT:    -5.320      2.809      4.429
REMARK INTER + INTRA:          -6.682
REMARK INTER:                  -6.891
REMARK INTRA:                   0.209
REMARK UNBOUND:                -0.274
REMARK SMILES Oc1cc(O)c2cc(O)c(-c3ccc(O)c(O)c3)[o+]c2c1
REMARK SMILES IDX 10 1 19 2 20 3 21 4 2 5 3 6 4 7 6 8 7 9 8 10 11 11 12 12
REMARK SMILES IDX 13 13 14 14 18 15 16 16 15 17 17 19 9 21 1 23 5 25
REMARK H PARENT 15 18 17 20 9 22 1 24 5 26
REMARK Flexibility Score: inf
ROOT
ATOM      1  C   UNL     1      -5.262  90.460 -15.213  1.00  0.00     0.402 A 
ATOM      2  O   UNL     1      -5.911  91.027 -16.227  1.00  0.00    -0.202 OA
ATOM      3  C   UNL     1      -5.299  91.577 -17.269  1.00  0.00     0.368 A 
ATOM      4  C   UNL     1      -6.068  92.146 -18.288  1.00  0.00     0.162 A 
ATOM      5  C   UNL     1      -5.449  92.729 -19.397  1.00  0.00     0.128 A 
ATOM      6  C   UNL     1      -4.056  92.742 -19.489  1.00  0.00     0.093 A 
ATOM      7  C   UNL     1      -3.262  92.178 -18.483  1.00  0.00     0.136 A 
ATOM      8  C   UNL     1      -3.885  91.588 -17.352  1.00  0.00     0.125 A 
ATOM      9  C   UNL     1      -3.170  91.011 -16.290  1.00  0.00     0.078 A 
ATOM     10  C   UNL     1      -3.855  90.452 -15.206  1.00  0.00     0.223 A 
ENDROOT
BRANCH   1  11
ATOM     11  C   UNL     1      -6.059  89.871 -14.113  1.00  0.00     0.087 A 
ATOM     12  C   UNL     1      -5.586  89.861 -12.791  1.00  0.00     0.022 A 
ATOM     13  C   UNL     1      -6.345  89.279 -11.774  1.00  0.00     0.051 A 
ATOM     14  C   UNL     1      -7.580  88.686 -12.055  1.00  0.00     0.157 A 
ATOM     15  C   UNL     1      -7.288  89.258 -14.400  1.00  0.00     0.068 A 
ATOM     16  C   UNL     1      -8.057  88.673 -13.387  1.00  0.00     0.158 A 
BRANCH  14  17
ATOM     17  O   UNL     1      -8.293  88.126 -10.993  1.00  0.00    -0.504 OA
ATOM     18  H   UNL     1      -9.207  88.438 -10.699  1.00  0.00     0.293 HD
ENDBRANCH  14  17
BRANCH  16  19
ATOM     19  O   UNL     1      -9.276  88.093 -13.746  1.00  0.00    -0.504 OA
ATOM     20  H   UNL     1      -9.448  87.647 -14.635  1.00  0.00     0.293 HD
ENDBRANCH  16  19
ENDBRANCH   1  11
BRANCH  10  21
ATOM     21  O   UNL     1      -3.145  89.924 -14.129  1.00  0.00    -0.500 OA
ATOM     22  H   UNL     1      -2.929  88.935 -14.066  1.00  0.00     0.294 HD
ENDBRANCH  10  21
BRANCH   5  23
ATOM     23  O   UNL     1      -6.210  93.298 -20.416  1.00  0.00    -0.507 OA
ATOM     24  H   UNL     1      -6.202  94.296 -20.590  1.00  0.00     0.293 HD
ENDBRANCH   5  23
BRANCH   7  25
ATOM     25  O   UNL     1      -1.875  92.229 -18.652  1.00  0.00    -0.507 OA
ATOM     26  H   UNL     1      -1.205  92.140 -17.902  1.00  0.00     0.293 HD
ENDBRANCH   7  25
TORSDOF 6
ENDMDL
MODEL 7
REMARK VINA RESULT:    -5.295      7.738     10.761
REMARK INTER + INTRA:          -6.653
REMARK INTER:                  -6.300
REMARK INTRA:                  -0.353
REMARK UNBOUND:                -0.274
REMARK SMILES Oc1cc(O)c2cc(O)c(-c3ccc(O)c(O)c3)[o+]c2c1
REMARK SMILES IDX 10 1 19 2 20 3 21 4 2 5 3 6 4 7 6 8 7 9 8 10 11 11 12 12
REMARK SMILES IDX 13 13 14 14 18 15 16 16 15 17 17 19 9 21 1 23 5 25
REMARK H PARENT 15 18 17 20 9 22 1 24 5 26
REMARK Flexibility Score: inf
ROOT
ATOM      1  C   UNL     1      -9.489  83.560  -8.797  1.00  0.00     0.402 A 
ATOM      2  O   UNL     1      -9.949  84.796  -8.976  1.00  0.00    -0.202 OA
ATOM      3  C   UNL     1     -11.225  85.071  -9.223  1.00  0.00     0.368 A 
ATOM      4  C   UNL     1     -11.613  86.403  -9.393  1.00  0.00     0.162 A 
ATOM      5  C   UNL     1     -12.950  86.721  -9.651  1.00  0.00     0.128 A 
ATOM      6  C   UNL     1     -13.902  85.703  -9.736  1.00  0.00     0.093 A 
ATOM      7  C   UNL     1     -13.540  84.361  -9.569  1.00  0.00     0.136 A 
ATOM      8  C   UNL     1     -12.183  84.032  -9.311  1.00  0.00     0.125 A 
ATOM      9  C   UNL     1     -11.727  82.715  -9.142  1.00  0.00     0.078 A 
ATOM     10  C   UNL     1     -10.373  82.469  -8.894  1.00  0.00     0.223 A 
ENDROOT
BRANCH   1  11
ATOM     11  C   UNL     1      -8.046  83.383  -8.518  1.00  0.00     0.087 A 
ATOM     12  C   UNL     1      -7.549  83.383  -7.205  1.00  0.00     0.022 A 
ATOM     13  C   UNL     1      -6.181  83.238  -6.969  1.00  0.00     0.051 A 
ATOM     14  C   UNL     1      -5.282  83.103  -8.032  1.00  0.00     0.157 A 
ATOM     15  C   UNL     1      -7.144  83.270  -9.587  1.00  0.00     0.068 A 
ATOM     16  C   UNL     1      -5.770  83.122  -9.360  1.00  0.00     0.158 A 
BRANCH  14  17
ATOM     17  O   UNL     1      -3.927  82.956  -7.728  1.00  0.00    -0.504 OA
ATOM     18  H   UNL     1      -3.180  83.384  -8.254  1.00  0.00     0.293 HD
ENDBRANCH  14  17
BRANCH  16  19
ATOM     19  O   UNL     1      -4.935  83.002 -10.472  1.00  0.00    -0.504 OA
ATOM     20  H   UNL     1      -4.826  83.717 -11.177  1.00  0.00     0.293 HD
ENDBRANCH  16  19
ENDBRANCH   1  11
BRANCH  10  21
ATOM     21  O   UNL     1      -9.911  81.159  -8.776  1.00  0.00    -0.500 OA
ATOM     22  H   UNL     1     -10.492  80.421  -8.392  1.00  0.00     0.294 HD
ENDBRANCH  10  21
BRANCH   5  23
ATOM     23  O   UNL     1     -13.343  88.047  -9.823  1.00  0.00    -0.507 OA
ATOM     24  H   UNL     1     -13.655  88.612  -9.043  1.00  0.00     0.293 HD
ENDBRANCH   5  23
BRANCH   7  25
ATOM     25  O   UNL     1     -14.554  83.404  -9.667  1.00  0.00    -0.507 OA
ATOM     26  H   UNL     1     -14.459  82.519 -10.143  1.00  0.00     0.293 HD
ENDBRANCH   7  25
TORSDOF 6
ENDMDL
MODEL 8
REMARK VINA RESULT:    -5.105      3.569      6.508
REMARK INTER + INTRA:          -6.423
REMARK INTER:                  -6.094
REMARK INTRA:                  -0.329
REMARK UNBOUND:                -0.274
REMARK SMILES Oc1cc(O)c2cc(O)c(-c3ccc(O)c(O)c3)[o+]c2c1
REMARK SMILES IDX 10 1 19 2 20 3 21 4 2 5 3 6 4 7 6 8 7 9 8 10 11 11 12 12
REMARK SMILES IDX 13 13 14 14 18 15 16 16 15 17 17 19 9 21 1 23 5 25
REMARK H PARENT 15 18 17 20 9 22 1 24 5 26
REMARK Flexibility Score: inf
ROOT
ATOM      1  C   UNL     1      -5.583  91.318 -14.524  1.00  0.00     0.402 A 
ATOM      2  O   UNL     1      -6.239  90.250 -14.078  1.00  0.00    -0.202 OA
ATOM      3  C   UNL     1      -6.264  89.891 -12.799  1.00  0.00     0.368 A 
ATOM      4  C   UNL     1      -6.985  88.753 -12.426  1.00  0.00     0.162 A 
ATOM      5  C   UNL     1      -7.030  88.354 -11.087  1.00  0.00     0.128 A 
ATOM      6  C   UNL     1      -6.352  89.097 -10.117  1.00  0.00     0.093 A 
ATOM      7  C   UNL     1      -5.623  90.240 -10.465  1.00  0.00     0.136 A 
ATOM      8  C   UNL     1      -5.571  90.648 -11.824  1.00  0.00     0.125 A 
ATOM      9  C   UNL     1      -4.856  91.772 -12.265  1.00  0.00     0.078 A 
ATOM     10  C   UNL     1      -4.848  92.110 -13.623  1.00  0.00     0.223 A 
ENDROOT
BRANCH   1  11
ATOM     11  C   UNL     1      -5.640  91.620 -15.973  1.00  0.00     0.087 A 
ATOM     12  C   UNL     1      -6.734  92.296 -16.537  1.00  0.00     0.022 A 
ATOM     13  C   UNL     1      -6.776  92.549 -17.909  1.00  0.00     0.051 A 
ATOM     14  C   UNL     1      -5.739  92.124 -18.746  1.00  0.00     0.157 A 
ATOM     15  C   UNL     1      -4.609  91.174 -16.814  1.00  0.00     0.068 A 
ATOM     16  C   UNL     1      -4.642  91.424 -18.191  1.00  0.00     0.158 A 
BRANCH  14  17
ATOM     17  O   UNL     1      -5.839  92.413 -20.108  1.00  0.00    -0.504 OA
ATOM     18  H   UNL     1      -6.099  91.737 -20.812  1.00  0.00     0.293 HD
ENDBRANCH  14  17
BRANCH  16  19
ATOM     19  O   UNL     1      -3.574  90.961 -18.963  1.00  0.00    -0.504 OA
ATOM     20  H   UNL     1      -3.597  90.883 -19.969  1.00  0.00     0.293 HD
ENDBRANCH  16  19
ENDBRANCH   1  11
BRANCH  10  21
ATOM     21  O   UNL     1      -4.098  93.197 -14.069  1.00  0.00    -0.500 OA
ATOM     22  H   UNL     1      -4.242  94.131 -13.702  1.00  0.00     0.294 HD
ENDBRANCH  10  21
BRANCH   5  23
ATOM     23  O   UNL     1      -7.746  87.221 -10.708  1.00  0.00    -0.507 OA
ATOM     24  H   UNL     1      -8.030  86.523 -11.385  1.00  0.00     0.293 HD
ENDBRANCH   5  23
BRANCH   7  25
ATOM     25  O   UNL     1      -4.976  90.929  -9.434  1.00  0.00    -0.507 OA
ATOM     26  H   UNL     1      -4.820  90.557  -8.509  1.00  0.00     0.293 HD
ENDBRANCH   7  25
TORSDOF 6
ENDMDL
MODEL 9
REMARK VINA RESULT:    -5.102      6.954      8.863
REMARK INTER + INTRA:          -6.420
REMARK INTER:                  -6.087
REMARK INTRA:                  -0.332
REMARK UNBOUND:                -0.274
REMARK SMILES Oc1cc(O)c2cc(O)c(-c3ccc(O)c(O)c3)[o+]c2c1
REMARK SMILES IDX 10 1 19 2 20 3 21 4 2 5 3 6 4 7 6 8 7 9 8 10 11 11 12 12
REMARK SMILES IDX 13 13 14 14 18 15 16 16 15 17 17 19 9 21 1 23 5 25
REMARK H PARENT 15 18 17 20 9 22 1 24 5 26
REMARK Flexibility Score: inf
ROOT
ATOM      1  C   UNL     1      -4.427  87.781  -7.987  1.00  0.00     0.402 A 
ATOM      2  O   UNL     1      -5.016  86.827  -8.704  1.00  0.00    -0.202 OA
ATOM      3  C   UNL     1      -4.584  85.572  -8.743  1.00  0.00     0.368 A 
ATOM      4  C   UNL     1      -5.273  84.639  -9.524  1.00  0.00     0.162 A 
ATOM      5  C   UNL     1      -4.840  83.311  -9.581  1.00  0.00     0.128 A 
ATOM      6  C   UNL     1      -3.716  82.914  -8.854  1.00  0.00     0.093 A 
ATOM      7  C   UNL     1      -3.009  83.828  -8.065  1.00  0.00     0.136 A 
ATOM      8  C   UNL     1      -3.441  85.179  -8.005  1.00  0.00     0.125 A 
ATOM      9  C   UNL     1      -2.787  86.166  -7.251  1.00  0.00     0.078 A 
ATOM     10  C   UNL     1      -3.270  87.479  -7.245  1.00  0.00     0.223 A 
ENDROOT
BRANCH   1  11
ATOM     11  C   UNL     1      -5.011  89.141  -8.017  1.00  0.00     0.087 A 
ATOM     12  C   UNL     1      -4.507  90.136  -8.870  1.00  0.00     0.022 A 
ATOM     13  C   UNL     1      -5.059  91.418  -8.863  1.00  0.00     0.051 A 
ATOM     14  C   UNL     1      -6.113  91.737  -8.001  1.00  0.00     0.157 A 
ATOM     15  C   UNL     1      -6.054  89.465  -7.136  1.00  0.00     0.068 A 
ATOM     16  C   UNL     1      -6.616  90.748  -7.123  1.00  0.00     0.158 A 
BRANCH  14  17
ATOM     17  O   UNL     1      -6.625  93.035  -8.047  1.00  0.00    -0.504 OA
ATOM     18  H   UNL     1      -7.579  93.275  -7.822  1.00  0.00     0.293 HD
ENDBRANCH  14  17
BRANCH  16  19
ATOM     19  O   UNL     1      -7.659  90.994  -6.228  1.00  0.00    -0.504 OA
ATOM     20  H   UNL     1      -8.177  90.269  -5.753  1.00  0.00     0.293 HD
ENDBRANCH  16  19
ENDBRANCH   1  11
BRANCH  10  21
ATOM     21  O   UNL     1      -2.592  88.470  -6.537  1.00  0.00    -0.500 OA
ATOM     22  H   UNL     1      -1.600  88.633  -6.665  1.00  0.00     0.294 HD
ENDBRANCH  10  21
BRANCH   5  23
ATOM     23  O   UNL     1      -5.522  82.376 -10.358  1.00  0.00    -0.507 OA
ATOM     24  H   UNL     1      -6.032  81.609  -9.937  1.00  0.00     0.293 HD
ENDBRANCH   5  23
BRANCH   7  25
ATOM     25  O   UNL     1      -1.896  83.350  -7.366  1.00  0.00    -0.507 OA
ATOM     26  H   UNL     1      -1.160  83.934  -6.996  1.00  0.00     0.293 HD
ENDBRANCH   7  25
TORSDOF 6
ENDMDL
