MODEL 1
REMARK VINA RESULT:    -4.356      0.000      0.000
REMARK INTER + INTRA:          -4.356
REMARK INTER:                  -4.356
REMARK INTRA:                   0.000
REMARK UNBOUND:                 0.000
REMARK SMILES CC1=CC[C@@H]2C[C@H]1C2(C)C
REMARK SMILES IDX 1 1 2 2 3 3 4 4 5 5 6 6 7 7 8 8 9 9 10 10
REMARK H PARENT
REMARK Flexibility Score: inf
ROOT
ATOM      1  C   UNL     1      59.126  44.694  40.392  1.00  0.00     0.039 C 
ATOM      2  C   UNL     1      58.443  44.497  41.711  1.00  0.00    -0.074 C 
ATOM      3  C   UNL     1      58.746  45.272  42.793  1.00  0.00    -0.027 C 
ATOM      4  C   UNL     1      57.986  45.034  44.113  1.00  0.00     0.031 C 
ATOM      5  C   UNL     1      56.979  43.845  43.946  1.00  0.00    -0.000 C 
ATOM      6  C   UNL     1      57.771  42.722  43.247  1.00  0.00     0.013 C 
ATOM      7  C   UNL     1      57.384  43.404  41.920  1.00  0.00     0.021 C 
ATOM      8  C   UNL     1      56.153  44.014  42.641  1.00  0.00    -0.026 C 
ATOM      9  C   UNL     1      54.923  43.073  42.602  1.00  0.00     0.012 C 
ATOM     10  C   UNL     1      55.690  45.440  42.233  1.00  0.00     0.012 C 
ENDROOT
TORSDOF 0
ENDMDL
MODEL 2
REMARK VINA RESULT:    -4.241      1.063      3.366
REMARK INTER + INTRA:          -4.241
REMARK INTER:                  -4.241
REMARK INTRA:                   0.000
REMARK UNBOUND:                 0.000
REMARK SMILES CC1=CC[C@@H]2C[C@H]1C2(C)C
REMARK SMILES IDX 1 1 2 2 3 3 4 4 5 5 6 6 7 7 8 8 9 9 10 10
REMARK H PARENT
REMARK Flexibility Score: inf
ROOT
ATOM      1  C   UNL     1      55.398  43.003  42.267  1.00  0.00     0.039 C 
ATOM      2  C   UNL     1      56.752  43.596  42.514  1.00  0.00    -0.074 C 
ATOM      3  C   UNL     1      57.455  43.317  43.650  1.00  0.00    -0.027 C 
ATOM      4  C   UNL     1      58.855  43.938  43.829  1.00  0.00     0.031 C 
ATOM      5  C   UNL     1      59.194  44.858  42.606  1.00  0.00    -0.000 C 
ATOM      6  C   UNL     1      57.940  45.724  42.374  1.00  0.00     0.013 C 
ATOM      7  C   UNL     1      57.409  44.560  41.515  1.00  0.00     0.021 C 
ATOM      8  C   UNL     1      58.879  44.125  41.273  1.00  0.00    -0.026 C 
ATOM      9  C   UNL     1      59.509  44.837  40.050  1.00  0.00     0.012 C 
ATOM     10  C   UNL     1      59.191  42.606  41.167  1.00  0.00     0.012 C 
ENDROOT
TORSDOF 0
ENDMDL
MODEL 3
REMARK VINA RESULT:    -4.198     21.942     23.138
REMARK INTER + INTRA:          -4.198
REMARK INTER:                  -4.198
REMARK INTRA:                   0.000
REMARK UNBOUND:                 0.000
REMARK SMILES CC1=CC[C@@H]2C[C@H]1C2(C)C
REMARK SMILES IDX 1 1 2 2 3 3 4 4 5 5 6 6 7 7 8 8 9 9 10 10
REMARK H PARENT
REMARK Flexibility Score: inf
ROOT
ATOM      1  C   UNL     1      53.814  27.014  27.362  1.00  0.00     0.039 C 
ATOM      2  C   UNL     1      54.885  27.952  26.893  1.00  0.00    -0.074 C 
ATOM      3  C   UNL     1      55.523  28.794  27.756  1.00  0.00    -0.027 C 
ATOM      4  C   UNL     1      56.634  29.714  27.212  1.00  0.00     0.031 C 
ATOM      5  C   UNL     1      56.789  29.511  25.665  1.00  0.00    -0.000 C 
ATOM      6  C   UNL     1      55.357  29.535  25.095  1.00  0.00     0.013 C 
ATOM      7  C   UNL     1      55.304  28.029  25.417  1.00  0.00     0.021 C 
ATOM      8  C   UNL     1      56.853  27.997  25.321  1.00  0.00    -0.026 C 
ATOM      9  C   UNL     1      57.348  27.746  23.875  1.00  0.00     0.012 C 
ATOM     10  C   UNL     1      57.632  27.049  26.275  1.00  0.00     0.012 C 
ENDROOT
TORSDOF 0
ENDMDL
MODEL 4
REMARK VINA RESULT:    -4.184     21.810     22.854
REMARK INTER + INTRA:          -4.184
REMARK INTER:                  -4.184
REMARK INTRA:                   0.000
REMARK UNBOUND:                 0.000
REMARK SMILES CC1=CC[C@@H]2C[C@H]1C2(C)C
REMARK SMILES IDX 1 1 2 2 3 3 4 4 5 5 6 6 7 7 8 8 9 9 10 10
REMARK H PARENT
REMARK Flexibility Score: inf
ROOT
ATOM      1  C   UNL     1      57.912  26.875  24.744  1.00  0.00     0.039 C 
ATOM      2  C   UNL     1      57.086  27.983  25.323  1.00  0.00    -0.074 C 
ATOM      3  C   UNL     1      56.863  29.140  24.634  1.00  0.00    -0.027 C 
ATOM      4  C   UNL     1      55.980  30.229  25.277  1.00  0.00     0.031 C 
ATOM      5  C   UNL     1      55.520  29.772  26.705  1.00  0.00    -0.000 C 
ATOM      6  C   UNL     1      56.786  29.232  27.400  1.00  0.00     0.013 C 
ATOM      7  C   UNL     1      56.467  27.884  26.725  1.00  0.00     0.021 C 
ATOM      8  C   UNL     1      54.978  28.317  26.660  1.00  0.00    -0.026 C 
ATOM      9  C   UNL     1      54.200  27.942  27.946  1.00  0.00     0.012 C 
ATOM     10  C   UNL     1      54.133  27.875  25.433  1.00  0.00     0.012 C 
ENDROOT
TORSDOF 0
ENDMDL
MODEL 5
REMARK VINA RESULT:    -4.041     22.547     23.677
REMARK INTER + INTRA:          -4.041
REMARK INTER:                  -4.041
REMARK INTRA:                   0.000
REMARK UNBOUND:                 0.000
REMARK SMILES CC1=CC[C@@H]2C[C@H]1C2(C)C
REMARK SMILES IDX 1 1 2 2 3 3 4 4 5 5 6 6 7 7 8 8 9 9 10 10
REMARK H PARENT
REMARK Flexibility Score: inf
ROOT
ATOM      1  C   UNL     1      53.679  27.663  24.064  1.00  0.00     0.039 C 
ATOM      2  C   UNL     1      55.054  27.608  24.657  1.00  0.00    -0.074 C 
ATOM      3  C   UNL     1      56.128  27.187  23.929  1.00  0.00    -0.027 C 
ATOM      4  C   UNL     1      57.520  27.180  24.593  1.00  0.00     0.031 C 
ATOM      5  C   UNL     1      57.405  27.652  26.083  1.00  0.00    -0.000 C 
ATOM      6  C   UNL     1      56.213  26.876  26.678  1.00  0.00     0.013 C 
ATOM      7  C   UNL     1      55.322  28.001  26.118  1.00  0.00     0.021 C 
ATOM      8  C   UNL     1      56.551  28.947  26.177  1.00  0.00    -0.026 C 
ATOM      9  C   UNL     1      56.691  29.642  27.554  1.00  0.00     0.012 C 
ATOM     10  C   UNL     1      56.707  30.024  25.068  1.00  0.00     0.012 C 
ENDROOT
TORSDOF 0
ENDMDL
MODEL 6
REMARK VINA RESULT:    -3.934     21.830     23.028
REMARK INTER + INTRA:          -3.934
REMARK INTER:                  -3.934
REMARK INTRA:                   0.000
REMARK UNBOUND:                 0.000
REMARK SMILES CC1=CC[C@@H]2C[C@H]1C2(C)C
REMARK SMILES IDX 1 1 2 2 3 3 4 4 5 5 6 6 7 7 8 8 9 9 10 10
REMARK H PARENT
REMARK Flexibility Score: inf
ROOT
ATOM      1  C   UNL     1      53.301  28.121  27.580  1.00  0.00     0.039 C 
ATOM      2  C   UNL     1      54.707  28.053  27.067  1.00  0.00    -0.074 C 
ATOM      3  C   UNL     1      55.403  26.879  27.046  1.00  0.00    -0.027 C 
ATOM      4  C   UNL     1      56.837  26.875  26.480  1.00  0.00     0.031 C 
ATOM      5  C   UNL     1      57.249  28.326  26.052  1.00  0.00    -0.000 C 
ATOM      6  C   UNL     1      56.835  29.241  27.221  1.00  0.00     0.013 C 
ATOM      7  C   UNL     1      55.445  29.301  26.560  1.00  0.00     0.021 C 
ATOM      8  C   UNL     1      56.124  28.979  25.202  1.00  0.00    -0.026 C 
ATOM      9  C   UNL     1      56.610  30.255  24.470  1.00  0.00     0.012 C 
ATOM     10  C   UNL     1      55.353  28.095  24.182  1.00  0.00     0.012 C 
ENDROOT
TORSDOF 0
ENDMDL
MODEL 7
REMARK VINA RESULT:    -3.860     17.618     19.267
REMARK INTER + INTRA:          -3.860
REMARK INTER:                  -3.860
REMARK INTRA:                   0.000
REMARK UNBOUND:                 0.000
REMARK SMILES CC1=CC[C@@H]2C[C@H]1C2(C)C
REMARK SMILES IDX 1 1 2 2 3 3 4 4 5 5 6 6 7 7 8 8 9 9 10 10
REMARK H PARENT
REMARK Flexibility Score: inf
ROOT
ATOM      1  C   UNL     1      47.974  30.344  30.271  1.00  0.00     0.039 C 
ATOM      2  C   UNL     1      48.896  31.525  30.244  1.00  0.00    -0.074 C 
ATOM      3  C   UNL     1      49.998  31.587  31.047  1.00  0.00    -0.027 C 
ATOM      4  C   UNL     1      50.921  32.819  30.949  1.00  0.00     0.031 C 
ATOM      5  C   UNL     1      50.346  33.838  29.906  1.00  0.00    -0.000 C 
ATOM      6  C   UNL     1      48.844  33.966  30.230  1.00  0.00     0.013 C 
ATOM      7  C   UNL     1      48.640  32.732  29.330  1.00  0.00     0.021 C 
ATOM      8  C   UNL     1      49.954  33.105  28.592  1.00  0.00    -0.026 C 
ATOM      9  C   UNL     1      49.712  34.091  27.422  1.00  0.00     0.012 C 
ATOM     10  C   UNL     1      50.866  31.956  28.081  1.00  0.00     0.012 C 
ENDROOT
TORSDOF 0
ENDMDL
MODEL 8
REMARK VINA RESULT:    -3.826     22.071     23.252
REMARK INTER + INTRA:          -3.826
REMARK INTER:                  -3.826
REMARK INTRA:                   0.000
REMARK UNBOUND:                 0.000
REMARK SMILES CC1=CC[C@@H]2C[C@H]1C2(C)C
REMARK SMILES IDX 1 1 2 2 3 3 4 4 5 5 6 6 7 7 8 8 9 9 10 10
REMARK H PARENT
REMARK Flexibility Score: inf
ROOT
ATOM      1  C   UNL     1      53.039  28.938  26.357  1.00  0.00     0.039 C 
ATOM      2  C   UNL     1      54.395  29.033  25.728  1.00  0.00    -0.074 C 
ATOM      3  C   UNL     1      54.885  30.220  25.265  1.00  0.00    -0.027 C 
ATOM      4  C   UNL     1      56.300  30.253  24.654  1.00  0.00     0.031 C 
ATOM      5  C   UNL     1      56.917  28.812  24.651  1.00  0.00    -0.000 C 
ATOM      6  C   UNL     1      55.812  27.885  24.104  1.00  0.00     0.013 C 
ATOM      7  C   UNL     1      55.295  27.801  25.553  1.00  0.00     0.021 C 
ATOM      8  C   UNL     1      56.730  28.140  26.040  1.00  0.00    -0.026 C 
ATOM      9  C   UNL     1      57.610  26.875  26.201  1.00  0.00     0.012 C 
ATOM     10  C   UNL     1      56.890  29.012  27.316  1.00  0.00     0.012 C 
ENDROOT
TORSDOF 0
ENDMDL
MODEL 9
REMARK VINA RESULT:    -3.789     22.182     23.285
REMARK INTER + INTRA:          -3.789
REMARK INTER:                  -3.789
REMARK INTRA:                   0.000
REMARK UNBOUND:                 0.000
REMARK SMILES CC1=CC[C@@H]2C[C@H]1C2(C)C
REMARK SMILES IDX 1 1 2 2 3 3 4 4 5 5 6 6 7 7 8 8 9 9 10 10
REMARK H PARENT
REMARK Flexibility Score: inf
ROOT
ATOM      1  C   UNL     1      56.930  29.845  27.999  1.00  0.00     0.039 C 
ATOM      2  C   UNL     1      56.773  28.996  26.775  1.00  0.00    -0.074 C 
ATOM      3  C   UNL     1      57.327  27.751  26.696  1.00  0.00    -0.027 C 
ATOM      4  C   UNL     1      57.104  26.918  25.417  1.00  0.00     0.031 C 
ATOM      5  C   UNL     1      56.263  27.741  24.381  1.00  0.00    -0.000 C 
ATOM      6  C   UNL     1      56.904  29.143  24.341  1.00  0.00     0.013 C 
ATOM      7  C   UNL     1      56.001  29.487  25.542  1.00  0.00     0.021 C 
ATOM      8  C   UNL     1      55.024  28.376  25.072  1.00  0.00    -0.026 C 
ATOM      9  C   UNL     1      53.987  28.899  24.047  1.00  0.00     0.012 C 
ATOM     10  C   UNL     1      54.270  27.551  26.151  1.00  0.00     0.012 C 
ENDROOT
TORSDOF 0
ENDMDL
