MODEL 1
REMARK VINA RESULT:    -3.134      0.000      0.000
REMARK INTER + INTRA:          -3.706
REMARK INTER:                  -3.683
REMARK INTRA:                  -0.023
REMARK UNBOUND:                -0.023
REMARK SMILES CCCCC(=O)[O-]
REMARK SMILES IDX 4 1 5 2 6 3 7 4 3 5 2 6 1 7
REMARK H PARENT
REMARK Flexibility Score: inf
ROOT
ATOM      1  C   UNL     1     -43.757 -28.251  -0.020  1.00  0.00     0.053 C 
ENDROOT
BRANCH   1   2
ATOM      2  C   UNL     1     -44.869 -27.247   0.013  1.00  0.00     0.041 C 
ATOM      3  O   UNL     1     -45.793 -27.297  -0.841  1.00  0.00    -0.550 OA
ATOM      4  O   UNL     1     -44.866 -26.236   0.966  1.00  0.00    -0.550 OA
ENDBRANCH   1   2
BRANCH   1   5
ATOM      5  C   UNL     1     -42.480 -27.675  -0.652  1.00  0.00     0.006 C 
BRANCH   5   6
ATOM      6  C   UNL     1     -41.179 -28.326  -0.148  1.00  0.00    -0.003 C 
ATOM      7  C   UNL     1     -41.311 -29.835   0.056  1.00  0.00     0.004 C 
ENDBRANCH   5   6
ENDBRANCH   1   5
TORSDOF 3
ENDMDL
MODEL 2
REMARK VINA RESULT:    -3.075      1.474      1.982
REMARK INTER + INTRA:          -3.638
REMARK INTER:                  -3.619
REMARK INTRA:                  -0.018
REMARK UNBOUND:                -0.023
REMARK SMILES CCCCC(=O)[O-]
REMARK SMILES IDX 4 1 5 2 6 3 7 4 3 5 2 6 1 7
REMARK H PARENT
REMARK Flexibility Score: inf
ROOT
ATOM      1  C   UNL     1     -45.078 -27.551   0.556  1.00  0.00     0.053 C 
ENDROOT
BRANCH   1   2
ATOM      2  C   UNL     1     -45.582 -26.485   1.480  1.00  0.00     0.041 C 
ATOM      3  O   UNL     1     -45.286 -25.278   1.276  1.00  0.00    -0.550 OA
ATOM      4  O   UNL     1     -46.350 -26.829   2.586  1.00  0.00    -0.550 OA
ENDBRANCH   1   2
BRANCH   1   5
ATOM      5  C   UNL     1     -43.685 -27.220  -0.000  1.00  0.00     0.006 C 
BRANCH   5   6
ATOM      6  C   UNL     1     -42.820 -28.456  -0.308  1.00  0.00    -0.003 C 
ATOM      7  C   UNL     1     -41.321 -28.167  -0.230  1.00  0.00     0.004 C 
ENDBRANCH   5   6
ENDBRANCH   1   5
TORSDOF 3
ENDMDL
MODEL 3
REMARK VINA RESULT:    -2.903     22.592     23.376
REMARK INTER + INTRA:          -3.434
REMARK INTER:                  -3.390
REMARK INTRA:                  -0.045
REMARK UNBOUND:                -0.023
REMARK SMILES CCCCC(=O)[O-]
REMARK SMILES IDX 4 1 5 2 6 3 7 4 3 5 2 6 1 7
REMARK H PARENT
REMARK Flexibility Score: inf
ROOT
ATOM      1  C   UNL     1     -29.034 -10.369  -7.852  1.00  0.00     0.053 C 
ENDROOT
BRANCH   1   2
ATOM      2  C   UNL     1     -28.219 -11.281  -6.986  1.00  0.00     0.041 C 
ATOM      3  O   UNL     1     -28.502 -12.505  -6.913  1.00  0.00    -0.550 OA
ATOM      4  O   UNL     1     -27.168 -10.771  -6.235  1.00  0.00    -0.550 OA
ENDBRANCH   1   2
BRANCH   1   5
ATOM      5  C   UNL     1     -30.068 -11.140  -8.688  1.00  0.00     0.006 C 
BRANCH   5   6
ATOM      6  C   UNL     1     -31.530 -10.783  -8.367  1.00  0.00    -0.003 C 
ATOM      7  C   UNL     1     -32.463 -10.965  -9.564  1.00  0.00     0.004 C 
ENDBRANCH   5   6
ENDBRANCH   1   5
TORSDOF 3
ENDMDL
MODEL 4
REMARK VINA RESULT:    -2.860      3.822      5.140
REMARK INTER + INTRA:          -3.384
REMARK INTER:                  -3.368
REMARK INTRA:                  -0.016
REMARK UNBOUND:                -0.023
REMARK SMILES CCCCC(=O)[O-]
REMARK SMILES IDX 4 1 5 2 6 3 7 4 3 5 2 6 1 7
REMARK H PARENT
REMARK Flexibility Score: inf
ROOT
ATOM      1  C   UNL     1     -46.060 -27.290   2.541  1.00  0.00     0.053 C 
ENDROOT
BRANCH   1   2
ATOM      2  C   UNL     1     -45.746 -26.252   1.507  1.00  0.00     0.041 C 
ATOM      3  O   UNL     1     -46.537 -25.291   1.314  1.00  0.00    -0.550 OA
ATOM      4  O   UNL     1     -44.598 -26.365   0.734  1.00  0.00    -0.550 OA
ENDBRANCH   1   2
BRANCH   1   5
ATOM      5  C   UNL     1     -46.455 -26.662   3.887  1.00  0.00     0.006 C 
BRANCH   5   6
ATOM      6  C   UNL     1     -46.039 -27.492   5.114  1.00  0.00    -0.003 C 
ATOM      7  C   UNL     1     -45.740 -26.631   6.341  1.00  0.00     0.004 C 
ENDBRANCH   5   6
ENDBRANCH   1   5
TORSDOF 3
ENDMDL
MODEL 5
REMARK VINA RESULT:    -2.702      2.249      3.834
REMARK INTER + INTRA:          -3.198
REMARK INTER:                  -3.147
REMARK INTRA:                  -0.051
REMARK UNBOUND:                -0.023
REMARK SMILES CCCCC(=O)[O-]
REMARK SMILES IDX 4 1 5 2 6 3 7 4 3 5 2 6 1 7
REMARK H PARENT
REMARK Flexibility Score: inf
ROOT
ATOM      1  C   UNL     1     -44.437 -28.069   0.360  1.00  0.00     0.053 C 
ENDROOT
BRANCH   1   2
ATOM      2  C   UNL     1     -43.321 -27.510  -0.469  1.00  0.00     0.041 C 
ATOM      3  O   UNL     1     -43.565 -26.681  -1.384  1.00  0.00    -0.550 OA
ATOM      4  O   UNL     1     -42.015 -27.931  -0.251  1.00  0.00    -0.550 OA
ENDBRANCH   1   2
BRANCH   1   5
ATOM      5  C   UNL     1     -45.620 -27.094   0.466  1.00  0.00     0.006 C 
BRANCH   5   6
ATOM      6  C   UNL     1     -45.535 -26.131   1.664  1.00  0.00    -0.003 C 
ATOM      7  C   UNL     1     -46.278 -26.648   2.896  1.00  0.00     0.004 C 
ENDBRANCH   5   6
ENDBRANCH   1   5
TORSDOF 3
ENDMDL
MODEL 6
REMARK VINA RESULT:    -2.647      5.040      6.364
REMARK INTER + INTRA:          -3.134
REMARK INTER:                  -3.116
REMARK INTRA:                  -0.018
REMARK UNBOUND:                -0.023
REMARK SMILES CCCCC(=O)[O-]
REMARK SMILES IDX 4 1 5 2 6 3 7 4 3 5 2 6 1 7
REMARK H PARENT
REMARK Flexibility Score: inf
ROOT
ATOM      1  C   UNL     1     -46.641 -26.561   5.093  1.00  0.00     0.053 C 
ENDROOT
BRANCH   1   2
ATOM      2  C   UNL     1     -45.724 -27.041   6.177  1.00  0.00     0.041 C 
ATOM      3  O   UNL     1     -45.336 -26.248   7.075  1.00  0.00    -0.550 OA
ATOM      4  O   UNL     1     -45.272 -28.354   6.175  1.00  0.00    -0.550 OA
ENDBRANCH   1   2
BRANCH   1   5
ATOM      5  C   UNL     1     -46.398 -27.296   3.766  1.00  0.00     0.006 C 
BRANCH   5   6
ATOM      6  C   UNL     1     -46.776 -26.480   2.516  1.00  0.00    -0.003 C 
ATOM      7  C   UNL     1     -45.563 -26.078   1.680  1.00  0.00     0.004 C 
ENDBRANCH   5   6
ENDBRANCH   1   5
TORSDOF 3
ENDMDL
MODEL 7
REMARK VINA RESULT:    -2.614      3.035      4.490
REMARK INTER + INTRA:          -3.096
REMARK INTER:                  -2.989
REMARK INTRA:                  -0.106
REMARK UNBOUND:                -0.023
REMARK SMILES CCCCC(=O)[O-]
REMARK SMILES IDX 4 1 5 2 6 3 7 4 3 5 2 6 1 7
REMARK H PARENT
REMARK Flexibility Score: inf
ROOT
ATOM      1  C   UNL     1     -45.547 -26.038   1.743  1.00  0.00     0.053 C 
ENDROOT
BRANCH   1   2
ATOM      2  C   UNL     1     -44.958 -27.070   0.830  1.00  0.00     0.041 C 
ATOM      3  O   UNL     1     -45.283 -28.280   0.950  1.00  0.00    -0.550 OA
ATOM      4  O   UNL     1     -44.026 -26.698  -0.130  1.00  0.00    -0.550 OA
ENDBRANCH   1   2
BRANCH   1   5
ATOM      5  C   UNL     1     -46.693 -26.608   2.594  1.00  0.00     0.006 C 
BRANCH   5   6
ATOM      6  C   UNL     1     -46.362 -26.731   4.093  1.00  0.00    -0.003 C 
ATOM      7  C   UNL     1     -46.114 -28.174   4.530  1.00  0.00     0.004 C 
ENDBRANCH   5   6
ENDBRANCH   1   5
TORSDOF 3
ENDMDL
MODEL 8
REMARK VINA RESULT:    -2.613      5.973      6.452
REMARK INTER + INTRA:          -3.095
REMARK INTER:                  -3.079
REMARK INTRA:                  -0.015
REMARK UNBOUND:                -0.023
REMARK SMILES CCCCC(=O)[O-]
REMARK SMILES IDX 4 1 5 2 6 3 7 4 3 5 2 6 1 7
REMARK H PARENT
REMARK Flexibility Score: inf
ROOT
ATOM      1  C   UNL     1     -45.229 -28.253  -6.053  1.00  0.00     0.053 C 
ENDROOT
BRANCH   1   2
ATOM      2  C   UNL     1     -45.882 -27.461  -4.962  1.00  0.00     0.041 C 
ATOM      3  O   UNL     1     -47.073 -27.071  -5.089  1.00  0.00    -0.550 OA
ATOM      4  O   UNL     1     -45.166 -27.125  -3.820  1.00  0.00    -0.550 OA
ENDBRANCH   1   2
BRANCH   1   5
ATOM      5  C   UNL     1     -44.458 -27.355  -7.034  1.00  0.00     0.006 C 
BRANCH   5   6
ATOM      6  C   UNL     1     -43.832 -28.112  -8.219  1.00  0.00    -0.003 C 
ATOM      7  C   UNL     1     -42.413 -28.600  -7.929  1.00  0.00     0.004 C 
ENDBRANCH   5   6
ENDBRANCH   1   5
TORSDOF 3
ENDMDL
