MODEL 1
REMARK VINA RESULT:    -4.196      0.000      0.000
REMARK INTER + INTRA:          -4.609
REMARK INTER:                  -4.564
REMARK INTRA:                  -0.045
REMARK UNBOUND:                -0.045
REMARK SMILES COc1cc2ccc(=O)oc2cc1O
REMARK SMILES IDX 3 1 13 2 12 3 11 4 5 5 4 6 6 7 7 8 8 9 9 10 10 11 2 12 1 13
REMARK SMILES IDX 14 14
REMARK H PARENT 14 15
REMARK Flexibility Score: inf
ROOT
ATOM      1  C   UNL     1      -1.501  -4.076  -9.227  1.00  0.00     0.161 A 
ATOM      2  C   UNL     1      -1.546  -5.409  -8.789  1.00  0.00     0.161 A 
ATOM      3  C   UNL     1      -0.387  -6.035  -8.309  1.00  0.00     0.098 A 
ATOM      4  C   UNL     1       0.823  -5.338  -8.261  1.00  0.00     0.142 A 
ATOM      5  C   UNL     1       0.876  -3.998  -8.699  1.00  0.00     0.022 A 
ATOM      6  C   UNL     1      -0.282  -3.371  -9.180  1.00  0.00     0.062 A 
ATOM      7  C   UNL     1       2.102  -3.325  -8.639  1.00  0.00     0.019 A 
ATOM      8  C   UNL     1       3.225  -3.993  -8.153  1.00  0.00     0.094 A 
ATOM      9  C   UNL     1       3.097  -5.322  -7.737  1.00  0.00     0.336 A 
ATOM     10  O   UNL     1       4.100  -5.942  -7.295  1.00  0.00    -0.246 OA
ATOM     11  O   UNL     1       1.919  -5.937  -7.804  1.00  0.00    -0.423 OA
ENDROOT
BRANCH   1  12
ATOM     12  O   UNL     1      -2.686  -3.489  -9.701  1.00  0.00    -0.493 OA
ATOM     13  C   UNL     1      -2.802  -2.135 -10.124  1.00  0.00     0.278 C 
ENDBRANCH   1  12
BRANCH   2  14
ATOM     14  O   UNL     1      -2.751  -6.108  -8.836  1.00  0.00    -0.504 OA
ATOM     15  H   UNL     1      -3.545  -5.837  -8.268  1.00  0.00     0.293 HD
ENDBRANCH   2  14
TORSDOF 2
ENDMDL
MODEL 2
REMARK VINA RESULT:    -3.972     15.736     16.896
REMARK INTER + INTRA:          -4.365
REMARK INTER:                  -4.318
REMARK INTRA:                  -0.047
REMARK UNBOUND:                -0.045
REMARK SMILES COc1cc2ccc(=O)oc2cc1O
REMARK SMILES IDX 3 1 13 2 12 3 11 4 5 5 4 6 6 7 7 8 8 9 9 10 10 11 2 12 1 13
REMARK SMILES IDX 14 14
REMARK H PARENT 14 15
REMARK Flexibility Score: inf
ROOT
ATOM      1  C   UNL     1     -12.052   6.479  -4.486  1.00  0.00     0.161 A 
ATOM      2  C   UNL     1     -12.088   6.999  -3.183  1.00  0.00     0.161 A 
ATOM      3  C   UNL     1     -12.110   6.136  -2.077  1.00  0.00     0.098 A 
ATOM      4  C   UNL     1     -12.095   4.752  -2.263  1.00  0.00     0.142 A 
ATOM      5  C   UNL     1     -12.059   4.221  -3.570  1.00  0.00     0.022 A 
ATOM      6  C   UNL     1     -12.037   5.083  -4.676  1.00  0.00     0.062 A 
ATOM      7  C   UNL     1     -12.044   2.831  -3.724  1.00  0.00     0.019 A 
ATOM      8  C   UNL     1     -12.067   2.017  -2.593  1.00  0.00     0.094 A 
ATOM      9  C   UNL     1     -12.104   2.613  -1.328  1.00  0.00     0.336 A 
ATOM     10  O   UNL     1     -12.125   1.895  -0.295  1.00  0.00    -0.246 OA
ATOM     11  O   UNL     1     -12.116   3.939  -1.211  1.00  0.00    -0.423 OA
ENDROOT
BRANCH   1  12
ATOM     12  O   UNL     1     -12.032   7.379  -5.564  1.00  0.00    -0.493 OA
ATOM     13  C   UNL     1     -11.467   7.098  -6.839  1.00  0.00     0.278 C 
ENDBRANCH   1  12
BRANCH   2  14
ATOM     14  O   UNL     1     -12.104   8.380  -2.993  1.00  0.00    -0.504 OA
ATOM     15  H   UNL     1     -11.251   8.927  -3.007  1.00  0.00     0.293 HD
ENDBRANCH   2  14
TORSDOF 2
ENDMDL
MODEL 3
REMARK VINA RESULT:    -3.858      4.177      6.539
REMARK INTER + INTRA:          -4.241
REMARK INTER:                  -4.196
REMARK INTRA:                  -0.045
REMARK UNBOUND:                -0.045
REMARK SMILES COc1cc2ccc(=O)oc2cc1O
REMARK SMILES IDX 3 1 13 2 12 3 11 4 5 5 4 6 6 7 7 8 8 9 9 10 10 11 2 12 1 13
REMARK SMILES IDX 14 14
REMARK H PARENT 14 15
REMARK Flexibility Score: inf
ROOT
ATOM      1  C   UNL     1       4.011  -3.533  -6.852  1.00  0.00     0.161 A 
ATOM      2  C   UNL     1       4.700  -2.372  -6.466  1.00  0.00     0.161 A 
ATOM      3  C   UNL     1       5.617  -2.413  -5.406  1.00  0.00     0.098 A 
ATOM      4  C   UNL     1       5.853  -3.609  -4.724  1.00  0.00     0.142 A 
ATOM      5  C   UNL     1       5.166  -4.780  -5.106  1.00  0.00     0.022 A 
ATOM      6  C   UNL     1       4.249  -4.741  -6.166  1.00  0.00     0.062 A 
ATOM      7  C   UNL     1       5.424  -5.963  -4.404  1.00  0.00     0.019 A 
ATOM      8  C   UNL     1       6.345  -5.951  -3.358  1.00  0.00     0.094 A 
ATOM      9  C   UNL     1       6.989  -4.751  -3.035  1.00  0.00     0.336 A 
ATOM     10  O   UNL     1       7.824  -4.720  -2.093  1.00  0.00    -0.246 OA
ATOM     11  O   UNL     1       6.725  -3.642  -3.719  1.00  0.00    -0.423 OA
ENDROOT
BRANCH   1  12
ATOM     12  O   UNL     1       3.102  -3.447  -7.919  1.00  0.00    -0.493 OA
ATOM     13  C   UNL     1       2.145  -4.448  -8.246  1.00  0.00     0.278 C 
ENDBRANCH   1  12
BRANCH   2  14
ATOM     14  O   UNL     1       4.466  -1.177  -7.144  1.00  0.00    -0.504 OA
ATOM     15  H   UNL     1       5.102  -0.836  -7.855  1.00  0.00     0.293 HD
ENDBRANCH   2  14
TORSDOF 2
ENDMDL
MODEL 4
REMARK VINA RESULT:    -3.849      8.777     11.143
REMARK INTER + INTRA:          -4.232
REMARK INTER:                  -4.180
REMARK INTRA:                  -0.051
REMARK UNBOUND:                -0.045
REMARK SMILES COc1cc2ccc(=O)oc2cc1O
REMARK SMILES IDX 3 1 13 2 12 3 11 4 5 5 4 6 6 7 7 8 8 9 9 10 10 11 2 12 1 13
REMARK SMILES IDX 14 14
REMARK H PARENT 14 15
REMARK Flexibility Score: inf
ROOT
ATOM      1  C   UNL     1       6.603   3.804  -7.148  1.00  0.00     0.161 A 
ATOM      2  C   UNL     1       6.117   5.076  -6.804  1.00  0.00     0.161 A 
ATOM      3  C   UNL     1       4.881   5.518  -7.297  1.00  0.00     0.098 A 
ATOM      4  C   UNL     1       4.121   4.697  -8.134  1.00  0.00     0.142 A 
ATOM      5  C   UNL     1       4.602   3.418  -8.484  1.00  0.00     0.022 A 
ATOM      6  C   UNL     1       5.838   2.975  -7.992  1.00  0.00     0.062 A 
ATOM      7  C   UNL     1       3.819   2.619  -9.323  1.00  0.00     0.019 A 
ATOM      8  C   UNL     1       2.597   3.105  -9.786  1.00  0.00     0.094 A 
ATOM      9  C   UNL     1       2.185   4.384  -9.398  1.00  0.00     0.336 A 
ATOM     10  O   UNL     1       1.085   4.841  -9.806  1.00  0.00    -0.246 OA
ATOM     11  O   UNL     1       2.949   5.122  -8.598  1.00  0.00    -0.423 OA
ENDROOT
BRANCH   1  12
ATOM     12  O   UNL     1       7.846   3.403  -6.632  1.00  0.00    -0.493 OA
ATOM     13  C   UNL     1       8.125   2.104  -6.120  1.00  0.00     0.278 C 
ENDBRANCH   1  12
BRANCH   2  14
ATOM     14  O   UNL     1       6.873   5.898  -5.970  1.00  0.00    -0.504 OA
ATOM     15  H   UNL     1       7.480   5.515  -5.255  1.00  0.00     0.293 HD
ENDBRANCH   2  14
TORSDOF 2
ENDMDL
MODEL 5
REMARK VINA RESULT:    -3.825     14.577     15.859
REMARK INTER + INTRA:          -4.206
REMARK INTER:                  -4.160
REMARK INTRA:                  -0.046
REMARK UNBOUND:                -0.045
REMARK SMILES COc1cc2ccc(=O)oc2cc1O
REMARK SMILES IDX 3 1 13 2 12 3 11 4 5 5 4 6 6 7 7 8 8 9 9 10 10 11 2 12 1 13
REMARK SMILES IDX 14 14
REMARK H PARENT 14 15
REMARK Flexibility Score: inf
ROOT
ATOM      1  C   UNL     1     -11.843   3.711  -3.421  1.00  0.00     0.161 A 
ATOM      2  C   UNL     1     -12.027   5.047  -3.812  1.00  0.00     0.161 A 
ATOM      3  C   UNL     1     -12.119   5.381  -5.171  1.00  0.00     0.098 A 
ATOM      4  C   UNL     1     -12.027   4.387  -6.148  1.00  0.00     0.142 A 
ATOM      5  C   UNL     1     -11.842   3.042  -5.764  1.00  0.00     0.022 A 
ATOM      6  C   UNL     1     -11.751   2.707  -4.406  1.00  0.00     0.062 A 
ATOM      7  C   UNL     1     -11.755   2.069  -6.766  1.00  0.00     0.019 A 
ATOM      8  C   UNL     1     -11.852   2.453  -8.102  1.00  0.00     0.094 A 
ATOM      9  C   UNL     1     -12.035   3.806  -8.409  1.00  0.00     0.336 A 
ATOM     10  O   UNL     1     -12.124   4.172  -9.610  1.00  0.00    -0.246 OA
ATOM     11  O   UNL     1     -12.115   4.710  -7.436  1.00  0.00    -0.423 OA
ENDROOT
BRANCH   1  12
ATOM     12  O   UNL     1     -11.756   3.423  -2.050  1.00  0.00    -0.493 OA
ATOM     13  C   UNL     1     -11.889   2.121  -1.489  1.00  0.00     0.278 C 
ENDBRANCH   1  12
BRANCH   2  14
ATOM     14  O   UNL     1     -12.118   6.041  -2.839  1.00  0.00    -0.504 OA
ATOM     15  H   UNL     1     -12.382   6.991  -3.074  1.00  0.00     0.293 HD
ENDBRANCH   2  14
TORSDOF 2
ENDMDL
MODEL 6
REMARK VINA RESULT:    -3.795     14.203     15.708
REMARK INTER + INTRA:          -4.173
REMARK INTER:                  -4.127
REMARK INTRA:                  -0.046
REMARK UNBOUND:                -0.045
REMARK SMILES COc1cc2ccc(=O)oc2cc1O
REMARK SMILES IDX 3 1 13 2 12 3 11 4 5 5 4 6 6 7 7 8 8 9 9 10 10 11 2 12 1 13
REMARK SMILES IDX 14 14
REMARK H PARENT 14 15
REMARK Flexibility Score: inf
ROOT
ATOM      1  C   UNL     1     -12.002   4.607  -3.066  1.00  0.00     0.161 A 
ATOM      2  C   UNL     1     -11.748   3.232  -2.940  1.00  0.00     0.161 A 
ATOM      3  C   UNL     1     -11.619   2.429  -4.083  1.00  0.00     0.098 A 
ATOM      4  C   UNL     1     -11.741   2.990  -5.356  1.00  0.00     0.142 A 
ATOM      5  C   UNL     1     -11.995   4.371  -5.491  1.00  0.00     0.022 A 
ATOM      6  C   UNL     1     -12.125   5.175  -4.349  1.00  0.00     0.062 A 
ATOM      7  C   UNL     1     -12.112   4.904  -6.779  1.00  0.00     0.019 A 
ATOM      8  C   UNL     1     -11.974   4.063  -7.883  1.00  0.00     0.094 A 
ATOM      9  C   UNL     1     -11.723   2.703  -7.672  1.00  0.00     0.336 A 
ATOM     10  O   UNL     1     -11.597   1.928  -8.656  1.00  0.00    -0.246 OA
ATOM     11  O   UNL     1     -11.617   2.223  -6.436  1.00  0.00    -0.423 OA
ENDROOT
BRANCH   1  12
ATOM     12  O   UNL     1     -12.125   5.373  -1.895  1.00  0.00    -0.493 OA
ATOM     13  C   UNL     1     -12.030   6.792  -1.846  1.00  0.00     0.278 C 
ENDBRANCH   1  12
BRANCH   2  14
ATOM     14  O   UNL     1     -11.627   2.668  -1.671  1.00  0.00    -0.504 OA
ATOM     15  H   UNL     1     -12.139   1.834  -1.409  1.00  0.00     0.293 HD
ENDBRANCH   2  14
TORSDOF 2
ENDMDL
MODEL 7
REMARK VINA RESULT:    -3.731     14.427     15.463
REMARK INTER + INTRA:          -4.103
REMARK INTER:                  -4.040
REMARK INTRA:                  -0.063
REMARK UNBOUND:                -0.045
REMARK SMILES COc1cc2ccc(=O)oc2cc1O
REMARK SMILES IDX 3 1 13 2 12 3 11 4 5 5 4 6 6 7 7 8 8 9 9 10 10 11 2 12 1 13
REMARK SMILES IDX 14 14
REMARK H PARENT 14 15
REMARK Flexibility Score: inf
ROOT
ATOM      1  C   UNL     1     -11.966   4.765  -6.869  1.00  0.00     0.161 A 
ATOM      2  C   UNL     1     -11.757   3.391  -7.072  1.00  0.00     0.161 A 
ATOM      3  C   UNL     1     -11.672   2.520  -5.977  1.00  0.00     0.098 A 
ATOM      4  C   UNL     1     -11.795   3.010  -4.674  1.00  0.00     0.142 A 
ATOM      5  C   UNL     1     -12.005   4.389  -4.462  1.00  0.00     0.022 A 
ATOM      6  C   UNL     1     -12.090   5.261  -5.557  1.00  0.00     0.062 A 
ATOM      7  C   UNL     1     -12.125   4.850  -3.147  1.00  0.00     0.019 A 
ATOM      8  C   UNL     1     -12.033   3.942  -2.093  1.00  0.00     0.094 A 
ATOM      9  C   UNL     1     -11.823   2.589  -2.379  1.00  0.00     0.336 A 
ATOM     10  O   UNL     1     -11.737   1.754  -1.441  1.00  0.00    -0.246 OA
ATOM     11  O   UNL     1     -11.713   2.178  -3.640  1.00  0.00    -0.423 OA
ENDROOT
BRANCH   1  12
ATOM     12  O   UNL     1     -12.044   5.601  -7.995  1.00  0.00    -0.493 OA
ATOM     13  C   UNL     1     -11.088   6.603  -8.324  1.00  0.00     0.278 C 
ENDBRANCH   1  12
BRANCH   2  14
ATOM     14  O   UNL     1     -11.633   2.899  -8.370  1.00  0.00    -0.504 OA
ATOM     15  H   UNL     1     -12.414   2.470  -8.852  1.00  0.00     0.293 HD
ENDBRANCH   2  14
TORSDOF 2
ENDMDL
MODEL 8
REMARK VINA RESULT:    -3.729      3.709      7.249
REMARK INTER + INTRA:          -4.101
REMARK INTER:                  -4.044
REMARK INTRA:                  -0.057
REMARK UNBOUND:                -0.045
REMARK SMILES COc1cc2ccc(=O)oc2cc1O
REMARK SMILES IDX 3 1 13 2 12 3 11 4 5 5 4 6 6 7 7 8 8 9 9 10 10 11 2 12 1 13
REMARK SMILES IDX 14 14
REMARK H PARENT 14 15
REMARK Flexibility Score: inf
ROOT
ATOM      1  C   UNL     1       5.614  -3.910  -4.505  1.00  0.00     0.161 A 
ATOM      2  C   UNL     1       5.820  -2.579  -4.903  1.00  0.00     0.161 A 
ATOM      3  C   UNL     1       5.161  -2.068  -6.030  1.00  0.00     0.098 A 
ATOM      4  C   UNL     1       4.294  -2.878  -6.768  1.00  0.00     0.142 A 
ATOM      5  C   UNL     1       4.081  -4.216  -6.374  1.00  0.00     0.022 A 
ATOM      6  C   UNL     1       4.740  -4.728  -5.247  1.00  0.00     0.062 A 
ATOM      7  C   UNL     1       3.207  -5.003  -7.132  1.00  0.00     0.019 A 
ATOM      8  C   UNL     1       2.576  -4.447  -8.244  1.00  0.00     0.094 A 
ATOM      9  C   UNL     1       2.836  -3.112  -8.575  1.00  0.00     0.336 A 
ATOM     10  O   UNL     1       2.276  -2.593  -9.575  1.00  0.00    -0.246 OA
ATOM     11  O   UNL     1       3.671  -2.387  -7.836  1.00  0.00    -0.423 OA
ENDROOT
BRANCH   1  12
ATOM     12  O   UNL     1       6.295  -4.380  -3.370  1.00  0.00    -0.493 OA
ATOM     13  C   UNL     1       7.115  -5.543  -3.346  1.00  0.00     0.278 C 
ENDBRANCH   1  12
BRANCH   2  14
ATOM     14  O   UNL     1       6.685  -1.769  -4.170  1.00  0.00    -0.504 OA
ATOM     15  H   UNL     1       7.107  -2.088  -3.306  1.00  0.00     0.293 HD
ENDBRANCH   2  14
TORSDOF 2
ENDMDL
MODEL 9
REMARK VINA RESULT:    -3.611      2.836      4.605
REMARK INTER + INTRA:          -3.972
REMARK INTER:                  -3.907
REMARK INTRA:                  -0.065
REMARK UNBOUND:                -0.045
REMARK SMILES COc1cc2ccc(=O)oc2cc1O
REMARK SMILES IDX 3 1 13 2 12 3 11 4 5 5 4 6 6 7 7 8 8 9 9 10 10 11 2 12 1 13
REMARK SMILES IDX 14 14
REMARK H PARENT 14 15
REMARK Flexibility Score: inf
ROOT
ATOM      1  C   UNL     1       2.341  -4.435  -8.499  1.00  0.00     0.161 A 
ATOM      2  C   UNL     1       2.492  -3.043  -8.614  1.00  0.00     0.161 A 
ATOM      3  C   UNL     1       3.342  -2.350  -7.740  1.00  0.00     0.098 A 
ATOM      4  C   UNL     1       4.045  -3.037  -6.747  1.00  0.00     0.142 A 
ATOM      5  C   UNL     1       3.899  -4.435  -6.626  1.00  0.00     0.022 A 
ATOM      6  C   UNL     1       3.050  -5.129  -7.500  1.00  0.00     0.062 A 
ATOM      7  C   UNL     1       4.617  -5.096  -5.623  1.00  0.00     0.019 A 
ATOM      8  C   UNL     1       5.448  -4.361  -4.780  1.00  0.00     0.094 A 
ATOM      9  C   UNL     1       5.543  -2.976  -4.959  1.00  0.00     0.336 A 
ATOM     10  O   UNL     1       6.288  -2.295  -4.207  1.00  0.00    -0.246 OA
ATOM     11  O   UNL     1       4.850  -2.374  -5.921  1.00  0.00    -0.423 OA
ENDROOT
BRANCH   1  12
ATOM     12  O   UNL     1       1.480  -5.088  -9.396  1.00  0.00    -0.493 OA
ATOM     13  C   UNL     1       0.157  -5.509  -9.082  1.00  0.00     0.278 C 
ENDBRANCH   1  12
BRANCH   2  14
ATOM     14  O   UNL     1       1.791  -2.355  -9.602  1.00  0.00    -0.504 OA
ATOM     15  H   UNL     1       1.399  -2.831 -10.406  1.00  0.00     0.293 HD
ENDBRANCH   2  14
TORSDOF 2
ENDMDL
