MODEL 1
REMARK VINA RESULT:    -4.749      0.000      0.000
REMARK INTER + INTRA:          -6.869
REMARK INTER:                  -6.415
REMARK INTRA:                  -0.454
REMARK UNBOUND:                -0.454
REMARK SMILES CC(=O)CCC=C(C)CCC=C(C)C
REMARK SMILES IDX 7 1 6 2 8 3 9 4 10 5 11 6 13 7 12 8 14 9 5 10 4 11 2 12 3 13
REMARK SMILES IDX 1 14
REMARK H PARENT
REMARK Flexibility Score: inf
ROOT
ATOM      1  C   UNL     1      74.014  34.601  52.892  1.00  0.00    -0.077 C 
ATOM      2  C   UNL     1      73.553  33.727  53.816  1.00  0.00    -0.028 C 
ATOM      3  C   UNL     1      73.144  35.702  52.330  1.00  0.00     0.039 C 
ENDROOT
BRANCH   1   4
ATOM      4  C   UNL     1      75.435  34.460  52.392  1.00  0.00     0.034 C 
BRANCH   4   5
ATOM      5  C   UNL     1      76.051  35.834  52.107  1.00  0.00     0.032 C 
BRANCH   5   6
ATOM      6  C   UNL     1      77.082  35.741  51.011  1.00  0.00    -0.028 C 
ATOM      7  C   UNL     1      79.015  35.919  52.594  1.00  0.00     0.039 C 
ATOM      8  C   UNL     1      78.418  35.752  51.215  1.00  0.00    -0.080 C 
ATOM      9  C   UNL     1      79.329  35.611  50.024  1.00  0.00     0.039 C 
ENDBRANCH   5   6
ENDBRANCH   4   5
ENDBRANCH   1   4
BRANCH   2  10
ATOM     10  C   UNL     1      72.173  33.776  54.424  1.00  0.00     0.035 C 
BRANCH  10  11
ATOM     11  C   UNL     1      72.177  34.591  55.720  1.00  0.00     0.079 C 
BRANCH  11  12
ATOM     12  C   UNL     1      71.268  33.969  56.744  1.00  0.00     0.130 C 
ATOM     13  O   UNL     1      70.104  34.331  56.822  1.00  0.00    -0.300 OA
ATOM     14  C   UNL     1      71.787  32.926  57.686  1.00  0.00     0.087 C 
ENDBRANCH  11  12
ENDBRANCH  10  11
ENDBRANCH   2  10
TORSDOF 6
ENDMDL
MODEL 2
REMARK VINA RESULT:    -4.725      2.973      7.490
REMARK INTER + INTRA:          -6.837
REMARK INTER:                  -6.465
REMARK INTRA:                  -0.371
REMARK UNBOUND:                -0.454
REMARK SMILES CC(=O)CCC=C(C)CCC=C(C)C
REMARK SMILES IDX 7 1 6 2 8 3 9 4 10 5 11 6 13 7 12 8 14 9 5 10 4 11 2 12 3 13
REMARK SMILES IDX 1 14
REMARK H PARENT
REMARK Flexibility Score: inf
ROOT
ATOM      1  C   UNL     1      74.143  34.708  52.737  1.00  0.00    -0.077 C 
ATOM      2  C   UNL     1      75.433  34.447  52.428  1.00  0.00    -0.028 C 
ATOM      3  C   UNL     1      73.549  36.090  52.591  1.00  0.00     0.039 C 
ENDROOT
BRANCH   1   4
ATOM      4  C   UNL     1      73.273  33.587  53.263  1.00  0.00     0.034 C 
BRANCH   4   5
ATOM      5  C   UNL     1      72.301  34.106  54.328  1.00  0.00     0.032 C 
BRANCH   5   6
ATOM      6  C   UNL     1      72.566  33.448  55.659  1.00  0.00    -0.028 C 
ATOM      7  C   UNL     1      70.428  34.271  56.673  1.00  0.00     0.039 C 
ATOM      8  C   UNL     1      71.723  33.492  56.715  1.00  0.00    -0.080 C 
ATOM      9  C   UNL     1      72.104  32.753  57.971  1.00  0.00     0.039 C 
ENDBRANCH   5   6
ENDBRANCH   4   5
ENDBRANCH   1   4
BRANCH   2  10
ATOM     10  C   UNL     1      76.397  35.461  51.863  1.00  0.00     0.035 C 
BRANCH  10  11
ATOM     11  C   UNL     1      77.816  34.889  51.802  1.00  0.00     0.079 C 
BRANCH  11  12
ATOM     12  C   UNL     1      78.526  35.354  50.561  1.00  0.00     0.130 C 
ATOM     13  O   UNL     1      77.966  36.120  49.792  1.00  0.00    -0.300 OA
ATOM     14  C   UNL     1      79.908  34.865  50.248  1.00  0.00     0.087 C 
ENDBRANCH  11  12
ENDBRANCH  10  11
ENDBRANCH   2  10
TORSDOF 6
ENDMDL
MODEL 3
REMARK VINA RESULT:    -4.506      1.567      2.264
REMARK INTER + INTRA:          -6.540
REMARK INTER:                  -6.026
REMARK INTRA:                  -0.514
REMARK UNBOUND:                -0.454
REMARK SMILES CC(=O)CCC=C(C)CCC=C(C)C
REMARK SMILES IDX 7 1 6 2 8 3 9 4 10 5 11 6 13 7 12 8 14 9 5 10 4 11 2 12 3 13
REMARK SMILES IDX 1 14
REMARK H PARENT
REMARK Flexibility Score: inf
ROOT
ATOM      1  C   UNL     1      75.540  35.209  52.279  1.00  0.00    -0.077 C 
ATOM      2  C   UNL     1      74.365  35.746  52.678  1.00  0.00    -0.028 C 
ATOM      3  C   UNL     1      75.805  33.722  52.350  1.00  0.00     0.039 C 
ENDROOT
BRANCH   1   4
ATOM      4  C   UNL     1      76.629  36.125  51.764  1.00  0.00     0.034 C 
BRANCH   4   5
ATOM      5  C   UNL     1      78.015  35.531  52.038  1.00  0.00     0.032 C 
BRANCH   5   6
ATOM      6  C   UNL     1      78.782  35.347  50.753  1.00  0.00    -0.028 C 
ATOM      7  C   UNL     1      80.205  33.505  51.676  1.00  0.00     0.039 C 
ATOM      8  C   UNL     1      79.752  34.424  50.566  1.00  0.00    -0.080 C 
ATOM      9  C   UNL     1      80.404  34.331  49.211  1.00  0.00     0.039 C 
ENDBRANCH   5   6
ENDBRANCH   4   5
ENDBRANCH   1   4
BRANCH   2  10
ATOM     10  C   UNL     1      73.187  34.946  53.178  1.00  0.00     0.035 C 
BRANCH  10  11
ATOM     11  C   UNL     1      73.121  34.970  54.707  1.00  0.00     0.079 C 
BRANCH  11  12
ATOM     12  C   UNL     1      72.367  33.778  55.228  1.00  0.00     0.130 C 
ATOM     13  O   UNL     1      72.364  32.737  54.590  1.00  0.00    -0.300 OA
ATOM     14  C   UNL     1      71.598  33.867  56.511  1.00  0.00     0.087 C 
ENDBRANCH  11  12
ENDBRANCH  10  11
ENDBRANCH   2  10
TORSDOF 6
ENDMDL
MODEL 4
REMARK VINA RESULT:    -4.410      3.218      7.227
REMARK INTER + INTRA:          -6.411
REMARK INTER:                  -5.637
REMARK INTRA:                  -0.774
REMARK UNBOUND:                -0.454
REMARK SMILES CC(=O)CCC=C(C)CCC=C(C)C
REMARK SMILES IDX 7 1 6 2 8 3 9 4 10 5 11 6 13 7 12 8 14 9 5 10 4 11 2 12 3 13
REMARK SMILES IDX 1 14
REMARK H PARENT
REMARK Flexibility Score: inf
ROOT
ATOM      1  C   UNL     1      76.389  35.202  52.001  1.00  0.00    -0.077 C 
ATOM      2  C   UNL     1      77.256  35.939  51.271  1.00  0.00    -0.028 C 
ATOM      3  C   UNL     1      76.449  33.692  52.028  1.00  0.00     0.039 C 
ENDROOT
BRANCH   1   4
ATOM      4  C   UNL     1      75.314  35.908  52.800  1.00  0.00     0.034 C 
BRANCH   4   5
ATOM      5  C   UNL     1      73.991  35.138  52.731  1.00  0.00     0.032 C 
BRANCH   5   6
ATOM      6  C   UNL     1      73.249  35.233  54.040  1.00  0.00    -0.028 C 
ATOM      7  C   UNL     1      72.903  32.758  54.208  1.00  0.00     0.039 C 
ATOM      8  C   UNL     1      72.775  34.171  54.730  1.00  0.00    -0.080 C 
ATOM      9  C   UNL     1      72.087  34.417  56.047  1.00  0.00     0.039 C 
ENDBRANCH   5   6
ENDBRANCH   4   5
ENDBRANCH   1   4
BRANCH   2  10
ATOM     10  C   UNL     1      78.393  35.367  50.461  1.00  0.00     0.035 C 
BRANCH  10  11
ATOM     11  C   UNL     1      79.744  35.775  51.054  1.00  0.00     0.079 C 
BRANCH  11  12
ATOM     12  C   UNL     1      80.172  34.807  52.122  1.00  0.00     0.130 C 
ATOM     13  O   UNL     1      80.567  35.227  53.199  1.00  0.00    -0.300 OA
ATOM     14  C   UNL     1      80.141  33.331  51.866  1.00  0.00     0.087 C 
ENDBRANCH  11  12
ENDBRANCH  10  11
ENDBRANCH   2  10
TORSDOF 6
ENDMDL
MODEL 5
REMARK VINA RESULT:    -4.069     16.231     18.235
REMARK INTER + INTRA:          -5.950
REMARK INTER:                  -5.240
REMARK INTRA:                  -0.709
REMARK UNBOUND:                -0.454
REMARK SMILES CC(=O)CCC=C(C)CCC=C(C)C
REMARK SMILES IDX 7 1 6 2 8 3 9 4 10 5 11 6 13 7 12 8 14 9 5 10 4 11 2 12 3 13
REMARK SMILES IDX 1 14
REMARK H PARENT
REMARK Flexibility Score: inf
ROOT
ATOM      1  C   UNL     1      87.738  31.122  65.209  1.00  0.00    -0.077 C 
ATOM      2  C   UNL     1      87.871  30.088  64.347  1.00  0.00    -0.028 C 
ATOM      3  C   UNL     1      87.739  30.919  66.707  1.00  0.00     0.039 C 
ENDROOT
BRANCH   1   4
ATOM      4  C   UNL     1      87.563  32.520  64.657  1.00  0.00     0.034 C 
BRANCH   4   5
ATOM      5  C   UNL     1      86.180  33.076  65.011  1.00  0.00     0.032 C 
BRANCH   5   6
ATOM      6  C   UNL     1      85.093  32.136  64.556  1.00  0.00    -0.028 C 
ATOM      7  C   UNL     1      84.078  31.948  66.839  1.00  0.00     0.039 C 
ATOM      8  C   UNL     1      84.125  31.640  65.360  1.00  0.00    -0.080 C 
ATOM      9  C   UNL     1      83.080  30.740  64.754  1.00  0.00     0.039 C 
ENDBRANCH   5   6
ENDBRANCH   4   5
ENDBRANCH   1   4
BRANCH   2  10
ATOM     10  C   UNL     1      88.087  28.653  64.762  1.00  0.00     0.035 C 
BRANCH  10  11
ATOM     11  C   UNL     1      88.121  27.732  63.539  1.00  0.00     0.079 C 
BRANCH  11  12
ATOM     12  C   UNL     1      87.995  26.292  63.952  1.00  0.00     0.130 C 
ATOM     13  O   UNL     1      88.125  25.984  65.126  1.00  0.00    -0.300 OA
ATOM     14  C   UNL     1      87.734  25.229  62.929  1.00  0.00     0.087 C 
ENDBRANCH  11  12
ENDBRANCH  10  11
ENDBRANCH   2  10
TORSDOF 6
ENDMDL
MODEL 6
REMARK VINA RESULT:    -4.033      3.858      7.814
REMARK INTER + INTRA:          -5.902
REMARK INTER:                  -5.278
REMARK INTRA:                  -0.624
REMARK UNBOUND:                -0.454
REMARK SMILES CC(=O)CCC=C(C)CCC=C(C)C
REMARK SMILES IDX 7 1 6 2 8 3 9 4 10 5 11 6 13 7 12 8 14 9 5 10 4 11 2 12 3 13
REMARK SMILES IDX 1 14
REMARK H PARENT
REMARK Flexibility Score: inf
ROOT
ATOM      1  C   UNL     1      77.019  34.472  51.914  1.00  0.00    -0.077 C 
ATOM      2  C   UNL     1      78.255  33.967  52.126  1.00  0.00    -0.028 C 
ATOM      3  C   UNL     1      76.808  35.847  51.322  1.00  0.00     0.039 C 
ENDROOT
BRANCH   1   4
ATOM      4  C   UNL     1      75.811  33.646  52.299  1.00  0.00     0.034 C 
BRANCH   4   5
ATOM      5  C   UNL     1      74.584  34.539  52.508  1.00  0.00     0.032 C 
BRANCH   5   6
ATOM      6  C   UNL     1      73.633  33.918  53.500  1.00  0.00    -0.028 C 
ATOM      7  C   UNL     1      73.542  35.967  54.939  1.00  0.00     0.039 C 
ATOM      8  C   UNL     1      73.136  34.555  54.584  1.00  0.00    -0.080 C 
ATOM      9  C   UNL     1      72.162  33.818  55.467  1.00  0.00     0.039 C 
ENDBRANCH   5   6
ENDBRANCH   4   5
ENDBRANCH   1   4
BRANCH   2  10
ATOM     10  C   UNL     1      79.539  34.669  51.757  1.00  0.00     0.035 C 
BRANCH  10  11
ATOM     11  C   UNL     1      80.411  33.777  50.868  1.00  0.00     0.079 C 
BRANCH  11  12
ATOM     12  C   UNL     1      80.357  34.236  49.437  1.00  0.00     0.130 C 
ATOM     13  O   UNL     1      80.703  33.479  48.543  1.00  0.00    -0.300 OA
ATOM     14  C   UNL     1      79.906  35.625  49.101  1.00  0.00     0.087 C 
ENDBRANCH  11  12
ENDBRANCH  10  11
ENDBRANCH   2  10
TORSDOF 6
ENDMDL
MODEL 7
REMARK VINA RESULT:    -3.642     16.451     18.419
REMARK INTER + INTRA:          -5.373
REMARK INTER:                  -4.945
REMARK INTRA:                  -0.428
REMARK UNBOUND:                -0.454
REMARK SMILES CC(=O)CCC=C(C)CCC=C(C)C
REMARK SMILES IDX 7 1 6 2 8 3 9 4 10 5 11 6 13 7 12 8 14 9 5 10 4 11 2 12 3 13
REMARK SMILES IDX 1 14
REMARK H PARENT
REMARK Flexibility Score: inf
ROOT
ATOM      1  C   UNL     1      87.101  28.883  64.757  1.00  0.00    -0.077 C 
ATOM      2  C   UNL     1      88.001  27.944  64.387  1.00  0.00    -0.028 C 
ATOM      3  C   UNL     1      85.616  28.603  64.780  1.00  0.00     0.039 C 
ENDROOT
BRANCH   1   4
ATOM      4  C   UNL     1      87.593  30.262  65.140  1.00  0.00     0.034 C 
BRANCH   4   5
ATOM      5  C   UNL     1      86.489  31.307  64.951  1.00  0.00     0.032 C 
BRANCH   5   6
ATOM      6  C   UNL     1      85.835  31.639  66.268  1.00  0.00    -0.028 C 
ATOM      7  C   UNL     1      83.515  31.509  65.333  1.00  0.00     0.039 C 
ATOM      8  C   UNL     1      84.499  31.709  66.463  1.00  0.00    -0.080 C 
ATOM      9  C   UNL     1      83.989  32.012  67.848  1.00  0.00     0.039 C 
ENDBRANCH   5   6
ENDBRANCH   4   5
ENDBRANCH   1   4
BRANCH   2  10
ATOM     10  C   UNL     1      87.649  26.524  64.017  1.00  0.00     0.035 C 
BRANCH  10  11
ATOM     11  C   UNL     1      88.115  26.202  62.594  1.00  0.00     0.079 C 
BRANCH  11  12
ATOM     12  C   UNL     1      87.596  24.861  62.154  1.00  0.00     0.130 C 
ATOM     13  O   UNL     1      86.954  24.173  62.933  1.00  0.00    -0.300 OA
ATOM     14  C   UNL     1      87.882  24.351  60.774  1.00  0.00     0.087 C 
ENDBRANCH  11  12
ENDBRANCH  10  11
ENDBRANCH   2  10
TORSDOF 6
ENDMDL
MODEL 8
REMARK VINA RESULT:    -3.380     16.031     17.584
REMARK INTER + INTRA:          -5.020
REMARK INTER:                  -4.592
REMARK INTRA:                  -0.428
REMARK UNBOUND:                -0.454
REMARK SMILES CC(=O)CCC=C(C)CCC=C(C)C
REMARK SMILES IDX 7 1 6 2 8 3 9 4 10 5 11 6 13 7 12 8 14 9 5 10 4 11 2 12 3 13
REMARK SMILES IDX 1 14
REMARK H PARENT
REMARK Flexibility Score: inf
ROOT
ATOM      1  C   UNL     1      87.092  31.540  66.457  1.00  0.00    -0.077 C 
ATOM      2  C   UNL     1      85.797  31.173  66.583  1.00  0.00    -0.028 C 
ATOM      3  C   UNL     1      87.574  32.919  66.847  1.00  0.00     0.039 C 
ENDROOT
BRANCH   1   4
ATOM      4  C   UNL     1      88.085  30.548  65.891  1.00  0.00     0.034 C 
BRANCH   4   5
ATOM      5  C   UNL     1      87.561  29.938  64.586  1.00  0.00     0.032 C 
BRANCH   5   6
ATOM      6  C   UNL     1      88.125  28.555  64.379  1.00  0.00    -0.028 C 
ATOM      7  C   UNL     1      85.903  27.432  64.657  1.00  0.00     0.039 C 
ATOM      8  C   UNL     1      87.389  27.421  64.383  1.00  0.00    -0.080 C 
ATOM      9  C   UNL     1      88.086  26.111  64.121  1.00  0.00     0.039 C 
ENDBRANCH   5   6
ENDBRANCH   4   5
ENDBRANCH   1   4
BRANCH   2  10
ATOM     10  C   UNL     1      84.714  32.049  67.164  1.00  0.00     0.035 C 
BRANCH  10  11
ATOM     11  C   UNL     1      83.337  31.634  66.637  1.00  0.00     0.079 C 
BRANCH  11  12
ATOM     12  C   UNL     1      83.400  31.321  65.168  1.00  0.00     0.130 C 
ATOM     13  O   UNL     1      84.003  32.070  64.414  1.00  0.00    -0.300 OA
ATOM     14  C   UNL     1      82.708  30.111  64.618  1.00  0.00     0.087 C 
ENDBRANCH  11  12
ENDBRANCH  10  11
ENDBRANCH   2  10
TORSDOF 6
ENDMDL
MODEL 9
REMARK VINA RESULT:    -2.934      3.526      6.896
REMARK INTER + INTRA:          -4.417
REMARK INTER:                  -3.788
REMARK INTRA:                  -0.629
REMARK UNBOUND:                -0.454
REMARK SMILES CC(=O)CCC=C(C)CCC=C(C)C
REMARK SMILES IDX 7 1 6 2 8 3 9 4 10 5 11 6 13 7 12 8 14 9 5 10 4 11 2 12 3 13
REMARK SMILES IDX 1 14
REMARK H PARENT
REMARK Flexibility Score: inf
ROOT
ATOM      1  C   UNL     1      75.903  35.248  51.995  1.00  0.00    -0.077 C 
ATOM      2  C   UNL     1      76.289  33.985  52.285  1.00  0.00    -0.028 C 
ATOM      3  C   UNL     1      76.685  36.125  51.045  1.00  0.00     0.039 C 
ENDROOT
BRANCH   1   4
ATOM      4  C   UNL     1      74.661  35.806  52.656  1.00  0.00     0.034 C 
BRANCH   4   5
ATOM      5  C   UNL     1      73.567  34.737  52.751  1.00  0.00     0.032 C 
BRANCH   5   6
ATOM      6  C   UNL     1      72.837  34.834  54.067  1.00  0.00    -0.028 C 
ATOM      7  C   UNL     1      73.128  32.402  54.592  1.00  0.00     0.039 C 
ATOM      8  C   UNL     1      72.653  33.800  54.917  1.00  0.00    -0.080 C 
ATOM      9  C   UNL     1      71.936  34.057  56.217  1.00  0.00     0.039 C 
ENDBRANCH   5   6
ENDBRANCH   4   5
ENDBRANCH   1   4
BRANCH   2  10
ATOM     10  C   UNL     1      77.483  33.295  51.672  1.00  0.00     0.035 C 
BRANCH  10  11
ATOM     11  C   UNL     1      77.936  32.117  52.539  1.00  0.00     0.079 C 
BRANCH  11  12
ATOM     12  C   UNL     1      79.436  32.011  52.554  1.00  0.00     0.130 C 
ATOM     13  O   UNL     1      79.975  31.114  53.184  1.00  0.00    -0.300 OA
ATOM     14  C   UNL     1      80.275  33.012  51.820  1.00  0.00     0.087 C 
ENDBRANCH  11  12
ENDBRANCH  10  11
ENDBRANCH   2  10
TORSDOF 6
ENDMDL
