MODEL 1
REMARK VINA RESULT:    -4.207      0.000      0.000
REMARK INTER + INTRA:          -5.879
REMARK INTER:                  -5.436
REMARK INTRA:                  -0.442
REMARK UNBOUND:                -0.442
REMARK SMILES C=CC(=O)CCCCC
REMARK SMILES IDX 6 1 7 2 8 3 9 4 5 5 3 6 4 7 2 8 1 9
REMARK H PARENT
REMARK Flexibility Score: inf
ROOT
ATOM      1  C   UNL     1      -6.453  20.584  68.607  1.00  0.00     0.008 C 
ENDROOT
BRANCH   1   2
ATOM      2  C   UNL     1      -6.895  19.201  68.112  1.00  0.00     0.000 C 
BRANCH   2   3
ATOM      3  C   UNL     1      -7.889  19.325  66.952  1.00  0.00    -0.003 C 
ATOM      4  C   UNL     1      -7.615  20.575  66.123  1.00  0.00     0.004 C 
ENDBRANCH   2   3
ENDBRANCH   1   2
BRANCH   1   5
ATOM      5  C   UNL     1      -7.251  21.006  69.845  1.00  0.00     0.080 C 
BRANCH   5   6
ATOM      6  C   UNL     1      -7.536  22.478  69.812  1.00  0.00     0.155 C 
ATOM      7  O   UNL     1      -8.306  22.978  70.677  1.00  0.00    -0.295 OA
BRANCH   6   8
ATOM      8  C   UNL     1      -6.883  23.335  68.804  1.00  0.00     0.039 C 
ATOM      9  C   UNL     1      -7.575  24.068  67.933  1.00  0.00     0.012 C 
ENDBRANCH   6   8
ENDBRANCH   5   6
ENDBRANCH   1   5
TORSDOF 5
ENDMDL
MODEL 2
REMARK VINA RESULT:    -4.148      1.595      2.928
REMARK INTER + INTRA:          -5.803
REMARK INTER:                  -5.391
REMARK INTRA:                  -0.412
REMARK UNBOUND:                -0.442
REMARK SMILES C=CC(=O)CCCCC
REMARK SMILES IDX 6 1 7 2 8 3 9 4 5 5 3 6 4 7 2 8 1 9
REMARK H PARENT
REMARK Flexibility Score: inf
ROOT
ATOM      1  C   UNL     1      -7.118  21.324  69.012  1.00  0.00     0.008 C 
ENDROOT
BRANCH   1   2
ATOM      2  C   UNL     1      -6.516  20.168  68.203  1.00  0.00     0.000 C 
BRANCH   2   3
ATOM      3  C   UNL     1      -7.491  18.988  68.121  1.00  0.00    -0.003 C 
ATOM      4  C   UNL     1      -7.987  18.782  66.693  1.00  0.00     0.004 C 
ENDBRANCH   2   3
ENDBRANCH   1   2
BRANCH   1   5
ATOM      5  C   UNL     1      -8.450  20.915  69.648  1.00  0.00     0.080 C 
BRANCH   5   6
ATOM      6  C   UNL     1      -8.488  21.314  71.094  1.00  0.00     0.155 C 
ATOM      7  O   UNL     1      -8.772  22.505  71.398  1.00  0.00    -0.295 OA
BRANCH   6   8
ATOM      8  C   UNL     1      -8.239  20.309  72.145  1.00  0.00     0.039 C 
ATOM      9  C   UNL     1      -8.017  19.026  71.869  1.00  0.00     0.012 C 
ENDBRANCH   6   8
ENDBRANCH   5   6
ENDBRANCH   1   5
TORSDOF 5
ENDMDL
MODEL 3
REMARK VINA RESULT:    -4.133      1.932      4.058
REMARK INTER + INTRA:          -5.784
REMARK INTER:                  -5.198
REMARK INTRA:                  -0.586
REMARK UNBOUND:                -0.442
REMARK SMILES C=CC(=O)CCCCC
REMARK SMILES IDX 6 1 7 2 8 3 9 4 5 5 3 6 4 7 2 8 1 9
REMARK H PARENT
REMARK Flexibility Score: inf
ROOT
ATOM      1  C   UNL     1      -7.207  22.609  70.050  1.00  0.00     0.008 C 
ENDROOT
BRANCH   1   2
ATOM      2  C   UNL     1      -8.550  22.619  70.791  1.00  0.00     0.000 C 
BRANCH   2   3
ATOM      3  C   UNL     1      -8.934  21.209  71.252  1.00  0.00    -0.003 C 
ATOM      4  C   UNL     1      -7.775  20.532  71.977  1.00  0.00     0.004 C 
ENDBRANCH   2   3
ENDBRANCH   1   2
BRANCH   1   5
ATOM      5  C   UNL     1      -7.408  22.793  68.543  1.00  0.00     0.080 C 
BRANCH   5   6
ATOM      6  C   UNL     1      -7.343  21.470  67.838  1.00  0.00     0.155 C 
ATOM      7  O   UNL     1      -7.931  21.331  66.731  1.00  0.00    -0.295 OA
BRANCH   6   8
ATOM      8  C   UNL     1      -6.559  20.362  68.416  1.00  0.00     0.039 C 
ATOM      9  C   UNL     1      -7.041  19.125  68.524  1.00  0.00     0.012 C 
ENDBRANCH   6   8
ENDBRANCH   5   6
ENDBRANCH   1   5
TORSDOF 5
ENDMDL
MODEL 4
REMARK VINA RESULT:    -4.108      1.315      3.457
REMARK INTER + INTRA:          -5.750
REMARK INTER:                  -5.292
REMARK INTRA:                  -0.458
REMARK UNBOUND:                -0.442
REMARK SMILES C=CC(=O)CCCCC
REMARK SMILES IDX 6 1 7 2 8 3 9 4 5 5 3 6 4 7 2 8 1 9
REMARK H PARENT
REMARK Flexibility Score: inf
ROOT
ATOM      1  C   UNL     1      -6.898  23.331  68.897  1.00  0.00     0.008 C 
ENDROOT
BRANCH   1   2
ATOM      2  C   UNL     1      -7.911  24.379  68.420  1.00  0.00     0.000 C 
BRANCH   2   3
ATOM      3  C   UNL     1      -8.082  24.326  66.898  1.00  0.00    -0.003 C 
ATOM      4  C   UNL     1      -8.445  22.919  66.433  1.00  0.00     0.004 C 
ENDBRANCH   2   3
ENDBRANCH   1   2
BRANCH   1   5
ATOM      5  C   UNL     1      -7.486  22.466  70.016  1.00  0.00     0.080 C 
BRANCH   5   6
ATOM      6  C   UNL     1      -7.160  21.019  69.790  1.00  0.00     0.155 C 
ATOM      7  O   UNL     1      -7.610  20.153  70.588  1.00  0.00    -0.295 OA
BRANCH   6   8
ATOM      8  C   UNL     1      -6.358  20.616  68.618  1.00  0.00     0.039 C 
ATOM      9  C   UNL     1      -6.771  19.692  67.753  1.00  0.00     0.012 C 
ENDBRANCH   6   8
ENDBRANCH   5   6
ENDBRANCH   1   5
TORSDOF 5
ENDMDL
MODEL 5
REMARK VINA RESULT:    -4.099      2.371      3.748
REMARK INTER + INTRA:          -5.739
REMARK INTER:                  -5.491
REMARK INTRA:                  -0.248
REMARK UNBOUND:                -0.442
REMARK SMILES C=CC(=O)CCCCC
REMARK SMILES IDX 6 1 7 2 8 3 9 4 5 5 3 6 4 7 2 8 1 9
REMARK H PARENT
REMARK Flexibility Score: inf
ROOT
ATOM      1  C   UNL     1      -7.625  20.038  69.784  1.00  0.00     0.008 C 
ENDROOT
BRANCH   1   2
ATOM      2  C   UNL     1      -7.645  20.804  71.113  1.00  0.00     0.000 C 
BRANCH   2   3
ATOM      3  C   UNL     1      -8.397  20.015  72.191  1.00  0.00    -0.003 C 
ATOM      4  C   UNL     1      -9.123  20.950  73.152  1.00  0.00     0.004 C 
ENDBRANCH   2   3
ENDBRANCH   1   2
BRANCH   1   5
ATOM      5  C   UNL     1      -6.737  20.745  68.755  1.00  0.00     0.080 C 
BRANCH   5   6
ATOM      6  C   UNL     1      -7.569  21.323  67.649  1.00  0.00     0.155 C 
ATOM      7  O   UNL     1      -8.178  20.547  66.864  1.00  0.00    -0.295 OA
BRANCH   6   8
ATOM      8  C   UNL     1      -7.706  22.786  67.515  1.00  0.00     0.039 C 
ATOM      9  C   UNL     1      -7.180  23.637  68.394  1.00  0.00     0.012 C 
ENDBRANCH   6   8
ENDBRANCH   5   6
ENDBRANCH   1   5
TORSDOF 5
ENDMDL
MODEL 6
REMARK VINA RESULT:    -4.003      2.200      4.032
REMARK INTER + INTRA:          -5.615
REMARK INTER:                  -5.245
REMARK INTRA:                  -0.370
REMARK UNBOUND:                -0.442
REMARK SMILES C=CC(=O)CCCCC
REMARK SMILES IDX 6 1 7 2 8 3 9 4 5 5 3 6 4 7 2 8 1 9
REMARK H PARENT
REMARK Flexibility Score: inf
ROOT
ATOM      1  C   UNL     1      -6.482  20.629  68.517  1.00  0.00     0.008 C 
ENDROOT
BRANCH   1   2
ATOM      2  C   UNL     1      -7.137  21.075  69.830  1.00  0.00     0.000 C 
BRANCH   2   3
ATOM      3  C   UNL     1      -7.288  22.600  69.879  1.00  0.00    -0.003 C 
ATOM      4  C   UNL     1      -7.177  23.209  68.485  1.00  0.00     0.004 C 
ENDBRANCH   2   3
ENDBRANCH   1   2
BRANCH   1   5
ATOM      5  C   UNL     1      -6.951  19.226  68.117  1.00  0.00     0.080 C 
BRANCH   5   6
ATOM      6  C   UNL     1      -7.620  19.258  66.775  1.00  0.00     0.155 C 
ATOM      7  O   UNL     1      -8.274  18.251  66.388  1.00  0.00    -0.295 OA
BRANCH   6   8
ATOM      8  C   UNL     1      -7.549  20.473  65.941  1.00  0.00     0.039 C 
ATOM      9  C   UNL     1      -7.160  20.444  64.668  1.00  0.00     0.012 C 
ENDBRANCH   6   8
ENDBRANCH   5   6
ENDBRANCH   1   5
TORSDOF 5
ENDMDL
MODEL 7
REMARK VINA RESULT:    -3.995      2.121      4.292
REMARK INTER + INTRA:          -5.605
REMARK INTER:                  -5.273
REMARK INTRA:                  -0.332
REMARK UNBOUND:                -0.442
REMARK SMILES C=CC(=O)CCCCC
REMARK SMILES IDX 6 1 7 2 8 3 9 4 5 5 3 6 4 7 2 8 1 9
REMARK H PARENT
REMARK Flexibility Score: inf
ROOT
ATOM      1  C   UNL     1      -7.507  21.700  68.605  1.00  0.00     0.008 C 
ENDROOT
BRANCH   1   2
ATOM      2  C   UNL     1      -8.393  21.530  69.846  1.00  0.00     0.000 C 
BRANCH   2   3
ATOM      3  C   UNL     1      -7.544  21.271  71.096  1.00  0.00    -0.003 C 
ATOM      4  C   UNL     1      -8.100  20.105  71.907  1.00  0.00     0.004 C 
ENDBRANCH   2   3
ENDBRANCH   1   2
BRANCH   1   5
ATOM      5  C   UNL     1      -6.421  20.620  68.552  1.00  0.00     0.080 C 
BRANCH   5   6
ATOM      6  C   UNL     1      -6.983  19.334  68.023  1.00  0.00     0.155 C 
ATOM      7  O   UNL     1      -7.385  18.455  68.834  1.00  0.00    -0.295 OA
BRANCH   6   8
ATOM      8  C   UNL     1      -7.104  19.124  66.567  1.00  0.00     0.039 C 
ATOM      9  C   UNL     1      -8.176  18.560  66.013  1.00  0.00     0.012 C 
ENDBRANCH   6   8
ENDBRANCH   5   6
ENDBRANCH   1   5
TORSDOF 5
ENDMDL
MODEL 8
REMARK VINA RESULT:    -3.967      2.011      3.760
REMARK INTER + INTRA:          -5.569
REMARK INTER:                  -5.068
REMARK INTRA:                  -0.501
REMARK UNBOUND:                -0.442
REMARK SMILES C=CC(=O)CCCCC
REMARK SMILES IDX 6 1 7 2 8 3 9 4 5 5 3 6 4 7 2 8 1 9
REMARK H PARENT
REMARK Flexibility Score: inf
ROOT
ATOM      1  C   UNL     1      -7.776  21.309  67.162  1.00  0.00     0.008 C 
ENDROOT
BRANCH   1   2
ATOM      2  C   UNL     1      -7.978  22.823  67.030  1.00  0.00     0.000 C 
BRANCH   2   3
ATOM      3  C   UNL     1      -7.317  23.570  68.194  1.00  0.00    -0.003 C 
ATOM      4  C   UNL     1      -8.347  24.355  69.000  1.00  0.00     0.004 C 
ENDBRANCH   2   3
ENDBRANCH   1   2
BRANCH   1   5
ATOM      5  C   UNL     1      -6.813  20.981  68.308  1.00  0.00     0.080 C 
BRANCH   5   6
ATOM      6  C   UNL     1      -7.372  19.886  69.168  1.00  0.00     0.155 C 
ATOM      7  O   UNL     1      -7.391  18.704  68.728  1.00  0.00    -0.295 OA
BRANCH   6   8
ATOM      8  C   UNL     1      -7.849  20.187  70.532  1.00  0.00     0.039 C 
ATOM      9  C   UNL     1      -7.542  21.319  71.163  1.00  0.00     0.012 C 
ENDBRANCH   6   8
ENDBRANCH   5   6
ENDBRANCH   1   5
TORSDOF 5
ENDMDL
MODEL 9
REMARK VINA RESULT:    -3.930     10.298     11.376
REMARK INTER + INTRA:          -5.521
REMARK INTER:                  -5.300
REMARK INTRA:                  -0.221
REMARK UNBOUND:                -0.442
REMARK SMILES C=CC(=O)CCCCC
REMARK SMILES IDX 6 1 7 2 8 3 9 4 5 5 3 6 4 7 2 8 1 9
REMARK H PARENT
REMARK Flexibility Score: inf
ROOT
ATOM      1  C   UNL     1      -6.597  28.872  75.330  1.00  0.00     0.008 C 
ENDROOT
BRANCH   1   2
ATOM      2  C   UNL     1      -6.416  29.066  76.840  1.00  0.00     0.000 C 
BRANCH   2   3
ATOM      3  C   UNL     1      -6.913  27.841  77.615  1.00  0.00    -0.003 C 
ATOM      4  C   UNL     1      -8.014  28.221  78.600  1.00  0.00     0.004 C 
ENDBRANCH   2   3
ENDBRANCH   1   2
BRANCH   1   5
ATOM      5  C   UNL     1      -7.628  29.857  74.768  1.00  0.00     0.080 C 
BRANCH   5   6
ATOM      6  C   UNL     1      -7.003  30.738  73.728  1.00  0.00     0.155 C 
ATOM      7  O   UNL     1      -6.309  30.216  72.813  1.00  0.00    -0.295 OA
BRANCH   6   8
ATOM      8  C   UNL     1      -7.238  32.195  73.754  1.00  0.00     0.039 C 
ATOM      9  C   UNL     1      -6.573  33.011  74.569  1.00  0.00     0.012 C 
ENDBRANCH   6   8
ENDBRANCH   5   6
ENDBRANCH   1   5
TORSDOF 5
ENDMDL
