MODEL 1
REMARK VINA RESULT:    13.423      0.000      0.000
REMARK INTER + INTRA:          18.480
REMARK INTER:                  18.916
REMARK INTRA:                  -0.436
REMARK UNBOUND:                -0.436
REMARK SMILES COc1c(O[C@H]2O[C@H](C(=O)[O-])[C@H](O)[C@H](O)[C@@H]2O)cc(O)c2c(=O)cc(-c3ccccc3)oc12
REMARK SMILES IDX 5 1 6 2 8 3 12 4 7 5 14 6 16 7 9 8 10 9 11 10 13 11 15 13
REMARK SMILES IDX 17 15 4 17 3 18 18 19 33 20 19 21 21 22 32 23 22 24 25 25
REMARK SMILES IDX 24 26 23 27 2 28 1 29 20 30 26 32 27 33 31 34 28 35 30 36
REMARK SMILES IDX 29 37
REMARK H PARENT 13 12 15 14 17 16 20 31
REMARK Flexibility Score: inf
ROOT
ATOM      1  O   UNL     1      37.872 -31.273  -4.024  1.00  0.00    -0.458 OA
ENDROOT
BRANCH   1   2
ATOM      2  C   UNL     1      36.497 -31.296  -3.616  1.00  0.00     0.339 C 
ATOM      3  C   UNL     1      37.067 -31.761  -1.382  1.00  0.00     0.199 C 
ATOM      4  C   UNL     1      36.558 -30.401  -0.864  1.00  0.00     0.180 C 
ATOM      5  O   UNL     1      36.325 -32.181  -2.518  1.00  0.00    -0.328 OA
ATOM      6  C   UNL     1      36.665 -29.360  -1.996  1.00  0.00     0.181 C 
ATOM      7  C   UNL     1      35.984 -29.879  -3.277  1.00  0.00     0.214 C 
BRANCH   3   8
ATOM      8  C   UNL     1      36.950 -32.800  -0.306  1.00  0.00     0.073 C 
ATOM      9  O   UNL     1      36.282 -33.847  -0.512  1.00  0.00    -0.547 OA
ATOM     10  O   UNL     1      37.620 -32.643   0.901  1.00  0.00    -0.547 OA
ENDBRANCH   3   8
BRANCH   4  11
ATOM     11  O   UNL     1      35.227 -30.524  -0.428  1.00  0.00    -0.387 OA
ATOM     12  H   UNL     1      34.684 -30.768  -1.222  1.00  0.00     0.211 HD
ENDBRANCH   4  11
BRANCH   6  13
ATOM     13  O   UNL     1      36.088 -28.139  -1.607  1.00  0.00    -0.387 OA
ATOM     14  H   UNL     1      36.838 -27.515  -1.424  1.00  0.00     0.211 HD
ENDBRANCH   6  13
BRANCH   7  15
ATOM     15  O   UNL     1      34.588 -29.928  -3.112  1.00  0.00    -0.384 OA
ATOM     16  H   UNL     1      34.234 -30.546  -3.804  1.00  0.00     0.211 HD
ENDBRANCH   7  15
ENDBRANCH   1   2
BRANCH   1  17
ATOM     17  C   UNL     1      38.352 -31.412  -5.339  1.00  0.00     0.172 A 
ATOM     18  C   UNL     1      38.534 -32.711  -5.833  1.00  0.00     0.205 A 
ATOM     19  C   UNL     1      38.638 -30.305  -6.155  1.00  0.00     0.097 A 
ATOM     20  C   UNL     1      39.002 -32.900  -7.159  1.00  0.00     0.188 A 
ATOM     21  C   UNL     1      39.105 -30.476  -7.460  1.00  0.00     0.134 A 
ATOM     22  C   UNL     1      39.289 -31.776  -7.976  1.00  0.00     0.111 A 
ATOM     23  O   UNL     1      39.168 -34.128  -7.645  1.00  0.00    -0.452 OA
ATOM     24  C   UNL     1      39.748 -32.015  -9.289  1.00  0.00     0.197 A 
ATOM     25  C   UNL     1      39.585 -34.385  -8.883  1.00  0.00     0.138 A 
ATOM     26  C   UNL     1      39.895 -33.323  -9.742  1.00  0.00     0.100 A 
ATOM     27  O   UNL     1      40.028 -31.066 -10.071  1.00  0.00    -0.289 OA
BRANCH  18  28
ATOM     28  O   UNL     1      38.230 -33.768  -4.953  1.00  0.00    -0.490 OA
ATOM     29  C   UNL     1      38.541 -35.144  -5.141  1.00  0.00     0.278 C 
ENDBRANCH  18  28
BRANCH  21  30
ATOM     30  O   UNL     1      39.382 -29.350  -8.237  1.00  0.00    -0.507 OA
ATOM     31  H   UNL     1      38.744 -28.564  -8.287  1.00  0.00     0.293 HD
ENDBRANCH  21  30
BRANCH  25  32
ATOM     32  C   UNL     1      39.721 -35.795  -9.319  1.00  0.00     0.017 A 
ATOM     33  C   UNL     1      40.977 -36.285  -9.719  1.00  0.00     0.012 A 
ATOM     34  C   UNL     1      38.618 -36.672  -9.320  1.00  0.00     0.012 A 
ATOM     35  C   UNL     1      41.125 -37.616 -10.121  1.00  0.00     0.001 A 
ATOM     36  C   UNL     1      38.772 -38.002  -9.722  1.00  0.00     0.001 A 
ATOM     37  C   UNL     1      40.023 -38.473 -10.123  1.00  0.00     0.000 A 
ENDBRANCH  25  32
ENDBRANCH   1  17
TORSDOF 9
ENDMDL
MODEL 2
REMARK VINA RESULT:    14.350      3.376      6.969
REMARK INTER + INTRA:          19.786
REMARK INTER:                  20.165
REMARK INTRA:                  -0.378
REMARK UNBOUND:                -0.436
REMARK SMILES COc1c(O[C@H]2O[C@H](C(=O)[O-])[C@H](O)[C@H](O)[C@@H]2O)cc(O)c2c(=O)cc(-c3ccccc3)oc12
REMARK SMILES IDX 5 1 6 2 8 3 12 4 7 5 14 6 16 7 9 8 10 9 11 10 13 11 15 13
REMARK SMILES IDX 17 15 4 17 3 18 18 19 33 20 19 21 21 22 32 23 22 24 25 25
REMARK SMILES IDX 24 26 23 27 2 28 1 29 20 30 26 32 27 33 31 34 28 35 30 36
REMARK SMILES IDX 29 37
REMARK H PARENT 13 12 15 14 17 16 20 31
REMARK Flexibility Score: inf
ROOT
ATOM      1  O   UNL     1      39.153 -33.381  -7.398  1.00  0.00    -0.458 OA
ENDROOT
BRANCH   1   2
ATOM      2  C   UNL     1      38.816 -32.297  -8.275  1.00  0.00     0.339 C 
ATOM      3  C   UNL     1      37.778 -31.091  -6.543  1.00  0.00     0.199 C 
ATOM      4  C   UNL     1      38.832 -29.966  -6.560  1.00  0.00     0.180 C 
ATOM      5  O   UNL     1      37.624 -31.661  -7.835  1.00  0.00    -0.328 OA
ATOM      6  C   UNL     1      40.171 -30.539  -7.063  1.00  0.00     0.181 C 
ATOM      7  C   UNL     1      39.977 -31.285  -8.396  1.00  0.00     0.214 C 
BRANCH   3   8
ATOM      8  C   UNL     1      36.455 -30.554  -6.082  1.00  0.00     0.073 C 
ATOM      9  O   UNL     1      36.134 -30.628  -4.867  1.00  0.00    -0.547 OA
ATOM     10  O   UNL     1      35.600 -29.925  -6.978  1.00  0.00    -0.547 OA
ENDBRANCH   3   8
BRANCH   4  11
ATOM     11  O   UNL     1      38.398 -28.918  -7.392  1.00  0.00    -0.387 OA
ATOM     12  H   UNL     1      38.366 -28.099  -6.832  1.00  0.00     0.211 HD
ENDBRANCH   4  11
BRANCH   6  13
ATOM     13  O   UNL     1      41.123 -29.517  -7.219  1.00  0.00    -0.387 OA
ATOM     14  H   UNL     1      41.497 -29.613  -8.134  1.00  0.00     0.211 HD
ENDBRANCH   6  13
BRANCH   7  15
ATOM     15  O   UNL     1      39.686 -30.381  -9.433  1.00  0.00    -0.384 OA
ATOM     16  H   UNL     1      40.491 -29.815  -9.561  1.00  0.00     0.211 HD
ENDBRANCH   7  15
ENDBRANCH   1   2
BRANCH   1  17
ATOM     17  C   UNL     1      38.472 -34.607  -7.292  1.00  0.00     0.172 A 
ATOM     18  C   UNL     1      37.681 -34.817  -6.154  1.00  0.00     0.205 A 
ATOM     19  C   UNL     1      38.557 -35.602  -8.279  1.00  0.00     0.097 A 
ATOM     20  C   UNL     1      36.964 -36.034  -6.011  1.00  0.00     0.188 A 
ATOM     21  C   UNL     1      37.863 -36.807  -8.149  1.00  0.00     0.134 A 
ATOM     22  C   UNL     1      37.056 -37.033  -7.013  1.00  0.00     0.111 A 
ATOM     23  O   UNL     1      36.198 -36.242  -4.942  1.00  0.00    -0.452 OA
ATOM     24  C   UNL     1      36.322 -38.224  -6.828  1.00  0.00     0.197 A 
ATOM     25  C   UNL     1      35.484 -37.347  -4.746  1.00  0.00     0.138 A 
ATOM     26  C   UNL     1      35.534 -38.379  -5.691  1.00  0.00     0.100 A 
ATOM     27  O   UNL     1      36.358 -39.158  -7.674  1.00  0.00    -0.289 OA
BRANCH  18  28
ATOM     28  O   UNL     1      37.650 -33.775  -5.206  1.00  0.00    -0.490 OA
ATOM     29  C   UNL     1      38.773 -33.173  -4.572  1.00  0.00     0.278 C 
ENDBRANCH  18  28
BRANCH  21  30
ATOM     30  O   UNL     1      37.978 -37.771  -9.151  1.00  0.00    -0.507 OA
ATOM     31  H   UNL     1      38.450 -38.654  -8.993  1.00  0.00     0.293 HD
ENDBRANCH  21  30
BRANCH  25  32
ATOM     32  C   UNL     1      34.656 -37.462  -3.521  1.00  0.00     0.017 A 
ATOM     33  C   UNL     1      34.739 -36.472  -2.526  1.00  0.00     0.012 A 
ATOM     34  C   UNL     1      33.760 -38.535  -3.340  1.00  0.00     0.012 A 
ATOM     35  C   UNL     1      33.956 -36.559  -1.371  1.00  0.00     0.001 A 
ATOM     36  C   UNL     1      32.978 -38.616  -2.184  1.00  0.00     0.001 A 
ATOM     37  C   UNL     1      33.077 -37.630  -1.200  1.00  0.00     0.000 A 
ENDBRANCH  25  32
ENDBRANCH   1  17
TORSDOF 9
ENDMDL
MODEL 3
REMARK VINA RESULT:    15.001      1.569      3.139
REMARK INTER + INTRA:          20.704
REMARK INTER:                  19.380
REMARK INTRA:                   1.324
REMARK UNBOUND:                -0.436
REMARK SMILES COc1c(O[C@H]2O[C@H](C(=O)[O-])[C@H](O)[C@H](O)[C@@H]2O)cc(O)c2c(=O)cc(-c3ccccc3)oc12
REMARK SMILES IDX 5 1 6 2 8 3 12 4 7 5 14 6 16 7 9 8 10 9 11 10 13 11 15 13
REMARK SMILES IDX 17 15 4 17 3 18 18 19 33 20 19 21 21 22 32 23 22 24 25 25
REMARK SMILES IDX 24 26 23 27 2 28 1 29 20 30 26 32 27 33 31 34 28 35 30 36
REMARK SMILES IDX 29 37
REMARK H PARENT 13 12 15 14 17 16 20 31
REMARK Flexibility Score: inf
ROOT
ATOM      1  O   UNL     1      38.113 -31.207  -4.117  1.00  0.00    -0.458 OA
ENDROOT
BRANCH   1   2
ATOM      2  C   UNL     1      37.496 -30.019  -3.603  1.00  0.00     0.339 C 
ATOM      3  C   UNL     1      36.143 -29.780  -5.512  1.00  0.00     0.199 C 
ATOM      4  C   UNL     1      34.836 -30.052  -4.743  1.00  0.00     0.180 C 
ATOM      5  O   UNL     1      37.109 -29.165  -4.671  1.00  0.00    -0.328 OA
ATOM      6  C   UNL     1      35.145 -30.948  -3.528  1.00  0.00     0.181 C 
ATOM      7  C   UNL     1      36.294 -30.354  -2.692  1.00  0.00     0.214 C 
BRANCH   3   8
ATOM      8  C   UNL     1      35.876 -28.886  -6.688  1.00  0.00     0.073 C 
ATOM      9  O   UNL     1      36.801 -28.619  -7.499  1.00  0.00    -0.547 OA
ATOM     10  O   UNL     1      34.599 -28.392  -6.920  1.00  0.00    -0.547 OA
ENDBRANCH   3   8
BRANCH   4  11
ATOM     11  O   UNL     1      34.264 -28.835  -4.328  1.00  0.00    -0.387 OA
ATOM     12  H   UNL     1      33.332 -28.822  -4.673  1.00  0.00     0.211 HD
ENDBRANCH   4  11
BRANCH   6  13
ATOM     13  O   UNL     1      34.003 -31.111  -2.725  1.00  0.00    -0.387 OA
ATOM     14  H   UNL     1      33.668 -30.200  -2.516  1.00  0.00     0.211 HD
ENDBRANCH   6  13
BRANCH   7  15
ATOM     15  O   UNL     1      35.877 -29.180  -2.039  1.00  0.00    -0.384 OA
ATOM     16  H   UNL     1      35.594 -29.441  -1.124  1.00  0.00     0.211 HD
ENDBRANCH   7  15
ENDBRANCH   1   2
BRANCH   1  17
ATOM     17  C   UNL     1      38.605 -31.392  -5.422  1.00  0.00     0.172 A 
ATOM     18  C   UNL     1      38.700 -32.706  -5.903  1.00  0.00     0.205 A 
ATOM     19  C   UNL     1      38.985 -30.317  -6.241  1.00  0.00     0.097 A 
ATOM     20  C   UNL     1      39.177 -32.939  -7.219  1.00  0.00     0.188 A 
ATOM     21  C   UNL     1      39.463 -30.532  -7.536  1.00  0.00     0.134 A 
ATOM     22  C   UNL     1      39.560 -31.846  -8.039  1.00  0.00     0.111 A 
ATOM     23  O   UNL     1      39.261 -34.180  -7.694  1.00  0.00    -0.452 OA
ATOM     24  C   UNL     1      40.023 -32.129  -9.341  1.00  0.00     0.197 A 
ATOM     25  C   UNL     1      39.680 -34.477  -8.921  1.00  0.00     0.138 A 
ATOM     26  C   UNL     1      40.083 -33.448  -9.782  1.00  0.00     0.100 A 
ATOM     27  O   UNL     1      40.386 -31.210 -10.125  1.00  0.00    -0.289 OA
BRANCH  18  28
ATOM     28  O   UNL     1      38.304 -33.730  -5.022  1.00  0.00    -0.490 OA
ATOM     29  C   UNL     1      38.155 -35.110  -5.337  1.00  0.00     0.278 C 
ENDBRANCH  18  28
BRANCH  21  30
ATOM     30  O   UNL     1      39.835 -29.435  -8.315  1.00  0.00    -0.507 OA
ATOM     31  H   UNL     1      40.760 -29.024  -8.253  1.00  0.00     0.293 HD
ENDBRANCH  21  30
BRANCH  25  32
ATOM     32  C   UNL     1      39.720 -35.897  -9.346  1.00  0.00     0.017 A 
ATOM     33  C   UNL     1      40.944 -36.482  -9.716  1.00  0.00     0.012 A 
ATOM     34  C   UNL     1      38.555 -36.690  -9.362  1.00  0.00     0.012 A 
ATOM     35  C   UNL     1      41.001 -37.823 -10.106  1.00  0.00     0.001 A 
ATOM     36  C   UNL     1      38.618 -38.031  -9.752  1.00  0.00     0.001 A 
ATOM     37  C   UNL     1      39.839 -38.596 -10.125  1.00  0.00     0.000 A 
ENDBRANCH  25  32
ENDBRANCH   1  17
TORSDOF 9
ENDMDL
