MODEL 1
REMARK VINA RESULT:    -5.036      0.000      0.000
REMARK INTER + INTRA:         -13.136
REMARK INTER:                 -10.925
REMARK INTRA:                  -2.211
REMARK UNBOUND:                -2.211
REMARK SMILES CCCCCCCCCCCCCCCCCCCCCC(=O)[O-]
REMARK SMILES IDX 12 1 11 2 10 3 9 4 8 5 7 6 6 7 5 8 4 9 3 10 2 11 1 12 13 13
REMARK SMILES IDX 14 14 15 15 16 16 17 17 18 18 19 19 20 20 21 21 22 22 23 23
REMARK SMILES IDX 24 24
REMARK H PARENT
REMARK Flexibility Score: inf
ROOT
ATOM      1  C   UNL     1      49.093  23.070  53.961  1.00  0.00     0.000 C 
ENDROOT
BRANCH   1   2
ATOM      2  C   UNL     1      48.939  21.925  52.944  1.00  0.00     0.000 C 
BRANCH   2   3
ATOM      3  C   UNL     1      47.945  22.266  51.822  1.00  0.00     0.000 C 
BRANCH   3   4
ATOM      4  C   UNL     1      47.444  21.016  51.079  1.00  0.00    -0.000 C 
BRANCH   4   5
ATOM      5  C   UNL     1      48.380  20.599  49.932  1.00  0.00    -0.000 C 
BRANCH   5   6
ATOM      6  C   UNL     1      48.819  19.127  50.040  1.00  0.00    -0.000 C 
BRANCH   6   7
ATOM      7  C   UNL     1      50.344  18.954  49.954  1.00  0.00    -0.000 C 
BRANCH   7   8
ATOM      8  C   UNL     1      51.106  20.035  50.741  1.00  0.00    -0.000 C 
BRANCH   8   9
ATOM      9  C   UNL     1      51.971  20.925  49.835  1.00  0.00    -0.000 C 
BRANCH   9  10
ATOM     10  C   UNL     1      53.457  20.915  50.239  1.00  0.00    -0.000 C 
BRANCH  10  11
ATOM     11  C   UNL     1      54.397  21.001  49.027  1.00  0.00    -0.003 C 
ATOM     12  C   UNL     1      55.236  19.736  48.841  1.00  0.00     0.004 C 
ENDBRANCH  10  11
ENDBRANCH   9  10
ENDBRANCH   8   9
ENDBRANCH   7   8
ENDBRANCH   6   7
ENDBRANCH   5   6
ENDBRANCH   4   5
ENDBRANCH   3   4
ENDBRANCH   2   3
ENDBRANCH   1   2
BRANCH   1  13
ATOM     13  C   UNL     1      47.803  23.891  54.133  1.00  0.00     0.000 C 
BRANCH  13  14
ATOM     14  C   UNL     1      46.808  23.326  55.167  1.00  0.00     0.000 C 
BRANCH  14  15
ATOM     15  C   UNL     1      47.373  22.220  56.080  1.00  0.00     0.000 C 
BRANCH  15  16
ATOM     16  C   UNL     1      46.744  20.827  55.881  1.00  0.00     0.000 C 
BRANCH  16  17
ATOM     17  C   UNL     1      45.604  20.766  54.845  1.00  0.00     0.000 C 
BRANCH  17  18
ATOM     18  C   UNL     1      44.405  19.889  55.250  1.00  0.00     0.000 C 
BRANCH  18  19
ATOM     19  C   UNL     1      44.123  18.761  54.246  1.00  0.00     0.000 C 
BRANCH  19  20
ATOM     20  C   UNL     1      45.130  18.796  53.087  1.00  0.00     0.006 C 
BRANCH  20  21
ATOM     21  C   UNL     1      45.274  17.432  52.400  1.00  0.00     0.053 C 
BRANCH  21  22
ATOM     22  C   UNL     1      44.388  17.319  51.198  1.00  0.00     0.041 C 
ATOM     23  O   UNL     1      43.781  18.331  50.758  1.00  0.00    -0.550 OA
ATOM     24  O   UNL     1      44.249  16.098  50.550  1.00  0.00    -0.550 OA
ENDBRANCH  21  22
ENDBRANCH  20  21
ENDBRANCH  19  20
ENDBRANCH  18  19
ENDBRANCH  17  18
ENDBRANCH  16  17
ENDBRANCH  15  16
ENDBRANCH  14  15
ENDBRANCH  13  14
ENDBRANCH   1  13
TORSDOF 20
ENDMDL
MODEL 2
REMARK VINA RESULT:    -4.952      2.340      4.260
REMARK INTER + INTRA:         -12.954
REMARK INTER:                 -10.638
REMARK INTRA:                  -2.316
REMARK UNBOUND:                -2.211
REMARK SMILES CCCCCCCCCCCCCCCCCCCCCC(=O)[O-]
REMARK SMILES IDX 12 1 11 2 10 3 9 4 8 5 7 6 6 7 5 8 4 9 3 10 2 11 1 12 13 13
REMARK SMILES IDX 14 14 15 15 16 16 17 17 18 18 19 19 20 20 21 21 22 22 23 23
REMARK SMILES IDX 24 24
REMARK H PARENT
REMARK Flexibility Score: inf
ROOT
ATOM      1  C   UNL     1      49.374  23.019  52.358  1.00  0.00     0.000 C 
ENDROOT
BRANCH   1   2
ATOM      2  C   UNL     1      48.958  22.066  53.492  1.00  0.00     0.000 C 
BRANCH   2   3
ATOM      3  C   UNL     1      49.983  22.031  54.636  1.00  0.00     0.000 C 
BRANCH   3   4
ATOM      4  C   UNL     1      51.110  21.015  54.389  1.00  0.00    -0.000 C 
BRANCH   4   5
ATOM      5  C   UNL     1      52.423  21.412  55.084  1.00  0.00    -0.000 C 
BRANCH   5   6
ATOM      6  C   UNL     1      53.588  21.574  54.089  1.00  0.00    -0.000 C 
BRANCH   6   7
ATOM      7  C   UNL     1      53.516  22.890  53.299  1.00  0.00    -0.000 C 
BRANCH   7   8
ATOM      8  C   UNL     1      53.385  22.661  51.783  1.00  0.00    -0.000 C 
BRANCH   8   9
ATOM      9  C   UNL     1      53.344  21.170  51.413  1.00  0.00    -0.000 C 
BRANCH   9  10
ATOM     10  C   UNL     1      53.241  20.939  49.894  1.00  0.00    -0.000 C 
BRANCH  10  11
ATOM     11  C   UNL     1      54.523  20.334  49.302  1.00  0.00    -0.003 C 
ATOM     12  C   UNL     1      55.023  21.096  48.074  1.00  0.00     0.004 C 
ENDBRANCH  10  11
ENDBRANCH   9  10
ENDBRANCH   8   9
ENDBRANCH   7   8
ENDBRANCH   6   7
ENDBRANCH   5   6
ENDBRANCH   4   5
ENDBRANCH   3   4
ENDBRANCH   2   3
ENDBRANCH   1   2
BRANCH   1  13
ATOM     13  C   UNL     1      50.016  22.285  51.168  1.00  0.00     0.000 C 
BRANCH  13  14
ATOM     14  C   UNL     1      49.604  20.807  51.019  1.00  0.00     0.000 C 
BRANCH  14  15
ATOM     15  C   UNL     1      48.535  20.532  49.942  1.00  0.00     0.000 C 
BRANCH  15  16
ATOM     16  C   UNL     1      47.077  20.611  50.436  1.00  0.00     0.000 C 
BRANCH  16  17
ATOM     17  C   UNL     1      46.714  19.624  51.563  1.00  0.00     0.000 C 
BRANCH  17  18
ATOM     18  C   UNL     1      45.567  18.652  51.231  1.00  0.00     0.000 C 
BRANCH  18  19
ATOM     19  C   UNL     1      45.159  17.778  52.426  1.00  0.00     0.000 C 
BRANCH  19  20
ATOM     20  C   UNL     1      43.740  18.126  52.899  1.00  0.00     0.006 C 
BRANCH  20  21
ATOM     21  C   UNL     1      43.618  18.111  54.428  1.00  0.00     0.053 C 
BRANCH  21  22
ATOM     22  C   UNL     1      43.724  19.488  55.007  1.00  0.00     0.041 C 
ATOM     23  O   UNL     1      42.707  20.057  55.486  1.00  0.00    -0.550 OA
ATOM     24  O   UNL     1      44.953  20.137  55.038  1.00  0.00    -0.550 OA
ENDBRANCH  21  22
ENDBRANCH  20  21
ENDBRANCH  19  20
ENDBRANCH  18  19
ENDBRANCH  17  18
ENDBRANCH  16  17
ENDBRANCH  15  16
ENDBRANCH  14  15
ENDBRANCH  13  14
ENDBRANCH   1  13
TORSDOF 20
ENDMDL
MODEL 3
REMARK VINA RESULT:    -4.873      1.602      2.533
REMARK INTER + INTRA:         -12.782
REMARK INTER:                  -9.968
REMARK INTRA:                  -2.814
REMARK UNBOUND:                -2.211
REMARK SMILES CCCCCCCCCCCCCCCCCCCCCC(=O)[O-]
REMARK SMILES IDX 12 1 11 2 10 3 9 4 8 5 7 6 6 7 5 8 4 9 3 10 2 11 1 12 13 13
REMARK SMILES IDX 14 14 15 15 16 16 17 17 18 18 19 19 20 20 21 21 22 22 23 23
REMARK SMILES IDX 24 24
REMARK H PARENT
REMARK Flexibility Score: inf
ROOT
ATOM      1  C   UNL     1      49.913  22.121  53.694  1.00  0.00     0.000 C 
ENDROOT
BRANCH   1   2
ATOM      2  C   UNL     1      49.451  23.201  52.700  1.00  0.00     0.000 C 
BRANCH   2   3
ATOM      3  C   UNL     1      48.142  22.823  51.988  1.00  0.00     0.000 C 
BRANCH   3   4
ATOM      4  C   UNL     1      47.907  21.304  51.953  1.00  0.00    -0.000 C 
BRANCH   4   5
ATOM      5  C   UNL     1      47.612  20.788  50.535  1.00  0.00    -0.000 C 
BRANCH   5   6
ATOM      6  C   UNL     1      48.869  20.763  49.645  1.00  0.00    -0.000 C 
BRANCH   6   7
ATOM      7  C   UNL     1      50.027  19.973  50.274  1.00  0.00    -0.000 C 
BRANCH   7   8
ATOM      8  C   UNL     1      51.301  20.820  50.436  1.00  0.00    -0.000 C 
BRANCH   8   9
ATOM      9  C   UNL     1      52.423  20.388  49.479  1.00  0.00    -0.000 C 
BRANCH   9  10
ATOM     10  C   UNL     1      53.818  20.466  50.126  1.00  0.00    -0.000 C 
BRANCH  10  11
ATOM     11  C   UNL     1      54.950  20.223  49.117  1.00  0.00    -0.003 C 
ATOM     12  C   UNL     1      54.942  21.232  47.968  1.00  0.00     0.004 C 
ENDBRANCH  10  11
ENDBRANCH   9  10
ENDBRANCH   8   9
ENDBRANCH   7   8
ENDBRANCH   6   7
ENDBRANCH   5   6
ENDBRANCH   4   5
ENDBRANCH   3   4
ENDBRANCH   2   3
ENDBRANCH   1   2
BRANCH   1  13
ATOM     13  C   UNL     1      50.600  22.712  54.938  1.00  0.00     0.000 C 
BRANCH  13  14
ATOM     14  C   UNL     1      49.832  23.863  55.617  1.00  0.00     0.000 C 
BRANCH  14  15
ATOM     15  C   UNL     1      49.247  23.528  57.004  1.00  0.00     0.000 C 
BRANCH  15  16
ATOM     16  C   UNL     1      47.719  23.323  57.034  1.00  0.00     0.000 C 
BRANCH  16  17
ATOM     17  C   UNL     1      46.978  23.738  55.747  1.00  0.00     0.000 C 
BRANCH  17  18
ATOM     18  C   UNL     1      46.169  22.615  55.073  1.00  0.00     0.000 C 
BRANCH  18  19
ATOM     19  C   UNL     1      46.758  21.219  55.325  1.00  0.00     0.000 C 
BRANCH  19  20
ATOM     20  C   UNL     1      45.696  20.273  55.904  1.00  0.00     0.006 C 
BRANCH  20  21
ATOM     21  C   UNL     1      44.427  20.228  55.044  1.00  0.00     0.053 C 
BRANCH  21  22
ATOM     22  C   UNL     1      44.321  18.944  54.278  1.00  0.00     0.041 C 
ATOM     23  O   UNL     1      43.518  18.048  54.648  1.00  0.00    -0.550 OA
ATOM     24  O   UNL     1      45.095  18.748  53.140  1.00  0.00    -0.550 OA
ENDBRANCH  21  22
ENDBRANCH  20  21
ENDBRANCH  19  20
ENDBRANCH  18  19
ENDBRANCH  17  18
ENDBRANCH  16  17
ENDBRANCH  15  16
ENDBRANCH  14  15
ENDBRANCH  13  14
ENDBRANCH   1  13
TORSDOF 20
ENDMDL
MODEL 4
REMARK VINA RESULT:    -4.862      2.117      5.440
REMARK INTER + INTRA:         -12.758
REMARK INTER:                  -9.966
REMARK INTRA:                  -2.791
REMARK UNBOUND:                -2.211
REMARK SMILES CCCCCCCCCCCCCCCCCCCCCC(=O)[O-]
REMARK SMILES IDX 12 1 11 2 10 3 9 4 8 5 7 6 6 7 5 8 4 9 3 10 2 11 1 12 13 13
REMARK SMILES IDX 14 14 15 15 16 16 17 17 18 18 19 19 20 20 21 21 22 22 23 23
REMARK SMILES IDX 24 24
REMARK H PARENT
REMARK Flexibility Score: inf
ROOT
ATOM      1  C   UNL     1      50.447  19.347  50.474  1.00  0.00     0.000 C 
ENDROOT
BRANCH   1   2
ATOM      2  C   UNL     1      51.123  20.701  50.200  1.00  0.00     0.000 C 
BRANCH   2   3
ATOM      3  C   UNL     1      52.601  20.551  49.805  1.00  0.00     0.000 C 
BRANCH   3   4
ATOM      4  C   UNL     1      53.543  21.340  50.730  1.00  0.00    -0.000 C 
BRANCH   4   5
ATOM      5  C   UNL     1      53.056  21.359  52.188  1.00  0.00    -0.000 C 
BRANCH   5   6
ATOM      6  C   UNL     1      53.056  22.777  52.789  1.00  0.00    -0.000 C 
BRANCH   6   7
ATOM      7  C   UNL     1      51.658  23.235  53.234  1.00  0.00    -0.000 C 
BRANCH   7   8
ATOM      8  C   UNL     1      50.849  23.861  52.085  1.00  0.00    -0.000 C 
BRANCH   8   9
ATOM      9  C   UNL     1      49.418  23.305  51.999  1.00  0.00    -0.000 C 
BRANCH   9  10
ATOM     10  C   UNL     1      49.124  22.257  53.089  1.00  0.00    -0.000 C 
BRANCH  10  11
ATOM     11  C   UNL     1      47.720  22.416  53.693  1.00  0.00    -0.003 C 
ATOM     12  C   UNL     1      47.394  21.332  54.720  1.00  0.00     0.004 C 
ENDBRANCH  10  11
ENDBRANCH   9  10
ENDBRANCH   8   9
ENDBRANCH   7   8
ENDBRANCH   6   7
ENDBRANCH   5   6
ENDBRANCH   4   5
ENDBRANCH   3   4
ENDBRANCH   2   3
ENDBRANCH   1   2
BRANCH   1  13
ATOM     13  C   UNL     1      49.045  19.244  49.848  1.00  0.00     0.000 C 
BRANCH  13  14
ATOM     14  C   UNL     1      48.246  20.563  49.828  1.00  0.00     0.000 C 
BRANCH  14  15
ATOM     15  C   UNL     1      46.908  20.527  50.594  1.00  0.00     0.000 C 
BRANCH  15  16
ATOM     16  C   UNL     1      46.694  19.278  51.473  1.00  0.00     0.000 C 
BRANCH  16  17
ATOM     17  C   UNL     1      45.230  18.814  51.606  1.00  0.00     0.000 C 
BRANCH  17  18
ATOM     18  C   UNL     1      45.031  17.510  52.398  1.00  0.00     0.000 C 
BRANCH  18  19
ATOM     19  C   UNL     1      44.203  17.707  53.677  1.00  0.00     0.000 C 
BRANCH  19  20
ATOM     20  C   UNL     1      44.265  19.167  54.149  1.00  0.00     0.006 C 
BRANCH  20  21
ATOM     21  C   UNL     1      43.476  19.393  55.445  1.00  0.00     0.053 C 
BRANCH  21  22
ATOM     22  C   UNL     1      42.069  18.891  55.333  1.00  0.00     0.041 C 
ATOM     23  O   UNL     1      41.641  18.015  56.130  1.00  0.00    -0.550 OA
ATOM     24  O   UNL     1      41.222  19.408  54.359  1.00  0.00    -0.550 OA
ENDBRANCH  21  22
ENDBRANCH  20  21
ENDBRANCH  19  20
ENDBRANCH  18  19
ENDBRANCH  17  18
ENDBRANCH  16  17
ENDBRANCH  15  16
ENDBRANCH  14  15
ENDBRANCH  13  14
ENDBRANCH   1  13
TORSDOF 20
ENDMDL
MODEL 5
REMARK VINA RESULT:    -4.802      2.237      3.176
REMARK INTER + INTRA:         -12.628
REMARK INTER:                 -11.458
REMARK INTRA:                  -1.170
REMARK UNBOUND:                -2.211
REMARK SMILES CCCCCCCCCCCCCCCCCCCCCC(=O)[O-]
REMARK SMILES IDX 12 1 11 2 10 3 9 4 8 5 7 6 6 7 5 8 4 9 3 10 2 11 1 12 13 13
REMARK SMILES IDX 14 14 15 15 16 16 17 17 18 18 19 19 20 20 21 21 22 22 23 23
REMARK SMILES IDX 24 24
REMARK H PARENT
REMARK Flexibility Score: inf
ROOT
ATOM      1  C   UNL     1      45.664  24.800  54.933  1.00  0.00     0.000 C 
ENDROOT
BRANCH   1   2
ATOM      2  C   UNL     1      46.926  23.942  55.129  1.00  0.00     0.000 C 
BRANCH   2   3
ATOM      3  C   UNL     1      47.082  22.868  54.041  1.00  0.00     0.000 C 
BRANCH   3   4
ATOM      4  C   UNL     1      48.518  22.782  53.497  1.00  0.00    -0.000 C 
BRANCH   4   5
ATOM      5  C   UNL     1      48.601  21.995  52.179  1.00  0.00    -0.000 C 
BRANCH   5   6
ATOM      6  C   UNL     1      49.876  22.322  51.380  1.00  0.00    -0.000 C 
BRANCH   6   7
ATOM      7  C   UNL     1      50.872  21.152  51.345  1.00  0.00    -0.000 C 
BRANCH   7   8
ATOM      8  C   UNL     1      52.242  21.526  51.938  1.00  0.00    -0.000 C 
BRANCH   8   9
ATOM      9  C   UNL     1      53.386  21.373  50.922  1.00  0.00    -0.000 C 
BRANCH   9  10
ATOM     10  C   UNL     1      52.999  20.486  49.724  1.00  0.00    -0.000 C 
BRANCH  10  11
ATOM     11  C   UNL     1      54.220  20.036  48.907  1.00  0.00    -0.003 C 
ATOM     12  C   UNL     1      55.028  21.212  48.357  1.00  0.00     0.004 C 
ENDBRANCH  10  11
ENDBRANCH   9  10
ENDBRANCH   8   9
ENDBRANCH   7   8
ENDBRANCH   6   7
ENDBRANCH   5   6
ENDBRANCH   4   5
ENDBRANCH   3   4
ENDBRANCH   2   3
ENDBRANCH   1   2
BRANCH   1  13
ATOM     13  C   UNL     1      44.378  24.076  55.372  1.00  0.00     0.000 C 
BRANCH  13  14
ATOM     14  C   UNL     1      43.086  24.905  55.229  1.00  0.00     0.000 C 
BRANCH  14  15
ATOM     15  C   UNL     1      41.789  24.080  55.121  1.00  0.00     0.000 C 
BRANCH  15  16
ATOM     16  C   UNL     1      41.990  22.551  55.103  1.00  0.00     0.000 C 
BRANCH  16  17
ATOM     17  C   UNL     1      40.999  21.771  54.216  1.00  0.00     0.000 C 
BRANCH  17  18
ATOM     18  C   UNL     1      41.400  20.315  53.919  1.00  0.00     0.000 C 
BRANCH  18  19
ATOM     19  C   UNL     1      42.220  19.678  55.051  1.00  0.00     0.000 C 
BRANCH  19  20
ATOM     20  C   UNL     1      42.957  18.425  54.555  1.00  0.00     0.006 C 
BRANCH  20  21
ATOM     21  C   UNL     1      44.348  18.751  53.996  1.00  0.00     0.053 C 
BRANCH  21  22
ATOM     22  C   UNL     1      44.490  18.313  52.571  1.00  0.00     0.041 C 
ATOM     23  O   UNL     1      45.593  17.878  52.146  1.00  0.00    -0.550 OA
ATOM     24  O   UNL     1      43.396  18.365  51.715  1.00  0.00    -0.550 OA
ENDBRANCH  21  22
ENDBRANCH  20  21
ENDBRANCH  19  20
ENDBRANCH  18  19
ENDBRANCH  17  18
ENDBRANCH  16  17
ENDBRANCH  15  16
ENDBRANCH  14  15
ENDBRANCH  13  14
ENDBRANCH   1  13
TORSDOF 20
ENDMDL
MODEL 6
REMARK VINA RESULT:    -4.799      2.660      3.920
REMARK INTER + INTRA:         -12.622
REMARK INTER:                 -11.398
REMARK INTRA:                  -1.224
REMARK UNBOUND:                -2.211
REMARK SMILES CCCCCCCCCCCCCCCCCCCCCC(=O)[O-]
REMARK SMILES IDX 12 1 11 2 10 3 9 4 8 5 7 6 6 7 5 8 4 9 3 10 2 11 1 12 13 13
REMARK SMILES IDX 14 14 15 15 16 16 17 17 18 18 19 19 20 20 21 21 22 22 23 23
REMARK SMILES IDX 24 24
REMARK H PARENT
REMARK Flexibility Score: inf
ROOT
ATOM      1  C   UNL     1      47.725  21.462  52.347  1.00  0.00     0.000 C 
ENDROOT
BRANCH   1   2
ATOM      2  C   UNL     1      47.221  20.870  51.019  1.00  0.00     0.000 C 
BRANCH   2   3
ATOM      3  C   UNL     1      48.343  20.719  49.980  1.00  0.00     0.000 C 
BRANCH   3   4
ATOM      4  C   UNL     1      48.957  19.308  49.975  1.00  0.00    -0.000 C 
BRANCH   4   5
ATOM      5  C   UNL     1      50.458  19.319  50.306  1.00  0.00    -0.000 C 
BRANCH   5   6
ATOM      6  C   UNL     1      51.055  20.738  50.280  1.00  0.00    -0.000 C 
BRANCH   6   7
ATOM      7  C   UNL     1      52.473  20.797  50.870  1.00  0.00    -0.000 C 
BRANCH   7   8
ATOM      8  C   UNL     1      53.526  21.222  49.831  1.00  0.00    -0.000 C 
BRANCH   8   9
ATOM      9  C   UNL     1      54.281  20.024  49.233  1.00  0.00    -0.000 C 
BRANCH   9  10
ATOM     10  C   UNL     1      55.555  20.443  48.476  1.00  0.00    -0.000 C 
BRANCH  10  11
ATOM     11  C   UNL     1      55.393  21.788  47.752  1.00  0.00    -0.003 C 
ATOM     12  C   UNL     1      56.378  21.958  46.595  1.00  0.00     0.004 C 
ENDBRANCH  10  11
ENDBRANCH   9  10
ENDBRANCH   8   9
ENDBRANCH   7   8
ENDBRANCH   6   7
ENDBRANCH   5   6
ENDBRANCH   4   5
ENDBRANCH   3   4
ENDBRANCH   2   3
ENDBRANCH   1   2
BRANCH   1  13
ATOM     13  C   UNL     1      47.947  22.983  52.275  1.00  0.00     0.000 C 
BRANCH  13  14
ATOM     14  C   UNL     1      47.827  23.721  53.623  1.00  0.00     0.000 C 
BRANCH  14  15
ATOM     15  C   UNL     1      46.701  23.214  54.547  1.00  0.00     0.000 C 
BRANCH  15  16
ATOM     16  C   UNL     1      45.721  24.299  55.035  1.00  0.00     0.000 C 
BRANCH  16  17
ATOM     17  C   UNL     1      44.245  23.862  55.108  1.00  0.00     0.000 C 
BRANCH  17  18
ATOM     18  C   UNL     1      43.229  25.015  55.199  1.00  0.00     0.000 C 
BRANCH  18  19
ATOM     19  C   UNL     1      41.772  24.529  55.222  1.00  0.00     0.000 C 
BRANCH  19  20
ATOM     20  C   UNL     1      41.709  22.996  55.293  1.00  0.00     0.006 C 
BRANCH  20  21
ATOM     21  C   UNL     1      40.873  22.395  54.155  1.00  0.00     0.053 C 
BRANCH  21  22
ATOM     22  C   UNL     1      40.993  20.902  54.107  1.00  0.00     0.041 C 
ATOM     23  O   UNL     1      40.046  20.203  53.661  1.00  0.00    -0.550 OA
ATOM     24  O   UNL     1      42.162  20.285  54.536  1.00  0.00    -0.550 OA
ENDBRANCH  21  22
ENDBRANCH  20  21
ENDBRANCH  19  20
ENDBRANCH  18  19
ENDBRANCH  17  18
ENDBRANCH  16  17
ENDBRANCH  15  16
ENDBRANCH  14  15
ENDBRANCH  13  14
ENDBRANCH   1  13
TORSDOF 20
ENDMDL
MODEL 7
REMARK VINA RESULT:    -4.784      3.767      5.488
REMARK INTER + INTRA:         -12.588
REMARK INTER:                 -10.039
REMARK INTRA:                  -2.548
REMARK UNBOUND:                -2.211
REMARK SMILES CCCCCCCCCCCCCCCCCCCCCC(=O)[O-]
REMARK SMILES IDX 12 1 11 2 10 3 9 4 8 5 7 6 6 7 5 8 4 9 3 10 2 11 1 12 13 13
REMARK SMILES IDX 14 14 15 15 16 16 17 17 18 18 19 19 20 20 21 21 22 22 23 23
REMARK SMILES IDX 24 24
REMARK H PARENT
REMARK Flexibility Score: inf
ROOT
ATOM      1  C   UNL     1      47.350  23.320  53.816  1.00  0.00     0.000 C 
ENDROOT
BRANCH   1   2
ATOM      2  C   UNL     1      47.990  23.186  52.423  1.00  0.00     0.000 C 
BRANCH   2   3
ATOM      3  C   UNL     1      48.386  21.738  52.095  1.00  0.00     0.000 C 
BRANCH   3   4
ATOM      4  C   UNL     1      47.521  21.127  50.980  1.00  0.00    -0.000 C 
BRANCH   4   5
ATOM      5  C   UNL     1      48.364  20.547  49.833  1.00  0.00    -0.000 C 
BRANCH   5   6
ATOM      6  C   UNL     1      49.051  19.224  50.219  1.00  0.00    -0.000 C 
BRANCH   6   7
ATOM      7  C   UNL     1      50.548  19.208  49.874  1.00  0.00    -0.000 C 
BRANCH   7   8
ATOM      8  C   UNL     1      51.312  20.387  50.502  1.00  0.00    -0.000 C 
BRANCH   8   9
ATOM      9  C   UNL     1      52.365  20.980  49.553  1.00  0.00    -0.000 C 
BRANCH   9  10
ATOM     10  C   UNL     1      53.805  20.628  49.972  1.00  0.00    -0.000 C 
BRANCH  10  11
ATOM     11  C   UNL     1      54.671  20.183  48.784  1.00  0.00    -0.003 C 
ATOM     12  C   UNL     1      55.215  21.361  47.975  1.00  0.00     0.004 C 
ENDBRANCH  10  11
ENDBRANCH   9  10
ENDBRANCH   8   9
ENDBRANCH   7   8
ENDBRANCH   6   7
ENDBRANCH   5   6
ENDBRANCH   4   5
ENDBRANCH   3   4
ENDBRANCH   2   3
ENDBRANCH   1   2
BRANCH   1  13
ATOM     13  C   UNL     1      47.277  21.980  54.569  1.00  0.00     0.000 C 
BRANCH  13  14
ATOM     14  C   UNL     1      47.338  22.095  56.106  1.00  0.00     0.000 C 
BRANCH  14  15
ATOM     15  C   UNL     1      47.553  23.524  56.645  1.00  0.00     0.000 C 
BRANCH  15  16
ATOM     16  C   UNL     1      48.816  23.711  57.509  1.00  0.00     0.000 C 
BRANCH  16  17
ATOM     17  C   UNL     1      49.869  24.675  56.929  1.00  0.00     0.000 C 
BRANCH  17  18
ATOM     18  C   UNL     1      50.324  24.352  55.494  1.00  0.00     0.000 C 
BRANCH  18  19
ATOM     19  C   UNL     1      51.010  22.983  55.379  1.00  0.00     0.000 C 
BRANCH  19  20
ATOM     20  C   UNL     1      51.357  22.666  53.916  1.00  0.00     0.006 C 
BRANCH  20  21
ATOM     21  C   UNL     1      52.866  22.737  53.649  1.00  0.00     0.053 C 
BRANCH  21  22
ATOM     22  C   UNL     1      53.632  21.808  54.540  1.00  0.00     0.041 C 
ATOM     23  O   UNL     1      54.613  22.230  55.206  1.00  0.00    -0.550 OA
ATOM     24  O   UNL     1      53.246  20.477  54.652  1.00  0.00    -0.550 OA
ENDBRANCH  21  22
ENDBRANCH  20  21
ENDBRANCH  19  20
ENDBRANCH  18  19
ENDBRANCH  17  18
ENDBRANCH  16  17
ENDBRANCH  15  16
ENDBRANCH  14  15
ENDBRANCH  13  14
ENDBRANCH   1  13
TORSDOF 20
ENDMDL
MODEL 8
REMARK VINA RESULT:    -4.745      2.462      3.985
REMARK INTER + INTRA:         -12.505
REMARK INTER:                 -10.807
REMARK INTRA:                  -1.698
REMARK UNBOUND:                -2.211
REMARK SMILES CCCCCCCCCCCCCCCCCCCCCC(=O)[O-]
REMARK SMILES IDX 12 1 11 2 10 3 9 4 8 5 7 6 6 7 5 8 4 9 3 10 2 11 1 12 13 13
REMARK SMILES IDX 14 14 15 15 16 16 17 17 18 18 19 19 20 20 21 21 22 22 23 23
REMARK SMILES IDX 24 24
REMARK H PARENT
REMARK Flexibility Score: inf
ROOT
ATOM      1  C   UNL     1      48.284  22.085  52.518  1.00  0.00     0.000 C 
ENDROOT
BRANCH   1   2
ATOM      2  C   UNL     1      48.227  23.617  52.387  1.00  0.00     0.000 C 
BRANCH   2   3
ATOM      3  C   UNL     1      49.480  24.302  52.954  1.00  0.00     0.000 C 
BRANCH   3   4
ATOM      4  C   UNL     1      50.606  24.427  51.914  1.00  0.00    -0.000 C 
BRANCH   4   5
ATOM      5  C   UNL     1      51.959  23.929  52.448  1.00  0.00    -0.000 C 
BRANCH   5   6
ATOM      6  C   UNL     1      51.800  22.833  53.518  1.00  0.00    -0.000 C 
BRANCH   6   7
ATOM      7  C   UNL     1      52.273  21.454  53.031  1.00  0.00    -0.000 C 
BRANCH   7   8
ATOM      8  C   UNL     1      52.908  21.508  51.630  1.00  0.00    -0.000 C 
BRANCH   8   9
ATOM      9  C   UNL     1      51.976  20.959  50.539  1.00  0.00    -0.000 C 
BRANCH   9  10
ATOM     10  C   UNL     1      52.740  20.232  49.417  1.00  0.00    -0.000 C 
BRANCH  10  11
ATOM     11  C   UNL     1      54.263  20.381  49.551  1.00  0.00    -0.003 C 
ATOM     12  C   UNL     1      54.900  21.051  48.333  1.00  0.00     0.004 C 
ENDBRANCH  10  11
ENDBRANCH   9  10
ENDBRANCH   8   9
ENDBRANCH   7   8
ENDBRANCH   6   7
ENDBRANCH   5   6
ENDBRANCH   4   5
ENDBRANCH   3   4
ENDBRANCH   2   3
ENDBRANCH   1   2
BRANCH   1  13
ATOM     13  C   UNL     1      48.328  21.371  51.155  1.00  0.00     0.000 C 
BRANCH  13  14
ATOM     14  C   UNL     1      47.033  20.628  50.770  1.00  0.00     0.000 C 
BRANCH  14  15
ATOM     15  C   UNL     1      46.896  19.209  51.358  1.00  0.00     0.000 C 
BRANCH  15  16
ATOM     16  C   UNL     1      45.449  18.690  51.475  1.00  0.00     0.000 C 
BRANCH  16  17
ATOM     17  C   UNL     1      45.123  17.951  52.787  1.00  0.00     0.000 C 
BRANCH  17  18
ATOM     18  C   UNL     1      44.300  18.763  53.804  1.00  0.00     0.000 C 
BRANCH  18  19
ATOM     19  C   UNL     1      43.365  17.888  54.651  1.00  0.00     0.000 C 
BRANCH  19  20
ATOM     20  C   UNL     1      42.484  18.753  55.565  1.00  0.00     0.006 C 
BRANCH  20  21
ATOM     21  C   UNL     1      42.412  20.211  55.092  1.00  0.00     0.053 C 
BRANCH  21  22
ATOM     22  C   UNL     1      41.206  20.459  54.239  1.00  0.00     0.041 C 
ATOM     23  O   UNL     1      41.060  21.561  53.650  1.00  0.00    -0.550 OA
ATOM     24  O   UNL     1      40.252  19.461  54.077  1.00  0.00    -0.550 OA
ENDBRANCH  21  22
ENDBRANCH  20  21
ENDBRANCH  19  20
ENDBRANCH  18  19
ENDBRANCH  17  18
ENDBRANCH  16  17
ENDBRANCH  15  16
ENDBRANCH  14  15
ENDBRANCH  13  14
ENDBRANCH   1  13
TORSDOF 20
ENDMDL
MODEL 9
REMARK VINA RESULT:    -4.651      2.353      3.798
REMARK INTER + INTRA:         -12.300
REMARK INTER:                 -10.620
REMARK INTRA:                  -1.679
REMARK UNBOUND:                -2.211
REMARK SMILES CCCCCCCCCCCCCCCCCCCCCC(=O)[O-]
REMARK SMILES IDX 12 1 11 2 10 3 9 4 8 5 7 6 6 7 5 8 4 9 3 10 2 11 1 12 13 13
REMARK SMILES IDX 14 14 15 15 16 16 17 17 18 18 19 19 20 20 21 21 22 22 23 23
REMARK SMILES IDX 24 24
REMARK H PARENT
REMARK Flexibility Score: inf
ROOT
ATOM      1  C   UNL     1      44.381  24.935  54.751  1.00  0.00     0.000 C 
ENDROOT
BRANCH   1   2
ATOM      2  C   UNL     1      45.374  23.811  55.095  1.00  0.00     0.000 C 
BRANCH   2   3
ATOM      3  C   UNL     1      46.614  23.824  54.188  1.00  0.00     0.000 C 
BRANCH   3   4
ATOM      4  C   UNL     1      47.397  22.502  54.239  1.00  0.00    -0.000 C 
BRANCH   4   5
ATOM      5  C   UNL     1      48.741  22.585  53.497  1.00  0.00    -0.000 C 
BRANCH   5   6
ATOM      6  C   UNL     1      48.570  22.556  51.967  1.00  0.00    -0.000 C 
BRANCH   6   7
ATOM      7  C   UNL     1      47.666  21.407  51.492  1.00  0.00    -0.000 C 
BRANCH   7   8
ATOM      8  C   UNL     1      48.176  20.753  50.196  1.00  0.00    -0.000 C 
BRANCH   8   9
ATOM      9  C   UNL     1      48.963  19.459  50.458  1.00  0.00    -0.000 C 
BRANCH   9  10
ATOM     10  C   UNL     1      50.367  19.482  49.826  1.00  0.00    -0.000 C 
BRANCH  10  11
ATOM     11  C   UNL     1      51.287  20.528  50.474  1.00  0.00    -0.003 C 
ATOM     12  C   UNL     1      52.570  20.761  49.676  1.00  0.00     0.004 C 
ENDBRANCH  10  11
ENDBRANCH   9  10
ENDBRANCH   8   9
ENDBRANCH   7   8
ENDBRANCH   6   7
ENDBRANCH   5   6
ENDBRANCH   4   5
ENDBRANCH   3   4
ENDBRANCH   2   3
ENDBRANCH   1   2
BRANCH   1  13
ATOM     13  C   UNL     1      43.243  25.060  55.779  1.00  0.00     0.000 C 
BRANCH  13  14
ATOM     14  C   UNL     1      41.822  24.997  55.184  1.00  0.00     0.000 C 
BRANCH  14  15
ATOM     15  C   UNL     1      41.001  23.755  55.584  1.00  0.00     0.000 C 
BRANCH  15  16
ATOM     16  C   UNL     1      41.168  22.536  54.654  1.00  0.00     0.000 C 
BRANCH  16  17
ATOM     17  C   UNL     1      42.167  21.471  55.145  1.00  0.00     0.000 C 
BRANCH  17  18
ATOM     18  C   UNL     1      41.809  20.022  54.770  1.00  0.00     0.000 C 
BRANCH  18  19
ATOM     19  C   UNL     1      42.688  18.984  55.485  1.00  0.00     0.000 C 
BRANCH  19  20
ATOM     20  C   UNL     1      43.337  18.027  54.475  1.00  0.00     0.006 C 
BRANCH  20  21
ATOM     21  C   UNL     1      44.602  18.622  53.841  1.00  0.00     0.053 C 
BRANCH  21  22
ATOM     22  C   UNL     1      44.769  18.184  52.419  1.00  0.00     0.041 C 
ATOM     23  O   UNL     1      45.850  18.398  51.810  1.00  0.00    -0.550 OA
ATOM     24  O   UNL     1      43.736  17.516  51.772  1.00  0.00    -0.550 OA
ENDBRANCH  21  22
ENDBRANCH  20  21
ENDBRANCH  19  20
ENDBRANCH  18  19
ENDBRANCH  17  18
ENDBRANCH  16  17
ENDBRANCH  15  16
ENDBRANCH  14  15
ENDBRANCH  13  14
ENDBRANCH   1  13
TORSDOF 20
ENDMDL
