MODEL 1
REMARK VINA RESULT:    -5.504      0.000      0.000
REMARK INTER + INTRA:          -5.504
REMARK INTER:                  -5.504
REMARK INTRA:                   0.000
REMARK UNBOUND:                 0.000
REMARK SMILES CC(C)=C1CC[C@H](C)CC1=O
REMARK SMILES IDX 8 1 7 2 6 3 5 4 4 5 2 6 1 7 3 8 10 9 11 10 9 11
REMARK H PARENT
REMARK Flexibility Score: inf
ROOT
ATOM      1  C   UNL     1     124.873 178.112 117.809  1.00  0.00     0.008 C 
ATOM      2  C   UNL     1     124.868 178.266 119.333  1.00  0.00    -0.006 C 
ATOM      3  C   UNL     1     123.790 177.369 119.963  1.00  0.00     0.008 C 
ATOM      4  C   UNL     1     123.700 177.586 121.480  1.00  0.00     0.039 C 
ATOM      5  C   UNL     1     125.050 177.450 122.170  1.00  0.00    -0.006 C 
ATOM      6  C   UNL     1     125.151 176.975 123.446  1.00  0.00    -0.070 C 
ATOM      7  C   UNL     1     126.489 176.782 124.121  1.00  0.00     0.039 C 
ATOM      8  C   UNL     1     123.922 176.581 124.235  1.00  0.00     0.039 C 
ATOM      9  C   UNL     1     126.229 177.972 121.415  1.00  0.00     0.159 C 
ATOM     10  O   UNL     1     127.220 178.472 122.012  1.00  0.00    -0.295 OA
ATOM     11  C   UNL     1     126.245 177.917 119.915  1.00  0.00     0.084 C 
ENDROOT
TORSDOF 0
ENDMDL
MODEL 2
REMARK VINA RESULT:    -5.186      3.932      5.596
REMARK INTER + INTRA:          -5.186
REMARK INTER:                  -5.186
REMARK INTRA:                   0.000
REMARK UNBOUND:                 0.000
REMARK SMILES CC(C)=C1CC[C@H](C)CC1=O
REMARK SMILES IDX 8 1 7 2 6 3 5 4 4 5 2 6 1 7 3 8 10 9 11 10 9 11
REMARK H PARENT
REMARK Flexibility Score: inf
ROOT
ATOM      1  C   UNL     1     124.495 176.947 122.526  1.00  0.00     0.008 C 
ATOM      2  C   UNL     1     123.285 177.096 123.454  1.00  0.00    -0.006 C 
ATOM      3  C   UNL     1     123.737 177.453 124.879  1.00  0.00     0.008 C 
ATOM      4  C   UNL     1     122.547 177.505 125.846  1.00  0.00     0.039 C 
ATOM      5  C   UNL     1     121.427 178.408 125.345  1.00  0.00    -0.006 C 
ATOM      6  C   UNL     1     120.631 179.099 126.212  1.00  0.00    -0.070 C 
ATOM      7  C   UNL     1     119.553 180.041 125.726  1.00  0.00     0.039 C 
ATOM      8  C   UNL     1     120.815 178.983 127.708  1.00  0.00     0.039 C 
ATOM      9  C   UNL     1     121.185 178.396 123.871  1.00  0.00     0.159 C 
ATOM     10  O   UNL     1     120.029 178.563 123.396  1.00  0.00    -0.295 OA
ATOM     11  C   UNL     1     122.327 178.173 122.923  1.00  0.00     0.084 C 
ENDROOT
TORSDOF 0
ENDMDL
MODEL 3
REMARK VINA RESULT:    -5.157      1.794      4.336
REMARK INTER + INTRA:          -5.157
REMARK INTER:                  -5.157
REMARK INTRA:                   0.000
REMARK UNBOUND:                 0.000
REMARK SMILES CC(C)=C1CC[C@H](C)CC1=O
REMARK SMILES IDX 8 1 7 2 6 3 5 4 4 5 2 6 1 7 3 8 10 9 11 10 9 11
REMARK H PARENT
REMARK Flexibility Score: inf
ROOT
ATOM      1  C   UNL     1     128.605 176.309 124.857  1.00  0.00     0.008 C 
ATOM      2  C   UNL     1     127.340 176.177 124.003  1.00  0.00    -0.006 C 
ATOM      3  C   UNL     1     126.512 177.471 124.061  1.00  0.00     0.008 C 
ATOM      4  C   UNL     1     125.190 177.322 123.296  1.00  0.00     0.039 C 
ATOM      5  C   UNL     1     125.393 176.821 121.872  1.00  0.00    -0.006 C 
ATOM      6  C   UNL     1     124.557 177.199 120.861  1.00  0.00    -0.070 C 
ATOM      7  C   UNL     1     124.781 176.754 119.434  1.00  0.00     0.039 C 
ATOM      8  C   UNL     1     123.382 178.116 121.116  1.00  0.00     0.039 C 
ATOM      9  C   UNL     1     126.478 175.814 121.680  1.00  0.00     0.159 C 
ATOM     10  O   UNL     1     126.389 174.914 120.801  1.00  0.00    -0.295 OA
ATOM     11  C   UNL     1     127.703 175.853 122.547  1.00  0.00     0.084 C 
ENDROOT
TORSDOF 0
ENDMDL
MODEL 4
REMARK VINA RESULT:    -5.141      5.184      6.729
REMARK INTER + INTRA:          -5.141
REMARK INTER:                  -5.141
REMARK INTRA:                   0.000
REMARK UNBOUND:                 0.000
REMARK SMILES CC(C)=C1CC[C@H](C)CC1=O
REMARK SMILES IDX 8 1 7 2 6 3 5 4 4 5 2 6 1 7 3 8 10 9 11 10 9 11
REMARK H PARENT
REMARK Flexibility Score: inf
ROOT
ATOM      1  C   UNL     1     117.620 178.513 124.272  1.00  0.00     0.008 C 
ATOM      2  C   UNL     1     118.917 178.086 124.967  1.00  0.00    -0.006 C 
ATOM      3  C   UNL     1     120.057 177.946 123.946  1.00  0.00     0.008 C 
ATOM      4  C   UNL     1     121.338 177.420 124.608  1.00  0.00     0.039 C 
ATOM      5  C   UNL     1     121.743 178.237 125.827  1.00  0.00    -0.006 C 
ATOM      6  C   UNL     1     123.055 178.398 126.170  1.00  0.00    -0.070 C 
ATOM      7  C   UNL     1     123.472 179.253 127.344  1.00  0.00     0.039 C 
ATOM      8  C   UNL     1     124.160 177.754 125.364  1.00  0.00     0.039 C 
ATOM      9  C   UNL     1     120.625 178.747 126.676  1.00  0.00     0.159 C 
ATOM     10  O   UNL     1     120.758 178.881 127.923  1.00  0.00    -0.295 OA
ATOM     11  C   UNL     1     119.307 179.102 126.051  1.00  0.00     0.084 C 
ENDROOT
TORSDOF 0
ENDMDL
MODEL 5
REMARK VINA RESULT:    -5.132      1.159      4.089
REMARK INTER + INTRA:          -5.132
REMARK INTER:                  -5.132
REMARK INTRA:                   0.000
REMARK UNBOUND:                 0.000
REMARK SMILES CC(C)=C1CC[C@H](C)CC1=O
REMARK SMILES IDX 8 1 7 2 6 3 5 4 4 5 2 6 1 7 3 8 10 9 11 10 9 11
REMARK H PARENT
REMARK Flexibility Score: inf
ROOT
ATOM      1  C   UNL     1     123.753 177.311 124.032  1.00  0.00     0.008 C 
ATOM      2  C   UNL     1     124.210 176.994 122.604  1.00  0.00    -0.006 C 
ATOM      3  C   UNL     1     123.370 177.776 121.582  1.00  0.00     0.008 C 
ATOM      4  C   UNL     1     123.744 177.395 120.144  1.00  0.00     0.039 C 
ATOM      5  C   UNL     1     125.240 177.507 119.880  1.00  0.00    -0.006 C 
ATOM      6  C   UNL     1     125.719 177.847 118.647  1.00  0.00    -0.070 C 
ATOM      7  C   UNL     1     127.199 178.017 118.388  1.00  0.00     0.039 C 
ATOM      8  C   UNL     1     124.786 178.107 117.487  1.00  0.00     0.039 C 
ATOM      9  C   UNL     1     126.136 177.114 121.008  1.00  0.00     0.159 C 
ATOM     10  O   UNL     1     127.264 176.591 120.797  1.00  0.00    -0.295 OA
ATOM     11  C   UNL     1     125.698 177.331 122.427  1.00  0.00     0.084 C 
ENDROOT
TORSDOF 0
ENDMDL
MODEL 6
REMARK VINA RESULT:    -5.120      6.905      8.474
REMARK INTER + INTRA:          -5.120
REMARK INTER:                  -5.120
REMARK INTRA:                   0.000
REMARK UNBOUND:                 0.000
REMARK SMILES CC(C)=C1CC[C@H](C)CC1=O
REMARK SMILES IDX 8 1 7 2 6 3 5 4 4 5 2 6 1 7 3 8 10 9 11 10 9 11
REMARK H PARENT
REMARK Flexibility Score: inf
ROOT
ATOM      1  C   UNL     1     123.377 179.545 127.493  1.00  0.00     0.008 C 
ATOM      2  C   UNL     1     122.233 178.538 127.334  1.00  0.00    -0.006 C 
ATOM      3  C   UNL     1     121.573 178.252 128.693  1.00  0.00     0.008 C 
ATOM      4  C   UNL     1     120.493 177.169 128.571  1.00  0.00     0.039 C 
ATOM      5  C   UNL     1     119.475 177.478 127.481  1.00  0.00    -0.006 C 
ATOM      6  C   UNL     1     118.174 177.081 127.591  1.00  0.00    -0.070 C 
ATOM      7  C   UNL     1     117.143 177.432 126.543  1.00  0.00     0.039 C 
ATOM      8  C   UNL     1     117.691 176.301 128.793  1.00  0.00     0.039 C 
ATOM      9  C   UNL     1     120.012 178.131 126.250  1.00  0.00     0.159 C 
ATOM     10  O   UNL     1     119.504 177.911 125.117  1.00  0.00    -0.295 OA
ATOM     11  C   UNL     1     121.185 179.064 126.343  1.00  0.00     0.084 C 
ENDROOT
TORSDOF 0
ENDMDL
MODEL 7
REMARK VINA RESULT:    -5.110      6.499      8.355
REMARK INTER + INTRA:          -5.110
REMARK INTER:                  -5.110
REMARK INTRA:                   0.000
REMARK UNBOUND:                 0.000
REMARK SMILES CC(C)=C1CC[C@H](C)CC1=O
REMARK SMILES IDX 8 1 7 2 6 3 5 4 4 5 2 6 1 7 3 8 10 9 11 10 9 11
REMARK H PARENT
REMARK Flexibility Score: inf
ROOT
ATOM      1  C   UNL     1     115.016 179.227 124.997  1.00  0.00     0.008 C 
ATOM      2  C   UNL     1     116.474 178.898 125.333  1.00  0.00    -0.006 C 
ATOM      3  C   UNL     1     116.549 177.724 126.322  1.00  0.00     0.008 C 
ATOM      4  C   UNL     1     117.997 177.446 126.749  1.00  0.00     0.039 C 
ATOM      5  C   UNL     1     118.933 177.270 125.561  1.00  0.00    -0.006 C 
ATOM      6  C   UNL     1     120.014 176.438 125.626  1.00  0.00    -0.070 C 
ATOM      7  C   UNL     1     120.917 176.212 124.435  1.00  0.00     0.039 C 
ATOM      8  C   UNL     1     120.337 175.670 126.887  1.00  0.00     0.039 C 
ATOM      9  C   UNL     1     118.664 178.142 124.379  1.00  0.00     0.159 C 
ATOM     10  O   UNL     1     119.599 178.550 123.639  1.00  0.00    -0.295 OA
ATOM     11  C   UNL     1     117.258 178.558 124.056  1.00  0.00     0.084 C 
ENDROOT
TORSDOF 0
ENDMDL
MODEL 8
REMARK VINA RESULT:    -5.073      1.664      2.275
REMARK INTER + INTRA:          -5.073
REMARK INTER:                  -5.073
REMARK INTRA:                   0.000
REMARK UNBOUND:                 0.000
REMARK SMILES CC(C)=C1CC[C@H](C)CC1=O
REMARK SMILES IDX 8 1 7 2 6 3 5 4 4 5 2 6 1 7 3 8 10 9 11 10 9 11
REMARK H PARENT
REMARK Flexibility Score: inf
ROOT
ATOM      1  C   UNL     1     124.882 177.766 117.980  1.00  0.00     0.008 C 
ATOM      2  C   UNL     1     124.774 177.099 119.356  1.00  0.00    -0.006 C 
ATOM      3  C   UNL     1     126.163 176.676 119.861  1.00  0.00     0.008 C 
ATOM      4  C   UNL     1     126.066 175.914 121.189  1.00  0.00     0.039 C 
ATOM      5  C   UNL     1     125.268 176.674 122.241  1.00  0.00    -0.006 C 
ATOM      6  C   UNL     1     125.559 176.562 123.570  1.00  0.00    -0.070 C 
ATOM      7  C   UNL     1     124.810 177.354 124.618  1.00  0.00     0.039 C 
ATOM      8  C   UNL     1     126.674 175.664 124.056  1.00  0.00     0.039 C 
ATOM      9  C   UNL     1     124.091 177.445 121.740  1.00  0.00     0.159 C 
ATOM     10  O   UNL     1     123.058 177.597 122.448  1.00  0.00    -0.295 OA
ATOM     11  C   UNL     1     124.116 178.050 120.366  1.00  0.00     0.084 C 
ENDROOT
TORSDOF 0
ENDMDL
MODEL 9
REMARK VINA RESULT:    -5.049      6.311      8.295
REMARK INTER + INTRA:          -5.049
REMARK INTER:                  -5.049
REMARK INTRA:                   0.000
REMARK UNBOUND:                 0.000
REMARK SMILES CC(C)=C1CC[C@H](C)CC1=O
REMARK SMILES IDX 8 1 7 2 6 3 5 4 4 5 2 6 1 7 3 8 10 9 11 10 9 11
REMARK H PARENT
REMARK Flexibility Score: inf
ROOT
ATOM      1  C   UNL     1     115.450 178.854 126.132  1.00  0.00     0.008 C 
ATOM      2  C   UNL     1     116.641 178.138 125.486  1.00  0.00    -0.006 C 
ATOM      3  C   UNL     1     117.619 179.157 124.880  1.00  0.00     0.008 C 
ATOM      4  C   UNL     1     118.765 178.457 124.138  1.00  0.00     0.039 C 
ATOM      5  C   UNL     1     119.467 177.414 124.999  1.00  0.00    -0.006 C 
ATOM      6  C   UNL     1     120.797 177.149 124.849  1.00  0.00    -0.070 C 
ATOM      7  C   UNL     1     121.516 176.157 125.736  1.00  0.00     0.039 C 
ATOM      8  C   UNL     1     121.628 177.866 123.810  1.00  0.00     0.039 C 
ATOM      9  C   UNL     1     118.592 176.630 125.921  1.00  0.00     0.159 C 
ATOM     10  O   UNL     1     118.854 175.431 126.212  1.00  0.00    -0.295 OA
ATOM     11  C   UNL     1     117.368 177.263 126.517  1.00  0.00     0.084 C 
ENDROOT
TORSDOF 0
ENDMDL
