MODEL 1
REMARK VINA RESULT:    -4.795      0.000      0.000
REMARK INTER + INTRA:          -4.935
REMARK INTER:                  -4.935
REMARK INTRA:                   0.000
REMARK UNBOUND:                 0.000
REMARK SMILES Oc1ccc2[nH]ccc2c1
REMARK SMILES IDX 3 1 4 2 5 3 9 4 8 5 7 6 6 7 10 8 2 9 1 11
REMARK H PARENT 6 10 1 12
REMARK Flexibility Score: inf
ROOT
ATOM      1  C   UNL     1     132.134 106.896 117.951  1.00  0.00     0.048 A 
ATOM      2  C   UNL     1     133.081 107.022 116.918  1.00  0.00     0.030 A 
ATOM      3  C   UNL     1     132.826 107.952 115.911  1.00  0.00     0.046 A 
ATOM      4  C   UNL     1     131.695 108.723 115.914  1.00  0.00     0.003 A 
ATOM      5  C   UNL     1     131.742 109.529 114.797  1.00  0.00     0.028 A 
ATOM      6  C   UNL     1     132.931 109.192 114.157  1.00  0.00     0.083 A 
ATOM      7  N   UNL     1     133.590 108.229 114.841  1.00  0.00    -0.361 N 
ATOM      8  C   UNL     1     130.738 108.624 116.923  1.00  0.00     0.056 A 
ATOM      9  C   UNL     1     130.966 107.692 117.958  1.00  0.00     0.116 A 
ATOM     10  H   UNL     1     134.504 107.792 114.587  1.00  0.00     0.166 HD
ENDROOT
BRANCH   9  11
ATOM     11  O   UNL     1     130.045 107.549 118.993  1.00  0.00    -0.508 OA
ATOM     12  H   UNL     1     129.612 106.656 119.196  1.00  0.00     0.293 HD
ENDBRANCH   9  11
TORSDOF 1
ENDMDL
MODEL 2
REMARK VINA RESULT:    -4.595      2.645      4.107
REMARK INTER + INTRA:          -4.729
REMARK INTER:                  -4.729
REMARK INTRA:                   0.000
REMARK UNBOUND:                 0.000
REMARK SMILES Oc1ccc2[nH]ccc2c1
REMARK SMILES IDX 3 1 4 2 5 3 9 4 8 5 7 6 6 7 10 8 2 9 1 11
REMARK H PARENT 6 10 1 12
REMARK Flexibility Score: inf
ROOT
ATOM      1  C   UNL     1     132.083 109.631 114.552  1.00  0.00     0.048 A 
ATOM      2  C   UNL     1     131.194 109.525 115.638  1.00  0.00     0.030 A 
ATOM      3  C   UNL     1     131.406 108.497 116.555  1.00  0.00     0.046 A 
ATOM      4  C   UNL     1     132.441 107.610 116.415  1.00  0.00     0.003 A 
ATOM      5  C   UNL     1     132.375 106.729 117.472  1.00  0.00     0.028 A 
ATOM      6  C   UNL     1     131.271 107.137 118.216  1.00  0.00     0.083 A 
ATOM      7  N   UNL     1     130.684 108.217 117.652  1.00  0.00    -0.361 N 
ATOM      8  C   UNL     1     133.339 107.688 115.352  1.00  0.00     0.056 A 
ATOM      9  C   UNL     1     133.153 108.718 114.406  1.00  0.00     0.116 A 
ATOM     10  H   UNL     1     129.841 108.726 118.001  1.00  0.00     0.166 HD
ENDROOT
BRANCH   9  11
ATOM     11  O   UNL     1     134.019 108.845 113.322  1.00  0.00    -0.508 OA
ATOM     12  H   UNL     1     133.709 108.669 112.374  1.00  0.00     0.293 HD
ENDBRANCH   9  11
TORSDOF 1
ENDMDL
MODEL 3
REMARK VINA RESULT:    -4.474      1.427      2.323
REMARK INTER + INTRA:          -4.605
REMARK INTER:                  -4.605
REMARK INTRA:                   0.000
REMARK UNBOUND:                 0.000
REMARK SMILES Oc1ccc2[nH]ccc2c1
REMARK SMILES IDX 3 1 4 2 5 3 9 4 8 5 7 6 6 7 10 8 2 9 1 11
REMARK H PARENT 6 10 1 12
REMARK Flexibility Score: inf
ROOT
ATOM      1  C   UNL     1     131.340 108.954 116.806  1.00  0.00     0.048 A 
ATOM      2  C   UNL     1     131.400 109.389 115.470  1.00  0.00     0.030 A 
ATOM      3  C   UNL     1     132.301 108.751 114.617  1.00  0.00     0.046 A 
ATOM      4  C   UNL     1     133.106 107.733 115.053  1.00  0.00     0.003 A 
ATOM      5  C   UNL     1     133.868 107.322 113.981  1.00  0.00     0.028 A 
ATOM      6  C   UNL     1     133.475 108.137 112.923  1.00  0.00     0.083 A 
ATOM      7  N   UNL     1     132.517 109.008 113.317  1.00  0.00    -0.361 N 
ATOM      8  C   UNL     1     133.070 107.278 116.370  1.00  0.00     0.056 A 
ATOM      9  C   UNL     1     132.170 107.902 117.259  1.00  0.00     0.116 A 
ATOM     10  H   UNL     1     132.046 109.730 112.728  1.00  0.00     0.166 HD
ENDROOT
BRANCH   9  11
ATOM     11  O   UNL     1     132.090 107.489 118.587  1.00  0.00    -0.508 OA
ATOM     12  H   UNL     1     132.922 107.325 119.141  1.00  0.00     0.293 HD
ENDBRANCH   9  11
TORSDOF 1
ENDMDL
MODEL 4
REMARK VINA RESULT:    -4.471      9.121     10.262
REMARK INTER + INTRA:          -4.602
REMARK INTER:                  -4.602
REMARK INTRA:                   0.000
REMARK UNBOUND:                 0.000
REMARK SMILES Oc1ccc2[nH]ccc2c1
REMARK SMILES IDX 3 1 4 2 5 3 9 4 8 5 7 6 6 7 10 8 2 9 1 11
REMARK H PARENT 6 10 1 12
REMARK Flexibility Score: inf
ROOT
ATOM      1  C   UNL     1     122.880 111.807 111.684  1.00  0.00     0.048 A 
ATOM      2  C   UNL     1     124.022 111.105 112.108  1.00  0.00     0.030 A 
ATOM      3  C   UNL     1     125.210 111.311 111.408  1.00  0.00     0.046 A 
ATOM      4  C   UNL     1     125.276 112.165 110.339  1.00  0.00     0.003 A 
ATOM      5  C   UNL     1     126.573 112.145 109.875  1.00  0.00     0.028 A 
ATOM      6  C   UNL     1     127.243 111.253 110.708  1.00  0.00     0.083 A 
ATOM      7  N   UNL     1     126.406 110.747 111.642  1.00  0.00    -0.361 N 
ATOM      8  C   UNL     1     124.163 112.876 109.895  1.00  0.00     0.056 A 
ATOM      9  C   UNL     1     122.945 112.691 110.583  1.00  0.00     0.116 A 
ATOM     10  H   UNL     1     126.645 110.059 112.391  1.00  0.00     0.166 HD
ENDROOT
BRANCH   9  11
ATOM     11  O   UNL     1     121.799 113.375 110.183  1.00  0.00    -0.508 OA
ATOM     12  H   UNL     1     121.403 114.118 110.746  1.00  0.00     0.293 HD
ENDBRANCH   9  11
TORSDOF 1
ENDMDL
MODEL 5
REMARK VINA RESULT:    -4.408      1.900      2.707
REMARK INTER + INTRA:          -4.537
REMARK INTER:                  -4.537
REMARK INTRA:                   0.000
REMARK UNBOUND:                 0.000
REMARK SMILES Oc1ccc2[nH]ccc2c1
REMARK SMILES IDX 3 1 4 2 5 3 9 4 8 5 7 6 6 7 10 8 2 9 1 11
REMARK H PARENT 6 10 1 12
REMARK Flexibility Score: inf
ROOT
ATOM      1  C   UNL     1     133.243 107.743 115.067  1.00  0.00     0.048 A 
ATOM      2  C   UNL     1     132.819 108.610 114.043  1.00  0.00     0.030 A 
ATOM      3  C   UNL     1     131.841 109.554 114.353  1.00  0.00     0.046 A 
ATOM      4  C   UNL     1     131.303 109.646 115.609  1.00  0.00     0.003 A 
ATOM      5  C   UNL     1     130.377 110.667 115.586  1.00  0.00     0.028 A 
ATOM      6  C   UNL     1     130.403 111.151 114.282  1.00  0.00     0.083 A 
ATOM      7  N   UNL     1     131.299 110.469 113.533  1.00  0.00    -0.361 N 
ATOM      8  C   UNL     1     131.701 108.804 116.645  1.00  0.00     0.056 A 
ATOM      9  C   UNL     1     132.690 107.836 116.365  1.00  0.00     0.116 A 
ATOM     10  H   UNL     1     131.520 110.624 112.524  1.00  0.00     0.166 HD
ENDROOT
BRANCH   9  11
ATOM     11  O   UNL     1     133.127 106.967 117.361  1.00  0.00    -0.508 OA
ATOM     12  H   UNL     1     132.479 106.386 117.879  1.00  0.00     0.293 HD
ENDBRANCH   9  11
TORSDOF 1
ENDMDL
MODEL 6
REMARK VINA RESULT:    -4.145      3.815      4.704
REMARK INTER + INTRA:          -4.266
REMARK INTER:                  -4.266
REMARK INTRA:                   0.000
REMARK UNBOUND:                 0.000
REMARK SMILES Oc1ccc2[nH]ccc2c1
REMARK SMILES IDX 3 1 4 2 5 3 9 4 8 5 7 6 6 7 10 8 2 9 1 11
REMARK H PARENT 6 10 1 12
REMARK Flexibility Score: inf
ROOT
ATOM      1  C   UNL     1     130.522 111.104 115.213  1.00  0.00     0.048 A 
ATOM      2  C   UNL     1     131.276 110.265 114.372  1.00  0.00     0.030 A 
ATOM      3  C   UNL     1     130.809 110.056 113.075  1.00  0.00     0.046 A 
ATOM      4  C   UNL     1     129.657 110.641 112.622  1.00  0.00     0.003 A 
ATOM      5  C   UNL     1     129.477 110.239 111.316  1.00  0.00     0.028 A 
ATOM      6  C   UNL     1     130.558 109.407 111.040  1.00  0.00     0.083 A 
ATOM      7  N   UNL     1     131.369 109.299 112.117  1.00  0.00    -0.361 N 
ATOM      8  C   UNL     1     128.889 111.477 113.429  1.00  0.00     0.056 A 
ATOM      9  C   UNL     1     129.333 111.710 114.748  1.00  0.00     0.116 A 
ATOM     10  H   UNL     1     132.248 108.740 112.186  1.00  0.00     0.166 HD
ENDROOT
BRANCH   9  11
ATOM     11  O   UNL     1     128.606 112.537 115.601  1.00  0.00    -0.508 OA
ATOM     12  H   UNL     1     128.865 113.506 115.747  1.00  0.00     0.293 HD
ENDBRANCH   9  11
TORSDOF 1
ENDMDL
MODEL 7
REMARK VINA RESULT:    -4.120      9.168     10.180
REMARK INTER + INTRA:          -4.240
REMARK INTER:                  -4.240
REMARK INTRA:                   0.000
REMARK UNBOUND:                 0.000
REMARK SMILES Oc1ccc2[nH]ccc2c1
REMARK SMILES IDX 3 1 4 2 5 3 9 4 8 5 7 6 6 7 10 8 2 9 1 11
REMARK H PARENT 6 10 1 12
REMARK Flexibility Score: inf
ROOT
ATOM      1  C   UNL     1     126.954 111.330 110.077  1.00  0.00     0.048 A 
ATOM      2  C   UNL     1     125.668 110.799 109.875  1.00  0.00     0.030 A 
ATOM      3  C   UNL     1     124.585 111.492 110.415  1.00  0.00     0.046 A 
ATOM      4  C   UNL     1     124.755 112.653 111.121  1.00  0.00     0.003 A 
ATOM      5  C   UNL     1     123.506 113.083 111.513  1.00  0.00     0.028 A 
ATOM      6  C   UNL     1     122.621 112.133 111.012  1.00  0.00     0.083 A 
ATOM      7  N   UNL     1     123.285 111.163 110.342  1.00  0.00    -0.361 N 
ATOM      8  C   UNL     1     126.015 113.206 111.338  1.00  0.00     0.056 A 
ATOM      9  C   UNL     1     127.133 112.529 110.804  1.00  0.00     0.116 A 
ATOM     10  H   UNL     1     122.869 110.332 109.867  1.00  0.00     0.166 HD
ENDROOT
BRANCH   9  11
ATOM     11  O   UNL     1     128.417 113.034 110.989  1.00  0.00    -0.508 OA
ATOM     12  H   UNL     1     128.598 113.803 111.624  1.00  0.00     0.293 HD
ENDBRANCH   9  11
TORSDOF 1
ENDMDL
MODEL 8
REMARK VINA RESULT:    -4.101      8.287      9.635
REMARK INTER + INTRA:          -4.221
REMARK INTER:                  -4.221
REMARK INTRA:                   0.000
REMARK UNBOUND:                 0.000
REMARK SMILES Oc1ccc2[nH]ccc2c1
REMARK SMILES IDX 3 1 4 2 5 3 9 4 8 5 7 6 6 7 10 8 2 9 1 11
REMARK H PARENT 6 10 1 12
REMARK Flexibility Score: inf
ROOT
ATOM      1  C   UNL     1     132.472 108.062 124.546  1.00  0.00     0.048 A 
ATOM      2  C   UNL     1     132.131 108.150 125.908  1.00  0.00     0.030 A 
ATOM      3  C   UNL     1     131.310 109.204 126.306  1.00  0.00     0.046 A 
ATOM      4  C   UNL     1     130.844 110.131 125.411  1.00  0.00     0.003 A 
ATOM      5  C   UNL     1     130.070 111.029 126.114  1.00  0.00     0.028 A 
ATOM      6  C   UNL     1     130.110 110.588 127.433  1.00  0.00     0.083 A 
ATOM      7  N   UNL     1     130.868 109.474 127.545  1.00  0.00    -0.361 N 
ATOM      8  C   UNL     1     131.163 110.072 124.056  1.00  0.00     0.056 A 
ATOM      9  C   UNL     1     131.992 109.016 123.620  1.00  0.00     0.116 A 
ATOM     10  H   UNL     1     131.067 108.936 128.418  1.00  0.00     0.166 HD
ENDROOT
BRANCH   9  11
ATOM     11  O   UNL     1     132.344 108.905 122.276  1.00  0.00    -0.508 OA
ATOM     12  H   UNL     1     133.107 109.443 121.883  1.00  0.00     0.293 HD
ENDBRANCH   9  11
TORSDOF 1
ENDMDL
MODEL 9
REMARK VINA RESULT:    -4.070      3.306      4.470
REMARK INTER + INTRA:          -4.189
REMARK INTER:                  -4.189
REMARK INTRA:                   0.000
REMARK UNBOUND:                 0.000
REMARK SMILES Oc1ccc2[nH]ccc2c1
REMARK SMILES IDX 3 1 4 2 5 3 9 4 8 5 7 6 6 7 10 8 2 9 1 11
REMARK H PARENT 6 10 1 12
REMARK Flexibility Score: inf
ROOT
ATOM      1  C   UNL     1     129.090 111.707 113.686  1.00  0.00     0.048 A 
ATOM      2  C   UNL     1     129.737 110.812 112.814  1.00  0.00     0.030 A 
ATOM      3  C   UNL     1     130.856 110.131 113.292  1.00  0.00     0.046 A 
ATOM      4  C   UNL     1     131.322 110.319 114.566  1.00  0.00     0.003 A 
ATOM      5  C   UNL     1     132.425 109.509 114.725  1.00  0.00     0.028 A 
ATOM      6  C   UNL     1     132.576 108.858 113.504  1.00  0.00     0.083 A 
ATOM      7  N   UNL     1     131.614 109.241 112.633  1.00  0.00    -0.361 N 
ATOM      8  C   UNL     1     130.704 111.197 115.455  1.00  0.00     0.056 A 
ATOM      9  C   UNL     1     129.568 111.902 115.002  1.00  0.00     0.116 A 
ATOM     10  H   UNL     1     131.491 108.910 111.650  1.00  0.00     0.166 HD
ENDROOT
BRANCH   9  11
ATOM     11  O   UNL     1     128.910 112.794 115.846  1.00  0.00    -0.508 OA
ATOM     12  H   UNL     1     129.417 113.489 116.380  1.00  0.00     0.293 HD
ENDBRANCH   9  11
TORSDOF 1
ENDMDL
