MODEL 1
REMARK VINA RESULT:    -5.575      0.000      0.000
REMARK INTER + INTRA:          -7.220
REMARK INTER:                  -6.879
REMARK INTRA:                  -0.341
REMARK UNBOUND:                -0.341
REMARK SMILES Oc1cc(O)c2cc(O)c(-c3cc(O)c(O)c(O)c3)[o+]c2c1
REMARK SMILES IDX 10 1 20 2 21 3 22 4 2 5 3 6 4 7 6 8 7 9 8 10 11 11 12 12
REMARK SMILES IDX 13 13 19 14 15 15 17 16 14 17 16 19 18 21 9 23 1 25 5 27
REMARK H PARENT 14 18 16 20 18 22 9 24 1 26 5 28
REMARK Flexibility Score: inf
ROOT
ATOM      1  C   UNL     1     -58.118 -50.099  35.852  1.00  0.00     0.402 A 
ATOM      2  O   UNL     1     -58.419 -48.903  35.353  1.00  0.00    -0.202 OA
ATOM      3  C   UNL     1     -58.738 -48.704  34.078  1.00  0.00     0.368 A 
ATOM      4  C   UNL     1     -59.043 -47.411  33.647  1.00  0.00     0.162 A 
ATOM      5  C   UNL     1     -59.383 -47.172  32.316  1.00  0.00     0.128 A 
ATOM      6  C   UNL     1     -59.422 -48.234  31.406  1.00  0.00     0.093 A 
ATOM      7  C   UNL     1     -59.120 -49.541  31.812  1.00  0.00     0.136 A 
ATOM      8  C   UNL     1     -58.771 -49.786  33.165  1.00  0.00     0.125 A 
ATOM      9  C   UNL     1     -58.441 -51.059  33.658  1.00  0.00     0.078 A 
ATOM     10  C   UNL     1     -58.102 -51.223  35.005  1.00  0.00     0.223 A 
ENDROOT
BRANCH   1  11
ATOM     11  C   UNL     1     -57.788 -50.194  37.293  1.00  0.00     0.091 A 
ATOM     12  C   UNL     1     -56.563 -49.690  37.756  1.00  0.00     0.068 A 
ATOM     13  C   UNL     1     -56.235 -49.748  39.117  1.00  0.00     0.162 A 
ATOM     14  C   UNL     1     -58.702 -50.726  38.219  1.00  0.00     0.068 A 
ATOM     15  C   UNL     1     -57.146 -50.302  40.033  1.00  0.00     0.200 A 
ATOM     16  C   UNL     1     -58.380 -50.786  39.582  1.00  0.00     0.162 A 
BRANCH  13  17
ATOM     17  O   UNL     1     -55.008 -49.259  39.563  1.00  0.00    -0.504 OA
ATOM     18  H   UNL     1     -54.173 -49.319  38.991  1.00  0.00     0.293 HD
ENDBRANCH  13  17
BRANCH  15  19
ATOM     19  O   UNL     1     -56.841 -50.373  41.392  1.00  0.00    -0.502 OA
ATOM     20  H   UNL     1     -57.244 -49.736  42.069  1.00  0.00     0.293 HD
ENDBRANCH  15  19
BRANCH  16  21
ATOM     21  O   UNL     1     -59.287 -51.320  40.497  1.00  0.00    -0.504 OA
ATOM     22  H   UNL     1     -58.978 -51.876  41.286  1.00  0.00     0.293 HD
ENDBRANCH  16  21
ENDBRANCH   1  11
BRANCH  10  23
ATOM     23  O   UNL     1     -57.726 -52.477  35.484  1.00  0.00    -0.500 OA
ATOM     24  H   UNL     1     -58.012 -53.333  35.021  1.00  0.00     0.294 HD
ENDBRANCH  10  23
BRANCH   5  25
ATOM     25  O   UNL     1     -59.684 -45.875  31.906  1.00  0.00    -0.507 OA
ATOM     26  H   UNL     1     -60.638 -45.582  31.732  1.00  0.00     0.293 HD
ENDBRANCH   5  25
BRANCH   7  27
ATOM     27  O   UNL     1     -59.184 -50.546  30.844  1.00  0.00    -0.507 OA
ATOM     28  H   UNL     1     -58.812 -50.461  29.909  1.00  0.00     0.293 HD
ENDBRANCH   7  27
TORSDOF 7
ENDMDL
MODEL 2
REMARK VINA RESULT:    -5.572      0.165      1.796
REMARK INTER + INTRA:          -7.215
REMARK INTER:                  -6.873
REMARK INTRA:                  -0.342
REMARK UNBOUND:                -0.341
REMARK SMILES Oc1cc(O)c2cc(O)c(-c3cc(O)c(O)c(O)c3)[o+]c2c1
REMARK SMILES IDX 10 1 20 2 21 3 22 4 2 5 3 6 4 7 6 8 7 9 8 10 11 11 12 12
REMARK SMILES IDX 13 13 19 14 15 15 17 16 14 17 16 19 18 21 9 23 1 25 5 27
REMARK H PARENT 14 18 16 20 18 22 9 24 1 26 5 28
REMARK Flexibility Score: inf
ROOT
ATOM      1  C   UNL     1     -58.176 -49.999  35.835  1.00  0.00     0.402 A 
ATOM      2  O   UNL     1     -58.570 -48.827  35.345  1.00  0.00    -0.202 OA
ATOM      3  C   UNL     1     -58.912 -48.645  34.073  1.00  0.00     0.368 A 
ATOM      4  C   UNL     1     -59.317 -47.376  33.653  1.00  0.00     0.162 A 
ATOM      5  C   UNL     1     -59.685 -47.156  32.325  1.00  0.00     0.128 A 
ATOM      6  C   UNL     1     -59.651 -48.214  31.409  1.00  0.00     0.093 A 
ATOM      7  C   UNL     1     -59.249 -49.497  31.806  1.00  0.00     0.136 A 
ATOM      8  C   UNL     1     -58.872 -49.722  33.155  1.00  0.00     0.125 A 
ATOM      9  C   UNL     1     -58.445 -50.970  33.638  1.00  0.00     0.078 A 
ATOM     10  C   UNL     1     -58.083 -51.114  34.981  1.00  0.00     0.223 A 
ENDROOT
BRANCH   1  11
ATOM     11  C   UNL     1     -57.829 -50.077  37.272  1.00  0.00     0.091 A 
ATOM     12  C   UNL     1     -58.736 -50.658  38.171  1.00  0.00     0.068 A 
ATOM     13  C   UNL     1     -58.424 -50.763  39.533  1.00  0.00     0.162 A 
ATOM     14  C   UNL     1     -56.584 -49.632  37.750  1.00  0.00     0.068 A 
ATOM     15  C   UNL     1     -57.185 -50.297  40.006  1.00  0.00     0.200 A 
ATOM     16  C   UNL     1     -56.265 -49.736  39.111  1.00  0.00     0.162 A 
BRANCH  13  17
ATOM     17  O   UNL     1     -59.340 -51.329  40.420  1.00  0.00    -0.504 OA
ATOM     18  H   UNL     1     -60.304 -51.495  40.153  1.00  0.00     0.293 HD
ENDBRANCH  13  17
BRANCH  15  19
ATOM     19  O   UNL     1     -56.853 -50.388  41.357  1.00  0.00    -0.502 OA
ATOM     20  H   UNL     1     -55.918 -50.625  41.668  1.00  0.00     0.293 HD
ENDBRANCH  15  19
BRANCH  16  21
ATOM     21  O   UNL     1     -55.032 -49.288  39.581  1.00  0.00    -0.504 OA
ATOM     22  H   UNL     1     -54.910 -48.975  40.537  1.00  0.00     0.293 HD
ENDBRANCH  16  21
ENDBRANCH   1  11
BRANCH  10  23
ATOM     23  O   UNL     1     -57.611 -52.340  35.450  1.00  0.00    -0.500 OA
ATOM     24  H   UNL     1     -56.657 -52.455  35.773  1.00  0.00     0.294 HD
ENDBRANCH  10  23
BRANCH   5  25
ATOM     25  O   UNL     1     -60.084 -45.884  31.925  1.00  0.00    -0.507 OA
ATOM     26  H   UNL     1     -59.925 -45.550  30.981  1.00  0.00     0.293 HD
ENDBRANCH   5  25
BRANCH   7  27
ATOM     27  O   UNL     1     -59.246 -50.499  30.832  1.00  0.00    -0.507 OA
ATOM     28  H   UNL     1     -58.740 -51.369  30.912  1.00  0.00     0.293 HD
ENDBRANCH   7  27
TORSDOF 7
ENDMDL
MODEL 3
REMARK VINA RESULT:    -5.184      8.592     12.527
REMARK INTER + INTRA:          -6.737
REMARK INTER:                  -6.396
REMARK INTRA:                  -0.342
REMARK UNBOUND:                -0.341
REMARK SMILES Oc1cc(O)c2cc(O)c(-c3cc(O)c(O)c(O)c3)[o+]c2c1
REMARK SMILES IDX 10 1 20 2 21 3 22 4 2 5 3 6 4 7 6 8 7 9 8 10 11 11 12 12
REMARK SMILES IDX 13 13 19 14 15 15 17 16 14 17 16 19 18 21 9 23 1 25 5 27
REMARK H PARENT 14 18 16 20 18 22 9 24 1 26 5 28
REMARK Flexibility Score: inf
ROOT
ATOM      1  C   UNL     1     -64.858 -55.625  30.265  1.00  0.00     0.402 A 
ATOM      2  O   UNL     1     -63.902 -55.834  31.165  1.00  0.00    -0.202 OA
ATOM      3  C   UNL     1     -64.078 -55.659  32.471  1.00  0.00     0.368 A 
ATOM      4  C   UNL     1     -63.013 -55.908  33.340  1.00  0.00     0.162 A 
ATOM      5  C   UNL     1     -63.169 -55.736  34.716  1.00  0.00     0.128 A 
ATOM      6  C   UNL     1     -64.400 -55.315  35.229  1.00  0.00     0.093 A 
ATOM      7  C   UNL     1     -65.485 -55.059  34.380  1.00  0.00     0.136 A 
ATOM      8  C   UNL     1     -65.328 -55.230  32.980  1.00  0.00     0.125 A 
ATOM      9  C   UNL     1     -66.354 -54.985  32.053  1.00  0.00     0.078 A 
ATOM     10  C   UNL     1     -66.123 -55.171  30.686  1.00  0.00     0.223 A 
ENDROOT
BRANCH   1  11
ATOM     11  C   UNL     1     -64.542 -55.863  28.838  1.00  0.00     0.091 A 
ATOM     12  C   UNL     1     -64.581 -57.171  28.331  1.00  0.00     0.068 A 
ATOM     13  C   UNL     1     -64.306 -57.421  26.980  1.00  0.00     0.162 A 
ATOM     14  C   UNL     1     -64.258 -54.799  27.964  1.00  0.00     0.068 A 
ATOM     15  C   UNL     1     -64.003 -56.354  26.118  1.00  0.00     0.200 A 
ATOM     16  C   UNL     1     -63.984 -55.043  26.611  1.00  0.00     0.162 A 
BRANCH  13  17
ATOM     17  O   UNL     1     -64.333 -58.727  26.491  1.00  0.00    -0.504 OA
ATOM     18  H   UNL     1     -64.809 -59.471  26.989  1.00  0.00     0.293 HD
ENDBRANCH  13  17
BRANCH  15  19
ATOM     19  O   UNL     1     -63.724 -56.579  24.770  1.00  0.00    -0.502 OA
ATOM     20  H   UNL     1     -63.358 -55.853  24.166  1.00  0.00     0.293 HD
ENDBRANCH  15  19
BRANCH  16  21
ATOM     21  O   UNL     1     -63.698 -53.986  25.749  1.00  0.00    -0.504 OA
ATOM     22  H   UNL     1     -64.238 -53.130  25.762  1.00  0.00     0.293 HD
ENDBRANCH  16  21
ENDBRANCH   1  11
BRANCH  10  23
ATOM     23  O   UNL     1     -67.125 -54.881  29.761  1.00  0.00    -0.500 OA
ATOM     24  H   UNL     1     -68.052 -54.589  30.053  1.00  0.00     0.294 HD
ENDBRANCH  10  23
BRANCH   5  25
ATOM     25  O   UNL     1     -62.095 -55.989  35.566  1.00  0.00    -0.507 OA
ATOM     26  H   UNL     1     -61.565 -55.236  35.988  1.00  0.00     0.293 HD
ENDBRANCH   5  25
BRANCH   7  27
ATOM     27  O   UNL     1     -66.681 -54.645  34.970  1.00  0.00    -0.507 OA
ATOM     28  H   UNL     1     -66.786 -53.800  35.513  1.00  0.00     0.293 HD
ENDBRANCH   7  27
TORSDOF 7
ENDMDL
MODEL 4
REMARK VINA RESULT:    -5.124      3.236      6.061
REMARK INTER + INTRA:          -6.663
REMARK INTER:                  -6.381
REMARK INTRA:                  -0.282
REMARK UNBOUND:                -0.341
REMARK SMILES Oc1cc(O)c2cc(O)c(-c3cc(O)c(O)c(O)c3)[o+]c2c1
REMARK SMILES IDX 10 1 20 2 21 3 22 4 2 5 3 6 4 7 6 8 7 9 8 10 11 11 12 12
REMARK SMILES IDX 13 13 19 14 15 15 17 16 14 17 16 19 18 21 9 23 1 25 5 27
REMARK H PARENT 14 18 16 20 18 22 9 24 1 26 5 28
REMARK Flexibility Score: inf
ROOT
ATOM      1  C   UNL     1     -58.874 -51.804  40.536  1.00  0.00     0.402 A 
ATOM      2  O   UNL     1     -59.461 -51.504  39.381  1.00  0.00    -0.202 OA
ATOM      3  C   UNL     1     -58.899 -50.734  38.455  1.00  0.00     0.368 A 
ATOM      4  C   UNL     1     -59.593 -50.477  37.270  1.00  0.00     0.162 A 
ATOM      5  C   UNL     1     -59.027 -49.675  36.279  1.00  0.00     0.128 A 
ATOM      6  C   UNL     1     -57.754 -49.126  36.471  1.00  0.00     0.093 A 
ATOM      7  C   UNL     1     -57.036 -49.368  37.650  1.00  0.00     0.136 A 
ATOM      8  C   UNL     1     -57.611 -50.181  38.661  1.00  0.00     0.125 A 
ATOM      9  C   UNL     1     -56.972 -50.466  39.878  1.00  0.00     0.078 A 
ATOM     10  C   UNL     1     -57.604 -51.273  40.830  1.00  0.00     0.223 A 
ENDROOT
BRANCH   1  11
ATOM     11  C   UNL     1     -59.599 -52.680  41.484  1.00  0.00     0.091 A 
ATOM     12  C   UNL     1     -60.804 -52.237  42.050  1.00  0.00     0.068 A 
ATOM     13  C   UNL     1     -61.522 -53.055  42.933  1.00  0.00     0.162 A 
ATOM     14  C   UNL     1     -59.137 -53.973  41.786  1.00  0.00     0.068 A 
ATOM     15  C   UNL     1     -61.042 -54.338  43.247  1.00  0.00     0.200 A 
ATOM     16  C   UNL     1     -59.851 -54.796  42.668  1.00  0.00     0.162 A 
BRANCH  13  17
ATOM     17  O   UNL     1     -62.710 -52.597  43.502  1.00  0.00    -0.504 OA
ATOM     18  H   UNL     1     -62.876 -51.610  43.665  1.00  0.00     0.293 HD
ENDBRANCH  13  17
BRANCH  15  19
ATOM     19  O   UNL     1     -61.737 -55.169  44.125  1.00  0.00    -0.502 OA
ATOM     20  H   UNL     1     -61.405 -55.360  45.062  1.00  0.00     0.293 HD
ENDBRANCH  15  19
BRANCH  16  21
ATOM     21  O   UNL     1     -59.386 -56.075  42.970  1.00  0.00    -0.504 OA
ATOM     22  H   UNL     1     -59.138 -56.340  43.916  1.00  0.00     0.293 HD
ENDBRANCH  16  21
ENDBRANCH   1  11
BRANCH  10  23
ATOM     23  O   UNL     1     -56.991 -51.516  42.059  1.00  0.00    -0.500 OA
ATOM     24  H   UNL     1     -55.992 -51.400  42.189  1.00  0.00     0.294 HD
ENDBRANCH  10  23
BRANCH   5  25
ATOM     25  O   UNL     1     -59.735 -49.430  35.105  1.00  0.00    -0.507 OA
ATOM     26  H   UNL     1     -60.328 -50.137  34.687  1.00  0.00     0.293 HD
ENDBRANCH   5  25
BRANCH   7  27
ATOM     27  O   UNL     1     -55.771 -48.786  37.764  1.00  0.00    -0.507 OA
ATOM     28  H   UNL     1     -55.055 -48.836  37.055  1.00  0.00     0.293 HD
ENDBRANCH   7  27
TORSDOF 7
ENDMDL
MODEL 5
REMARK VINA RESULT:    -5.079      0.987      2.592
REMARK INTER + INTRA:          -6.608
REMARK INTER:                  -6.262
REMARK INTRA:                  -0.346
REMARK UNBOUND:                -0.341
REMARK SMILES Oc1cc(O)c2cc(O)c(-c3cc(O)c(O)c(O)c3)[o+]c2c1
REMARK SMILES IDX 10 1 20 2 21 3 22 4 2 5 3 6 4 7 6 8 7 9 8 10 11 11 12 12
REMARK SMILES IDX 13 13 19 14 15 15 17 16 14 17 16 19 18 21 9 23 1 25 5 27
REMARK H PARENT 14 18 16 20 18 22 9 24 1 26 5 28
REMARK Flexibility Score: inf
ROOT
ATOM      1  C   UNL     1     -58.362 -48.820  36.208  1.00  0.00     0.402 A 
ATOM      2  O   UNL     1     -58.406 -49.665  35.182  1.00  0.00    -0.202 OA
ATOM      3  C   UNL     1     -58.756 -49.302  33.952  1.00  0.00     0.368 A 
ATOM      4  C   UNL     1     -58.768 -50.262  32.938  1.00  0.00     0.162 A 
ATOM      5  C   UNL     1     -59.129 -49.910  31.637  1.00  0.00     0.128 A 
ATOM      6  C   UNL     1     -59.479 -48.587  31.346  1.00  0.00     0.093 A 
ATOM      7  C   UNL     1     -59.475 -47.605  32.345  1.00  0.00     0.136 A 
ATOM      8  C   UNL     1     -59.111 -47.961  33.670  1.00  0.00     0.125 A 
ATOM      9  C   UNL     1     -59.091 -47.047  34.736  1.00  0.00     0.078 A 
ATOM     10  C   UNL     1     -58.726 -47.473  36.017  1.00  0.00     0.223 A 
ENDROOT
BRANCH   1  11
ATOM     11  C   UNL     1     -57.947 -49.343  37.530  1.00  0.00     0.091 A 
ATOM     12  C   UNL     1     -56.649 -49.085  37.998  1.00  0.00     0.068 A 
ATOM     13  C   UNL     1     -56.237 -49.550  39.254  1.00  0.00     0.162 A 
ATOM     14  C   UNL     1     -58.844 -50.045  38.354  1.00  0.00     0.068 A 
ATOM     15  C   UNL     1     -57.133 -50.270  40.062  1.00  0.00     0.200 A 
ATOM     16  C   UNL     1     -58.438 -50.512  39.612  1.00  0.00     0.162 A 
BRANCH  13  17
ATOM     17  O   UNL     1     -54.940 -49.301  39.701  1.00  0.00    -0.504 OA
ATOM     18  H   UNL     1     -54.673 -49.457  40.667  1.00  0.00     0.293 HD
ENDBRANCH  13  17
BRANCH  15  19
ATOM     19  O   UNL     1     -56.746 -50.745  41.315  1.00  0.00    -0.502 OA
ATOM     20  H   UNL     1     -57.231 -50.484  42.165  1.00  0.00     0.293 HD
ENDBRANCH  15  19
BRANCH  16  21
ATOM     21  O   UNL     1     -59.328 -51.214  40.423  1.00  0.00    -0.504 OA
ATOM     22  H   UNL     1     -60.326 -51.198  40.253  1.00  0.00     0.293 HD
ENDBRANCH  16  21
ENDBRANCH   1  11
BRANCH  10  23
ATOM     23  O   UNL     1     -58.754 -46.579  37.086  1.00  0.00    -0.500 OA
ATOM     24  H   UNL     1     -57.907 -46.155  37.449  1.00  0.00     0.294 HD
ENDBRANCH  10  23
BRANCH   5  25
ATOM     25  O   UNL     1     -59.136 -50.882  30.639  1.00  0.00    -0.507 OA
ATOM     26  H   UNL     1     -58.544 -51.702  30.694  1.00  0.00     0.293 HD
ENDBRANCH   5  25
BRANCH   7  27
ATOM     27  O   UNL     1     -59.834 -46.307  31.973  1.00  0.00    -0.507 OA
ATOM     28  H   UNL     1     -60.779 -45.951  31.984  1.00  0.00     0.293 HD
ENDBRANCH   7  27
TORSDOF 7
ENDMDL
MODEL 6
REMARK VINA RESULT:    -5.061      1.010      3.166
REMARK INTER + INTRA:          -6.585
REMARK INTER:                  -6.209
REMARK INTRA:                  -0.376
REMARK UNBOUND:                -0.341
REMARK SMILES Oc1cc(O)c2cc(O)c(-c3cc(O)c(O)c(O)c3)[o+]c2c1
REMARK SMILES IDX 10 1 20 2 21 3 22 4 2 5 3 6 4 7 6 8 7 9 8 10 11 11 12 12
REMARK SMILES IDX 13 13 19 14 15 15 17 16 14 17 16 19 18 21 9 23 1 25 5 27
REMARK H PARENT 14 18 16 20 18 22 9 24 1 26 5 28
REMARK Flexibility Score: inf
ROOT
ATOM      1  C   UNL     1     -58.408 -48.742  36.212  1.00  0.00     0.402 A 
ATOM      2  O   UNL     1     -58.441 -49.595  35.191  1.00  0.00    -0.202 OA
ATOM      3  C   UNL     1     -58.806 -49.247  33.962  1.00  0.00     0.368 A 
ATOM      4  C   UNL     1     -58.807 -50.214  32.953  1.00  0.00     0.162 A 
ATOM      5  C   UNL     1     -59.182 -49.878  31.653  1.00  0.00     0.128 A 
ATOM      6  C   UNL     1     -59.559 -48.563  31.355  1.00  0.00     0.093 A 
ATOM      7  C   UNL     1     -59.567 -47.574  32.347  1.00  0.00     0.136 A 
ATOM      8  C   UNL     1     -59.188 -47.914  33.672  1.00  0.00     0.125 A 
ATOM      9  C   UNL     1     -59.179 -46.994  34.732  1.00  0.00     0.078 A 
ATOM     10  C   UNL     1     -58.799 -47.404  36.014  1.00  0.00     0.223 A 
ENDROOT
BRANCH   1  11
ATOM     11  C   UNL     1     -57.975 -49.248  37.534  1.00  0.00     0.091 A 
ATOM     12  C   UNL     1     -58.878 -49.974  38.326  1.00  0.00     0.068 A 
ATOM     13  C   UNL     1     -58.487 -50.482  39.572  1.00  0.00     0.162 A 
ATOM     14  C   UNL     1     -56.657 -49.068  37.991  1.00  0.00     0.068 A 
ATOM     15  C   UNL     1     -57.175 -50.279  40.031  1.00  0.00     0.200 A 
ATOM     16  C   UNL     1     -56.260 -49.575  39.236  1.00  0.00     0.162 A 
BRANCH  13  17
ATOM     17  O   UNL     1     -59.398 -51.188  40.356  1.00  0.00    -0.504 OA
ATOM     18  H   UNL     1     -59.163 -52.086  40.765  1.00  0.00     0.293 HD
ENDBRANCH  13  17
BRANCH  15  19
ATOM     19  O   UNL     1     -56.763 -50.773  41.268  1.00  0.00    -0.502 OA
ATOM     20  H   UNL     1     -57.277 -50.588  42.121  1.00  0.00     0.293 HD
ENDBRANCH  15  19
BRANCH  16  21
ATOM     21  O   UNL     1     -54.955 -49.388  39.689  1.00  0.00    -0.504 OA
ATOM     22  H   UNL     1     -54.156 -49.579  39.096  1.00  0.00     0.293 HD
ENDBRANCH  16  21
ENDBRANCH   1  11
BRANCH  10  23
ATOM     23  O   UNL     1     -58.837 -46.503  37.077  1.00  0.00    -0.500 OA
ATOM     24  H   UNL     1     -58.588 -45.527  36.958  1.00  0.00     0.294 HD
ENDBRANCH  10  23
BRANCH   5  25
ATOM     25  O   UNL     1     -59.176 -50.856  30.661  1.00  0.00    -0.507 OA
ATOM     26  H   UNL     1     -59.291 -50.620  29.683  1.00  0.00     0.293 HD
ENDBRANCH   5  25
BRANCH   7  27
ATOM     27  O   UNL     1     -59.953 -46.286  31.969  1.00  0.00    -0.507 OA
ATOM     28  H   UNL     1     -59.575 -45.788  31.176  1.00  0.00     0.293 HD
ENDBRANCH   7  27
TORSDOF 7
ENDMDL
MODEL 7
REMARK VINA RESULT:    -4.856      1.202      7.088
REMARK INTER + INTRA:          -6.332
REMARK INTER:                  -5.966
REMARK INTRA:                  -0.366
REMARK UNBOUND:                -0.341
REMARK SMILES Oc1cc(O)c2cc(O)c(-c3cc(O)c(O)c(O)c3)[o+]c2c1
REMARK SMILES IDX 10 1 20 2 21 3 22 4 2 5 3 6 4 7 6 8 7 9 8 10 11 11 12 12
REMARK SMILES IDX 13 13 19 14 15 15 17 16 14 17 16 19 18 21 9 23 1 25 5 27
REMARK H PARENT 14 18 16 20 18 22 9 24 1 26 5 28
REMARK Flexibility Score: inf
ROOT
ATOM      1  C   UNL     1     -59.055 -49.789  35.491  1.00  0.00     0.402 A 
ATOM      2  O   UNL     1     -57.923 -49.372  36.052  1.00  0.00    -0.202 OA
ATOM      3  C   UNL     1     -57.577 -49.666  37.301  1.00  0.00     0.368 A 
ATOM      4  C   UNL     1     -56.365 -49.184  37.802  1.00  0.00     0.162 A 
ATOM      5  C   UNL     1     -55.974 -49.479  39.109  1.00  0.00     0.128 A 
ATOM      6  C   UNL     1     -56.799 -50.263  39.922  1.00  0.00     0.093 A 
ATOM      7  C   UNL     1     -58.020 -50.759  39.444  1.00  0.00     0.136 A 
ATOM      8  C   UNL     1     -58.421 -50.458  38.116  1.00  0.00     0.125 A 
ATOM      9  C   UNL     1     -59.631 -50.900  37.558  1.00  0.00     0.078 A 
ATOM     10  C   UNL     1     -59.962 -50.559  36.243  1.00  0.00     0.223 A 
ENDROOT
BRANCH   1  11
ATOM     11  C   UNL     1     -59.324 -49.403  34.087  1.00  0.00     0.091 A 
ATOM     12  C   UNL     1     -59.744 -48.095  33.799  1.00  0.00     0.068 A 
ATOM     13  C   UNL     1     -59.985 -47.697  32.477  1.00  0.00     0.162 A 
ATOM     14  C   UNL     1     -59.114 -50.302  33.027  1.00  0.00     0.068 A 
ATOM     15  C   UNL     1     -59.793 -48.609  31.425  1.00  0.00     0.200 A 
ATOM     16  C   UNL     1     -59.353 -49.910  31.703  1.00  0.00     0.162 A 
BRANCH  13  17
ATOM     17  O   UNL     1     -60.416 -46.399  32.204  1.00  0.00    -0.504 OA
ATOM     18  H   UNL     1     -59.805 -45.599  32.331  1.00  0.00     0.293 HD
ENDBRANCH  13  17
BRANCH  15  19
ATOM     19  O   UNL     1     -60.029 -48.237  30.102  1.00  0.00    -0.502 OA
ATOM     20  H   UNL     1     -59.950 -48.894  29.335  1.00  0.00     0.293 HD
ENDBRANCH  15  19
BRANCH  16  21
ATOM     21  O   UNL     1     -59.150 -50.806  30.655  1.00  0.00    -0.504 OA
ATOM     22  H   UNL     1     -58.219 -51.034  30.326  1.00  0.00     0.293 HD
ENDBRANCH  16  21
ENDBRANCH   1  11
BRANCH  10  23
ATOM     23  O   UNL     1     -61.185 -50.956  35.703  1.00  0.00    -0.500 OA
ATOM     24  H   UNL     1     -61.497 -50.632  34.794  1.00  0.00     0.294 HD
ENDBRANCH  10  23
BRANCH   5  25
ATOM     25  O   UNL     1     -54.762 -48.989  39.590  1.00  0.00    -0.507 OA
ATOM     26  H   UNL     1     -54.516 -49.054  40.570  1.00  0.00     0.293 HD
ENDBRANCH   5  25
BRANCH   7  27
ATOM     27  O   UNL     1     -58.785 -51.537  40.317  1.00  0.00    -0.507 OA
ATOM     28  H   UNL     1     -59.312 -52.352  40.041  1.00  0.00     0.293 HD
ENDBRANCH   7  27
TORSDOF 7
ENDMDL
MODEL 8
REMARK VINA RESULT:    -4.814      3.601      6.309
REMARK INTER + INTRA:          -6.280
REMARK INTER:                  -6.071
REMARK INTRA:                  -0.209
REMARK UNBOUND:                -0.341
REMARK SMILES Oc1cc(O)c2cc(O)c(-c3cc(O)c(O)c(O)c3)[o+]c2c1
REMARK SMILES IDX 10 1 20 2 21 3 22 4 2 5 3 6 4 7 6 8 7 9 8 10 11 11 12 12
REMARK SMILES IDX 13 13 19 14 15 15 17 16 14 17 16 19 18 21 9 23 1 25 5 27
REMARK H PARENT 14 18 16 20 18 22 9 24 1 26 5 28
REMARK Flexibility Score: inf
ROOT
ATOM      1  C   UNL     1     -59.335 -51.655  40.189  1.00  0.00     0.402 A 
ATOM      2  O   UNL     1     -58.113 -51.163  40.375  1.00  0.00    -0.202 OA
ATOM      3  C   UNL     1     -57.519 -50.342  39.515  1.00  0.00     0.368 A 
ATOM      4  C   UNL     1     -56.234 -49.874  39.799  1.00  0.00     0.162 A 
ATOM      5  C   UNL     1     -55.586 -49.009  38.917  1.00  0.00     0.128 A 
ATOM      6  C   UNL     1     -56.228 -48.605  37.741  1.00  0.00     0.093 A 
ATOM      7  C   UNL     1     -57.518 -49.059  37.433  1.00  0.00     0.136 A 
ATOM      8  C   UNL     1     -58.178 -49.941  38.327  1.00  0.00     0.125 A 
ATOM      9  C   UNL     1     -59.463 -50.457  38.094  1.00  0.00     0.078 A 
ATOM     10  C   UNL     1     -60.047 -51.327  39.020  1.00  0.00     0.223 A 
ENDROOT
BRANCH   1  11
ATOM     11  C   UNL     1     -59.893 -52.554  41.225  1.00  0.00     0.091 A 
ATOM     12  C   UNL     1     -61.057 -52.178  41.912  1.00  0.00     0.068 A 
ATOM     13  C   UNL     1     -61.618 -53.020  42.882  1.00  0.00     0.162 A 
ATOM     14  C   UNL     1     -59.314 -53.806  41.497  1.00  0.00     0.068 A 
ATOM     15  C   UNL     1     -61.021 -54.260  43.162  1.00  0.00     0.200 A 
ATOM     16  C   UNL     1     -59.871 -54.653  42.465  1.00  0.00     0.162 A 
BRANCH  13  17
ATOM     17  O   UNL     1     -62.767 -52.628  43.569  1.00  0.00    -0.504 OA
ATOM     18  H   UNL     1     -63.693 -52.887  43.247  1.00  0.00     0.293 HD
ENDBRANCH  13  17
BRANCH  15  19
ATOM     19  O   UNL     1     -61.559 -55.114  44.125  1.00  0.00    -0.502 OA
ATOM     20  H   UNL     1     -62.431 -55.608  43.980  1.00  0.00     0.293 HD
ENDBRANCH  15  19
BRANCH  16  21
ATOM     21  O   UNL     1     -59.290 -55.891  42.736  1.00  0.00    -0.504 OA
ATOM     22  H   UNL     1     -58.585 -56.000  43.455  1.00  0.00     0.293 HD
ENDBRANCH  16  21
ENDBRANCH   1  11
BRANCH  10  23
ATOM     23  O   UNL     1     -61.302 -51.878  38.766  1.00  0.00    -0.500 OA
ATOM     24  H   UNL     1     -61.964 -52.063  39.513  1.00  0.00     0.294 HD
ENDBRANCH  10  23
BRANCH   5  25
ATOM     25  O   UNL     1     -54.304 -48.554  39.217  1.00  0.00    -0.507 OA
ATOM     26  H   UNL     1     -53.587 -49.180  39.563  1.00  0.00     0.293 HD
ENDBRANCH   5  25
BRANCH   7  27
ATOM     27  O   UNL     1     -58.091 -48.607  36.242  1.00  0.00    -0.507 OA
ATOM     28  H   UNL     1     -57.822 -48.927  35.323  1.00  0.00     0.293 HD
ENDBRANCH   7  27
TORSDOF 7
ENDMDL
MODEL 9
REMARK VINA RESULT:    -4.782      3.544      6.206
REMARK INTER + INTRA:          -6.241
REMARK INTER:                  -5.919
REMARK INTRA:                  -0.322
REMARK UNBOUND:                -0.341
REMARK SMILES Oc1cc(O)c2cc(O)c(-c3cc(O)c(O)c(O)c3)[o+]c2c1
REMARK SMILES IDX 10 1 20 2 21 3 22 4 2 5 3 6 4 7 6 8 7 9 8 10 11 11 12 12
REMARK SMILES IDX 13 13 19 14 15 15 17 16 14 17 16 19 18 21 9 23 1 25 5 27
REMARK H PARENT 14 18 16 20 18 22 9 24 1 26 5 28
REMARK Flexibility Score: inf
ROOT
ATOM      1  C   UNL     1     -59.704 -51.506  34.167  1.00  0.00     0.402 A 
ATOM      2  O   UNL     1     -60.825 -51.793  33.510  1.00  0.00    -0.202 OA
ATOM      3  C   UNL     1     -61.434 -52.972  33.587  1.00  0.00     0.368 A 
ATOM      4  C   UNL     1     -62.610 -53.178  32.862  1.00  0.00     0.162 A 
ATOM      5  C   UNL     1     -63.274 -54.403  32.926  1.00  0.00     0.128 A 
ATOM      6  C   UNL     1     -62.760 -55.432  33.723  1.00  0.00     0.093 A 
ATOM      7  C   UNL     1     -61.583 -55.251  34.461  1.00  0.00     0.136 A 
ATOM      8  C   UNL     1     -60.904 -54.007  34.396  1.00  0.00     0.125 A 
ATOM      9  C   UNL     1     -59.713 -53.740  35.090  1.00  0.00     0.078 A 
ATOM     10  C   UNL     1     -59.098 -52.490  34.972  1.00  0.00     0.223 A 
ENDROOT
BRANCH   1  11
ATOM     11  C   UNL     1     -59.125 -50.153  34.006  1.00  0.00     0.091 A 
ATOM     12  C   UNL     1     -58.561 -49.785  32.775  1.00  0.00     0.068 A 
ATOM     13  C   UNL     1     -58.025 -48.504  32.589  1.00  0.00     0.162 A 
ATOM     14  C   UNL     1     -59.177 -49.206  35.044  1.00  0.00     0.068 A 
ATOM     15  C   UNL     1     -58.062 -47.570  33.639  1.00  0.00     0.200 A 
ATOM     16  C   UNL     1     -58.643 -47.923  34.864  1.00  0.00     0.162 A 
BRANCH  13  17
ATOM     17  O   UNL     1     -57.455 -48.155  31.366  1.00  0.00    -0.504 OA
ATOM     18  H   UNL     1     -57.970 -48.238  30.496  1.00  0.00     0.293 HD
ENDBRANCH  13  17
BRANCH  15  19
ATOM     19  O   UNL     1     -57.533 -46.290  33.479  1.00  0.00    -0.502 OA
ATOM     20  H   UNL     1     -57.782 -45.698  32.696  1.00  0.00     0.293 HD
ENDBRANCH  15  19
BRANCH  16  21
ATOM     21  O   UNL     1     -58.691 -46.989  35.898  1.00  0.00    -0.504 OA
ATOM     22  H   UNL     1     -58.322 -47.196  36.818  1.00  0.00     0.293 HD
ENDBRANCH  16  21
ENDBRANCH   1  11
BRANCH  10  23
ATOM     23  O   UNL     1     -57.889 -52.241  35.621  1.00  0.00    -0.500 OA
ATOM     24  H   UNL     1     -57.000 -52.319  35.140  1.00  0.00     0.294 HD
ENDBRANCH  10  23
BRANCH   5  25
ATOM     25  O   UNL     1     -64.444 -54.590  32.195  1.00  0.00    -0.507 OA
ATOM     26  H   UNL     1     -64.928 -53.812  31.761  1.00  0.00     0.293 HD
ENDBRANCH   5  25
BRANCH   7  27
ATOM     27  O   UNL     1     -61.137 -56.326  35.235  1.00  0.00    -0.507 OA
ATOM     28  H   UNL     1     -61.362 -57.293  35.051  1.00  0.00     0.293 HD
ENDBRANCH   7  27
TORSDOF 7
ENDMDL
