MODEL 1
REMARK VINA RESULT:    -4.178      0.000      0.000
REMARK INTER + INTRA:          -4.178
REMARK INTER:                  -4.178
REMARK INTRA:                   0.000
REMARK UNBOUND:                 0.000
REMARK SMILES C=C1CCC[C@]2(C)CC(=O)C(=C(C)C)C[C@H]12
REMARK SMILES IDX 13 1 12 2 11 3 15 4 16 5 2 6 1 7 3 8 4 9 5 10 6 11 8 12 9 13
REMARK SMILES IDX 10 14 7 15 14 16
REMARK H PARENT
REMARK Flexibility Score: inf
ROOT
ATOM      1  C   UNL     1      64.356   4.739  32.885  1.00  0.00     0.039 C 
ATOM      2  C   UNL     1      63.098   3.974  33.230  1.00  0.00    -0.070 C 
ATOM      3  C   UNL     1      61.942   4.157  32.528  1.00  0.00    -0.006 C 
ATOM      4  C   UNL     1      61.856   5.155  31.384  1.00  0.00     0.047 C 
ATOM      5  C   UNL     1      60.451   5.798  31.236  1.00  0.00     0.025 C 
ATOM      6  C   UNL     1      60.121   6.895  32.253  1.00  0.00    -0.073 C 
ATOM      7  C   UNL     1      60.939   7.268  33.256  1.00  0.00     0.008 C 
ATOM      8  C   UNL     1      58.772   7.567  32.152  1.00  0.00     0.031 C 
ATOM      9  C   UNL     1      57.919   6.961  31.033  1.00  0.00     0.005 C 
ATOM     10  C   UNL     1      57.875   5.429  31.140  1.00  0.00     0.008 C 
ATOM     11  C   UNL     1      59.294   4.738  31.211  1.00  0.00    -0.018 C 
ATOM     12  C   UNL     1      59.367   3.884  32.506  1.00  0.00     0.088 C 
ATOM     13  C   UNL     1      60.735   3.315  32.749  1.00  0.00     0.159 C 
ATOM     14  O   UNL     1      60.835   2.118  33.130  1.00  0.00    -0.295 OA
ATOM     15  C   UNL     1      59.442   3.811  29.977  1.00  0.00     0.012 C 
ATOM     16  C   UNL     1      63.170   3.030  34.408  1.00  0.00     0.039 C 
ENDROOT
TORSDOF 0
ENDMDL
MODEL 2
REMARK VINA RESULT:    -4.156      2.206      4.460
REMARK INTER + INTRA:          -4.156
REMARK INTER:                  -4.156
REMARK INTRA:                   0.000
REMARK UNBOUND:                 0.000
REMARK SMILES C=C1CCC[C@]2(C)CC(=O)C(=C(C)C)C[C@H]12
REMARK SMILES IDX 13 1 12 2 11 3 15 4 16 5 2 6 1 7 3 8 4 9 5 10 6 11 8 12 9 13
REMARK SMILES IDX 10 14 7 15 14 16
REMARK H PARENT
REMARK Flexibility Score: inf
ROOT
ATOM      1  C   UNL     1      60.085   2.493  30.814  1.00  0.00     0.039 C 
ATOM      2  C   UNL     1      59.554   3.901  30.967  1.00  0.00    -0.070 C 
ATOM      3  C   UNL     1      60.390   4.949  31.223  1.00  0.00    -0.006 C 
ATOM      4  C   UNL     1      61.888   4.749  31.390  1.00  0.00     0.047 C 
ATOM      5  C   UNL     1      62.533   5.754  32.382  1.00  0.00     0.025 C 
ATOM      6  C   UNL     1      62.300   5.453  33.866  1.00  0.00    -0.073 C 
ATOM      7  C   UNL     1      61.548   4.433  34.322  1.00  0.00     0.008 C 
ATOM      8  C   UNL     1      62.914   6.390  34.880  1.00  0.00     0.031 C 
ATOM      9  C   UNL     1      63.644   7.555  34.206  1.00  0.00     0.005 C 
ATOM     10  C   UNL     1      62.752   8.232  33.154  1.00  0.00     0.008 C 
ATOM     11  C   UNL     1      62.145   7.244  32.080  1.00  0.00    -0.018 C 
ATOM     12  C   UNL     1      60.598   7.376  32.103  1.00  0.00     0.088 C 
ATOM     13  C   UNL     1      59.917   6.361  31.232  1.00  0.00     0.159 C 
ATOM     14  O   UNL     1      58.953   6.730  30.509  1.00  0.00    -0.295 OA
ATOM     15  C   UNL     1      62.674   7.665  30.684  1.00  0.00     0.012 C 
ATOM     16  C   UNL     1      58.058   4.086  30.862  1.00  0.00     0.039 C 
ENDROOT
TORSDOF 0
ENDMDL
MODEL 3
REMARK VINA RESULT:    -3.953     16.425     18.482
REMARK INTER + INTRA:          -3.953
REMARK INTER:                  -3.953
REMARK INTRA:                   0.000
REMARK UNBOUND:                 0.000
REMARK SMILES C=C1CCC[C@]2(C)CC(=O)C(=C(C)C)C[C@H]12
REMARK SMILES IDX 13 1 12 2 11 3 15 4 16 5 2 6 1 7 3 8 4 9 5 10 6 11 8 12 9 13
REMARK SMILES IDX 10 14 7 15 14 16
REMARK H PARENT
REMARK Flexibility Score: inf
ROOT
ATOM      1  C   UNL     1      64.436  13.949  48.755  1.00  0.00     0.039 C 
ATOM      2  C   UNL     1      65.808  13.537  48.269  1.00  0.00    -0.070 C 
ATOM      3  C   UNL     1      66.525  14.327  47.417  1.00  0.00    -0.006 C 
ATOM      4  C   UNL     1      65.971  15.644  46.897  1.00  0.00     0.047 C 
ATOM      5  C   UNL     1      66.462  15.994  45.467  1.00  0.00     0.025 C 
ATOM      6  C   UNL     1      65.775  15.226  44.332  1.00  0.00    -0.073 C 
ATOM      7  C   UNL     1      64.848  14.267  44.519  1.00  0.00     0.008 C 
ATOM      8  C   UNL     1      66.203  15.532  42.916  1.00  0.00     0.031 C 
ATOM      9  C   UNL     1      67.337  16.561  42.876  1.00  0.00     0.005 C 
ATOM     10  C   UNL     1      68.477  16.165  43.827  1.00  0.00     0.008 C 
ATOM     11  C   UNL     1      68.019  15.881  45.312  1.00  0.00    -0.018 C 
ATOM     12  C   UNL     1      68.461  14.445  45.702  1.00  0.00     0.088 C 
ATOM     13  C   UNL     1      67.931  14.019  47.040  1.00  0.00     0.159 C 
ATOM     14  O   UNL     1      68.701  13.410  47.832  1.00  0.00    -0.295 OA
ATOM     15  C   UNL     1      68.726  16.904  46.238  1.00  0.00     0.012 C 
ATOM     16  C   UNL     1      66.329  12.198  48.737  1.00  0.00     0.039 C 
ENDROOT
TORSDOF 0
ENDMDL
MODEL 4
REMARK VINA RESULT:    -3.913     12.984     14.724
REMARK INTER + INTRA:          -3.913
REMARK INTER:                  -3.913
REMARK INTRA:                   0.000
REMARK UNBOUND:                 0.000
REMARK SMILES C=C1CCC[C@]2(C)CC(=O)C(=C(C)C)C[C@H]12
REMARK SMILES IDX 13 1 12 2 11 3 15 4 16 5 2 6 1 7 3 8 4 9 5 10 6 11 8 12 9 13
REMARK SMILES IDX 10 14 7 15 14 16
REMARK H PARENT
REMARK Flexibility Score: inf
ROOT
ATOM      1  C   UNL     1      62.803   7.200  46.728  1.00  0.00     0.039 C 
ATOM      2  C   UNL     1      61.602   6.890  45.863  1.00  0.00    -0.070 C 
ATOM      3  C   UNL     1      60.707   5.921  46.213  1.00  0.00    -0.006 C 
ATOM      4  C   UNL     1      60.886   5.091  47.474  1.00  0.00     0.047 C 
ATOM      5  C   UNL     1      60.335   3.647  47.341  1.00  0.00     0.025 C 
ATOM      6  C   UNL     1      61.219   2.679  46.547  1.00  0.00    -0.073 C 
ATOM      7  C   UNL     1      62.371   3.028  45.942  1.00  0.00     0.008 C 
ATOM      8  C   UNL     1      60.741   1.253  46.393  1.00  0.00     0.031 C 
ATOM      9  C   UNL     1      59.370   1.042  47.042  1.00  0.00     0.005 C 
ATOM     10  C   UNL     1      58.370   2.115  46.583  1.00  0.00     0.008 C 
ATOM     11  C   UNL     1      58.870   3.600  46.782  1.00  0.00    -0.018 C 
ATOM     12  C   UNL     1      58.833   4.325  45.409  1.00  0.00     0.088 C 
ATOM     13  C   UNL     1      59.443   5.696  45.460  1.00  0.00     0.159 C 
ATOM     14  O   UNL     1      58.860   6.642  44.866  1.00  0.00    -0.295 OA
ATOM     15  C   UNL     1      57.899   4.309  47.761  1.00  0.00     0.012 C 
ATOM     16  C   UNL     1      61.461   7.673  44.577  1.00  0.00     0.039 C 
ENDROOT
TORSDOF 0
ENDMDL
MODEL 5
REMARK VINA RESULT:    -3.900      8.317     10.885
REMARK INTER + INTRA:          -3.900
REMARK INTER:                  -3.900
REMARK INTRA:                   0.000
REMARK UNBOUND:                 0.000
REMARK SMILES C=C1CCC[C@]2(C)CC(=O)C(=C(C)C)C[C@H]12
REMARK SMILES IDX 13 1 12 2 11 3 15 4 16 5 2 6 1 7 3 8 4 9 5 10 6 11 8 12 9 13
REMARK SMILES IDX 10 14 7 15 14 16
REMARK H PARENT
REMARK Flexibility Score: inf
ROOT
ATOM      1  C   UNL     1      72.747  -0.757  34.403  1.00  0.00     0.039 C 
ATOM      2  C   UNL     1      71.913  -0.686  35.662  1.00  0.00    -0.070 C 
ATOM      3  C   UNL     1      70.600  -1.060  35.665  1.00  0.00    -0.006 C 
ATOM      4  C   UNL     1      69.907  -1.541  34.401  1.00  0.00     0.047 C 
ATOM      5  C   UNL     1      68.398  -1.181  34.354  1.00  0.00     0.025 C 
ATOM      6  C   UNL     1      68.082   0.277  34.004  1.00  0.00    -0.073 C 
ATOM      7  C   UNL     1      69.016   1.226  33.801  1.00  0.00     0.008 C 
ATOM      8  C   UNL     1      66.629   0.685  33.932  1.00  0.00     0.031 C 
ATOM      9  C   UNL     1      65.697  -0.474  34.292  1.00  0.00     0.005 C 
ATOM     10  C   UNL     1      66.120  -1.134  35.614  1.00  0.00     0.008 C 
ATOM     11  C   UNL     1      67.633  -1.586  35.662  1.00  0.00    -0.018 C 
ATOM     12  C   UNL     1      68.317  -0.903  36.877  1.00  0.00     0.088 C 
ATOM     13  C   UNL     1      69.799  -1.141  36.917  1.00  0.00     0.159 C 
ATOM     14  O   UNL     1      70.340  -1.417  38.022  1.00  0.00    -0.295 OA
ATOM     15  C   UNL     1      67.671  -3.125  35.852  1.00  0.00     0.012 C 
ATOM     16  C   UNL     1      72.588  -0.148  36.903  1.00  0.00     0.039 C 
ENDROOT
TORSDOF 0
ENDMDL
MODEL 6
REMARK VINA RESULT:    -3.863     14.231     16.059
REMARK INTER + INTRA:          -3.863
REMARK INTER:                  -3.863
REMARK INTRA:                   0.000
REMARK UNBOUND:                 0.000
REMARK SMILES C=C1CCC[C@]2(C)CC(=O)C(=C(C)C)C[C@H]12
REMARK SMILES IDX 13 1 12 2 11 3 15 4 16 5 2 6 1 7 3 8 4 9 5 10 6 11 8 12 9 13
REMARK SMILES IDX 10 14 7 15 14 16
REMARK H PARENT
REMARK Flexibility Score: inf
ROOT
ATOM      1  C   UNL     1      65.579  15.501  47.006  1.00  0.00     0.039 C 
ATOM      2  C   UNL     1      65.222  15.283  45.553  1.00  0.00    -0.070 C 
ATOM      3  C   UNL     1      63.989  14.823  45.188  1.00  0.00    -0.006 C 
ATOM      4  C   UNL     1      62.927  14.486  46.222  1.00  0.00     0.047 C 
ATOM      5  C   UNL     1      61.990  13.329  45.784  1.00  0.00     0.025 C 
ATOM      6  C   UNL     1      62.586  11.923  45.900  1.00  0.00    -0.073 C 
ATOM      7  C   UNL     1      63.848  11.666  46.293  1.00  0.00     0.008 C 
ATOM      8  C   UNL     1      61.717  10.754  45.499  1.00  0.00     0.031 C 
ATOM      9  C   UNL     1      60.354  11.215  44.973  1.00  0.00     0.005 C 
ATOM     10  C   UNL     1      60.515  12.302  43.900  1.00  0.00     0.008 C 
ATOM     11  C   UNL     1      61.399  13.534  44.345  1.00  0.00    -0.018 C 
ATOM     12  C   UNL     1      62.570  13.695  43.338  1.00  0.00     0.088 C 
ATOM     13  C   UNL     1      63.560  14.739  43.765  1.00  0.00     0.159 C 
ATOM     14  O   UNL     1      64.008  15.540  42.900  1.00  0.00    -0.295 OA
ATOM     15  C   UNL     1      60.510  14.804  44.305  1.00  0.00     0.012 C 
ATOM     16  C   UNL     1      66.300  15.558  44.531  1.00  0.00     0.039 C 
ENDROOT
TORSDOF 0
ENDMDL
MODEL 7
REMARK VINA RESULT:    -3.855      9.254     11.990
REMARK INTER + INTRA:          -3.855
REMARK INTER:                  -3.855
REMARK INTRA:                   0.000
REMARK UNBOUND:                 0.000
REMARK SMILES C=C1CCC[C@]2(C)CC(=O)C(=C(C)C)C[C@H]12
REMARK SMILES IDX 13 1 12 2 11 3 15 4 16 5 2 6 1 7 3 8 4 9 5 10 6 11 8 12 9 13
REMARK SMILES IDX 10 14 7 15 14 16
REMARK H PARENT
REMARK Flexibility Score: inf
ROOT
ATOM      1  C   UNL     1      67.675  -3.125  35.843  1.00  0.00     0.039 C 
ATOM      2  C   UNL     1      67.648  -1.720  35.285  1.00  0.00    -0.070 C 
ATOM      3  C   UNL     1      68.706  -1.214  34.586  1.00  0.00    -0.006 C 
ATOM      4  C   UNL     1      69.969  -2.028  34.355  1.00  0.00     0.047 C 
ATOM      5  C   UNL     1      71.253  -1.160  34.285  1.00  0.00     0.025 C 
ATOM      6  C   UNL     1      71.786  -0.666  35.635  1.00  0.00    -0.073 C 
ATOM      7  C   UNL     1      71.183  -0.898  36.817  1.00  0.00     0.008 C 
ATOM      8  C   UNL     1      73.041   0.174  35.633  1.00  0.00     0.031 C 
ATOM      9  C   UNL     1      73.544   0.438  34.210  1.00  0.00     0.005 C 
ATOM     10  C   UNL     1      72.412   0.960  33.312  1.00  0.00     0.008 C 
ATOM     11  C   UNL     1      71.118   0.053  33.299  1.00  0.00    -0.018 C 
ATOM     12  C   UNL     1      69.901   0.917  33.727  1.00  0.00     0.088 C 
ATOM     13  C   UNL     1      68.649   0.107  33.902  1.00  0.00     0.159 C 
ATOM     14  O   UNL     1      67.563   0.563  33.453  1.00  0.00    -0.295 OA
ATOM     15  C   UNL     1      70.901  -0.456  31.850  1.00  0.00     0.012 C 
ATOM     16  C   UNL     1      66.417  -0.891  35.571  1.00  0.00     0.039 C 
ENDROOT
TORSDOF 0
ENDMDL
MODEL 8
REMARK VINA RESULT:    -3.845      8.043     10.359
REMARK INTER + INTRA:          -3.845
REMARK INTER:                  -3.845
REMARK INTRA:                   0.000
REMARK UNBOUND:                 0.000
REMARK SMILES C=C1CCC[C@]2(C)CC(=O)C(=C(C)C)C[C@H]12
REMARK SMILES IDX 13 1 12 2 11 3 15 4 16 5 2 6 1 7 3 8 4 9 5 10 6 11 8 12 9 13
REMARK SMILES IDX 10 14 7 15 14 16
REMARK H PARENT
REMARK Flexibility Score: inf
ROOT
ATOM      1  C   UNL     1      67.249  -0.991  36.860  1.00  0.00     0.039 C 
ATOM      2  C   UNL     1      68.092  -1.550  35.736  1.00  0.00    -0.070 C 
ATOM      3  C   UNL     1      68.889  -0.742  34.978  1.00  0.00    -0.006 C 
ATOM      4  C   UNL     1      68.950   0.759  35.211  1.00  0.00     0.047 C 
ATOM      5  C   UNL     1      69.211   1.570  33.913  1.00  0.00     0.025 C 
ATOM      6  C   UNL     1      68.000   1.736  32.989  1.00  0.00    -0.073 C 
ATOM      7  C   UNL     1      66.792   1.186  33.217  1.00  0.00     0.008 C 
ATOM      8  C   UNL     1      68.189   2.527  31.715  1.00  0.00     0.031 C 
ATOM      9  C   UNL     1      69.638   2.992  31.547  1.00  0.00     0.005 C 
ATOM     10  C   UNL     1      70.619   1.826  31.738  1.00  0.00     0.008 C 
ATOM     11  C   UNL     1      70.431   1.029  33.090  1.00  0.00    -0.018 C 
ATOM     12  C   UNL     1      70.189  -0.468  32.755  1.00  0.00     0.088 C 
ATOM     13  C   UNL     1      69.837  -1.282  33.966  1.00  0.00     0.159 C 
ATOM     14  O   UNL     1      70.366  -2.418  34.108  1.00  0.00    -0.295 OA
ATOM     15  C   UNL     1      71.738   1.164  33.914  1.00  0.00     0.012 C 
ATOM     16  C   UNL     1      67.981  -3.033  35.466  1.00  0.00     0.039 C 
ENDROOT
TORSDOF 0
ENDMDL
MODEL 9
REMARK VINA RESULT:    -3.806     15.485     17.198
REMARK INTER + INTRA:          -3.806
REMARK INTER:                  -3.806
REMARK INTRA:                   0.000
REMARK UNBOUND:                 0.000
REMARK SMILES C=C1CCC[C@]2(C)CC(=O)C(=C(C)C)C[C@H]12
REMARK SMILES IDX 13 1 12 2 11 3 15 4 16 5 2 6 1 7 3 8 4 9 5 10 6 11 8 12 9 13
REMARK SMILES IDX 10 14 7 15 14 16
REMARK H PARENT
REMARK Flexibility Score: inf
ROOT
ATOM      1  C   UNL     1      68.726  14.881  44.635  1.00  0.00     0.039 C 
ATOM      2  C   UNL     1      67.732  15.529  45.573  1.00  0.00    -0.070 C 
ATOM      3  C   UNL     1      66.454  15.064  45.683  1.00  0.00    -0.006 C 
ATOM      4  C   UNL     1      65.961  13.890  44.852  1.00  0.00     0.047 C 
ATOM      5  C   UNL     1      64.452  13.981  44.497  1.00  0.00     0.025 C 
ATOM      6  C   UNL     1      64.102  14.960  43.371  1.00  0.00    -0.073 C 
ATOM      7  C   UNL     1      64.998  15.747  42.746  1.00  0.00     0.008 C 
ATOM      8  C   UNL     1      62.650  15.083  42.971  1.00  0.00     0.031 C 
ATOM      9  C   UNL     1      61.746  14.208  43.844  1.00  0.00     0.005 C 
ATOM     10  C   UNL     1      62.030  14.435  45.337  1.00  0.00     0.008 C 
ATOM     11  C   UNL     1      63.547  14.270  45.745  1.00  0.00    -0.018 C 
ATOM     12  C   UNL     1      64.026  15.583  46.421  1.00  0.00     0.088 C 
ATOM     13  C   UNL     1      65.501  15.586  46.701  1.00  0.00     0.159 C 
ATOM     14  O   UNL     1      65.908  16.026  47.809  1.00  0.00    -0.295 OA
ATOM     15  C   UNL     1      63.648  13.103  46.763  1.00  0.00     0.012 C 
ATOM     16  C   UNL     1      68.207  16.735  46.351  1.00  0.00     0.039 C 
ENDROOT
TORSDOF 0
ENDMDL
