MODEL 1
REMARK VINA RESULT:    -2.987      0.000      0.000
REMARK INTER + INTRA:          -3.633
REMARK INTER:                  -3.511
REMARK INTRA:                  -0.122
REMARK UNBOUND:                -0.122
REMARK SMILES O=C([O-])CCC(=O)[O-]
REMARK SMILES IDX 4 1 2 2 1 3 3 4 5 5 6 6 7 7 8 8
REMARK H PARENT
REMARK Flexibility Score: inf
ROOT
ATOM      1  C   UNL     1      12.119  -9.486  -7.349  1.00  0.00     0.059 C 
ENDROOT
BRANCH   1   2
ATOM      2  C   UNL     1      12.044  -9.688  -5.867  1.00  0.00     0.042 C 
ATOM      3  O   UNL     1      11.983 -10.852  -5.388  1.00  0.00    -0.550 OA
ATOM      4  O   UNL     1      12.003  -8.592  -5.016  1.00  0.00    -0.550 OA
ENDBRANCH   1   2
BRANCH   1   5
ATOM      5  C   UNL     1      11.288 -10.530  -8.103  1.00  0.00     0.059 C 
BRANCH   5   6
ATOM      6  C   UNL     1       9.821 -10.243  -8.005  1.00  0.00     0.042 C 
ATOM      7  O   UNL     1       9.388  -9.079  -8.209  1.00  0.00    -0.550 OA
ATOM      8  O   UNL     1       8.938 -11.254  -7.647  1.00  0.00    -0.550 OA
ENDBRANCH   5   6
ENDBRANCH   1   5
TORSDOF 3
ENDMDL
MODEL 2
REMARK VINA RESULT:    -2.974     13.636     14.198
REMARK INTER + INTRA:          -3.618
REMARK INTER:                  -3.461
REMARK INTRA:                  -0.157
REMARK UNBOUND:                -0.122
REMARK SMILES O=C([O-])CCC(=O)[O-]
REMARK SMILES IDX 4 1 2 2 1 3 3 4 5 5 6 6 7 7 8 8
REMARK H PARENT
REMARK Flexibility Score: inf
ROOT
ATOM      1  C   UNL     1       4.507 -18.627   3.566  1.00  0.00     0.059 C 
ENDROOT
BRANCH   1   2
ATOM      2  C   UNL     1       4.174 -17.231   3.996  1.00  0.00     0.042 C 
ATOM      3  O   UNL     1       2.975 -16.896   4.189  1.00  0.00    -0.550 OA
ATOM      4  O   UNL     1       5.184 -16.290   4.148  1.00  0.00    -0.550 OA
ENDBRANCH   1   2
BRANCH   1   5
ATOM      5  C   UNL     1       3.705 -19.041   2.328  1.00  0.00     0.059 C 
BRANCH   5   6
ATOM      6  C   UNL     1       4.198 -18.348   1.094  1.00  0.00     0.042 C 
ATOM      7  O   UNL     1       3.380 -17.902   0.248  1.00  0.00    -0.550 OA
ATOM      8  O   UNL     1       5.563 -18.233   0.860  1.00  0.00    -0.550 OA
ENDBRANCH   5   6
ENDBRANCH   1   5
TORSDOF 3
ENDMDL
MODEL 3
REMARK VINA RESULT:    -2.974     13.568     14.184
REMARK INTER + INTRA:          -3.618
REMARK INTER:                  -3.461
REMARK INTRA:                  -0.157
REMARK UNBOUND:                -0.122
REMARK SMILES O=C([O-])CCC(=O)[O-]
REMARK SMILES IDX 4 1 2 2 1 3 3 4 5 5 6 6 7 7 8 8
REMARK H PARENT
REMARK Flexibility Score: inf
ROOT
ATOM      1  C   UNL     1       8.939 -14.541   7.022  1.00  0.00     0.059 C 
ENDROOT
BRANCH   1   2
ATOM      2  C   UNL     1       8.572 -13.141   6.640  1.00  0.00     0.042 C 
ATOM      3  O   UNL     1       7.674 -12.525   7.273  1.00  0.00    -0.550 OA
ATOM      4  O   UNL     1       9.194 -12.528   5.559  1.00  0.00    -0.550 OA
ENDBRANCH   1   2
BRANCH   1   5
ATOM      5  C   UNL     1       7.763 -15.504   6.830  1.00  0.00     0.059 C 
BRANCH   5   6
ATOM      6  C   UNL     1       7.378 -15.626   5.387  1.00  0.00     0.042 C 
ATOM      7  O   UNL     1       6.164 -15.658   5.056  1.00  0.00    -0.550 OA
ATOM      8  O   UNL     1       8.363 -15.746   4.414  1.00  0.00    -0.550 OA
ENDBRANCH   5   6
ENDBRANCH   1   5
TORSDOF 3
ENDMDL
MODEL 4
REMARK VINA RESULT:    -2.963      0.116      3.693
REMARK INTER + INTRA:          -3.605
REMARK INTER:                  -3.495
REMARK INTRA:                  -0.110
REMARK UNBOUND:                -0.122
REMARK SMILES O=C([O-])CCC(=O)[O-]
REMARK SMILES IDX 4 1 2 2 1 3 3 4 5 5 6 6 7 7 8 8
REMARK H PARENT
REMARK Flexibility Score: inf
ROOT
ATOM      1  C   UNL     1      11.225 -10.626  -8.018  1.00  0.00     0.059 C 
ENDROOT
BRANCH   1   2
ATOM      2  C   UNL     1       9.768 -10.278  -7.998  1.00  0.00     0.042 C 
ATOM      3  O   UNL     1       9.402  -9.077  -8.092  1.00  0.00    -0.550 OA
ATOM      4  O   UNL     1       8.816 -11.277  -7.838  1.00  0.00    -0.550 OA
ENDBRANCH   1   2
BRANCH   1   5
ATOM      5  C   UNL     1      12.071  -9.547  -7.335  1.00  0.00     0.059 C 
BRANCH   5   6
ATOM      6  C   UNL     1      12.047  -9.689  -5.843  1.00  0.00     0.042 C 
ATOM      7  O   UNL     1      11.985 -10.830  -5.316  1.00  0.00    -0.550 OA
ATOM      8  O   UNL     1      12.049  -8.557  -5.038  1.00  0.00    -0.550 OA
ENDBRANCH   5   6
ENDBRANCH   1   5
TORSDOF 3
ENDMDL
MODEL 5
REMARK VINA RESULT:    -2.958     13.641     14.462
REMARK INTER + INTRA:          -3.599
REMARK INTER:                  -3.462
REMARK INTRA:                  -0.137
REMARK UNBOUND:                -0.122
REMARK SMILES O=C([O-])CCC(=O)[O-]
REMARK SMILES IDX 4 1 2 2 1 3 3 4 5 5 6 6 7 7 8 8
REMARK H PARENT
REMARK Flexibility Score: inf
ROOT
ATOM      1  C   UNL     1       3.688 -19.038   2.382  1.00  0.00     0.059 C 
ENDROOT
BRANCH   1   2
ATOM      2  C   UNL     1       4.178 -18.344   1.148  1.00  0.00     0.042 C 
ATOM      3  O   UNL     1       3.359 -17.930   0.286  1.00  0.00    -0.550 OA
ATOM      4  O   UNL     1       5.541 -18.189   0.931  1.00  0.00    -0.550 OA
ENDBRANCH   1   2
BRANCH   1   5
ATOM      5  C   UNL     1       4.487 -18.616   3.619  1.00  0.00     0.059 C 
BRANCH   5   6
ATOM      6  C   UNL     1       4.205 -17.195   4.001  1.00  0.00     0.042 C 
ATOM      7  O   UNL     1       3.020 -16.770   4.028  1.00  0.00    -0.550 OA
ATOM      8  O   UNL     1       5.255 -16.330   4.284  1.00  0.00    -0.550 OA
ENDBRANCH   5   6
ENDBRANCH   1   5
TORSDOF 3
ENDMDL
MODEL 6
REMARK VINA RESULT:    -2.957     10.285     11.593
REMARK INTER + INTRA:          -3.598
REMARK INTER:                  -3.464
REMARK INTRA:                  -0.135
REMARK UNBOUND:                -0.122
REMARK SMILES O=C([O-])CCC(=O)[O-]
REMARK SMILES IDX 4 1 2 2 1 3 3 4 5 5 6 6 7 7 8 8
REMARK H PARENT
REMARK Flexibility Score: inf
ROOT
ATOM      1  C   UNL     1       3.484 -18.502  -4.701  1.00  0.00     0.059 C 
ENDROOT
BRANCH   1   2
ATOM      2  C   UNL     1       4.467 -17.378  -4.812  1.00  0.00     0.042 C 
ATOM      3  O   UNL     1       4.241 -16.413  -5.589  1.00  0.00    -0.550 OA
ATOM      4  O   UNL     1       5.651 -17.414  -4.087  1.00  0.00    -0.550 OA
ENDBRANCH   1   2
BRANCH   1   5
ATOM      5  C   UNL     1       3.413 -19.050  -3.272  1.00  0.00     0.059 C 
BRANCH   5   6
ATOM      6  C   UNL     1       2.672 -18.120  -2.361  1.00  0.00     0.042 C 
ATOM      7  O   UNL     1       1.601 -17.580  -2.741  1.00  0.00    -0.550 OA
ATOM      8  O   UNL     1       3.189 -17.819  -1.106  1.00  0.00    -0.550 OA
ENDBRANCH   5   6
ENDBRANCH   1   5
TORSDOF 3
ENDMDL
MODEL 7
REMARK VINA RESULT:    -2.947     10.284     11.552
REMARK INTER + INTRA:          -3.586
REMARK INTER:                  -3.434
REMARK INTRA:                  -0.151
REMARK UNBOUND:                -0.122
REMARK SMILES O=C([O-])CCC(=O)[O-]
REMARK SMILES IDX 4 1 2 2 1 3 3 4 5 5 6 6 7 7 8 8
REMARK H PARENT
REMARK Flexibility Score: inf
ROOT
ATOM      1  C   UNL     1       3.300 -19.112  -3.321  1.00  0.00     0.059 C 
ENDROOT
BRANCH   1   2
ATOM      2  C   UNL     1       2.682 -18.093  -2.414  1.00  0.00     0.042 C 
ATOM      3  O   UNL     1       1.594 -17.542  -2.727  1.00  0.00    -0.550 OA
ATOM      4  O   UNL     1       3.326 -17.724  -1.241  1.00  0.00    -0.550 OA
ENDBRANCH   1   2
BRANCH   1   5
ATOM      5  C   UNL     1       3.491 -18.562  -4.739  1.00  0.00     0.059 C 
BRANCH   5   6
ATOM      6  C   UNL     1       4.457 -17.417  -4.761  1.00  0.00     0.042 C 
ATOM      7  O   UNL     1       4.211 -16.393  -5.451  1.00  0.00    -0.550 OA
ATOM      8  O   UNL     1       5.649 -17.500  -4.052  1.00  0.00    -0.550 OA
ENDBRANCH   5   6
ENDBRANCH   1   5
TORSDOF 3
ENDMDL
MODEL 8
REMARK VINA RESULT:    -2.938      4.928      6.963
REMARK INTER + INTRA:          -3.576
REMARK INTER:                  -3.441
REMARK INTRA:                  -0.135
REMARK UNBOUND:                -0.122
REMARK SMILES O=C([O-])CCC(=O)[O-]
REMARK SMILES IDX 4 1 2 2 1 3 3 4 5 5 6 6 7 7 8 8
REMARK H PARENT
REMARK Flexibility Score: inf
ROOT
ATOM      1  C   UNL     1      14.446  -8.014  -2.437  1.00  0.00     0.059 C 
ENDROOT
BRANCH   1   2
ATOM      2  C   UNL     1      13.201  -7.464  -3.062  1.00  0.00     0.042 C 
ATOM      3  O   UNL     1      12.835  -6.285  -2.815  1.00  0.00    -0.550 OA
ATOM      4  O   UNL     1      12.424  -8.267  -3.887  1.00  0.00    -0.550 OA
ENDBRANCH   1   2
BRANCH   1   5
ATOM      5  C   UNL     1      14.472  -7.771  -0.924  1.00  0.00     0.059 C 
BRANCH   5   6
ATOM      6  C   UNL     1      13.563  -8.716  -0.199  1.00  0.00     0.042 C 
ATOM      7  O   UNL     1      12.995  -8.357   0.866  1.00  0.00    -0.550 OA
ATOM      8  O   UNL     1      13.377 -10.007  -0.677  1.00  0.00    -0.550 OA
ENDBRANCH   5   6
ENDBRANCH   1   5
TORSDOF 3
ENDMDL
MODEL 9
REMARK VINA RESULT:    -2.927      4.948      6.304
REMARK INTER + INTRA:          -3.562
REMARK INTER:                  -3.445
REMARK INTRA:                  -0.117
REMARK UNBOUND:                -0.122
REMARK SMILES O=C([O-])CCC(=O)[O-]
REMARK SMILES IDX 4 1 2 2 1 3 3 4 5 5 6 6 7 7 8 8
REMARK H PARENT
REMARK Flexibility Score: inf
ROOT
ATOM      1  C   UNL     1      14.465  -7.780  -0.947  1.00  0.00     0.059 C 
ENDROOT
BRANCH   1   2
ATOM      2  C   UNL     1      13.560  -8.804  -0.334  1.00  0.00     0.042 C 
ATOM      3  O   UNL     1      13.449  -9.945  -0.854  1.00  0.00    -0.550 OA
ATOM      4  O   UNL     1      12.809  -8.485   0.790  1.00  0.00    -0.550 OA
ENDBRANCH   1   2
BRANCH   1   5
ATOM      5  C   UNL     1      14.474  -7.880  -2.476  1.00  0.00     0.059 C 
BRANCH   5   6
ATOM      6  C   UNL     1      13.187  -7.393  -3.069  1.00  0.00     0.042 C 
ATOM      7  O   UNL     1      12.745  -6.252  -2.773  1.00  0.00    -0.550 OA
ATOM      8  O   UNL     1      12.457  -8.217  -3.916  1.00  0.00    -0.550 OA
ENDBRANCH   5   6
ENDBRANCH   1   5
TORSDOF 3
ENDMDL
