MODEL 1
REMARK VINA RESULT:    -3.543      0.000      0.000
REMARK INTER + INTRA:          -5.029
REMARK INTER:                  -4.579
REMARK INTRA:                  -0.450
REMARK UNBOUND:                -0.450
REMARK SMILES CCCCCCC(=O)[O-]
REMARK SMILES IDX 5 1 6 2 7 3 8 4 9 5 4 6 3 7 2 8 1 9
REMARK H PARENT
REMARK Flexibility Score: inf
ROOT
ATOM      1  C   UNL     1     159.548 157.868 148.425  1.00  0.00     0.006 C 
ENDROOT
BRANCH   1   2
ATOM      2  C   UNL     1     159.784 158.848 147.271  1.00  0.00     0.053 C 
BRANCH   2   3
ATOM      3  C   UNL     1     159.416 160.239 147.682  1.00  0.00     0.041 C 
ATOM      4  O   UNL     1     158.317 160.462 148.252  1.00  0.00    -0.550 OA
ATOM      5  O   UNL     1     160.311 161.283 147.478  1.00  0.00    -0.550 OA
ENDBRANCH   2   3
ENDBRANCH   1   2
BRANCH   1   6
ATOM      6  C   UNL     1     160.641 158.000 149.492  1.00  0.00     0.000 C 
BRANCH   6   7
ATOM      7  C   UNL     1     160.042 157.938 150.904  1.00  0.00    -0.000 C 
BRANCH   7   8
ATOM      8  C   UNL     1     159.768 159.331 151.492  1.00  0.00    -0.003 C 
ATOM      9  C   UNL     1     160.835 160.356 151.106  1.00  0.00     0.004 C 
ENDBRANCH   7   8
ENDBRANCH   6   7
ENDBRANCH   1   6
TORSDOF 5
ENDMDL
MODEL 2
REMARK VINA RESULT:    -3.532      2.078      3.147
REMARK INTER + INTRA:          -5.013
REMARK INTER:                  -4.641
REMARK INTRA:                  -0.373
REMARK UNBOUND:                -0.450
REMARK SMILES CCCCCCC(=O)[O-]
REMARK SMILES IDX 5 1 6 2 7 3 8 4 9 5 4 6 3 7 2 8 1 9
REMARK H PARENT
REMARK Flexibility Score: inf
ROOT
ATOM      1  C   UNL     1     160.646 161.677 148.243  1.00  0.00     0.006 C 
ENDROOT
BRANCH   1   2
ATOM      2  C   UNL     1     159.566 160.744 147.687  1.00  0.00     0.053 C 
BRANCH   2   3
ATOM      3  C   UNL     1     160.040 159.325 147.704  1.00  0.00     0.041 C 
ATOM      4  O   UNL     1     161.143 159.031 148.235  1.00  0.00    -0.550 OA
ATOM      5  O   UNL     1     159.240 158.319 147.177  1.00  0.00    -0.550 OA
ENDBRANCH   2   3
ENDBRANCH   1   2
BRANCH   1   6
ATOM      6  C   UNL     1     160.064 162.625 149.299  1.00  0.00     0.000 C 
BRANCH   6   7
ATOM      7  C   UNL     1     158.844 161.997 149.988  1.00  0.00    -0.000 C 
BRANCH   7   8
ATOM      8  C   UNL     1     159.177 161.423 151.373  1.00  0.00    -0.003 C 
ATOM      9  C   UNL     1     159.180 159.894 151.395  1.00  0.00     0.004 C 
ENDBRANCH   7   8
ENDBRANCH   6   7
ENDBRANCH   1   6
TORSDOF 5
ENDMDL
MODEL 3
REMARK VINA RESULT:    -3.516      2.537      3.431
REMARK INTER + INTRA:          -4.994
REMARK INTER:                  -4.575
REMARK INTRA:                  -0.418
REMARK UNBOUND:                -0.450
REMARK SMILES CCCCCCC(=O)[O-]
REMARK SMILES IDX 5 1 6 2 7 3 8 4 9 5 4 6 3 7 2 8 1 9
REMARK H PARENT
REMARK Flexibility Score: inf
ROOT
ATOM      1  C   UNL     1     158.963 161.888 149.928  1.00  0.00     0.006 C 
ENDROOT
BRANCH   1   2
ATOM      2  C   UNL     1     160.172 162.524 149.234  1.00  0.00     0.053 C 
BRANCH   2   3
ATOM      3  C   UNL     1     161.348 161.602 149.281  1.00  0.00     0.041 C 
ATOM      4  O   UNL     1     161.273 160.452 148.775  1.00  0.00    -0.550 OA
ATOM      5  O   UNL     1     162.546 162.031 149.840  1.00  0.00    -0.550 OA
ENDBRANCH   2   3
ENDBRANCH   1   2
BRANCH   1   6
ATOM      6  C   UNL     1     158.908 162.282 151.409  1.00  0.00     0.000 C 
BRANCH   6   7
ATOM      7  C   UNL     1     159.140 161.061 152.311  1.00  0.00    -0.000 C 
BRANCH   7   8
ATOM      8  C   UNL     1     159.021 159.732 151.550  1.00  0.00    -0.003 C 
ATOM      9  C   UNL     1     160.236 158.826 151.751  1.00  0.00     0.004 C 
ENDBRANCH   7   8
ENDBRANCH   6   7
ENDBRANCH   1   6
TORSDOF 5
ENDMDL
MODEL 4
REMARK VINA RESULT:    -3.511      2.335      3.671
REMARK INTER + INTRA:          -4.988
REMARK INTER:                  -4.569
REMARK INTRA:                  -0.418
REMARK UNBOUND:                -0.450
REMARK SMILES CCCCCCC(=O)[O-]
REMARK SMILES IDX 5 1 6 2 7 3 8 4 9 5 4 6 3 7 2 8 1 9
REMARK H PARENT
REMARK Flexibility Score: inf
ROOT
ATOM      1  C   UNL     1     159.266 160.015 150.918  1.00  0.00     0.006 C 
ENDROOT
BRANCH   1   2
ATOM      2  C   UNL     1     160.414 159.007 150.806  1.00  0.00     0.053 C 
BRANCH   2   3
ATOM      3  C   UNL     1     160.534 158.503 149.402  1.00  0.00     0.041 C 
ATOM      4  O   UNL     1     161.123 159.192 148.529  1.00  0.00    -0.550 OA
ATOM      5  O   UNL     1     160.037 157.249 149.070  1.00  0.00    -0.550 OA
ENDBRANCH   2   3
ENDBRANCH   1   2
BRANCH   1   6
ATOM      6  C   UNL     1     159.802 161.448 151.029  1.00  0.00     0.000 C 
BRANCH   6   7
ATOM      7  C   UNL     1     159.393 162.284 149.808  1.00  0.00    -0.000 C 
BRANCH   7   8
ATOM      8  C   UNL     1     160.596 162.710 148.954  1.00  0.00    -0.003 C 
ATOM      9  C   UNL     1     161.933 162.469 149.654  1.00  0.00     0.004 C 
ENDBRANCH   7   8
ENDBRANCH   6   7
ENDBRANCH   1   6
TORSDOF 5
ENDMDL
MODEL 5
REMARK VINA RESULT:    -3.479      1.665      3.291
REMARK INTER + INTRA:          -4.945
REMARK INTER:                  -4.522
REMARK INTRA:                  -0.424
REMARK UNBOUND:                -0.450
REMARK SMILES CCCCCCC(=O)[O-]
REMARK SMILES IDX 5 1 6 2 7 3 8 4 9 5 4 6 3 7 2 8 1 9
REMARK H PARENT
REMARK Flexibility Score: inf
ROOT
ATOM      1  C   UNL     1     160.781 157.677 149.792  1.00  0.00     0.006 C 
ENDROOT
BRANCH   1   2
ATOM      2  C   UNL     1     160.334 158.213 151.155  1.00  0.00     0.053 C 
BRANCH   2   3
ATOM      3  C   UNL     1     160.097 159.688 151.085  1.00  0.00     0.041 C 
ATOM      4  O   UNL     1     158.944 160.156 151.279  1.00  0.00    -0.550 OA
ATOM      5  O   UNL     1     161.160 160.553 150.854  1.00  0.00    -0.550 OA
ENDBRANCH   2   3
ENDBRANCH   1   2
BRANCH   1   6
ATOM      6  C   UNL     1     159.609 157.028 149.045  1.00  0.00     0.000 C 
BRANCH   6   7
ATOM      7  C   UNL     1     159.018 157.992 148.006  1.00  0.00    -0.000 C 
BRANCH   7   8
ATOM      8  C   UNL     1     160.069 158.949 147.423  1.00  0.00    -0.003 C 
ATOM      9  C   UNL     1     159.604 160.405 147.416  1.00  0.00     0.004 C 
ENDBRANCH   7   8
ENDBRANCH   6   7
ENDBRANCH   1   6
TORSDOF 5
ENDMDL
MODEL 6
REMARK VINA RESULT:    -3.476      1.912      2.622
REMARK INTER + INTRA:          -4.941
REMARK INTER:                  -4.507
REMARK INTRA:                  -0.435
REMARK UNBOUND:                -0.450
REMARK SMILES CCCCCCC(=O)[O-]
REMARK SMILES IDX 5 1 6 2 7 3 8 4 9 5 4 6 3 7 2 8 1 9
REMARK H PARENT
REMARK Flexibility Score: inf
ROOT
ATOM      1  C   UNL     1     160.323 159.064 150.052  1.00  0.00     0.006 C 
ENDROOT
BRANCH   1   2
ATOM      2  C   UNL     1     160.967 158.900 148.672  1.00  0.00     0.053 C 
BRANCH   2   3
ATOM      3  C   UNL     1     159.940 159.044 147.595  1.00  0.00     0.041 C 
ATOM      4  O   UNL     1     159.123 158.114 147.368  1.00  0.00    -0.550 OA
ATOM      5  O   UNL     1     159.853 160.227 146.871  1.00  0.00    -0.550 OA
ENDBRANCH   2   3
ENDBRANCH   1   2
BRANCH   1   6
ATOM      6  C   UNL     1     160.659 160.433 150.657  1.00  0.00     0.000 C 
BRANCH   6   7
ATOM      7  C   UNL     1     159.504 161.424 150.449  1.00  0.00    -0.000 C 
BRANCH   7   8
ATOM      8  C   UNL     1     159.905 162.624 149.578  1.00  0.00    -0.003 C 
ATOM      9  C   UNL     1     161.385 162.611 149.197  1.00  0.00     0.004 C 
ENDBRANCH   7   8
ENDBRANCH   6   7
ENDBRANCH   1   6
TORSDOF 5
ENDMDL
MODEL 7
REMARK VINA RESULT:    -3.473      2.521      3.743
REMARK INTER + INTRA:          -4.937
REMARK INTER:                  -4.505
REMARK INTRA:                  -0.432
REMARK UNBOUND:                -0.450
REMARK SMILES CCCCCCC(=O)[O-]
REMARK SMILES IDX 5 1 6 2 7 3 8 4 9 5 4 6 3 7 2 8 1 9
REMARK H PARENT
REMARK Flexibility Score: inf
ROOT
ATOM      1  C   UNL     1     158.567 158.899 148.844  1.00  0.00     0.006 C 
ENDROOT
BRANCH   1   2
ATOM      2  C   UNL     1     158.577 158.911 150.376  1.00  0.00     0.053 C 
BRANCH   2   3
ATOM      3  C   UNL     1     159.944 158.597 150.894  1.00  0.00     0.041 C 
ATOM      4  O   UNL     1     160.767 159.524 151.115  1.00  0.00    -0.550 OA
ATOM      5  O   UNL     1     160.294 157.283 151.179  1.00  0.00    -0.550 OA
ENDBRANCH   2   3
ENDBRANCH   1   2
BRANCH   1   6
ATOM      6  C   UNL     1     158.550 160.326 148.283  1.00  0.00     0.000 C 
BRANCH   6   7
ATOM      7  C   UNL     1     159.890 160.670 147.615  1.00  0.00    -0.000 C 
BRANCH   7   8
ATOM      8  C   UNL     1     160.646 161.787 148.348  1.00  0.00    -0.003 C 
ATOM      9  C   UNL     1     159.793 162.480 149.411  1.00  0.00     0.004 C 
ENDBRANCH   7   8
ENDBRANCH   6   7
ENDBRANCH   1   6
TORSDOF 5
ENDMDL
MODEL 8
REMARK VINA RESULT:    -3.462      1.895      2.622
REMARK INTER + INTRA:          -4.924
REMARK INTER:                  -4.506
REMARK INTRA:                  -0.418
REMARK UNBOUND:                -0.450
REMARK SMILES CCCCCCC(=O)[O-]
REMARK SMILES IDX 5 1 6 2 7 3 8 4 9 5 4 6 3 7 2 8 1 9
REMARK H PARENT
REMARK Flexibility Score: inf
ROOT
ATOM      1  C   UNL     1     160.626 157.711 149.890  1.00  0.00     0.006 C 
ENDROOT
BRANCH   1   2
ATOM      2  C   UNL     1     159.482 157.041 149.123  1.00  0.00     0.053 C 
BRANCH   2   3
ATOM      3  C   UNL     1     158.253 157.892 149.167  1.00  0.00     0.041 C 
ATOM      4  O   UNL     1     158.275 159.063 148.706  1.00  0.00    -0.550 OA
ATOM      5  O   UNL     1     157.067 157.375 149.675  1.00  0.00    -0.550 OA
ENDBRANCH   2   3
ENDBRANCH   1   2
BRANCH   1   6
ATOM      6  C   UNL     1     160.606 157.309 151.370  1.00  0.00     0.000 C 
BRANCH   6   7
ATOM      7  C   UNL     1     160.338 158.527 152.266  1.00  0.00    -0.000 C 
BRANCH   7   8
ATOM      8  C   UNL     1     160.533 159.859 151.527  1.00  0.00    -0.003 C 
ATOM      9  C   UNL     1     159.335 160.798 151.672  1.00  0.00     0.004 C 
ENDBRANCH   7   8
ENDBRANCH   6   7
ENDBRANCH   1   6
TORSDOF 5
ENDMDL
MODEL 9
REMARK VINA RESULT:    -3.446      1.514      2.836
REMARK INTER + INTRA:          -4.902
REMARK INTER:                  -4.454
REMARK INTRA:                  -0.449
REMARK UNBOUND:                -0.450
REMARK SMILES CCCCCCC(=O)[O-]
REMARK SMILES IDX 5 1 6 2 7 3 8 4 9 5 4 6 3 7 2 8 1 9
REMARK H PARENT
REMARK Flexibility Score: inf
ROOT
ATOM      1  C   UNL     1     160.394 159.782 151.073  1.00  0.00     0.006 C 
ENDROOT
BRANCH   1   2
ATOM      2  C   UNL     1     160.418 160.388 149.666  1.00  0.00     0.053 C 
BRANCH   2   3
ATOM      3  C   UNL     1     159.068 160.918 149.301  1.00  0.00     0.041 C 
ATOM      4  O   UNL     1     158.424 160.411 148.346  1.00  0.00    -0.550 OA
ATOM      5  O   UNL     1     158.499 161.942 150.047  1.00  0.00    -0.550 OA
ENDBRANCH   2   3
ENDBRANCH   1   2
BRANCH   1   6
ATOM      6  C   UNL     1     159.580 158.482 151.098  1.00  0.00     0.000 C 
BRANCH   6   7
ATOM      7  C   UNL     1     160.204 157.425 150.175  1.00  0.00    -0.000 C 
BRANCH   7   8
ATOM      8  C   UNL     1     159.200 156.864 149.157  1.00  0.00    -0.003 C 
ATOM      9  C   UNL     1     157.747 157.137 149.546  1.00  0.00     0.004 C 
ENDBRANCH   7   8
ENDBRANCH   6   7
ENDBRANCH   1   6
TORSDOF 5
ENDMDL
