MODEL 1
REMARK VINA RESULT:    -6.479      0.000      0.000
REMARK INTER + INTRA:          -6.479
REMARK INTER:                  -6.479
REMARK INTRA:                   0.000
REMARK UNBOUND:                 0.000
REMARK SMILES CC(C)=C1CC[C@H](C)CC1=O
REMARK SMILES IDX 8 1 7 2 6 3 5 4 4 5 2 6 1 7 3 8 10 9 11 10 9 11
REMARK H PARENT
REMARK Flexibility Score: inf
ROOT
ATOM      1  C   UNL     1      23.858  56.219 139.383  1.00  0.00     0.008 C 
ATOM      2  C   UNL     1      25.146  56.980 139.713  1.00  0.00    -0.006 C 
ATOM      3  C   UNL     1      25.470  56.872 141.211  1.00  0.00     0.008 C 
ATOM      4  C   UNL     1      26.700  57.714 141.578  1.00  0.00     0.039 C 
ATOM      5  C   UNL     1      27.902  57.405 140.696  1.00  0.00    -0.006 C 
ATOM      6  C   UNL     1      29.177  57.499 141.177  1.00  0.00    -0.070 C 
ATOM      7  C   UNL     1      30.376  57.141 140.327  1.00  0.00     0.039 C 
ATOM      8  C   UNL     1      29.448  57.931 142.599  1.00  0.00     0.039 C 
ATOM      9  C   UNL     1      27.606  57.113 139.262  1.00  0.00     0.159 C 
ATOM     10  O   UNL     1      28.416  57.425 138.348  1.00  0.00    -0.295 OA
ATOM     11  C   UNL     1      26.319  56.439 138.882  1.00  0.00     0.084 C 
ENDROOT
TORSDOF 0
ENDMDL
MODEL 2
REMARK VINA RESULT:    -6.344      1.589      2.464
REMARK INTER + INTRA:          -6.344
REMARK INTER:                  -6.344
REMARK INTRA:                   0.000
REMARK UNBOUND:                 0.000
REMARK SMILES CC(C)=C1CC[C@H](C)CC1=O
REMARK SMILES IDX 8 1 7 2 6 3 5 4 4 5 2 6 1 7 3 8 10 9 11 10 9 11
REMARK H PARENT
REMARK Flexibility Score: inf
ROOT
ATOM      1  C   UNL     1      23.966  56.124 139.522  1.00  0.00     0.008 C 
ATOM      2  C   UNL     1      25.388  56.006 140.080  1.00  0.00    -0.006 C 
ATOM      3  C   UNL     1      26.423  56.400 139.013  1.00  0.00     0.008 C 
ATOM      4  C   UNL     1      27.856  56.190 139.522  1.00  0.00     0.039 C 
ATOM      5  C   UNL     1      28.105  56.875 140.859  1.00  0.00    -0.006 C 
ATOM      6  C   UNL     1      29.336  57.372 141.181  1.00  0.00    -0.070 C 
ATOM      7  C   UNL     1      29.583  58.102 142.482  1.00  0.00     0.039 C 
ATOM      8  C   UNL     1      30.505  57.247 140.232  1.00  0.00     0.039 C 
ATOM      9  C   UNL     1      26.968  56.862 141.825  1.00  0.00     0.159 C 
ATOM     10  O   UNL     1      27.165  56.819 143.069  1.00  0.00    -0.295 OA
ATOM     11  C   UNL     1      25.553  56.895 141.322  1.00  0.00     0.084 C 
ENDROOT
TORSDOF 0
ENDMDL
MODEL 3
REMARK VINA RESULT:    -6.271      2.070      3.410
REMARK INTER + INTRA:          -6.271
REMARK INTER:                  -6.271
REMARK INTRA:                   0.000
REMARK UNBOUND:                 0.000
REMARK SMILES CC(C)=C1CC[C@H](C)CC1=O
REMARK SMILES IDX 8 1 7 2 6 3 5 4 4 5 2 6 1 7 3 8 10 9 11 10 9 11
REMARK H PARENT
REMARK Flexibility Score: inf
ROOT
ATOM      1  C   UNL     1      26.068  56.530 143.495  1.00  0.00     0.008 C 
ATOM      2  C   UNL     1      25.981  57.300 142.174  1.00  0.00    -0.006 C 
ATOM      3  C   UNL     1      27.285  58.070 141.908  1.00  0.00     0.008 C 
ATOM      4  C   UNL     1      27.179  58.928 140.640  1.00  0.00     0.039 C 
ATOM      5  C   UNL     1      26.716  58.126 139.431  1.00  0.00    -0.006 C 
ATOM      6  C   UNL     1      27.137  58.440 138.170  1.00  0.00    -0.070 C 
ATOM      7  C   UNL     1      26.730  57.618 136.968  1.00  0.00     0.039 C 
ATOM      8  C   UNL     1      28.064  59.607 137.920  1.00  0.00     0.039 C 
ATOM      9  C   UNL     1      25.698  57.067 139.696  1.00  0.00     0.159 C 
ATOM     10  O   UNL     1      24.826  56.767 138.837  1.00  0.00    -0.295 OA
ATOM     11  C   UNL     1      25.694  56.340 141.010  1.00  0.00     0.084 C 
ENDROOT
TORSDOF 0
ENDMDL
MODEL 4
REMARK VINA RESULT:    -6.234      2.228      2.983
REMARK INTER + INTRA:          -6.234
REMARK INTER:                  -6.234
REMARK INTRA:                   0.000
REMARK UNBOUND:                 0.000
REMARK SMILES CC(C)=C1CC[C@H](C)CC1=O
REMARK SMILES IDX 8 1 7 2 6 3 5 4 4 5 2 6 1 7 3 8 10 9 11 10 9 11
REMARK H PARENT
REMARK Flexibility Score: inf
ROOT
ATOM      1  C   UNL     1      24.228  54.808 139.808  1.00  0.00     0.008 C 
ATOM      2  C   UNL     1      25.319  55.884 139.804  1.00  0.00    -0.006 C 
ATOM      3  C   UNL     1      24.846  57.133 139.043  1.00  0.00     0.008 C 
ATOM      4  C   UNL     1      25.962  58.180 138.940  1.00  0.00     0.039 C 
ATOM      5  C   UNL     1      26.572  58.517 140.294  1.00  0.00    -0.006 C 
ATOM      6  C   UNL     1      27.059  59.765 140.562  1.00  0.00    -0.070 C 
ATOM      7  C   UNL     1      27.616  60.127 141.920  1.00  0.00     0.039 C 
ATOM      8  C   UNL     1      27.029  60.858 139.519  1.00  0.00     0.039 C 
ATOM      9  C   UNL     1      26.709  57.381 141.253  1.00  0.00     0.159 C 
ATOM     10  O   UNL     1      27.658  57.332 142.080  1.00  0.00    -0.295 OA
ATOM     11  C   UNL     1      25.707  56.262 141.241  1.00  0.00     0.084 C 
ENDROOT
TORSDOF 0
ENDMDL
MODEL 5
REMARK VINA RESULT:    -6.200      1.764      4.096
REMARK INTER + INTRA:          -6.200
REMARK INTER:                  -6.200
REMARK INTRA:                   0.000
REMARK UNBOUND:                 0.000
REMARK SMILES CC(C)=C1CC[C@H](C)CC1=O
REMARK SMILES IDX 8 1 7 2 6 3 5 4 4 5 2 6 1 7 3 8 10 9 11 10 9 11
REMARK H PARENT
REMARK Flexibility Score: inf
ROOT
ATOM      1  C   UNL     1      31.424  57.733 139.410  1.00  0.00     0.008 C 
ATOM      2  C   UNL     1      30.362  57.191 140.372  1.00  0.00    -0.006 C 
ATOM      3  C   UNL     1      30.050  58.220 141.471  1.00  0.00     0.008 C 
ATOM      4  C   UNL     1      29.064  57.654 142.502  1.00  0.00     0.039 C 
ATOM      5  C   UNL     1      27.806  57.089 141.856  1.00  0.00    -0.006 C 
ATOM      6  C   UNL     1      26.600  57.134 142.496  1.00  0.00    -0.070 C 
ATOM      7  C   UNL     1      25.334  56.626 141.843  1.00  0.00     0.039 C 
ATOM      8  C   UNL     1      26.467  57.729 143.878  1.00  0.00     0.039 C 
ATOM      9  C   UNL     1      27.996  56.389 140.552  1.00  0.00     0.159 C 
ATOM     10  O   UNL     1      27.267  55.417 140.217  1.00  0.00    -0.295 OA
ATOM     11  C   UNL     1      29.077  56.833 139.610  1.00  0.00     0.084 C 
ENDROOT
TORSDOF 0
ENDMDL
MODEL 6
REMARK VINA RESULT:    -6.053      1.280      4.242
REMARK INTER + INTRA:          -6.053
REMARK INTER:                  -6.053
REMARK INTRA:                   0.000
REMARK UNBOUND:                 0.000
REMARK SMILES CC(C)=C1CC[C@H](C)CC1=O
REMARK SMILES IDX 8 1 7 2 6 3 5 4 4 5 2 6 1 7 3 8 10 9 11 10 9 11
REMARK H PARENT
REMARK Flexibility Score: inf
ROOT
ATOM      1  C   UNL     1      31.260  59.243 142.006  1.00  0.00     0.008 C 
ATOM      2  C   UNL     1      30.144  58.359 141.440  1.00  0.00    -0.006 C 
ATOM      3  C   UNL     1      29.057  58.115 142.499  1.00  0.00     0.008 C 
ATOM      4  C   UNL     1      27.982  57.148 141.983  1.00  0.00     0.039 C 
ATOM      5  C   UNL     1      27.406  57.579 140.641  1.00  0.00    -0.006 C 
ATOM      6  C   UNL     1      26.108  57.313 140.309  1.00  0.00    -0.070 C 
ATOM      7  C   UNL     1      25.508  57.785 139.003  1.00  0.00     0.039 C 
ATOM      8  C   UNL     1      25.196  56.562 141.251  1.00  0.00     0.039 C 
ATOM      9  C   UNL     1      28.368  58.198 139.682  1.00  0.00     0.159 C 
ATOM     10  O   UNL     1      28.237  58.052 138.437  1.00  0.00    -0.295 OA
ATOM     11  C   UNL     1      29.525  59.007 140.193  1.00  0.00     0.084 C 
ENDROOT
TORSDOF 0
ENDMDL
MODEL 7
REMARK VINA RESULT:    -6.040      2.254      3.499
REMARK INTER + INTRA:          -6.040
REMARK INTER:                  -6.040
REMARK INTRA:                   0.000
REMARK UNBOUND:                 0.000
REMARK SMILES CC(C)=C1CC[C@H](C)CC1=O
REMARK SMILES IDX 8 1 7 2 6 3 5 4 4 5 2 6 1 7 3 8 10 9 11 10 9 11
REMARK H PARENT
REMARK Flexibility Score: inf
ROOT
ATOM      1  C   UNL     1      27.878  59.647 136.760  1.00  0.00     0.008 C 
ATOM      2  C   UNL     1      27.412  59.484 138.210  1.00  0.00    -0.006 C 
ATOM      3  C   UNL     1      26.627  58.174 138.383  1.00  0.00     0.008 C 
ATOM      4  C   UNL     1      26.065  58.043 139.805  1.00  0.00     0.039 C 
ATOM      5  C   UNL     1      27.134  58.230 140.874  1.00  0.00    -0.006 C 
ATOM      6  C   UNL     1      27.065  57.571 142.068  1.00  0.00    -0.070 C 
ATOM      7  C   UNL     1      28.148  57.705 143.115  1.00  0.00     0.039 C 
ATOM      8  C   UNL     1      25.915  56.643 142.386  1.00  0.00     0.039 C 
ATOM      9  C   UNL     1      28.181  59.253 140.583  1.00  0.00     0.159 C 
ATOM     10  O   UNL     1      28.716  59.925 141.505  1.00  0.00    -0.295 OA
ATOM     11  C   UNL     1      28.613  59.505 139.167  1.00  0.00     0.084 C 
ENDROOT
TORSDOF 0
ENDMDL
MODEL 8
REMARK VINA RESULT:    -6.003      1.992      3.566
REMARK INTER + INTRA:          -6.003
REMARK INTER:                  -6.003
REMARK INTRA:                   0.000
REMARK UNBOUND:                 0.000
REMARK SMILES CC(C)=C1CC[C@H](C)CC1=O
REMARK SMILES IDX 8 1 7 2 6 3 5 4 4 5 2 6 1 7 3 8 10 9 11 10 9 11
REMARK H PARENT
REMARK Flexibility Score: inf
ROOT
ATOM      1  C   UNL     1      25.985  57.004 143.727  1.00  0.00     0.008 C 
ATOM      2  C   UNL     1      26.676  57.115 142.365  1.00  0.00    -0.006 C 
ATOM      3  C   UNL     1      25.760  56.589 141.248  1.00  0.00     0.008 C 
ATOM      4  C   UNL     1      26.473  56.597 139.890  1.00  0.00     0.039 C 
ATOM      5  C   UNL     1      27.078  57.955 139.558  1.00  0.00    -0.006 C 
ATOM      6  C   UNL     1      27.171  58.393 138.267  1.00  0.00    -0.070 C 
ATOM      7  C   UNL     1      27.718  59.761 137.929  1.00  0.00     0.039 C 
ATOM      8  C   UNL     1      26.695  57.540 137.114  1.00  0.00     0.039 C 
ATOM      9  C   UNL     1      27.660  58.712 140.705  1.00  0.00     0.159 C 
ATOM     10  O   UNL     1      28.654  59.472 140.552  1.00  0.00    -0.295 OA
ATOM     11  C   UNL     1      27.066  58.573 142.077  1.00  0.00     0.084 C 
ENDROOT
TORSDOF 0
ENDMDL
MODEL 9
REMARK VINA RESULT:    -5.894      1.875      3.128
REMARK INTER + INTRA:          -5.894
REMARK INTER:                  -5.894
REMARK INTRA:                   0.000
REMARK UNBOUND:                 0.000
REMARK SMILES CC(C)=C1CC[C@H](C)CC1=O
REMARK SMILES IDX 8 1 7 2 6 3 5 4 4 5 2 6 1 7 3 8 10 9 11 10 9 11
REMARK H PARENT
REMARK Flexibility Score: inf
ROOT
ATOM      1  C   UNL     1      27.175  58.134 136.742  1.00  0.00     0.008 C 
ATOM      2  C   UNL     1      27.307  57.422 138.093  1.00  0.00    -0.006 C 
ATOM      3  C   UNL     1      28.287  58.174 139.008  1.00  0.00     0.008 C 
ATOM      4  C   UNL     1      28.510  57.420 140.326  1.00  0.00     0.039 C 
ATOM      5  C   UNL     1      27.203  57.075 141.028  1.00  0.00    -0.006 C 
ATOM      6  C   UNL     1      27.124  57.016 142.390  1.00  0.00    -0.070 C 
ATOM      7  C   UNL     1      25.820  56.729 143.100  1.00  0.00     0.039 C 
ATOM      8  C   UNL     1      28.335  57.272 143.257  1.00  0.00     0.039 C 
ATOM      9  C   UNL     1      26.062  56.697 140.142  1.00  0.00     0.159 C 
ATOM     10  O   UNL     1      25.194  55.863 140.512  1.00  0.00    -0.295 OA
ATOM     11  C   UNL     1      25.936  57.308 138.776  1.00  0.00     0.084 C 
ENDROOT
TORSDOF 0
ENDMDL
