MODEL 1
REMARK VINA RESULT:    -4.419      0.000      0.000
REMARK INTER + INTRA:          -7.020
REMARK INTER:                  -6.744
REMARK INTRA:                  -0.275
REMARK UNBOUND:                -0.275
REMARK SMILES O=C([O-])CCCCCCCCC(=O)[O-]
REMARK SMILES IDX 7 1 6 2 5 3 4 4 2 5 1 6 3 7 8 8 9 9 10 10 11 11 12 12 13 13
REMARK SMILES IDX 14 14
REMARK H PARENT
REMARK Flexibility Score: inf
ROOT
ATOM      1  C   UNL     1     -31.335 -23.935 -36.614  1.00  0.00     0.000 C 
ENDROOT
BRANCH   1   2
ATOM      2  C   UNL     1     -31.689 -24.322 -38.060  1.00  0.00     0.000 C 
BRANCH   2   3
ATOM      3  C   UNL     1     -31.518 -25.826 -38.327  1.00  0.00     0.006 C 
BRANCH   3   4
ATOM      4  C   UNL     1     -32.768 -26.635 -37.957  1.00  0.00     0.053 C 
BRANCH   4   5
ATOM      5  C   UNL     1     -32.709 -27.997 -38.575  1.00  0.00     0.041 C 
ATOM      6  O   UNL     1     -31.621 -28.442 -39.028  1.00  0.00    -0.550 OA
ATOM      7  O   UNL     1     -33.866 -28.756 -38.695  1.00  0.00    -0.550 OA
ENDBRANCH   4   5
ENDBRANCH   3   4
ENDBRANCH   2   3
ENDBRANCH   1   2
BRANCH   1   8
ATOM      8  C   UNL     1     -32.576 -23.609 -35.766  1.00  0.00     0.000 C 
BRANCH   8   9
ATOM      9  C   UNL     1     -32.392 -22.341 -34.914  1.00  0.00     0.000 C 
BRANCH   9  10
ATOM     10  C   UNL     1     -31.388 -22.537 -33.764  1.00  0.00     0.006 C 
BRANCH  10  11
ATOM     11  C   UNL     1     -30.889 -21.232 -33.126  1.00  0.00     0.053 C 
BRANCH  11  12
ATOM     12  C   UNL     1     -30.703 -21.365 -31.647  1.00  0.00     0.041 C 
ATOM     13  O   UNL     1     -30.524 -22.500 -31.129  1.00  0.00    -0.550 OA
ATOM     14  O   UNL     1     -30.758 -20.240 -30.834  1.00  0.00    -0.550 OA
ENDBRANCH  11  12
ENDBRANCH  10  11
ENDBRANCH   9  10
ENDBRANCH   8   9
ENDBRANCH   1   8
TORSDOF 9
ENDMDL
MODEL 2
REMARK VINA RESULT:    -4.260      0.728      7.928
REMARK INTER + INTRA:          -6.777
REMARK INTER:                  -6.466
REMARK INTRA:                  -0.311
REMARK UNBOUND:                -0.275
REMARK SMILES O=C([O-])CCCCCCCCC(=O)[O-]
REMARK SMILES IDX 7 1 6 2 5 3 4 4 2 5 1 6 3 7 8 8 9 9 10 10 11 11 12 12 13 13
REMARK SMILES IDX 14 14
REMARK H PARENT
REMARK Flexibility Score: inf
ROOT
ATOM      1  C   UNL     1     -32.069 -23.506 -34.859  1.00  0.00     0.000 C 
ENDROOT
BRANCH   1   2
ATOM      2  C   UNL     1     -31.921 -22.048 -34.391  1.00  0.00     0.000 C 
BRANCH   2   3
ATOM      3  C   UNL     1     -30.688 -21.837 -33.498  1.00  0.00     0.006 C 
BRANCH   3   4
ATOM      4  C   UNL     1     -30.899 -20.733 -32.455  1.00  0.00     0.053 C 
BRANCH   4   5
ATOM      5  C   UNL     1     -30.603 -21.249 -31.082  1.00  0.00     0.041 C 
ATOM      6  O   UNL     1     -30.493 -20.451 -30.114  1.00  0.00    -0.550 OA
ATOM      7  O   UNL     1     -30.401 -22.609 -30.878  1.00  0.00    -0.550 OA
ENDBRANCH   4   5
ENDBRANCH   3   4
ENDBRANCH   2   3
ENDBRANCH   1   2
BRANCH   1   8
ATOM      8  C   UNL     1     -32.327 -23.621 -36.370  1.00  0.00     0.000 C 
BRANCH   8   9
ATOM      9  C   UNL     1     -31.068 -24.031 -37.155  1.00  0.00     0.000 C 
BRANCH   9  10
ATOM     10  C   UNL     1     -31.286 -25.292 -38.011  1.00  0.00     0.006 C 
BRANCH  10  11
ATOM     11  C   UNL     1     -32.658 -25.959 -37.822  1.00  0.00     0.053 C 
BRANCH  11  12
ATOM     12  C   UNL     1     -32.696 -27.337 -38.405  1.00  0.00     0.041 C 
ATOM     13  O   UNL     1     -31.625 -27.933 -38.696  1.00  0.00    -0.550 OA
ATOM     14  O   UNL     1     -33.916 -27.952 -38.658  1.00  0.00    -0.550 OA
ENDBRANCH  11  12
ENDBRANCH  10  11
ENDBRANCH   9  10
ENDBRANCH   8   9
ENDBRANCH   1   8
TORSDOF 9
ENDMDL
MODEL 3
REMARK VINA RESULT:    -4.219      2.108      3.019
REMARK INTER + INTRA:          -6.714
REMARK INTER:                  -6.303
REMARK INTRA:                  -0.410
REMARK UNBOUND:                -0.275
REMARK SMILES O=C([O-])CCCCCCCCC(=O)[O-]
REMARK SMILES IDX 7 1 6 2 5 3 4 4 2 5 1 6 3 7 8 8 9 9 10 10 11 11 12 12 13 13
REMARK SMILES IDX 14 14
REMARK H PARENT
REMARK Flexibility Score: inf
ROOT
ATOM      1  C   UNL     1     -32.209 -22.919 -34.617  1.00  0.00     0.000 C 
ENDROOT
BRANCH   1   2
ATOM      2  C   UNL     1     -32.956 -22.086 -35.673  1.00  0.00     0.000 C 
BRANCH   2   3
ATOM      3  C   UNL     1     -33.385 -22.923 -36.888  1.00  0.00     0.006 C 
BRANCH   3   4
ATOM      4  C   UNL     1     -32.743 -24.315 -36.901  1.00  0.00     0.053 C 
BRANCH   4   5
ATOM      5  C   UNL     1     -31.659 -24.381 -37.930  1.00  0.00     0.041 C 
ATOM      6  O   UNL     1     -30.919 -25.397 -38.008  1.00  0.00    -0.550 OA
ATOM      7  O   UNL     1     -31.434 -23.300 -38.774  1.00  0.00    -0.550 OA
ENDBRANCH   4   5
ENDBRANCH   3   4
ENDBRANCH   2   3
ENDBRANCH   1   2
BRANCH   1   8
ATOM      8  C   UNL     1     -31.042 -22.152 -33.973  1.00  0.00     0.000 C 
BRANCH   8   9
ATOM      9  C   UNL     1     -31.445 -20.740 -33.514  1.00  0.00     0.000 C 
BRANCH   9  10
ATOM     10  C   UNL     1     -30.297 -19.993 -32.811  1.00  0.00     0.006 C 
BRANCH  10  11
ATOM     11  C   UNL     1     -29.467 -20.860 -31.852  1.00  0.00     0.053 C 
BRANCH  11  12
ATOM     12  C   UNL     1     -30.287 -21.376 -30.710  1.00  0.00     0.041 C 
ATOM     13  O   UNL     1     -30.361 -22.614 -30.491  1.00  0.00    -0.550 OA
ATOM     14  O   UNL     1     -30.995 -20.491 -29.907  1.00  0.00    -0.550 OA
ENDBRANCH  11  12
ENDBRANCH  10  11
ENDBRANCH   9  10
ENDBRANCH   8   9
ENDBRANCH   1   8
TORSDOF 9
ENDMDL
MODEL 4
REMARK VINA RESULT:    -4.198      2.153      7.530
REMARK INTER + INTRA:          -6.683
REMARK INTER:                  -6.268
REMARK INTRA:                  -0.415
REMARK UNBOUND:                -0.275
REMARK SMILES O=C([O-])CCCCCCCCC(=O)[O-]
REMARK SMILES IDX 7 1 6 2 5 3 4 4 2 5 1 6 3 7 8 8 9 9 10 10 11 11 12 12 13 13
REMARK SMILES IDX 14 14
REMARK H PARENT
REMARK Flexibility Score: inf
ROOT
ATOM      1  C   UNL     1     -31.075 -22.128 -33.956  1.00  0.00     0.000 C 
ENDROOT
BRANCH   1   2
ATOM      2  C   UNL     1     -31.451 -20.720 -33.465  1.00  0.00     0.000 C 
BRANCH   2   3
ATOM      3  C   UNL     1     -30.260 -19.976 -32.839  1.00  0.00     0.006 C 
BRANCH   3   4
ATOM      4  C   UNL     1     -29.414 -20.878 -31.932  1.00  0.00     0.053 C 
BRANCH   4   5
ATOM      5  C   UNL     1     -30.207 -21.307 -30.738  1.00  0.00     0.041 C 
ATOM      6  O   UNL     1     -30.350 -22.531 -30.477  1.00  0.00    -0.550 OA
ATOM      7  O   UNL     1     -30.830 -20.357 -29.938  1.00  0.00    -0.550 OA
ENDBRANCH   4   5
ENDBRANCH   3   4
ENDBRANCH   2   3
ENDBRANCH   1   2
BRANCH   1   8
ATOM      8  C   UNL     1     -32.260 -22.868 -34.600  1.00  0.00     0.000 C 
BRANCH   8   9
ATOM      9  C   UNL     1     -32.985 -22.015 -35.656  1.00  0.00     0.000 C 
BRANCH   9  10
ATOM     10  C   UNL     1     -33.388 -22.826 -36.901  1.00  0.00     0.006 C 
BRANCH  10  11
ATOM     11  C   UNL     1     -32.775 -24.234 -36.968  1.00  0.00     0.053 C 
BRANCH  11  12
ATOM     12  C   UNL     1     -31.674 -24.318 -37.979  1.00  0.00     0.041 C 
ATOM     13  O   UNL     1     -30.870 -25.288 -37.963  1.00  0.00    -0.550 OA
ATOM     14  O   UNL     1     -31.515 -23.309 -38.921  1.00  0.00    -0.550 OA
ENDBRANCH  11  12
ENDBRANCH  10  11
ENDBRANCH   9  10
ENDBRANCH   8   9
ENDBRANCH   1   8
TORSDOF 9
ENDMDL
MODEL 5
REMARK VINA RESULT:    -4.036      2.253      7.940
REMARK INTER + INTRA:          -6.435
REMARK INTER:                  -6.102
REMARK INTRA:                  -0.332
REMARK UNBOUND:                -0.275
REMARK SMILES O=C([O-])CCCCCCCCC(=O)[O-]
REMARK SMILES IDX 7 1 6 2 5 3 4 4 2 5 1 6 3 7 8 8 9 9 10 10 11 11 12 12 13 13
REMARK SMILES IDX 14 14
REMARK H PARENT
REMARK Flexibility Score: inf
ROOT
ATOM      1  C   UNL     1     -29.878 -21.444 -33.645  1.00  0.00     0.000 C 
ENDROOT
BRANCH   1   2
ATOM      2  C   UNL     1     -29.441 -20.113 -33.010  1.00  0.00     0.000 C 
BRANCH   2   3
ATOM      3  C   UNL     1     -28.842 -20.297 -31.607  1.00  0.00     0.006 C 
BRANCH   3   4
ATOM      4  C   UNL     1     -29.809 -19.875 -30.494  1.00  0.00     0.053 C 
BRANCH   4   5
ATOM      5  C   UNL     1     -30.580 -21.057 -29.996  1.00  0.00     0.041 C 
ATOM      6  O   UNL     1     -31.466 -20.911 -29.112  1.00  0.00    -0.550 OA
ATOM      7  O   UNL     1     -30.286 -22.329 -30.471  1.00  0.00    -0.550 OA
ENDBRANCH   4   5
ENDBRANCH   3   4
ENDBRANCH   2   3
ENDBRANCH   1   2
BRANCH   1   8
ATOM      8  C   UNL     1     -31.399 -21.530 -33.855  1.00  0.00     0.000 C 
BRANCH   8   9
ATOM      9  C   UNL     1     -31.838 -22.883 -34.443  1.00  0.00     0.000 C 
BRANCH   9  10
ATOM     10  C   UNL     1     -32.512 -22.741 -35.820  1.00  0.00     0.006 C 
BRANCH  10  11
ATOM     11  C   UNL     1     -32.642 -24.057 -36.602  1.00  0.00     0.053 C 
BRANCH  11  12
ATOM     12  C   UNL     1     -31.765 -24.078 -37.815  1.00  0.00     0.041 C 
ATOM     13  O   UNL     1     -31.616 -23.036 -38.508  1.00  0.00    -0.550 OA
ATOM     14  O   UNL     1     -31.137 -25.256 -38.200  1.00  0.00    -0.550 OA
ENDBRANCH  11  12
ENDBRANCH  10  11
ENDBRANCH   9  10
ENDBRANCH   8   9
ENDBRANCH   1   8
TORSDOF 9
ENDMDL
MODEL 6
REMARK VINA RESULT:    -3.982      1.935      3.351
REMARK INTER + INTRA:          -6.352
REMARK INTER:                  -5.948
REMARK INTRA:                  -0.404
REMARK UNBOUND:                -0.275
REMARK SMILES O=C([O-])CCCCCCCCC(=O)[O-]
REMARK SMILES IDX 7 1 6 2 5 3 4 4 2 5 1 6 3 7 8 8 9 9 10 10 11 11 12 12 13 13
REMARK SMILES IDX 14 14
REMARK H PARENT
REMARK Flexibility Score: inf
ROOT
ATOM      1  C   UNL     1     -31.419 -22.250 -33.750  1.00  0.00     0.000 C 
ENDROOT
BRANCH   1   2
ATOM      2  C   UNL     1     -32.454 -22.285 -34.888  1.00  0.00     0.000 C 
BRANCH   2   3
ATOM      3  C   UNL     1     -32.440 -23.615 -35.657  1.00  0.00     0.006 C 
BRANCH   3   4
ATOM      4  C   UNL     1     -31.413 -23.626 -36.796  1.00  0.00     0.053 C 
BRANCH   4   5
ATOM      5  C   UNL     1     -31.607 -24.831 -37.662  1.00  0.00     0.041 C 
ATOM      6  O   UNL     1     -30.746 -25.133 -38.531  1.00  0.00    -0.550 OA
ATOM      7  O   UNL     1     -32.761 -25.595 -37.543  1.00  0.00    -0.550 OA
ENDBRANCH   4   5
ENDBRANCH   3   4
ENDBRANCH   2   3
ENDBRANCH   1   2
BRANCH   1   8
ATOM      8  C   UNL     1     -30.783 -20.862 -33.568  1.00  0.00     0.000 C 
BRANCH   8   9
ATOM      9  C   UNL     1     -29.323 -20.940 -33.089  1.00  0.00     0.000 C 
BRANCH   9  10
ATOM     10  C   UNL     1     -29.137 -20.403 -31.657  1.00  0.00     0.006 C 
BRANCH  10  11
ATOM     11  C   UNL     1     -30.424 -19.876 -31.005  1.00  0.00     0.053 C 
BRANCH  11  12
ATOM     12  C   UNL     1     -30.874 -20.743 -29.871  1.00  0.00     0.041 C 
ATOM     13  O   UNL     1     -31.686 -20.299 -29.016  1.00  0.00    -0.550 OA
ATOM     14  O   UNL     1     -30.373 -22.032 -29.739  1.00  0.00    -0.550 OA
ENDBRANCH  11  12
ENDBRANCH  10  11
ENDBRANCH   9  10
ENDBRANCH   8   9
ENDBRANCH   1   8
TORSDOF 9
ENDMDL
MODEL 7
REMARK VINA RESULT:    -2.927      2.648      7.527
REMARK INTER + INTRA:          -4.743
REMARK INTER:                  -4.410
REMARK INTRA:                  -0.332
REMARK UNBOUND:                -0.275
REMARK SMILES O=C([O-])CCCCCCCCC(=O)[O-]
REMARK SMILES IDX 7 1 6 2 5 3 4 4 2 5 1 6 3 7 8 8 9 9 10 10 11 11 12 12 13 13
REMARK SMILES IDX 14 14
REMARK H PARENT
REMARK Flexibility Score: inf
ROOT
ATOM      1  C   UNL     1     -29.265 -21.338 -33.124  1.00  0.00     0.000 C 
ENDROOT
BRANCH   1   2
ATOM      2  C   UNL     1     -29.229 -19.919 -32.529  1.00  0.00     0.000 C 
BRANCH   2   3
ATOM      3  C   UNL     1     -29.428 -19.915 -31.005  1.00  0.00     0.006 C 
BRANCH   3   4
ATOM      4  C   UNL     1     -30.709 -20.641 -30.576  1.00  0.00     0.053 C 
BRANCH   4   5
ATOM      5  C   UNL     1     -30.381 -21.989 -30.016  1.00  0.00     0.041 C 
ATOM      6  O   UNL     1     -29.848 -22.091 -28.879  1.00  0.00    -0.550 OA
ATOM      7  O   UNL     1     -30.619 -23.133 -30.769  1.00  0.00    -0.550 OA
ENDBRANCH   4   5
ENDBRANCH   3   4
ENDBRANCH   2   3
ENDBRANCH   1   2
BRANCH   1   8
ATOM      8  C   UNL     1     -30.278 -21.473 -34.273  1.00  0.00     0.000 C 
BRANCH   8   9
ATOM      9  C   UNL     1     -31.367 -22.519 -33.980  1.00  0.00     0.000 C 
BRANCH   9  10
ATOM     10  C   UNL     1     -32.668 -22.259 -34.763  1.00  0.00     0.006 C 
BRANCH  10  11
ATOM     11  C   UNL     1     -32.519 -22.349 -36.290  1.00  0.00     0.053 C 
BRANCH  11  12
ATOM     12  C   UNL     1     -31.953 -23.666 -36.722  1.00  0.00     0.041 C 
ATOM     13  O   UNL     1     -30.762 -23.743 -37.125  1.00  0.00    -0.550 OA
ATOM     14  O   UNL     1     -32.751 -24.803 -36.710  1.00  0.00    -0.550 OA
ENDBRANCH  11  12
ENDBRANCH  10  11
ENDBRANCH   9  10
ENDBRANCH   8   9
ENDBRANCH   1   8
TORSDOF 9
ENDMDL
MODEL 8
REMARK VINA RESULT:    -1.578      1.260      7.764
REMARK INTER + INTRA:          -2.683
REMARK INTER:                  -2.313
REMARK INTRA:                  -0.370
REMARK UNBOUND:                -0.275
REMARK SMILES O=C([O-])CCCCCCCCC(=O)[O-]
REMARK SMILES IDX 7 1 6 2 5 3 4 4 2 5 1 6 3 7 8 8 9 9 10 10 11 11 12 12 13 13
REMARK SMILES IDX 14 14
REMARK H PARENT
REMARK Flexibility Score: inf
ROOT
ATOM      1  C   UNL     1     -31.901 -23.994 -35.615  1.00  0.00     0.000 C 
ENDROOT
BRANCH   1   2
ATOM      2  C   UNL     1     -31.681 -22.474 -35.718  1.00  0.00     0.000 C 
BRANCH   2   3
ATOM      3  C   UNL     1     -32.448 -21.694 -34.639  1.00  0.00     0.006 C 
BRANCH   3   4
ATOM      4  C   UNL     1     -31.532 -20.797 -33.797  1.00  0.00     0.053 C 
BRANCH   4   5
ATOM      5  C   UNL     1     -30.610 -21.630 -32.963  1.00  0.00     0.041 C 
ATOM      6  O   UNL     1     -31.066 -22.574 -32.264  1.00  0.00    -0.550 OA
ATOM      7  O   UNL     1     -29.254 -21.333 -32.916  1.00  0.00    -0.550 OA
ENDBRANCH   4   5
ENDBRANCH   3   4
ENDBRANCH   2   3
ENDBRANCH   1   2
BRANCH   1   8
ATOM      8  C   UNL     1     -31.937 -24.682 -36.990  1.00  0.00     0.000 C 
BRANCH   8   9
ATOM      9  C   UNL     1     -33.334 -25.220 -37.344  1.00  0.00     0.000 C 
BRANCH   9  10
ATOM     10  C   UNL     1     -33.280 -26.467 -38.247  1.00  0.00     0.006 C 
BRANCH  10  11
ATOM     11  C   UNL     1     -31.870 -27.042 -38.451  1.00  0.00     0.053 C 
BRANCH  11  12
ATOM     12  C   UNL     1     -31.905 -28.486 -38.845  1.00  0.00     0.041 C 
ATOM     13  O   UNL     1     -33.001 -29.041 -39.125  1.00  0.00    -0.550 OA
ATOM     14  O   UNL     1     -30.731 -29.229 -38.874  1.00  0.00    -0.550 OA
ENDBRANCH  11  12
ENDBRANCH  10  11
ENDBRANCH   9  10
ENDBRANCH   8   9
ENDBRANCH   1   8
TORSDOF 9
ENDMDL
