MODEL 1
REMARK VINA RESULT:    -5.583      0.000      0.000
REMARK INTER + INTRA:          -6.004
REMARK INTER:                  -5.909
REMARK INTRA:                  -0.095
REMARK UNBOUND:                -0.095
REMARK SMILES C=C(C)[C@@H]1CC=C(C)C(=O)C1
REMARK SMILES IDX 8 1 7 2 6 3 5 4 4 5 11 6 9 7 10 8 2 9 1 10 3 11
REMARK H PARENT
REMARK Flexibility Score: inf
ROOT
ATOM      1  C   UNL     1      -4.831   1.610   2.807  1.00  0.00     0.048 C 
ATOM      2  C   UNL     1      -5.082   0.673   1.658  1.00  0.00    -0.012 C 
ATOM      3  C   UNL     1      -6.341   0.443   1.245  1.00  0.00    -0.019 C 
ATOM      4  C   UNL     1      -6.648  -0.472   0.088  1.00  0.00     0.036 C 
ATOM      5  C   UNL     1      -5.625  -1.621   0.004  1.00  0.00     0.025 C 
ATOM      6  C   UNL     1      -4.193  -1.059  -0.061  1.00  0.00     0.089 C 
ATOM      7  C   UNL     1      -3.955  -0.089   1.064  1.00  0.00     0.158 C 
ATOM      8  O   UNL     1      -2.778   0.099   1.474  1.00  0.00    -0.295 OA
ENDROOT
BRANCH   5   9
ATOM      9  C   UNL     1      -5.918  -2.549  -1.168  1.00  0.00    -0.077 C 
ATOM     10  C   UNL     1      -7.169  -2.715  -1.634  1.00  0.00     0.008 C 
ATOM     11  C   UNL     1      -4.797  -3.305  -1.833  1.00  0.00     0.039 C 
ENDBRANCH   5   9
TORSDOF 1
ENDMDL
MODEL 2
REMARK VINA RESULT:    -5.562      1.830      2.691
REMARK INTER + INTRA:          -5.982
REMARK INTER:                  -5.892
REMARK INTRA:                  -0.090
REMARK UNBOUND:                -0.095
REMARK SMILES C=C(C)[C@@H]1CC=C(C)C(=O)C1
REMARK SMILES IDX 8 1 7 2 6 3 5 4 4 5 11 6 9 7 10 8 2 9 1 10 3 11
REMARK H PARENT
REMARK Flexibility Score: inf
ROOT
ATOM      1  C   UNL     1      -5.185   1.326   2.700  1.00  0.00     0.048 C 
ATOM      2  C   UNL     1      -4.835   0.400   1.568  1.00  0.00    -0.012 C 
ATOM      3  C   UNL     1      -3.546   0.118   1.308  1.00  0.00    -0.019 C 
ATOM      4  C   UNL     1      -3.141  -0.817   0.198  1.00  0.00     0.036 C 
ATOM      5  C   UNL     1      -4.128  -0.736  -0.982  1.00  0.00     0.025 C 
ATOM      6  C   UNL     1      -5.566  -0.998  -0.495  1.00  0.00     0.089 C 
ATOM      7  C   UNL     1      -5.902  -0.101   0.665  1.00  0.00     0.158 C 
ATOM      8  O   UNL     1      -7.107   0.191   0.885  1.00  0.00    -0.295 OA
ENDROOT
BRANCH   5   9
ATOM      9  C   UNL     1      -3.735  -1.684  -2.108  1.00  0.00    -0.077 C 
ATOM     10  C   UNL     1      -2.763  -1.368  -2.982  1.00  0.00     0.008 C 
ATOM     11  C   UNL     1      -4.439  -3.008  -2.262  1.00  0.00     0.039 C 
ENDBRANCH   5   9
TORSDOF 1
ENDMDL
MODEL 3
REMARK VINA RESULT:    -5.533      1.986      4.829
REMARK INTER + INTRA:          -5.951
REMARK INTER:                  -5.857
REMARK INTRA:                  -0.094
REMARK UNBOUND:                -0.095
REMARK SMILES C=C(C)[C@@H]1CC=C(C)C(=O)C1
REMARK SMILES IDX 8 1 7 2 6 3 5 4 4 5 11 6 9 7 10 8 2 9 1 10 3 11
REMARK H PARENT
REMARK Flexibility Score: inf
ROOT
ATOM      1  C   UNL     1      -5.032  -3.746  -2.602  1.00  0.00     0.048 C 
ATOM      2  C   UNL     1      -4.857  -2.629  -1.611  1.00  0.00    -0.012 C 
ATOM      3  C   UNL     1      -3.621  -2.221  -1.274  1.00  0.00    -0.019 C 
ATOM      4  C   UNL     1      -3.389  -1.094  -0.301  1.00  0.00     0.036 C 
ATOM      5  C   UNL     1      -4.494  -1.053   0.772  1.00  0.00     0.025 C 
ATOM      6  C   UNL     1      -5.881  -0.973   0.107  1.00  0.00     0.089 C 
ATOM      7  C   UNL     1      -6.041  -2.065  -0.915  1.00  0.00     0.158 C 
ATOM      8  O   UNL     1      -7.198  -2.472  -1.203  1.00  0.00    -0.295 OA
ENDROOT
BRANCH   5   9
ATOM      9  C   UNL     1      -4.277   0.088   1.757  1.00  0.00    -0.077 C 
ATOM     10  C   UNL     1      -3.077   0.304   2.325  1.00  0.00     0.008 C 
ATOM     11  C   UNL     1      -5.418   1.005   2.116  1.00  0.00     0.039 C 
ENDBRANCH   5   9
TORSDOF 1
ENDMDL
MODEL 4
REMARK VINA RESULT:    -5.357      1.708      4.502
REMARK INTER + INTRA:          -5.765
REMARK INTER:                  -5.669
REMARK INTRA:                  -0.096
REMARK UNBOUND:                -0.095
REMARK SMILES C=C(C)[C@@H]1CC=C(C)C(=O)C1
REMARK SMILES IDX 8 1 7 2 6 3 5 4 4 5 11 6 9 7 10 8 2 9 1 10 3 11
REMARK H PARENT
REMARK Flexibility Score: inf
ROOT
ATOM      1  C   UNL     1      -5.246  -3.615  -2.639  1.00  0.00     0.048 C 
ATOM      2  C   UNL     1      -4.917  -2.831  -1.399  1.00  0.00    -0.012 C 
ATOM      3  C   UNL     1      -5.903  -2.449  -0.567  1.00  0.00    -0.019 C 
ATOM      4  C   UNL     1      -5.628  -1.678   0.697  1.00  0.00     0.036 C 
ATOM      5  C   UNL     1      -4.411  -0.749   0.526  1.00  0.00     0.025 C 
ATOM      6  C   UNL     1      -3.185  -1.555   0.056  1.00  0.00     0.089 C 
ATOM      7  C   UNL     1      -3.525  -2.374  -1.159  1.00  0.00     0.158 C 
ATOM      8  O   UNL     1      -2.606  -2.699  -1.957  1.00  0.00    -0.295 OA
ENDROOT
BRANCH   5   9
ATOM      9  C   UNL     1      -4.115   0.030   1.801  1.00  0.00    -0.077 C 
ATOM     10  C   UNL     1      -3.075  -0.289   2.591  1.00  0.00     0.008 C 
ATOM     11  C   UNL     1      -4.997   1.185   2.202  1.00  0.00     0.039 C 
ENDBRANCH   5   9
TORSDOF 1
ENDMDL
MODEL 5
REMARK VINA RESULT:    -5.250      2.627      3.659
REMARK INTER + INTRA:          -5.652
REMARK INTER:                  -5.559
REMARK INTRA:                  -0.094
REMARK UNBOUND:                -0.095
REMARK SMILES C=C(C)[C@@H]1CC=C(C)C(=O)C1
REMARK SMILES IDX 8 1 7 2 6 3 5 4 4 5 11 6 9 7 10 8 2 9 1 10 3 11
REMARK H PARENT
REMARK Flexibility Score: inf
ROOT
ATOM      1  C   UNL     1      -6.773   0.010   0.758  1.00  0.00     0.048 C 
ATOM      2  C   UNL     1      -5.560  -0.565   0.081  1.00  0.00    -0.012 C 
ATOM      3  C   UNL     1      -4.372   0.056   0.194  1.00  0.00    -0.019 C 
ATOM      4  C   UNL     1      -3.122  -0.487  -0.448  1.00  0.00     0.036 C 
ATOM      5  C   UNL     1      -3.448  -1.214  -1.767  1.00  0.00     0.025 C 
ATOM      6  C   UNL     1      -4.503  -2.310  -1.526  1.00  0.00     0.089 C 
ATOM      7  C   UNL     1      -5.699  -1.744  -0.811  1.00  0.00     0.158 C 
ATOM      8  O   UNL     1      -6.819  -2.306  -0.947  1.00  0.00    -0.295 OA
ENDROOT
BRANCH   5   9
ATOM      9  C   UNL     1      -2.194  -1.777  -2.422  1.00  0.00    -0.077 C 
ATOM     10  C   UNL     1      -1.633  -2.922  -1.993  1.00  0.00     0.008 C 
ATOM     11  C   UNL     1      -1.552  -1.049  -3.576  1.00  0.00     0.039 C 
ENDBRANCH   5   9
TORSDOF 1
ENDMDL
MODEL 6
REMARK VINA RESULT:    -5.198      2.136      4.573
REMARK INTER + INTRA:          -5.597
REMARK INTER:                  -5.504
REMARK INTRA:                  -0.093
REMARK UNBOUND:                -0.095
REMARK SMILES C=C(C)[C@@H]1CC=C(C)C(=O)C1
REMARK SMILES IDX 8 1 7 2 6 3 5 4 4 5 11 6 9 7 10 8 2 9 1 10 3 11
REMARK H PARENT
REMARK Flexibility Score: inf
ROOT
ATOM      1  C   UNL     1      -6.753  -2.160  -0.816  1.00  0.00     0.048 C 
ATOM      2  C   UNL     1      -5.534  -1.621  -0.118  1.00  0.00    -0.012 C 
ATOM      3  C   UNL     1      -4.357  -2.260  -0.240  1.00  0.00    -0.019 C 
ATOM      4  C   UNL     1      -3.102  -1.753   0.422  1.00  0.00     0.036 C 
ATOM      5  C   UNL     1      -3.423  -1.052   1.756  1.00  0.00     0.025 C 
ATOM      6  C   UNL     1      -4.458   0.067   1.535  1.00  0.00     0.089 C 
ATOM      7  C   UNL     1      -5.659  -0.461   0.799  1.00  0.00     0.158 C 
ATOM      8  O   UNL     1      -6.770   0.116   0.943  1.00  0.00    -0.295 OA
ENDROOT
BRANCH   5   9
ATOM      9  C   UNL     1      -2.164  -0.526   2.431  1.00  0.00    -0.077 C 
ATOM     10  C   UNL     1      -1.535   0.575   1.982  1.00  0.00     0.008 C 
ATOM     11  C   UNL     1      -1.593  -1.242   3.629  1.00  0.00     0.039 C 
ENDBRANCH   5   9
TORSDOF 1
ENDMDL
MODEL 7
REMARK VINA RESULT:    -4.904      2.397      4.530
REMARK INTER + INTRA:          -5.285
REMARK INTER:                  -5.191
REMARK INTRA:                  -0.095
REMARK UNBOUND:                -0.095
REMARK SMILES C=C(C)[C@@H]1CC=C(C)C(=O)C1
REMARK SMILES IDX 8 1 7 2 6 3 5 4 4 5 11 6 9 7 10 8 2 9 1 10 3 11
REMARK H PARENT
REMARK Flexibility Score: inf
ROOT
ATOM      1  C   UNL     1      -6.628  -0.561  -0.234  1.00  0.00     0.048 C 
ATOM      2  C   UNL     1      -5.421  -0.560   0.662  1.00  0.00    -0.012 C 
ATOM      3  C   UNL     1      -5.038   0.578   1.268  1.00  0.00    -0.019 C 
ATOM      4  C   UNL     1      -3.848   0.631   2.190  1.00  0.00     0.036 C 
ATOM      5  C   UNL     1      -2.761  -0.368   1.748  1.00  0.00     0.025 C 
ATOM      6  C   UNL     1      -3.351  -1.786   1.639  1.00  0.00     0.089 C 
ATOM      7  C   UNL     1      -4.584  -1.780   0.777  1.00  0.00     0.158 C 
ATOM      8  O   UNL     1      -4.920  -2.838   0.180  1.00  0.00    -0.295 OA
ENDROOT
BRANCH   5   9
ATOM      9  C   UNL     1      -1.555  -0.331   2.678  1.00  0.00    -0.077 C 
ATOM     10  C   UNL     1      -1.433  -1.195   3.701  1.00  0.00     0.008 C 
ATOM     11  C   UNL     1      -0.465   0.687   2.462  1.00  0.00     0.039 C 
ENDBRANCH   5   9
TORSDOF 1
ENDMDL
MODEL 8
REMARK VINA RESULT:    -4.856      2.279      4.356
REMARK INTER + INTRA:          -5.235
REMARK INTER:                  -5.140
REMARK INTRA:                  -0.095
REMARK UNBOUND:                -0.095
REMARK SMILES C=C(C)[C@@H]1CC=C(C)C(=O)C1
REMARK SMILES IDX 8 1 7 2 6 3 5 4 4 5 11 6 9 7 10 8 2 9 1 10 3 11
REMARK H PARENT
REMARK Flexibility Score: inf
ROOT
ATOM      1  C   UNL     1      -1.044  -2.504  -1.572  1.00  0.00     0.048 C 
ATOM      2  C   UNL     1      -2.080  -1.652  -0.893  1.00  0.00    -0.012 C 
ATOM      3  C   UNL     1      -2.013  -1.447   0.434  1.00  0.00    -0.019 C 
ATOM      4  C   UNL     1      -3.014  -0.587   1.161  1.00  0.00     0.036 C 
ATOM      5  C   UNL     1      -4.403  -0.675   0.501  1.00  0.00     0.025 C 
ATOM      6  C   UNL     1      -4.307  -0.321  -0.995  1.00  0.00     0.089 C 
ATOM      7  C   UNL     1      -3.241  -1.143  -1.665  1.00  0.00     0.158 C 
ATOM      8  O   UNL     1      -3.325  -1.365  -2.903  1.00  0.00    -0.295 OA
ENDROOT
BRANCH   5   9
ATOM      9  C   UNL     1      -5.423   0.197   1.221  1.00  0.00    -0.077 C 
ATOM     10  C   UNL     1      -6.737   0.109   0.947  1.00  0.00     0.008 C 
ATOM     11  C   UNL     1      -4.970   1.185   2.265  1.00  0.00     0.039 C 
ENDBRANCH   5   9
TORSDOF 1
ENDMDL
MODEL 9
REMARK VINA RESULT:    -4.825      2.583      4.038
REMARK INTER + INTRA:          -5.202
REMARK INTER:                  -5.108
REMARK INTRA:                  -0.094
REMARK UNBOUND:                -0.095
REMARK SMILES C=C(C)[C@@H]1CC=C(C)C(=O)C1
REMARK SMILES IDX 8 1 7 2 6 3 5 4 4 5 11 6 9 7 10 8 2 9 1 10 3 11
REMARK H PARENT
REMARK Flexibility Score: inf
ROOT
ATOM      1  C   UNL     1      -6.750  -1.809   0.129  1.00  0.00     0.048 C 
ATOM      2  C   UNL     1      -5.517  -1.767  -0.731  1.00  0.00    -0.012 C 
ATOM      3  C   UNL     1      -5.095  -2.884  -1.350  1.00  0.00    -0.019 C 
ATOM      4  C   UNL     1      -3.877  -2.894  -2.237  1.00  0.00     0.036 C 
ATOM      5  C   UNL     1      -2.823  -1.885  -1.742  1.00  0.00     0.025 C 
ATOM      6  C   UNL     1      -3.444  -0.480  -1.619  1.00  0.00     0.089 C 
ATOM      7  C   UNL     1      -4.701  -0.529  -0.795  1.00  0.00     0.158 C 
ATOM      8  O   UNL     1      -5.076   0.509  -0.186  1.00  0.00    -0.295 OA
ENDROOT
BRANCH   5   9
ATOM      9  C   UNL     1      -1.590  -1.878  -2.635  1.00  0.00    -0.077 C 
ATOM     10  C   UNL     1      -1.485  -1.034  -3.677  1.00  0.00     0.008 C 
ATOM     11  C   UNL     1      -0.453  -2.829  -2.363  1.00  0.00     0.039 C 
ENDBRANCH   5   9
TORSDOF 1
ENDMDL
