MODEL 1
REMARK VINA RESULT:    -3.088      0.000      0.000
REMARK INTER + INTRA:          -5.480
REMARK INTER:                  -4.713
REMARK INTRA:                  -0.767
REMARK UNBOUND:                -0.767
REMARK SMILES CCCCCCCCCCC(=O)[O-]
REMARK SMILES IDX 7 1 8 2 9 3 10 4 11 5 12 6 13 7 6 8 5 9 4 10 3 11 2 12 1 13
REMARK H PARENT
REMARK Flexibility Score: inf
ROOT
ATOM      1  C   UNL     1      15.972  -6.999   6.105  1.00  0.00     0.000 C 
ENDROOT
BRANCH   1   2
ATOM      2  C   UNL     1      14.936  -7.862   6.841  1.00  0.00     0.000 C 
BRANCH   2   3
ATOM      3  C   UNL     1      14.034  -8.651   5.881  1.00  0.00     0.006 C 
BRANCH   3   4
ATOM      4  C   UNL     1      13.277  -7.709   4.941  1.00  0.00     0.053 C 
BRANCH   4   5
ATOM      5  C   UNL     1      11.871  -7.512   5.416  1.00  0.00     0.041 C 
ATOM      6  O   UNL     1      11.513  -7.955   6.539  1.00  0.00    -0.550 OA
ATOM      7  O   UNL     1      10.970  -6.795   4.640  1.00  0.00    -0.550 OA
ENDBRANCH   4   5
ENDBRANCH   3   4
ENDBRANCH   2   3
ENDBRANCH   1   2
BRANCH   1   8
ATOM      8  C   UNL     1      16.943  -7.838   5.255  1.00  0.00     0.000 C 
BRANCH   8   9
ATOM      9  C   UNL     1      18.191  -7.047   4.833  1.00  0.00    -0.000 C 
BRANCH   9  10
ATOM     10  C   UNL     1      19.286  -7.053   5.914  1.00  0.00    -0.000 C 
BRANCH  10  11
ATOM     11  C   UNL     1      19.322  -8.368   6.710  1.00  0.00    -0.000 C 
BRANCH  11  12
ATOM     12  C   UNL     1      19.260  -8.141   8.227  1.00  0.00    -0.003 C 
ATOM     13  C   UNL     1      18.679  -6.769   8.555  1.00  0.00     0.004 C 
ENDBRANCH  11  12
ENDBRANCH  10  11
ENDBRANCH   9  10
ENDBRANCH   8   9
ENDBRANCH   1   8
TORSDOF 9
ENDMDL
MODEL 2
REMARK VINA RESULT:    -3.059      0.933      1.551
REMARK INTER + INTRA:          -5.436
REMARK INTER:                  -4.881
REMARK INTRA:                  -0.556
REMARK UNBOUND:                -0.767
REMARK SMILES CCCCCCCCCCC(=O)[O-]
REMARK SMILES IDX 7 1 8 2 9 3 10 4 11 5 12 6 13 7 6 8 5 9 4 10 3 11 2 12 1 13
REMARK H PARENT
REMARK Flexibility Score: inf
ROOT
ATOM      1  C   UNL     1      15.967  -6.741   5.519  1.00  0.00     0.000 C 
ENDROOT
BRANCH   1   2
ATOM      2  C   UNL     1      15.283  -7.723   6.482  1.00  0.00     0.000 C 
BRANCH   2   3
ATOM      3  C   UNL     1      14.132  -8.495   5.821  1.00  0.00     0.006 C 
BRANCH   3   4
ATOM      4  C   UNL     1      13.361  -7.602   4.846  1.00  0.00     0.053 C 
BRANCH   4   5
ATOM      5  C   UNL     1      11.924  -7.500   5.252  1.00  0.00     0.041 C 
ATOM      6  O   UNL     1      11.051  -7.150   4.414  1.00  0.00    -0.550 OA
ATOM      7  O   UNL     1      11.542  -7.838   6.544  1.00  0.00    -0.550 OA
ENDBRANCH   4   5
ENDBRANCH   3   4
ENDBRANCH   2   3
ENDBRANCH   1   2
BRANCH   1   8
ATOM      8  C   UNL     1      17.294  -7.286   4.963  1.00  0.00     0.000 C 
BRANCH   8   9
ATOM      9  C   UNL     1      18.067  -8.122   5.996  1.00  0.00    -0.000 C 
BRANCH   9  10
ATOM     10  C   UNL     1      18.960  -7.258   6.904  1.00  0.00    -0.000 C 
BRANCH  10  11
ATOM     11  C   UNL     1      19.061  -7.813   8.333  1.00  0.00    -0.000 C 
BRANCH  11  12
ATOM     12  C   UNL     1      19.805  -9.156   8.394  1.00  0.00    -0.003 C 
ATOM     13  C   UNL     1      19.862  -9.689   9.822  1.00  0.00     0.004 C 
ENDBRANCH  11  12
ENDBRANCH  10  11
ENDBRANCH   9  10
ENDBRANCH   8   9
ENDBRANCH   1   8
TORSDOF 9
ENDMDL
MODEL 3
REMARK VINA RESULT:    -3.040      3.679      7.407
REMARK INTER + INTRA:          -5.407
REMARK INTER:                  -5.138
REMARK INTRA:                  -0.270
REMARK UNBOUND:                -0.767
REMARK SMILES CCCCCCCCCCC(=O)[O-]
REMARK SMILES IDX 7 1 8 2 9 3 10 4 11 5 12 6 13 7 6 8 5 9 4 10 3 11 2 12 1 13
REMARK H PARENT
REMARK Flexibility Score: inf
ROOT
ATOM      1  C   UNL     1      13.738  -7.890   5.730  1.00  0.00     0.000 C 
ENDROOT
BRANCH   1   2
ATOM      2  C   UNL     1      14.809  -7.528   4.690  1.00  0.00     0.000 C 
BRANCH   2   3
ATOM      3  C   UNL     1      15.979  -6.738   5.296  1.00  0.00     0.006 C 
BRANCH   3   4
ATOM      4  C   UNL     1      16.161  -7.078   6.777  1.00  0.00     0.053 C 
BRANCH   4   5
ATOM      5  C   UNL     1      17.615  -7.156   7.122  1.00  0.00     0.041 C 
ATOM      6  O   UNL     1      18.450  -7.555   6.268  1.00  0.00    -0.550 OA
ATOM      7  O   UNL     1      18.055  -6.740   8.373  1.00  0.00    -0.550 OA
ENDBRANCH   4   5
ENDBRANCH   3   4
ENDBRANCH   2   3
ENDBRANCH   1   2
BRANCH   1   8
ATOM      8  C   UNL     1      12.307  -7.686   5.201  1.00  0.00     0.000 C 
BRANCH   8   9
ATOM      9  C   UNL     1      11.240  -7.914   6.284  1.00  0.00    -0.000 C 
BRANCH   9  10
ATOM     10  C   UNL     1       9.873  -8.299   5.691  1.00  0.00    -0.000 C 
BRANCH  10  11
ATOM     11  C   UNL     1       9.121  -9.323   6.556  1.00  0.00    -0.000 C 
BRANCH  11  12
ATOM     12  C   UNL     1       7.865  -8.731   7.213  1.00  0.00    -0.003 C 
ATOM     13  C   UNL     1       7.402  -9.590   8.386  1.00  0.00     0.004 C 
ENDBRANCH  11  12
ENDBRANCH  10  11
ENDBRANCH   9  10
ENDBRANCH   8   9
ENDBRANCH   1   8
TORSDOF 9
ENDMDL
MODEL 4
REMARK VINA RESULT:    -3.036      3.472      7.602
REMARK INTER + INTRA:          -5.401
REMARK INTER:                  -4.918
REMARK INTRA:                  -0.483
REMARK UNBOUND:                -0.767
REMARK SMILES CCCCCCCCCCC(=O)[O-]
REMARK SMILES IDX 7 1 8 2 9 3 10 4 11 5 12 6 13 7 6 8 5 9 4 10 3 11 2 12 1 13
REMARK H PARENT
REMARK Flexibility Score: inf
ROOT
ATOM      1  C   UNL     1      11.316  -7.866   6.150  1.00  0.00     0.000 C 
ENDROOT
BRANCH   1   2
ATOM      2  C   UNL     1      12.751  -8.159   5.685  1.00  0.00     0.000 C 
BRANCH   2   3
ATOM      3  C   UNL     1      13.736  -8.296   6.855  1.00  0.00     0.006 C 
BRANCH   3   4
ATOM      4  C   UNL     1      15.172  -8.451   6.348  1.00  0.00     0.053 C 
BRANCH   4   5
ATOM      5  C   UNL     1      15.898  -7.145   6.422  1.00  0.00     0.041 C 
ATOM      6  O   UNL     1      15.980  -6.406   5.405  1.00  0.00    -0.550 OA
ATOM      7  O   UNL     1      16.443  -6.720   7.627  1.00  0.00    -0.550 OA
ENDBRANCH   4   5
ENDBRANCH   3   4
ENDBRANCH   2   3
ENDBRANCH   1   2
BRANCH   1   8
ATOM      8  C   UNL     1      10.433  -7.302   5.023  1.00  0.00     0.000 C 
BRANCH   8   9
ATOM      9  C   UNL     1       9.395  -8.320   4.522  1.00  0.00    -0.000 C 
BRANCH   9  10
ATOM     10  C   UNL     1       9.199  -9.491   5.501  1.00  0.00    -0.000 C 
BRANCH  10  11
ATOM     11  C   UNL     1       7.821  -9.467   6.181  1.00  0.00    -0.000 C 
BRANCH  11  12
ATOM     12  C   UNL     1       7.883  -8.941   7.623  1.00  0.00    -0.003 C 
ATOM     13  C   UNL     1       7.203  -9.906   8.589  1.00  0.00     0.004 C 
ENDBRANCH  11  12
ENDBRANCH  10  11
ENDBRANCH   9  10
ENDBRANCH   8   9
ENDBRANCH   1   8
TORSDOF 9
ENDMDL
MODEL 5
REMARK VINA RESULT:    -2.993      1.542      2.417
REMARK INTER + INTRA:          -5.335
REMARK INTER:                  -4.900
REMARK INTRA:                  -0.436
REMARK UNBOUND:                -0.767
REMARK SMILES CCCCCCCCCCC(=O)[O-]
REMARK SMILES IDX 7 1 8 2 9 3 10 4 11 5 12 6 13 7 6 8 5 9 4 10 3 11 2 12 1 13
REMARK H PARENT
REMARK Flexibility Score: inf
ROOT
ATOM      1  C   UNL     1      15.876  -6.709   5.467  1.00  0.00     0.000 C 
ENDROOT
BRANCH   1   2
ATOM      2  C   UNL     1      15.514  -7.583   6.677  1.00  0.00     0.000 C 
BRANCH   2   3
ATOM      3  C   UNL     1      14.138  -8.252   6.533  1.00  0.00     0.006 C 
BRANCH   3   4
ATOM      4  C   UNL     1      13.474  -7.861   5.210  1.00  0.00     0.053 C 
BRANCH   4   5
ATOM      5  C   UNL     1      12.013  -7.605   5.412  1.00  0.00     0.041 C 
ATOM      6  O   UNL     1      11.465  -7.893   6.509  1.00  0.00    -0.550 OA
ATOM      7  O   UNL     1      11.268  -7.005   4.406  1.00  0.00    -0.550 OA
ENDBRANCH   4   5
ENDBRANCH   3   4
ENDBRANCH   2   3
ENDBRANCH   1   2
BRANCH   1   8
ATOM      8  C   UNL     1      17.223  -7.104   4.835  1.00  0.00     0.000 C 
BRANCH   8   9
ATOM      9  C   UNL     1      18.338  -7.272   5.880  1.00  0.00    -0.000 C 
BRANCH   9  10
ATOM     10  C   UNL     1      19.743  -7.123   5.270  1.00  0.00    -0.000 C 
BRANCH  10  11
ATOM     11  C   UNL     1      19.826  -5.972   4.254  1.00  0.00    -0.000 C 
BRANCH  11  12
ATOM     12  C   UNL     1      21.095  -5.124   4.427  1.00  0.00    -0.003 C 
ATOM     13  C   UNL     1      22.351  -5.975   4.264  1.00  0.00     0.004 C 
ENDBRANCH  11  12
ENDBRANCH  10  11
ENDBRANCH   9  10
ENDBRANCH   8   9
ENDBRANCH   1   8
TORSDOF 9
ENDMDL
MODEL 6
REMARK VINA RESULT:    -2.985      3.661      8.042
REMARK INTER + INTRA:          -5.322
REMARK INTER:                  -4.877
REMARK INTRA:                  -0.446
REMARK UNBOUND:                -0.767
REMARK SMILES CCCCCCCCCCC(=O)[O-]
REMARK SMILES IDX 7 1 8 2 9 3 10 4 11 5 12 6 13 7 6 8 5 9 4 10 3 11 2 12 1 13
REMARK H PARENT
REMARK Flexibility Score: inf
ROOT
ATOM      1  C   UNL     1      11.383  -7.902   6.360  1.00  0.00     0.000 C 
ENDROOT
BRANCH   1   2
ATOM      2  C   UNL     1      12.773  -8.177   5.766  1.00  0.00     0.000 C 
BRANCH   2   3
ATOM      3  C   UNL     1      13.856  -8.334   6.843  1.00  0.00     0.006 C 
BRANCH   3   4
ATOM      4  C   UNL     1      15.233  -8.549   6.209  1.00  0.00     0.053 C 
BRANCH   4   5
ATOM      5  C   UNL     1      16.070  -7.316   6.343  1.00  0.00     0.041 C 
ATOM      6  O   UNL     1      16.630  -6.817   5.332  1.00  0.00    -0.550 OA
ATOM      7  O   UNL     1      16.193  -6.691   7.578  1.00  0.00    -0.550 OA
ENDBRANCH   4   5
ENDBRANCH   3   4
ENDBRANCH   2   3
ENDBRANCH   1   2
BRANCH   1   8
ATOM      8  C   UNL     1      10.274  -7.896   5.293  1.00  0.00     0.000 C 
BRANCH   8   9
ATOM      9  C   UNL     1       9.197  -8.960   5.557  1.00  0.00    -0.000 C 
BRANCH   9  10
ATOM     10  C   UNL     1       8.763  -9.005   7.032  1.00  0.00    -0.000 C 
BRANCH  10  11
ATOM     11  C   UNL     1       7.244  -8.840   7.206  1.00  0.00    -0.000 C 
BRANCH  11  12
ATOM     12  C   UNL     1       6.558  -8.317   5.936  1.00  0.00    -0.003 C 
ATOM     13  C   UNL     1       6.108  -6.870   6.110  1.00  0.00     0.004 C 
ENDBRANCH  11  12
ENDBRANCH  10  11
ENDBRANCH   9  10
ENDBRANCH   8   9
ENDBRANCH   1   8
TORSDOF 9
ENDMDL
MODEL 7
REMARK VINA RESULT:    -2.951      2.878      4.748
REMARK INTER + INTRA:          -5.272
REMARK INTER:                  -4.825
REMARK INTRA:                  -0.446
REMARK UNBOUND:                -0.767
REMARK SMILES CCCCCCCCCCC(=O)[O-]
REMARK SMILES IDX 7 1 8 2 9 3 10 4 11 5 12 6 13 7 6 8 5 9 4 10 3 11 2 12 1 13
REMARK H PARENT
REMARK Flexibility Score: inf
ROOT
ATOM      1  C   UNL     1      11.145  -7.849   6.155  1.00  0.00     0.000 C 
ENDROOT
BRANCH   1   2
ATOM      2  C   UNL     1      10.163  -8.026   4.988  1.00  0.00     0.000 C 
BRANCH   2   3
ATOM      3  C   UNL     1       8.866  -8.734   5.408  1.00  0.00     0.006 C 
BRANCH   3   4
ATOM      4  C   UNL     1       8.914  -9.136   6.884  1.00  0.00     0.053 C 
BRANCH   4   5
ATOM      5  C   UNL     1       7.608  -8.841   7.551  1.00  0.00     0.041 C 
ATOM      6  O   UNL     1       7.293  -9.431   8.618  1.00  0.00    -0.550 OA
ATOM      7  O   UNL     1       6.759  -7.878   7.020  1.00  0.00    -0.550 OA
ENDBRANCH   4   5
ENDBRANCH   3   4
ENDBRANCH   2   3
ENDBRANCH   1   2
BRANCH   1   8
ATOM      8  C   UNL     1      12.616  -7.896   5.703  1.00  0.00     0.000 C 
BRANCH   8   9
ATOM      9  C   UNL     1      13.573  -8.261   6.849  1.00  0.00    -0.000 C 
BRANCH   9  10
ATOM     10  C   UNL     1      15.006  -8.526   6.356  1.00  0.00    -0.000 C 
BRANCH  10  11
ATOM     11  C   UNL     1      15.968  -7.374   6.690  1.00  0.00    -0.000 C 
BRANCH  11  12
ATOM     12  C   UNL     1      16.889  -7.015   5.515  1.00  0.00    -0.003 C 
ATOM     13  C   UNL     1      16.086  -6.506   4.322  1.00  0.00     0.004 C 
ENDBRANCH  11  12
ENDBRANCH  10  11
ENDBRANCH   9  10
ENDBRANCH   8   9
ENDBRANCH   1   8
TORSDOF 9
ENDMDL
MODEL 8
REMARK VINA RESULT:    -2.934      1.523      2.609
REMARK INTER + INTRA:          -5.245
REMARK INTER:                  -4.003
REMARK INTRA:                  -1.242
REMARK UNBOUND:                -0.767
REMARK SMILES CCCCCCCCCCC(=O)[O-]
REMARK SMILES IDX 7 1 8 2 9 3 10 4 11 5 12 6 13 7 6 8 5 9 4 10 3 11 2 12 1 13
REMARK H PARENT
REMARK Flexibility Score: inf
ROOT
ATOM      1  C   UNL     1      18.568  -6.413   4.397  1.00  0.00     0.000 C 
ENDROOT
BRANCH   1   2
ATOM      2  C   UNL     1      17.350  -7.346   4.466  1.00  0.00     0.000 C 
BRANCH   2   3
ATOM      3  C   UNL     1      16.291  -6.865   5.469  1.00  0.00     0.006 C 
BRANCH   3   4
ATOM      4  C   UNL     1      15.737  -8.035   6.286  1.00  0.00     0.053 C 
BRANCH   4   5
ATOM      5  C   UNL     1      14.241  -7.999   6.306  1.00  0.00     0.041 C 
ATOM      6  O   UNL     1      13.602  -7.650   5.278  1.00  0.00    -0.550 OA
ATOM      7  O   UNL     1      13.552  -8.398   7.444  1.00  0.00    -0.550 OA
ENDBRANCH   4   5
ENDBRANCH   3   4
ENDBRANCH   2   3
ENDBRANCH   1   2
BRANCH   1   8
ATOM      8  C   UNL     1      19.901  -7.181   4.398  1.00  0.00     0.000 C 
BRANCH   8   9
ATOM      9  C   UNL     1      19.729  -8.662   4.774  1.00  0.00    -0.000 C 
BRANCH   9  10
ATOM     10  C   UNL     1      20.247  -8.974   6.189  1.00  0.00    -0.000 C 
BRANCH  10  11
ATOM     11  C   UNL     1      19.115  -9.076   7.224  1.00  0.00    -0.000 C 
BRANCH  11  12
ATOM     12  C   UNL     1      19.350  -8.178   8.447  1.00  0.00    -0.003 C 
ATOM     13  C   UNL     1      18.719  -6.803   8.250  1.00  0.00     0.004 C 
ENDBRANCH  11  12
ENDBRANCH  10  11
ENDBRANCH   9  10
ENDBRANCH   8   9
ENDBRANCH   1   8
TORSDOF 9
ENDMDL
MODEL 9
REMARK VINA RESULT:    -2.924      3.150      6.165
REMARK INTER + INTRA:          -5.230
REMARK INTER:                  -4.391
REMARK INTRA:                  -0.839
REMARK UNBOUND:                -0.767
REMARK SMILES CCCCCCCCCCC(=O)[O-]
REMARK SMILES IDX 7 1 8 2 9 3 10 4 11 5 12 6 13 7 6 8 5 9 4 10 3 11 2 12 1 13
REMARK H PARENT
REMARK Flexibility Score: inf
ROOT
ATOM      1  C   UNL     1      15.712  -6.926   5.232  1.00  0.00     0.000 C 
ENDROOT
BRANCH   1   2
ATOM      2  C   UNL     1      17.200  -6.793   4.873  1.00  0.00     0.000 C 
BRANCH   2   3
ATOM      3  C   UNL     1      18.062  -7.896   5.505  1.00  0.00     0.006 C 
BRANCH   3   4
ATOM      4  C   UNL     1      19.212  -7.295   6.317  1.00  0.00     0.053 C 
BRANCH   4   5
ATOM      5  C   UNL     1      18.986  -7.504   7.781  1.00  0.00     0.041 C 
ATOM      6  O   UNL     1      18.252  -6.712   8.429  1.00  0.00    -0.550 OA
ATOM      7  O   UNL     1      19.548  -8.601   8.421  1.00  0.00    -0.550 OA
ENDBRANCH   4   5
ENDBRANCH   3   4
ENDBRANCH   2   3
ENDBRANCH   1   2
BRANCH   1   8
ATOM      8  C   UNL     1      15.484  -7.760   6.505  1.00  0.00     0.000 C 
BRANCH   8   9
ATOM      9  C   UNL     1      14.525  -8.939   6.274  1.00  0.00    -0.000 C 
BRANCH   9  10
ATOM     10  C   UNL     1      14.181  -9.135   4.787  1.00  0.00    -0.000 C 
BRANCH  10  11
ATOM     11  C   UNL     1      12.669  -9.063   4.516  1.00  0.00    -0.000 C 
BRANCH  11  12
ATOM     12  C   UNL     1      12.102  -7.649   4.710  1.00  0.00    -0.003 C 
ATOM     13  C   UNL     1      11.219  -7.576   5.953  1.00  0.00     0.004 C 
ENDBRANCH  11  12
ENDBRANCH  10  11
ENDBRANCH   9  10
ENDBRANCH   8   9
ENDBRANCH   1   8
TORSDOF 9
ENDMDL
