MODEL 1
REMARK VINA RESULT:    -5.364      0.000      0.000
REMARK INTER + INTRA:          -9.422
REMARK INTER:                  -8.187
REMARK INTRA:                  -1.235
REMARK UNBOUND:                -1.235
REMARK SMILES CC(=O)CCC=C(C)CCC=C(C)CCC=C(C)C
REMARK SMILES IDX 10 1 11 2 12 3 13 4 14 5 15 6 16 7 18 8 17 9 19 10 9 11 7 12
REMARK SMILES IDX 6 13 8 14 5 15 4 16 2 17 3 18 1 19
REMARK H PARENT
REMARK Flexibility Score: inf
ROOT
ATOM      1  C   UNL     1       5.174  10.743  47.247  1.00  0.00     0.032 C 
ENDROOT
BRANCH   1   2
ATOM      2  C   UNL     1       6.291   9.794  47.602  1.00  0.00    -0.028 C 
ATOM      3  C   UNL     1       7.575  10.162  47.816  1.00  0.00    -0.077 C 
ATOM      4  C   UNL     1       8.577   9.093  48.169  1.00  0.00     0.039 C 
BRANCH   3   5
ATOM      5  C   UNL     1       8.066  11.587  47.649  1.00  0.00     0.034 C 
BRANCH   5   6
ATOM      6  C   UNL     1       8.746  12.076  48.932  1.00  0.00     0.032 C 
BRANCH   6   7
ATOM      7  C   UNL     1      10.129  12.600  48.636  1.00  0.00    -0.028 C 
ATOM      8  C   UNL     1      12.574  12.766  48.822  1.00  0.00     0.039 C 
ATOM      9  C   UNL     1      11.265  12.113  49.182  1.00  0.00    -0.080 C 
ATOM     10  C   UNL     1      11.258  10.929  50.121  1.00  0.00     0.039 C 
ENDBRANCH   6   7
ENDBRANCH   5   6
ENDBRANCH   3   5
ENDBRANCH   1   2
BRANCH   1  11
ATOM     11  C   UNL     1       3.925   9.973  46.802  1.00  0.00     0.034 C 
BRANCH  11  12
ATOM     12  C   UNL     1       2.772  10.233  47.746  1.00  0.00    -0.077 C 
ATOM     13  C   UNL     1       2.647  11.456  48.310  1.00  0.00    -0.028 C 
ATOM     14  C   UNL     1       1.809   9.110  48.052  1.00  0.00     0.039 C 
BRANCH  13  15
ATOM     15  C   UNL     1       1.531  11.857  49.243  1.00  0.00     0.035 C 
BRANCH  15  16
ATOM     16  C   UNL     1       0.601  12.873  48.571  1.00  0.00     0.079 C 
BRANCH  16  17
ATOM     17  C   UNL     1      -0.359  12.184  47.641  1.00  0.00     0.130 C 
ATOM     18  O   UNL     1      -1.093  11.306  48.070  1.00  0.00    -0.300 OA
ATOM     19  C   UNL     1      -0.406  12.549  46.189  1.00  0.00     0.087 C 
ENDBRANCH  16  17
ENDBRANCH  15  16
ENDBRANCH  13  15
ENDBRANCH  11  12
ENDBRANCH   1  11
TORSDOF 9
ENDMDL
MODEL 2
REMARK VINA RESULT:    -5.321     13.037     15.938
REMARK INTER + INTRA:          -9.356
REMARK INTER:                  -6.102
REMARK INTRA:                  -3.254
REMARK UNBOUND:                -1.235
REMARK SMILES CC(=O)CCC=C(C)CCC=C(C)CCC=C(C)C
REMARK SMILES IDX 10 1 11 2 12 3 13 4 14 5 15 6 16 7 18 8 17 9 19 10 9 11 7 12
REMARK SMILES IDX 6 13 8 14 5 15 4 16 2 17 3 18 1 19
REMARK H PARENT
REMARK Flexibility Score: inf
ROOT
ATOM      1  C   UNL     1       1.880  22.136  37.460  1.00  0.00     0.032 C 
ENDROOT
BRANCH   1   2
ATOM      2  C   UNL     1       1.126  20.852  37.698  1.00  0.00    -0.028 C 
ATOM      3  C   UNL     1      -0.082  20.768  38.302  1.00  0.00    -0.077 C 
ATOM      4  C   UNL     1      -0.711  19.408  38.460  1.00  0.00     0.039 C 
BRANCH   3   5
ATOM      5  C   UNL     1      -0.799  21.969  38.887  1.00  0.00     0.034 C 
BRANCH   5   6
ATOM      6  C   UNL     1      -1.072  21.759  40.380  1.00  0.00     0.032 C 
BRANCH   6   7
ATOM      7  C   UNL     1      -0.026  22.452  41.216  1.00  0.00    -0.028 C 
ATOM      8  C   UNL     1       1.990  22.652  42.609  1.00  0.00     0.039 C 
ATOM      9  C   UNL     1       1.049  21.838  41.760  1.00  0.00    -0.080 C 
ATOM     10  C   UNL     1       1.337  20.373  41.526  1.00  0.00     0.039 C 
ENDBRANCH   6   7
ENDBRANCH   5   6
ENDBRANCH   3   5
ENDBRANCH   1   2
BRANCH   1  11
ATOM     11  C   UNL     1       3.023  22.293  38.470  1.00  0.00     0.034 C 
BRANCH  11  12
ATOM     12  C   UNL     1       2.982  23.659  39.117  1.00  0.00    -0.077 C 
ATOM     13  C   UNL     1       1.932  24.474  38.864  1.00  0.00    -0.028 C 
ATOM     14  C   UNL     1       4.128  24.085  40.004  1.00  0.00     0.039 C 
BRANCH  13  15
ATOM     15  C   UNL     1       1.752  25.846  39.465  1.00  0.00     0.035 C 
BRANCH  15  16
ATOM     16  C   UNL     1       0.502  25.891  40.351  1.00  0.00     0.079 C 
BRANCH  16  17
ATOM     17  C   UNL     1       0.878  26.077  41.795  1.00  0.00     0.130 C 
ATOM     18  O   UNL     1       0.046  25.884  42.668  1.00  0.00    -0.300 OA
ATOM     19  C   UNL     1       2.259  26.521  42.168  1.00  0.00     0.087 C 
ENDBRANCH  16  17
ENDBRANCH  15  16
ENDBRANCH  13  15
ENDBRANCH  11  12
ENDBRANCH   1  11
TORSDOF 9
ENDMDL
MODEL 3
REMARK VINA RESULT:    -5.246      3.168      7.770
REMARK INTER + INTRA:          -9.241
REMARK INTER:                  -6.545
REMARK INTRA:                  -2.696
REMARK UNBOUND:                -1.235
REMARK SMILES CC(=O)CCC=C(C)CCC=C(C)CCC=C(C)C
REMARK SMILES IDX 10 1 11 2 12 3 13 4 14 5 15 6 16 7 18 8 17 9 19 10 9 11 7 12
REMARK SMILES IDX 6 13 8 14 5 15 4 16 2 17 3 18 1 19
REMARK H PARENT
REMARK Flexibility Score: inf
ROOT
ATOM      1  C   UNL     1       2.515  13.443  45.490  1.00  0.00     0.032 C 
ENDROOT
BRANCH   1   2
ATOM      2  C   UNL     1       1.127  13.835  45.929  1.00  0.00    -0.028 C 
ATOM      3  C   UNL     1       0.683  13.795  47.206  1.00  0.00    -0.077 C 
ATOM      4  C   UNL     1      -0.733  14.227  47.486  1.00  0.00     0.039 C 
BRANCH   3   5
ATOM      5  C   UNL     1       1.520  13.271  48.357  1.00  0.00     0.034 C 
BRANCH   5   6
ATOM      6  C   UNL     1       0.820  12.091  49.039  1.00  0.00     0.032 C 
BRANCH   6   7
ATOM      7  C   UNL     1       1.478  10.788  48.659  1.00  0.00    -0.028 C 
ATOM      8  C   UNL     1       1.753   8.654  47.471  1.00  0.00     0.039 C 
ATOM      9  C   UNL     1       1.010   9.942  47.714  1.00  0.00    -0.080 C 
ATOM     10  C   UNL     1      -0.216  10.261  46.891  1.00  0.00     0.039 C 
ENDBRANCH   6   7
ENDBRANCH   5   6
ENDBRANCH   3   5
ENDBRANCH   1   2
BRANCH   1  11
ATOM     11  C   UNL     1       2.496  12.096  44.758  1.00  0.00     0.034 C 
BRANCH  11  12
ATOM     12  C   UNL     1       3.522  11.153  45.346  1.00  0.00    -0.077 C 
ATOM     13  C   UNL     1       4.168  11.509  46.479  1.00  0.00    -0.028 C 
ATOM     14  C   UNL     1       3.814   9.852  44.635  1.00  0.00     0.039 C 
BRANCH  13  15
ATOM     15  C   UNL     1       5.190  10.653  47.186  1.00  0.00     0.035 C 
BRANCH  15  16
ATOM     16  C   UNL     1       6.578  11.299  47.122  1.00  0.00     0.079 C 
BRANCH  16  17
ATOM     17  C   UNL     1       7.530  10.610  48.060  1.00  0.00     0.130 C 
ATOM     18  O   UNL     1       8.264  11.276  48.776  1.00  0.00    -0.300 OA
ATOM     19  C   UNL     1       7.602   9.114  48.107  1.00  0.00     0.087 C 
ENDBRANCH  16  17
ENDBRANCH  15  16
ENDBRANCH  13  15
ENDBRANCH  11  12
ENDBRANCH   1  11
TORSDOF 9
ENDMDL
MODEL 4
REMARK VINA RESULT:    -5.219      7.297     10.935
REMARK INTER + INTRA:          -9.200
REMARK INTER:                  -6.567
REMARK INTRA:                  -2.634
REMARK UNBOUND:                -1.235
REMARK SMILES CC(=O)CCC=C(C)CCC=C(C)CCC=C(C)C
REMARK SMILES IDX 10 1 11 2 12 3 13 4 14 5 15 6 16 7 18 8 17 9 19 10 9 11 7 12
REMARK SMILES IDX 6 13 8 14 5 15 4 16 2 17 3 18 1 19
REMARK H PARENT
REMARK Flexibility Score: inf
ROOT
ATOM      1  C   UNL     1      17.280  10.316  51.806  1.00  0.00     0.032 C 
ENDROOT
BRANCH   1   2
ATOM      2  C   UNL     1      17.942  11.526  52.416  1.00  0.00    -0.028 C 
ATOM      3  C   UNL     1      18.411  12.583  51.714  1.00  0.00    -0.077 C 
ATOM      4  C   UNL     1      19.044  13.722  52.471  1.00  0.00     0.039 C 
BRANCH   3   5
ATOM      5  C   UNL     1      18.392  12.643  50.199  1.00  0.00     0.034 C 
BRANCH   5   6
ATOM      6  C   UNL     1      17.168  13.422  49.706  1.00  0.00     0.032 C 
BRANCH   6   7
ATOM      7  C   UNL     1      16.563  12.756  48.497  1.00  0.00    -0.028 C 
ATOM      8  C   UNL     1      14.776  11.964  47.005  1.00  0.00     0.039 C 
ATOM      9  C   UNL     1      15.238  12.703  48.235  1.00  0.00    -0.080 C 
ATOM     10  C   UNL     1      14.218  13.375  49.126  1.00  0.00     0.039 C 
ENDBRANCH   6   7
ENDBRANCH   5   6
ENDBRANCH   3   5
ENDBRANCH   1   2
BRANCH   1  11
ATOM     11  C   UNL     1      15.769  10.533  51.665  1.00  0.00     0.034 C 
BRANCH  11  12
ATOM     12  C   UNL     1      15.244   9.849  50.423  1.00  0.00    -0.077 C 
ATOM     13  C   UNL     1      13.908   9.798  50.216  1.00  0.00    -0.028 C 
ATOM     14  C   UNL     1      16.226   9.218  49.464  1.00  0.00     0.039 C 
BRANCH  13  15
ATOM     15  C   UNL     1      13.254   9.175  49.008  1.00  0.00     0.035 C 
BRANCH  15  16
ATOM     16  C   UNL     1      11.730   9.318  49.082  1.00  0.00     0.079 C 
BRANCH  16  17
ATOM     17  C   UNL     1      11.295  10.663  48.568  1.00  0.00     0.130 C 
ATOM     18  O   UNL     1      11.358  10.903  47.371  1.00  0.00    -0.300 OA
ATOM     19  C   UNL     1      10.808  11.716  49.514  1.00  0.00     0.087 C 
ENDBRANCH  16  17
ENDBRANCH  15  16
ENDBRANCH  13  15
ENDBRANCH  11  12
ENDBRANCH   1  11
TORSDOF 9
ENDMDL
MODEL 5
REMARK VINA RESULT:    -5.194     13.252     14.631
REMARK INTER + INTRA:          -9.162
REMARK INTER:                  -7.717
REMARK INTRA:                  -1.445
REMARK UNBOUND:                -1.235
REMARK SMILES CC(=O)CCC=C(C)CCC=C(C)CCC=C(C)C
REMARK SMILES IDX 10 1 11 2 12 3 13 4 14 5 15 6 16 7 18 8 17 9 19 10 9 11 7 12
REMARK SMILES IDX 6 13 8 14 5 15 4 16 2 17 3 18 1 19
REMARK H PARENT
REMARK Flexibility Score: inf
ROOT
ATOM      1  C   UNL     1       5.579  22.793  39.849  1.00  0.00     0.032 C 
ENDROOT
BRANCH   1   2
ATOM      2  C   UNL     1       6.874  23.433  40.282  1.00  0.00    -0.028 C 
ATOM      3  C   UNL     1       7.964  23.578  39.492  1.00  0.00    -0.077 C 
ATOM      4  C   UNL     1       9.183  24.247  40.072  1.00  0.00     0.039 C 
BRANCH   3   5
ATOM      5  C   UNL     1       8.038  23.036  38.078  1.00  0.00     0.034 C 
BRANCH   5   6
ATOM      6  C   UNL     1       9.257  22.123  37.914  1.00  0.00     0.032 C 
BRANCH   6   7
ATOM      7  C   UNL     1       8.881  20.683  38.159  1.00  0.00    -0.028 C 
ATOM      8  C   UNL     1       8.802  18.537  39.355  1.00  0.00     0.039 C 
ATOM      9  C   UNL     1       9.213  19.984  39.267  1.00  0.00    -0.080 C 
ATOM     10  C   UNL     1       9.964  20.615  40.417  1.00  0.00     0.039 C 
ENDBRANCH   6   7
ENDBRANCH   5   6
ENDBRANCH   3   5
ENDBRANCH   1   2
BRANCH   1  11
ATOM     11  C   UNL     1       4.385  23.693  40.184  1.00  0.00     0.034 C 
BRANCH  11  12
ATOM     12  C   UNL     1       3.281  23.520  39.166  1.00  0.00    -0.077 C 
ATOM     13  C   UNL     1       3.256  22.400  38.408  1.00  0.00    -0.028 C 
ATOM     14  C   UNL     1       2.254  24.617  39.004  1.00  0.00     0.039 C 
BRANCH  13  15
ATOM     15  C   UNL     1       2.198  22.088  37.379  1.00  0.00     0.035 C 
BRANCH  15  16
ATOM     16  C   UNL     1       1.387  20.854  37.791  1.00  0.00     0.079 C 
BRANCH  16  17
ATOM     17  C   UNL     1      -0.054  21.216  38.023  1.00  0.00     0.130 C 
ATOM     18  O   UNL     1      -0.427  22.366  37.842  1.00  0.00    -0.300 OA
ATOM     19  C   UNL     1      -1.030  20.183  38.496  1.00  0.00     0.087 C 
ENDBRANCH  16  17
ENDBRANCH  15  16
ENDBRANCH  13  15
ENDBRANCH  11  12
ENDBRANCH   1  11
TORSDOF 9
ENDMDL
MODEL 6
REMARK VINA RESULT:    -5.185     13.675     14.850
REMARK INTER + INTRA:          -9.148
REMARK INTER:                  -7.902
REMARK INTRA:                  -1.246
REMARK UNBOUND:                -1.235
REMARK SMILES CC(=O)CCC=C(C)CCC=C(C)CCC=C(C)C
REMARK SMILES IDX 10 1 11 2 12 3 13 4 14 5 15 6 16 7 18 8 17 9 19 10 9 11 7 12
REMARK SMILES IDX 6 13 8 14 5 15 4 16 2 17 3 18 1 19
REMARK H PARENT
REMARK Flexibility Score: inf
ROOT
ATOM      1  C   UNL     1       5.413  22.825  39.187  1.00  0.00     0.032 C 
ENDROOT
BRANCH   1   2
ATOM      2  C   UNL     1       6.620  23.665  38.849  1.00  0.00    -0.028 C 
ATOM      3  C   UNL     1       7.893  23.208  38.824  1.00  0.00    -0.077 C 
ATOM      4  C   UNL     1       8.992  24.173  38.459  1.00  0.00     0.039 C 
BRANCH   3   5
ATOM      5  C   UNL     1       8.272  21.793  39.212  1.00  0.00     0.034 C 
BRANCH   5   6
ATOM      6  C   UNL     1       9.012  21.099  38.063  1.00  0.00     0.032 C 
BRANCH   6   7
ATOM      7  C   UNL     1      10.431  20.780  38.460  1.00  0.00    -0.028 C 
ATOM      8  C   UNL     1      12.883  20.774  38.284  1.00  0.00     0.039 C 
ATOM      9  C   UNL     1      11.526  21.208  37.793  1.00  0.00    -0.080 C 
ATOM     10  C   UNL     1      11.426  22.117  36.590  1.00  0.00     0.039 C 
ENDBRANCH   6   7
ENDBRANCH   5   6
ENDBRANCH   3   5
ENDBRANCH   1   2
BRANCH   1  11
ATOM     11  C   UNL     1       4.250  23.706  39.659  1.00  0.00     0.034 C 
BRANCH  11  12
ATOM     12  C   UNL     1       3.017  23.457  38.821  1.00  0.00    -0.077 C 
ATOM     13  C   UNL     1       2.863  22.257  38.218  1.00  0.00    -0.028 C 
ATOM     14  C   UNL     1       2.004  24.567  38.660  1.00  0.00     0.039 C 
BRANCH  13  15
ATOM     15  C   UNL     1       1.670  21.867  37.380  1.00  0.00     0.035 C 
BRANCH  15  16
ATOM     16  C   UNL     1       0.911  20.702  38.026  1.00  0.00     0.079 C 
BRANCH  16  17
ATOM     17  C   UNL     1       0.215  21.151  39.281  1.00  0.00     0.130 C 
ATOM     18  O   UNL     1       0.505  20.639  40.352  1.00  0.00    -0.300 OA
ATOM     19  C   UNL     1      -0.849  22.205  39.225  1.00  0.00     0.087 C 
ENDBRANCH  16  17
ENDBRANCH  15  16
ENDBRANCH  13  15
ENDBRANCH  11  12
ENDBRANCH   1  11
TORSDOF 9
ENDMDL
MODEL 7
REMARK VINA RESULT:    -5.122     12.859     15.759
REMARK INTER + INTRA:          -9.052
REMARK INTER:                  -6.623
REMARK INTRA:                  -2.429
REMARK UNBOUND:                -1.235
REMARK SMILES CC(=O)CCC=C(C)CCC=C(C)CCC=C(C)C
REMARK SMILES IDX 10 1 11 2 12 3 13 4 14 5 15 6 16 7 18 8 17 9 19 10 9 11 7 12
REMARK SMILES IDX 6 13 8 14 5 15 4 16 2 17 3 18 1 19
REMARK H PARENT
REMARK Flexibility Score: inf
ROOT
ATOM      1  C   UNL     1       1.850  22.808  37.383  1.00  0.00     0.032 C 
ENDROOT
BRANCH   1   2
ATOM      2  C   UNL     1       0.505  22.136  37.498  1.00  0.00    -0.028 C 
ATOM      3  C   UNL     1       0.288  20.947  38.106  1.00  0.00    -0.077 C 
ATOM      4  C   UNL     1      -1.119  20.408  38.143  1.00  0.00     0.039 C 
BRANCH   3   5
ATOM      5  C   UNL     1       1.402  20.101  38.690  1.00  0.00     0.034 C 
BRANCH   5   6
ATOM      6  C   UNL     1       1.091  19.729  40.144  1.00  0.00     0.032 C 
BRANCH   6   7
ATOM      7  C   UNL     1       2.074  20.381  41.083  1.00  0.00    -0.028 C 
ATOM      8  C   UNL     1       2.975  22.125  42.562  1.00  0.00     0.039 C 
ATOM      9  C   UNL     1       1.884  21.580  41.678  1.00  0.00    -0.080 C 
ATOM     10  C   UNL     1       0.609  22.370  41.495  1.00  0.00     0.039 C 
ENDBRANCH   6   7
ENDBRANCH   5   6
ENDBRANCH   3   5
ENDBRANCH   1   2
BRANCH   1  11
ATOM     11  C   UNL     1       1.880  24.110  38.193  1.00  0.00     0.034 C 
BRANCH  11  12
ATOM     12  C   UNL     1       3.044  24.113  39.158  1.00  0.00    -0.077 C 
ATOM     13  C   UNL     1       4.109  23.320  38.905  1.00  0.00    -0.028 C 
ATOM     14  C   UNL     1       2.969  24.981  40.393  1.00  0.00     0.039 C 
BRANCH  13  15
ATOM     15  C   UNL     1       5.346  23.249  39.767  1.00  0.00     0.035 C 
BRANCH  15  16
ATOM     16  C   UNL     1       6.589  22.982  38.911  1.00  0.00     0.079 C 
BRANCH  16  17
ATOM     17  C   UNL     1       7.644  22.270  39.712  1.00  0.00     0.130 C 
ATOM     18  O   UNL     1       7.813  22.560  40.887  1.00  0.00    -0.300 OA
ATOM     19  C   UNL     1       8.506  21.224  39.073  1.00  0.00     0.087 C 
ENDBRANCH  16  17
ENDBRANCH  15  16
ENDBRANCH  13  15
ENDBRANCH  11  12
ENDBRANCH   1  11
TORSDOF 9
ENDMDL
MODEL 8
REMARK VINA RESULT:    -5.046     14.794     16.945
REMARK INTER + INTRA:          -8.936
REMARK INTER:                  -5.734
REMARK INTRA:                  -3.202
REMARK UNBOUND:                -1.235
REMARK SMILES CC(=O)CCC=C(C)CCC=C(C)CCC=C(C)C
REMARK SMILES IDX 10 1 11 2 12 3 13 4 14 5 15 6 16 7 18 8 17 9 19 10 9 11 7 12
REMARK SMILES IDX 6 13 8 14 5 15 4 16 2 17 3 18 1 19
REMARK H PARENT
REMARK Flexibility Score: inf
ROOT
ATOM      1  C   UNL     1       9.251  20.232  39.312  1.00  0.00     0.032 C 
ENDROOT
BRANCH   1   2
ATOM      2  C   UNL     1       7.995  20.897  39.817  1.00  0.00    -0.028 C 
ATOM      3  C   UNL     1       7.448  22.014  39.285  1.00  0.00    -0.077 C 
ATOM      4  C   UNL     1       6.183  22.554  39.901  1.00  0.00     0.039 C 
BRANCH   3   5
ATOM      5  C   UNL     1       8.085  22.785  38.146  1.00  0.00     0.034 C 
BRANCH   5   6
ATOM      6  C   UNL     1       8.286  24.253  38.535  1.00  0.00     0.032 C 
BRANCH   6   7
ATOM      7  C   UNL     1       9.736  24.528  38.848  1.00  0.00    -0.028 C 
ATOM      8  C   UNL     1      11.725  24.853  40.255  1.00  0.00     0.039 C 
ATOM      9  C   UNL     1      10.265  24.519  40.091  1.00  0.00    -0.080 C 
ATOM     10  C   UNL     1       9.441  24.170  41.309  1.00  0.00     0.039 C 
ENDBRANCH   6   7
ENDBRANCH   5   6
ENDBRANCH   3   5
ENDBRANCH   1   2
BRANCH   1  11
ATOM     11  C   UNL     1      10.455  20.605  40.184  1.00  0.00     0.034 C 
BRANCH  11  12
ATOM     12  C   UNL     1      11.589  21.130  39.334  1.00  0.00    -0.077 C 
ATOM     13  C   UNL     1      11.417  21.227  37.996  1.00  0.00    -0.028 C 
ATOM     14  C   UNL     1      12.892  21.506  40.001  1.00  0.00     0.039 C 
BRANCH  13  15
ATOM     15  C   UNL     1      12.453  21.761  37.037  1.00  0.00     0.035 C 
BRANCH  15  16
ATOM     16  C   UNL     1      11.890  22.936  36.230  1.00  0.00     0.079 C 
BRANCH  16  17
ATOM     17  C   UNL     1      12.652  24.199  36.525  1.00  0.00     0.130 C 
ATOM     18  O   UNL     1      12.245  25.267  36.095  1.00  0.00    -0.300 OA
ATOM     19  C   UNL     1      13.918  24.152  37.325  1.00  0.00     0.087 C 
ENDBRANCH  16  17
ENDBRANCH  15  16
ENDBRANCH  13  15
ENDBRANCH  11  12
ENDBRANCH   1  11
TORSDOF 9
ENDMDL
MODEL 9
REMARK VINA RESULT:    -3.552      4.600      7.691
REMARK INTER + INTRA:          -6.656
REMARK INTER:                  -3.485
REMARK INTRA:                  -3.171
REMARK UNBOUND:                -1.235
REMARK SMILES CC(=O)CCC=C(C)CCC=C(C)CCC=C(C)C
REMARK SMILES IDX 10 1 11 2 12 3 13 4 14 5 15 6 16 7 18 8 17 9 19 10 9 11 7 12
REMARK SMILES IDX 6 13 8 14 5 15 4 16 2 17 3 18 1 19
REMARK H PARENT
REMARK Flexibility Score: inf
ROOT
ATOM      1  C   UNL     1       1.874  11.393  48.940  1.00  0.00     0.032 C 
ENDROOT
BRANCH   1   2
ATOM      2  C   UNL     1       1.045  12.634  48.723  1.00  0.00    -0.028 C 
ATOM      3  C   UNL     1      -0.190  12.648  48.169  1.00  0.00    -0.077 C 
ATOM      4  C   UNL     1      -0.895  13.972  48.026  1.00  0.00     0.039 C 
BRANCH   3   5
ATOM      5  C   UNL     1      -0.866  11.405  47.624  1.00  0.00     0.034 C 
BRANCH   5   6
ATOM      6  C   UNL     1      -1.125  11.548  46.120  1.00  0.00     0.032 C 
BRANCH   6   7
ATOM      7  C   UNL     1       0.050  11.038  45.326  1.00  0.00    -0.028 C 
ATOM      8  C   UNL     1       2.049  11.173  43.901  1.00  0.00     0.039 C 
ATOM      9  C   UNL     1       0.947  11.827  44.693  1.00  0.00    -0.080 C 
ATOM     10  C   UNL     1       0.882  13.335  44.774  1.00  0.00     0.039 C 
ENDBRANCH   6   7
ENDBRANCH   5   6
ENDBRANCH   3   5
ENDBRANCH   1   2
BRANCH   1  11
ATOM     11  C   UNL     1       2.988  11.290  47.891  1.00  0.00     0.034 C 
BRANCH  11  12
ATOM     12  C   UNL     1       3.013   9.911  47.271  1.00  0.00    -0.077 C 
ATOM     13  C   UNL     1       1.986   9.064  47.510  1.00  0.00    -0.028 C 
ATOM     14  C   UNL     1       4.199   9.509  46.426  1.00  0.00     0.039 C 
BRANCH  13  15
ATOM     15  C   UNL     1       1.871   7.675  46.932  1.00  0.00     0.035 C 
BRANCH  15  16
ATOM     16  C   UNL     1       0.640   7.565  46.026  1.00  0.00     0.079 C 
BRANCH  16  17
ATOM     17  C   UNL     1       1.047   7.500  44.579  1.00  0.00     0.130 C 
ATOM     18  O   UNL     1       0.279   7.896  43.715  1.00  0.00    -0.300 OA
ATOM     19  C   UNL     1       2.377   6.933  44.189  1.00  0.00     0.087 C 
ENDBRANCH  16  17
ENDBRANCH  15  16
ENDBRANCH  13  15
ENDBRANCH  11  12
ENDBRANCH   1  11
TORSDOF 9
ENDMDL
