MODEL 1
REMARK VINA RESULT:    -5.895      0.000      0.000
REMARK INTER + INTRA:          -6.842
REMARK INTER:                  -6.584
REMARK INTRA:                  -0.258
REMARK UNBOUND:                -0.258
REMARK SMILES CC=C(C)C=CC=C(C)C
REMARK SMILES IDX 5 1 6 2 3 3 1 4 2 5 4 6 7 7 8 8 9 9 10 10
REMARK H PARENT
REMARK Flexibility Score: inf
ROOT
ATOM      1  C   UNL     1      17.148  28.997  24.699  1.00  0.00     0.003 C 
ATOM      2  C   UNL     1      16.295  29.968  24.352  1.00  0.00     0.000 C 
ENDROOT
BRANCH   1   3
ATOM      3  C   UNL     1      18.240  29.182  25.691  1.00  0.00    -0.055 C 
ATOM      4  C   UNL     1      19.449  30.743  27.249  1.00  0.00     0.036 C 
ATOM      5  C   UNL     1      18.428  30.415  26.199  1.00  0.00    -0.027 C 
ATOM      6  C   UNL     1      19.061  28.000  26.155  1.00  0.00     0.044 C 
ENDBRANCH   1   3
BRANCH   2   7
ATOM      7  C   UNL     1      15.235  29.719  23.352  1.00  0.00    -0.001 C 
ATOM      8  C   UNL     1      14.899  30.588  22.380  1.00  0.00    -0.076 C 
ATOM      9  C   UNL     1      15.591  31.919  22.226  1.00  0.00     0.039 C 
ATOM     10  C   UNL     1      13.799  30.210  21.426  1.00  0.00     0.039 C 
ENDBRANCH   2   7
TORSDOF 2
ENDMDL
MODEL 2
REMARK VINA RESULT:    -5.838      0.923      1.975
REMARK INTER + INTRA:          -6.778
REMARK INTER:                  -6.539
REMARK INTRA:                  -0.238
REMARK UNBOUND:                -0.258
REMARK SMILES CC=C(C)C=CC=C(C)C
REMARK SMILES IDX 5 1 6 2 3 3 1 4 2 5 4 6 7 7 8 8 9 9 10 10
REMARK H PARENT
REMARK Flexibility Score: inf
ROOT
ATOM      1  C   UNL     1      17.257  30.470  24.619  1.00  0.00     0.003 C 
ATOM      2  C   UNL     1      16.167  29.883  24.110  1.00  0.00     0.000 C 
ENDROOT
BRANCH   1   3
ATOM      3  C   UNL     1      18.201  29.785  25.540  1.00  0.00    -0.055 C 
ATOM      4  C   UNL     1      19.368  27.652  26.181  1.00  0.00     0.036 C 
ATOM      5  C   UNL     1      18.403  28.464  25.369  1.00  0.00    -0.027 C 
ATOM      6  C   UNL     1      18.954  30.573  26.589  1.00  0.00     0.044 C 
ENDBRANCH   1   3
BRANCH   2   7
ATOM      7  C   UNL     1      15.263  30.625  23.204  1.00  0.00    -0.001 C 
ATOM      8  C   UNL     1      14.511  30.043  22.252  1.00  0.00    -0.076 C 
ATOM      9  C   UNL     1      14.525  28.553  22.022  1.00  0.00     0.039 C 
ATOM     10  C   UNL     1      13.633  30.916  21.396  1.00  0.00     0.039 C 
ENDBRANCH   2   7
TORSDOF 2
ENDMDL
MODEL 3
REMARK VINA RESULT:    -5.831      0.991      5.598
REMARK INTER + INTRA:          -6.770
REMARK INTER:                  -6.513
REMARK INTRA:                  -0.257
REMARK UNBOUND:                -0.258
REMARK SMILES CC=C(C)C=CC=C(C)C
REMARK SMILES IDX 5 1 6 2 3 3 1 4 2 5 4 6 7 7 8 8 9 9 10 10
REMARK H PARENT
REMARK Flexibility Score: inf
ROOT
ATOM      1  C   UNL     1      16.562  30.574  24.570  1.00  0.00     0.003 C 
ATOM      2  C   UNL     1      17.882  30.362  24.645  1.00  0.00     0.000 C 
ENDROOT
BRANCH   1   3
ATOM      3  C   UNL     1      15.796  30.526  23.297  1.00  0.00    -0.055 C 
ATOM      4  C   UNL     1      14.282  29.210  21.780  1.00  0.00     0.036 C 
ATOM      5  C   UNL     1      15.142  29.388  22.997  1.00  0.00    -0.027 C 
ATOM      6  C   UNL     1      15.709  31.748  22.410  1.00  0.00     0.044 C 
ENDBRANCH   1   3
BRANCH   2   7
ATOM      7  C   UNL     1      18.585  30.433  25.944  1.00  0.00    -0.001 C 
ATOM      8  C   UNL     1      19.011  29.355  26.627  1.00  0.00    -0.076 C 
ATOM      9  C   UNL     1      18.803  27.951  26.115  1.00  0.00     0.039 C 
ATOM     10  C   UNL     1      19.714  29.567  27.940  1.00  0.00     0.039 C 
ENDBRANCH   2   7
TORSDOF 2
ENDMDL
MODEL 4
REMARK VINA RESULT:    -5.644      1.172      5.434
REMARK INTER + INTRA:          -6.562
REMARK INTER:                  -6.330
REMARK INTRA:                  -0.233
REMARK UNBOUND:                -0.258
REMARK SMILES CC=C(C)C=CC=C(C)C
REMARK SMILES IDX 5 1 6 2 3 3 1 4 2 5 4 6 7 7 8 8 9 9 10 10
REMARK H PARENT
REMARK Flexibility Score: inf
ROOT
ATOM      1  C   UNL     1      16.584  30.497  24.621  1.00  0.00     0.003 C 
ATOM      2  C   UNL     1      17.921  30.532  24.677  1.00  0.00     0.000 C 
ENDROOT
BRANCH   1   3
ATOM      3  C   UNL     1      15.816  30.549  23.350  1.00  0.00    -0.055 C 
ATOM      4  C   UNL     1      15.218  31.852  21.284  1.00  0.00     0.036 C 
ATOM      5  C   UNL     1      15.889  31.674  22.613  1.00  0.00    -0.027 C 
ATOM      6  C   UNL     1      15.036  29.343  22.878  1.00  0.00     0.044 C 
ENDBRANCH   1   3
BRANCH   2   7
ATOM      7  C   UNL     1      18.624  30.484  25.977  1.00  0.00    -0.001 C 
ATOM      8  C   UNL     1      19.000  29.345  26.587  1.00  0.00    -0.076 C 
ATOM      9  C   UNL     1      18.731  27.990  25.983  1.00  0.00     0.039 C 
ATOM     10  C   UNL     1      19.709  29.438  27.911  1.00  0.00     0.039 C 
ENDBRANCH   2   7
TORSDOF 2
ENDMDL
MODEL 5
REMARK VINA RESULT:    -5.202      1.132      5.559
REMARK INTER + INTRA:          -6.068
REMARK INTER:                  -5.869
REMARK INTRA:                  -0.199
REMARK UNBOUND:                -0.258
REMARK SMILES CC=C(C)C=CC=C(C)C
REMARK SMILES IDX 5 1 6 2 3 3 1 4 2 5 4 6 7 7 8 8 9 9 10 10
REMARK H PARENT
REMARK Flexibility Score: inf
ROOT
ATOM      1  C   UNL     1      15.282  30.159  22.964  1.00  0.00     0.003 C 
ATOM      2  C   UNL     1      16.169  30.327  23.952  1.00  0.00     0.000 C 
ENDROOT
BRANCH   1   3
ATOM      3  C   UNL     1      14.594  31.285  22.281  1.00  0.00    -0.055 C 
ATOM      4  C   UNL     1      12.431  32.478  21.811  1.00  0.00     0.036 C 
ATOM      5  C   UNL     1      13.255  31.368  22.394  1.00  0.00    -0.027 C 
ATOM      6  C   UNL     1      15.394  32.335  21.543  1.00  0.00     0.044 C 
ENDBRANCH   1   3
BRANCH   2   7
ATOM      7  C   UNL     1      16.813  29.161  24.596  1.00  0.00    -0.001 C 
ATOM      8  C   UNL     1      17.922  29.238  25.353  1.00  0.00    -0.076 C 
ATOM      9  C   UNL     1      18.619  30.549  25.617  1.00  0.00     0.039 C 
ATOM     10  C   UNL     1      18.475  27.972  25.950  1.00  0.00     0.039 C 
ENDBRANCH   2   7
TORSDOF 2
ENDMDL
MODEL 6
REMARK VINA RESULT:    -5.129      5.477      7.525
REMARK INTER + INTRA:          -5.987
REMARK INTER:                  -5.742
REMARK INTRA:                  -0.244
REMARK UNBOUND:                -0.258
REMARK SMILES CC=C(C)C=CC=C(C)C
REMARK SMILES IDX 5 1 6 2 3 3 1 4 2 5 4 6 7 7 8 8 9 9 10 10
REMARK H PARENT
REMARK Flexibility Score: inf
ROOT
ATOM      1  C   UNL     1      10.380  33.556  22.828  1.00  0.00     0.003 C 
ATOM      2  C   UNL     1      11.567  33.086  22.426  1.00  0.00     0.000 C 
ENDROOT
BRANCH   1   3
ATOM      3  C   UNL     1       9.770  33.222  24.142  1.00  0.00    -0.055 C 
ATOM      4  C   UNL     1      10.117  32.420  26.500  1.00  0.00     0.036 C 
ATOM      5  C   UNL     1      10.577  32.745  25.109  1.00  0.00    -0.027 C 
ATOM      6  C   UNL     1       8.301  33.479  24.391  1.00  0.00     0.044 C 
ENDBRANCH   1   3
BRANCH   2   7
ATOM      7  C   UNL     1      12.113  33.451  21.101  1.00  0.00    -0.001 C 
ATOM      8  C   UNL     1      13.428  33.499  20.818  1.00  0.00    -0.076 C 
ATOM      9  C   UNL     1      14.479  33.177  21.850  1.00  0.00     0.039 C 
ATOM     10  C   UNL     1      13.851  33.887  19.427  1.00  0.00     0.039 C 
ENDBRANCH   2   7
TORSDOF 2
ENDMDL
MODEL 7
REMARK VINA RESULT:    -5.023      5.993      7.354
REMARK INTER + INTRA:          -5.868
REMARK INTER:                  -5.661
REMARK INTRA:                  -0.207
REMARK UNBOUND:                -0.258
REMARK SMILES CC=C(C)C=CC=C(C)C
REMARK SMILES IDX 5 1 6 2 3 3 1 4 2 5 4 6 7 7 8 8 9 9 10 10
REMARK H PARENT
REMARK Flexibility Score: inf
ROOT
ATOM      1  C   UNL     1      12.878  32.981  22.213  1.00  0.00     0.003 C 
ATOM      2  C   UNL     1      11.584  33.117  22.529  1.00  0.00     0.000 C 
ENDROOT
BRANCH   1   3
ATOM      3  C   UNL     1      13.472  33.496  20.952  1.00  0.00    -0.055 C 
ATOM      4  C   UNL     1      15.556  33.961  19.624  1.00  0.00     0.036 C 
ATOM      5  C   UNL     1      14.815  33.523  20.852  1.00  0.00    -0.027 C 
ATOM      6  C   UNL     1      12.583  33.910  19.801  1.00  0.00     0.044 C 
ENDBRANCH   1   3
BRANCH   2   7
ATOM      7  C   UNL     1      11.055  32.574  23.798  1.00  0.00    -0.001 C 
ATOM      8  C   UNL     1      10.116  33.184  24.544  1.00  0.00    -0.076 C 
ATOM      9  C   UNL     1       9.510  34.505  24.139  1.00  0.00     0.039 C 
ATOM     10  C   UNL     1       9.665  32.522  25.817  1.00  0.00     0.039 C 
ENDBRANCH   2   7
TORSDOF 2
ENDMDL
MODEL 8
REMARK VINA RESULT:    -5.008      4.681      7.448
REMARK INTER + INTRA:          -5.852
REMARK INTER:                  -5.625
REMARK INTRA:                  -0.226
REMARK UNBOUND:                -0.258
REMARK SMILES CC=C(C)C=CC=C(C)C
REMARK SMILES IDX 5 1 6 2 3 3 1 4 2 5 4 6 7 7 8 8 9 9 10 10
REMARK H PARENT
REMARK Flexibility Score: inf
ROOT
ATOM      1  C   UNL     1      10.959  33.337  23.755  1.00  0.00     0.003 C 
ATOM      2  C   UNL     1      11.625  32.618  22.843  1.00  0.00     0.000 C 
ENDROOT
BRANCH   1   3
ATOM      3  C   UNL     1       9.977  32.750  24.703  1.00  0.00    -0.055 C 
ATOM      4  C   UNL     1       7.691  31.758  25.047  1.00  0.00     0.036 C 
ATOM      5  C   UNL     1       8.763  32.412  24.226  1.00  0.00    -0.027 C 
ATOM      6  C   UNL     1      10.365  32.483  26.140  1.00  0.00     0.044 C 
ENDBRANCH   1   3
BRANCH   2   7
ATOM      7  C   UNL     1      12.584  33.267  21.924  1.00  0.00    -0.001 C 
ATOM      8  C   UNL     1      13.782  32.748  21.599  1.00  0.00    -0.076 C 
ATOM      9  C   UNL     1      14.260  31.431  22.158  1.00  0.00     0.039 C 
ATOM     10  C   UNL     1      14.665  33.513  20.650  1.00  0.00     0.039 C 
ENDBRANCH   2   7
TORSDOF 2
ENDMDL
MODEL 9
REMARK VINA RESULT:    -4.996      5.616      7.690
REMARK INTER + INTRA:          -5.837
REMARK INTER:                  -5.602
REMARK INTRA:                  -0.235
REMARK UNBOUND:                -0.258
REMARK SMILES CC=C(C)C=CC=C(C)C
REMARK SMILES IDX 5 1 6 2 3 3 1 4 2 5 4 6 7 7 8 8 9 9 10 10
REMARK H PARENT
REMARK Flexibility Score: inf
ROOT
ATOM      1  C   UNL     1      11.084  33.329  21.786  1.00  0.00     0.003 C 
ATOM      2  C   UNL     1      10.934  33.061  23.089  1.00  0.00     0.000 C 
ENDROOT
BRANCH   1   3
ATOM      3  C   UNL     1      12.408  33.489  21.131  1.00  0.00    -0.055 C 
ATOM      4  C   UNL     1      14.905  33.241  21.303  1.00  0.00     0.036 C 
ATOM      5  C   UNL     1      13.508  33.185  21.847  1.00  0.00    -0.027 C 
ATOM      6  C   UNL     1      12.499  33.916  19.683  1.00  0.00     0.044 C 
ENDBRANCH   1   3
BRANCH   2   7
ATOM      7  C   UNL     1       9.585  32.922  23.680  1.00  0.00    -0.001 C 
ATOM      8  C   UNL     1       9.358  32.691  24.986  1.00  0.00    -0.076 C 
ATOM      9  C   UNL     1      10.484  32.550  25.980  1.00  0.00     0.039 C 
ATOM     10  C   UNL     1       7.934  32.569  25.458  1.00  0.00     0.039 C 
ENDBRANCH   2   7
TORSDOF 2
ENDMDL
