MODEL 1
REMARK VINA RESULT:    -3.078      0.000      0.000
REMARK INTER + INTRA:          -3.731
REMARK INTER:                  -3.618
REMARK INTRA:                  -0.113
REMARK UNBOUND:                -0.113
REMARK SMILES O=C([O-])CCC(=O)[O-]
REMARK SMILES IDX 4 1 2 2 1 3 3 4 5 5 6 6 7 7 8 8
REMARK H PARENT
REMARK Flexibility Score: inf
ROOT
ATOM      1  C   UNL     1      36.284  60.221  55.930  1.00  0.00     0.059 C 
ENDROOT
BRANCH   1   2
ATOM      2  C   UNL     1      36.941  61.552  55.728  1.00  0.00     0.042 C 
ATOM      3  O   UNL     1      38.185  61.673  55.877  1.00  0.00    -0.550 OA
ATOM      4  O   UNL     1      36.185  62.649  55.335  1.00  0.00    -0.550 OA
ENDBRANCH   1   2
BRANCH   1   5
ATOM      5  C   UNL     1      37.119  59.083  55.334  1.00  0.00     0.059 C 
BRANCH   5   6
ATOM      6  C   UNL     1      37.498  58.072  56.373  1.00  0.00     0.042 C 
ATOM      7  O   UNL     1      37.450  56.842  56.109  1.00  0.00    -0.550 OA
ATOM      8  O   UNL     1      37.863  58.489  57.647  1.00  0.00    -0.550 OA
ENDBRANCH   5   6
ENDBRANCH   1   5
TORSDOF 3
ENDMDL
MODEL 2
REMARK VINA RESULT:    -3.055      0.554      4.124
REMARK INTER + INTRA:          -3.704
REMARK INTER:                  -3.661
REMARK INTRA:                  -0.043
REMARK UNBOUND:                -0.113
REMARK SMILES O=C([O-])CCC(=O)[O-]
REMARK SMILES IDX 4 1 2 2 1 3 3 4 5 5 6 6 7 7 8 8
REMARK H PARENT
REMARK Flexibility Score: inf
ROOT
ATOM      1  C   UNL     1      37.206  59.186  55.122  1.00  0.00     0.059 C 
ENDROOT
BRANCH   1   2
ATOM      2  C   UNL     1      37.329  57.864  55.816  1.00  0.00     0.042 C 
ATOM      3  O   UNL     1      36.894  56.818  55.267  1.00  0.00    -0.550 OA
ATOM      4  O   UNL     1      37.959  57.783  57.051  1.00  0.00    -0.550 OA
ENDBRANCH   1   2
BRANCH   1   5
ATOM      5  C   UNL     1      36.394  60.186  55.951  1.00  0.00     0.059 C 
BRANCH   5   6
ATOM      6  C   UNL     1      36.866  61.593  55.739  1.00  0.00     0.042 C 
ATOM      7  O   UNL     1      36.065  62.478  55.340  1.00  0.00    -0.550 OA
ATOM      8  O   UNL     1      38.202  61.914  55.941  1.00  0.00    -0.550 OA
ENDBRANCH   5   6
ENDBRANCH   1   5
TORSDOF 3
ENDMDL
MODEL 3
REMARK VINA RESULT:    -2.934     10.918     11.915
REMARK INTER + INTRA:          -3.562
REMARK INTER:                  -3.449
REMARK INTRA:                  -0.113
REMARK UNBOUND:                -0.113
REMARK SMILES O=C([O-])CCC(=O)[O-]
REMARK SMILES IDX 4 1 2 2 1 3 3 4 5 5 6 6 7 7 8 8
REMARK H PARENT
REMARK Flexibility Score: inf
ROOT
ATOM      1  C   UNL     1      32.063  51.335  51.050  1.00  0.00     0.059 C 
ENDROOT
BRANCH   1   2
ATOM      2  C   UNL     1      32.257  50.149  51.945  1.00  0.00     0.042 C 
ATOM      3  O   UNL     1      32.183  48.983  51.476  1.00  0.00    -0.550 OA
ATOM      4  O   UNL     1      32.560  50.333  53.288  1.00  0.00    -0.550 OA
ENDBRANCH   1   2
BRANCH   1   5
ATOM      5  C   UNL     1      32.278  50.972  49.577  1.00  0.00     0.059 C 
BRANCH   5   6
ATOM      6  C   UNL     1      33.701  51.181  49.159  1.00  0.00     0.042 C 
ATOM      7  O   UNL     1      34.375  50.222  48.699  1.00  0.00    -0.550 OA
ATOM      8  O   UNL     1      34.295  52.427  49.316  1.00  0.00    -0.550 OA
ENDBRANCH   5   6
ENDBRANCH   1   5
TORSDOF 3
ENDMDL
MODEL 4
REMARK VINA RESULT:    -2.929     11.191     11.740
REMARK INTER + INTRA:          -3.555
REMARK INTER:                  -3.472
REMARK INTRA:                  -0.083
REMARK UNBOUND:                -0.113
REMARK SMILES O=C([O-])CCC(=O)[O-]
REMARK SMILES IDX 4 1 2 2 1 3 3 4 5 5 6 6 7 7 8 8
REMARK H PARENT
REMARK Flexibility Score: inf
ROOT
ATOM      1  C   UNL     1      40.717  66.961  46.565  1.00  0.00     0.059 C 
ENDROOT
BRANCH   1   2
ATOM      2  C   UNL     1      39.850  67.225  47.758  1.00  0.00     0.042 C 
ATOM      3  O   UNL     1      38.606  67.362  47.619  1.00  0.00    -0.550 OA
ATOM      4  O   UNL     1      40.411  67.280  49.027  1.00  0.00    -0.550 OA
ENDBRANCH   1   2
BRANCH   1   5
ATOM      5  C   UNL     1      41.945  66.122  46.934  1.00  0.00     0.059 C 
BRANCH   5   6
ATOM      6  C   UNL     1      41.869  64.744  46.349  1.00  0.00     0.042 C 
ATOM      7  O   UNL     1      40.870  64.013  46.576  1.00  0.00    -0.550 OA
ATOM      8  O   UNL     1      42.923  64.255  45.587  1.00  0.00    -0.550 OA
ENDBRANCH   5   6
ENDBRANCH   1   5
TORSDOF 3
ENDMDL
MODEL 5
REMARK VINA RESULT:    -2.923      1.456      4.232
REMARK INTER + INTRA:          -3.549
REMARK INTER:                  -3.469
REMARK INTRA:                  -0.079
REMARK UNBOUND:                -0.113
REMARK SMILES O=C([O-])CCC(=O)[O-]
REMARK SMILES IDX 4 1 2 2 1 3 3 4 5 5 6 6 7 7 8 8
REMARK H PARENT
REMARK Flexibility Score: inf
ROOT
ATOM      1  C   UNL     1      37.558  58.372  56.478  1.00  0.00     0.059 C 
ENDROOT
BRANCH   1   2
ATOM      2  C   UNL     1      37.229  57.008  55.953  1.00  0.00     0.042 C 
ATOM      3  O   UNL     1      36.784  56.870  54.783  1.00  0.00    -0.550 OA
ATOM      4  O   UNL     1      37.452  55.886  56.741  1.00  0.00    -0.550 OA
ENDBRANCH   1   2
BRANCH   1   5
ATOM      5  C   UNL     1      37.173  59.469  55.480  1.00  0.00     0.059 C 
BRANCH   5   6
ATOM      6  C   UNL     1      36.240  60.470  56.091  1.00  0.00     0.042 C 
ATOM      7  O   UNL     1      35.607  60.188  57.142  1.00  0.00    -0.550 OA
ATOM      8  O   UNL     1      36.039  61.699  55.474  1.00  0.00    -0.550 OA
ENDBRANCH   5   6
ENDBRANCH   1   5
TORSDOF 3
ENDMDL
MODEL 6
REMARK VINA RESULT:    -2.904     11.130     11.970
REMARK INTER + INTRA:          -3.526
REMARK INTER:                  -3.448
REMARK INTRA:                  -0.078
REMARK UNBOUND:                -0.113
REMARK SMILES O=C([O-])CCC(=O)[O-]
REMARK SMILES IDX 4 1 2 2 1 3 3 4 5 5 6 6 7 7 8 8
REMARK H PARENT
REMARK Flexibility Score: inf
ROOT
ATOM      1  C   UNL     1      41.832  66.149  47.095  1.00  0.00     0.059 C 
ENDROOT
BRANCH   1   2
ATOM      2  C   UNL     1      41.719  64.770  46.521  1.00  0.00     0.042 C 
ATOM      3  O   UNL     1      42.635  64.312  45.787  1.00  0.00    -0.550 OA
ATOM      4  O   UNL     1      40.622  63.975  46.828  1.00  0.00    -0.550 OA
ENDBRANCH   1   2
BRANCH   1   5
ATOM      5  C   UNL     1      40.661  67.038  46.664  1.00  0.00     0.059 C 
BRANCH   5   6
ATOM      6  C   UNL     1      39.746  67.340  47.812  1.00  0.00     0.042 C 
ATOM      7  O   UNL     1      38.502  67.420  47.628  1.00  0.00    -0.550 OA
ATOM      8  O   UNL     1      40.271  67.574  49.076  1.00  0.00    -0.550 OA
ENDBRANCH   5   6
ENDBRANCH   1   5
TORSDOF 3
ENDMDL
MODEL 7
REMARK VINA RESULT:    -2.902     11.164     11.603
REMARK INTER + INTRA:          -3.524
REMARK INTER:                  -3.447
REMARK INTRA:                  -0.077
REMARK UNBOUND:                -0.113
REMARK SMILES O=C([O-])CCC(=O)[O-]
REMARK SMILES IDX 4 1 2 2 1 3 3 4 5 5 6 6 7 7 8 8
REMARK H PARENT
REMARK Flexibility Score: inf
ROOT
ATOM      1  C   UNL     1      40.649  67.034  46.662  1.00  0.00     0.059 C 
ENDROOT
BRANCH   1   2
ATOM      2  C   UNL     1      39.746  67.366  47.811  1.00  0.00     0.042 C 
ATOM      3  O   UNL     1      40.229  67.582  48.954  1.00  0.00    -0.550 OA
ATOM      4  O   UNL     1      38.376  67.475  47.611  1.00  0.00    -0.550 OA
ENDBRANCH   1   2
BRANCH   1   5
ATOM      5  C   UNL     1      41.827  66.161  47.103  1.00  0.00     0.059 C 
BRANCH   5   6
ATOM      6  C   UNL     1      41.741  64.782  46.522  1.00  0.00     0.042 C 
ATOM      7  O   UNL     1      42.648  64.358  45.758  1.00  0.00    -0.550 OA
ATOM      8  O   UNL     1      40.637  63.983  46.791  1.00  0.00    -0.550 OA
ENDBRANCH   5   6
ENDBRANCH   1   5
TORSDOF 3
ENDMDL
MODEL 8
REMARK VINA RESULT:    -2.876     10.696     12.098
REMARK INTER + INTRA:          -3.493
REMARK INTER:                  -3.376
REMARK INTRA:                  -0.117
REMARK UNBOUND:                -0.113
REMARK SMILES O=C([O-])CCC(=O)[O-]
REMARK SMILES IDX 4 1 2 2 1 3 3 4 5 5 6 6 7 7 8 8
REMARK H PARENT
REMARK Flexibility Score: inf
ROOT
ATOM      1  C   UNL     1      33.463  51.222  48.852  1.00  0.00     0.059 C 
ENDROOT
BRANCH   1   2
ATOM      2  C   UNL     1      33.856  52.126  49.981  1.00  0.00     0.042 C 
ATOM      3  O   UNL     1      34.605  53.117  49.767  1.00  0.00    -0.550 OA
ATOM      4  O   UNL     1      33.364  51.899  51.259  1.00  0.00    -0.550 OA
ENDBRANCH   1   2
BRANCH   1   5
ATOM      5  C   UNL     1      33.378  49.761  49.304  1.00  0.00     0.059 C 
BRANCH   5   6
ATOM      6  C   UNL     1      31.964  49.264  49.306  1.00  0.00     0.042 C 
ATOM      7  O   UNL     1      31.524  48.599  48.332  1.00  0.00    -0.550 OA
ATOM      8  O   UNL     1      31.121  49.574  50.366  1.00  0.00    -0.550 OA
ENDBRANCH   5   6
ENDBRANCH   1   5
TORSDOF 3
ENDMDL
MODEL 9
REMARK VINA RESULT:    -2.869     17.064     18.026
REMARK INTER + INTRA:          -3.485
REMARK INTER:                  -3.401
REMARK INTRA:                  -0.084
REMARK UNBOUND:                -0.113
REMARK SMILES O=C([O-])CCC(=O)[O-]
REMARK SMILES IDX 4 1 2 2 1 3 3 4 5 5 6 6 7 7 8 8
REMARK H PARENT
REMARK Flexibility Score: inf
ROOT
ATOM      1  C   UNL     1      39.414  55.295  38.271  1.00  0.00     0.059 C 
ENDROOT
BRANCH   1   2
ATOM      2  C   UNL     1      39.455  53.890  38.791  1.00  0.00     0.042 C 
ATOM      3  O   UNL     1      40.486  53.460  39.372  1.00  0.00    -0.550 OA
ATOM      4  O   UNL     1      38.340  53.071  38.671  1.00  0.00    -0.550 OA
ENDBRANCH   1   2
BRANCH   1   5
ATOM      5  C   UNL     1      37.987  55.853  38.264  1.00  0.00     0.059 C 
BRANCH   5   6
ATOM      6  C   UNL     1      37.783  56.862  39.354  1.00  0.00     0.042 C 
ATOM      7  O   UNL     1      38.054  56.569  40.548  1.00  0.00    -0.550 OA
ATOM      8  O   UNL     1      37.255  58.111  39.054  1.00  0.00    -0.550 OA
ENDBRANCH   5   6
ENDBRANCH   1   5
TORSDOF 3
ENDMDL
