MODEL 1
REMARK VINA RESULT:    -5.554      0.000      0.000
REMARK INTER + INTRA:          -7.486
REMARK INTER:                  -7.015
REMARK INTRA:                  -0.471
REMARK UNBOUND:                -0.471
REMARK SMILES Oc1cc(O)cc(CCc2ccccc2O)c1
REMARK SMILES IDX 9 1 10 2 12 3 13 4 11 5 14 6 15 7 16 8 8 10 7 11 6 12 17 13
REMARK SMILES IDX 4 14 2 15 3 16 5 17 1 19
REMARK H PARENT 16 9 5 18 1 20
REMARK Flexibility Score: inf
ROOT
ATOM      1  C   UNL     1      31.052  24.538  10.720  1.00  0.00     0.044 C 
ENDROOT
BRANCH   1   2
ATOM      2  C   UNL     1      30.151  24.002  11.823  1.00  0.00    -0.006 A 
ATOM      3  C   UNL     1      29.731  22.541  13.736  1.00  0.00     0.001 A 
ATOM      4  C   UNL     1      28.437  23.045  13.849  1.00  0.00     0.004 A 
ATOM      5  C   UNL     1      30.583  23.010  12.734  1.00  0.00     0.007 A 
ATOM      6  C   UNL     1      27.990  24.022  12.961  1.00  0.00     0.046 A 
ATOM      7  C   UNL     1      28.830  24.506  11.951  1.00  0.00     0.118 A 
BRANCH   7   8
ATOM      8  O   UNL     1      28.320  25.485  11.095  1.00  0.00    -0.508 OA
ATOM      9  H   UNL     1      28.379  25.429  10.086  1.00  0.00     0.293 HD
ENDBRANCH   7   8
ENDBRANCH   1   2
BRANCH   1  10
ATOM     10  C   UNL     1      32.104  25.569  11.155  1.00  0.00     0.040 C 
BRANCH  10  11
ATOM     11  C   UNL     1      31.525  26.960  11.120  1.00  0.00    -0.040 A 
ATOM     12  C   UNL     1      31.775  27.804  10.025  1.00  0.00     0.050 A 
ATOM     13  C   UNL     1      30.779  27.444  12.207  1.00  0.00     0.050 A 
ATOM     14  C   UNL     1      31.266  29.106  10.007  1.00  0.00     0.119 A 
ATOM     15  C   UNL     1      30.269  28.746  12.192  1.00  0.00     0.119 A 
ATOM     16  C   UNL     1      30.511  29.576  11.089  1.00  0.00     0.092 A 
BRANCH  14  17
ATOM     17  O   UNL     1      31.518  29.926   8.909  1.00  0.00    -0.508 OA
ATOM     18  H   UNL     1      30.842  30.034   8.161  1.00  0.00     0.293 HD
ENDBRANCH  14  17
BRANCH  15  19
ATOM     19  O   UNL     1      29.526  29.205  13.277  1.00  0.00    -0.508 OA
ATOM     20  H   UNL     1      29.147  28.566  13.967  1.00  0.00     0.293 HD
ENDBRANCH  15  19
ENDBRANCH  10  11
ENDBRANCH   1  10
TORSDOF 6
ENDMDL
MODEL 2
REMARK VINA RESULT:    -5.551      0.080      2.041
REMARK INTER + INTRA:          -7.483
REMARK INTER:                  -7.051
REMARK INTRA:                  -0.432
REMARK UNBOUND:                -0.471
REMARK SMILES Oc1cc(O)cc(CCc2ccccc2O)c1
REMARK SMILES IDX 9 1 10 2 12 3 13 4 11 5 14 6 15 7 16 8 8 10 7 11 6 12 17 13
REMARK SMILES IDX 4 14 2 15 3 16 5 17 1 19
REMARK H PARENT 16 9 5 18 1 20
REMARK Flexibility Score: inf
ROOT
ATOM      1  C   UNL     1      31.039  24.499  10.693  1.00  0.00     0.044 C 
ENDROOT
BRANCH   1   2
ATOM      2  C   UNL     1      30.143  23.972  11.804  1.00  0.00    -0.006 A 
ATOM      3  C   UNL     1      29.726  22.516  13.722  1.00  0.00     0.001 A 
ATOM      4  C   UNL     1      28.438  23.033  13.846  1.00  0.00     0.004 A 
ATOM      5  C   UNL     1      30.573  22.977  12.712  1.00  0.00     0.007 A 
ATOM      6  C   UNL     1      27.992  24.014  12.962  1.00  0.00     0.046 A 
ATOM      7  C   UNL     1      28.827  24.490  11.945  1.00  0.00     0.118 A 
BRANCH   7   8
ATOM      8  O   UNL     1      28.320  25.474  11.093  1.00  0.00    -0.508 OA
ATOM      9  H   UNL     1      27.331  25.625  10.942  1.00  0.00     0.293 HD
ENDBRANCH   7   8
ENDBRANCH   1   2
BRANCH   1  10
ATOM     10  C   UNL     1      32.125  25.497  11.123  1.00  0.00     0.040 C 
BRANCH  10  11
ATOM     11  C   UNL     1      31.574  26.899  11.146  1.00  0.00    -0.040 A 
ATOM     12  C   UNL     1      30.806  27.340  12.236  1.00  0.00     0.050 A 
ATOM     13  C   UNL     1      31.775  27.757  10.052  1.00  0.00     0.050 A 
ATOM     14  C   UNL     1      30.266  28.630  12.244  1.00  0.00     0.119 A 
ATOM     15  C   UNL     1      31.236  29.047  10.057  1.00  0.00     0.119 A 
ATOM     16  C   UNL     1      30.483  29.484  11.155  1.00  0.00     0.092 A 
BRANCH  14  17
ATOM     17  O   UNL     1      29.512  29.052  13.338  1.00  0.00    -0.508 OA
ATOM     18  H   UNL     1      29.945  29.500  14.137  1.00  0.00     0.293 HD
ENDBRANCH  14  17
BRANCH  15  19
ATOM     19  O   UNL     1      31.452  29.886   8.965  1.00  0.00    -0.508 OA
ATOM     20  H   UNL     1      32.336  30.363   8.831  1.00  0.00     0.293 HD
ENDBRANCH  15  19
ENDBRANCH  10  11
ENDBRANCH   1  10
TORSDOF 6
ENDMDL
MODEL 3
REMARK VINA RESULT:    -5.541      2.465      3.513
REMARK INTER + INTRA:          -7.470
REMARK INTER:                  -7.051
REMARK INTRA:                  -0.419
REMARK UNBOUND:                -0.471
REMARK SMILES Oc1cc(O)cc(CCc2ccccc2O)c1
REMARK SMILES IDX 9 1 10 2 12 3 13 4 11 5 14 6 15 7 16 8 8 10 7 11 6 12 17 13
REMARK SMILES IDX 4 14 2 15 3 16 5 17 1 19
REMARK H PARENT 16 9 5 18 1 20
REMARK Flexibility Score: inf
ROOT
ATOM      1  C   UNL     1      30.203  23.324  13.352  1.00  0.00     0.044 C 
ENDROOT
BRANCH   1   2
ATOM      2  C   UNL     1      30.641  21.872  13.236  1.00  0.00    -0.006 A 
ATOM      3  C   UNL     1      30.632  19.555  14.012  1.00  0.00     0.001 A 
ATOM      4  C   UNL     1      31.484  19.193  12.970  1.00  0.00     0.004 A 
ATOM      5  C   UNL     1      30.213  20.880  14.148  1.00  0.00     0.007 A 
ATOM      6  C   UNL     1      31.919  20.154  12.060  1.00  0.00     0.046 A 
ATOM      7  C   UNL     1      31.508  21.486  12.179  1.00  0.00     0.118 A 
BRANCH   7   8
ATOM      8  O   UNL     1      31.980  22.400  11.233  1.00  0.00    -0.508 OA
ATOM      9  H   UNL     1      32.963  22.586  11.078  1.00  0.00     0.293 HD
ENDBRANCH   7   8
ENDBRANCH   1   2
BRANCH   1  10
ATOM     10  C   UNL     1      28.943  23.711  12.563  1.00  0.00     0.040 C 
BRANCH  10  11
ATOM     11  C   UNL     1      29.134  25.043  11.885  1.00  0.00    -0.040 A 
ATOM     12  C   UNL     1      30.309  25.307  11.161  1.00  0.00     0.050 A 
ATOM     13  C   UNL     1      28.165  26.051  12.018  1.00  0.00     0.050 A 
ATOM     14  C   UNL     1      30.502  26.555  10.559  1.00  0.00     0.119 A 
ATOM     15  C   UNL     1      28.355  27.299  11.417  1.00  0.00     0.119 A 
ATOM     16  C   UNL     1      29.524  27.549  10.685  1.00  0.00     0.092 A 
BRANCH  14  17
ATOM     17  O   UNL     1      31.671  26.796   9.840  1.00  0.00    -0.508 OA
ATOM     18  H   UNL     1      31.646  27.047   8.858  1.00  0.00     0.293 HD
ENDBRANCH  14  17
BRANCH  15  19
ATOM     19  O   UNL     1      27.379  28.284  11.555  1.00  0.00    -0.508 OA
ATOM     20  H   UNL     1      27.027  28.796  10.754  1.00  0.00     0.293 HD
ENDBRANCH  15  19
ENDBRANCH  10  11
ENDBRANCH   1  10
TORSDOF 6
ENDMDL
MODEL 4
REMARK VINA RESULT:    -5.283      1.512      2.869
REMARK INTER + INTRA:          -7.144
REMARK INTER:                  -6.661
REMARK INTRA:                  -0.484
REMARK UNBOUND:                -0.471
REMARK SMILES Oc1cc(O)cc(CCc2ccccc2O)c1
REMARK SMILES IDX 9 1 10 2 12 3 13 4 11 5 14 6 15 7 16 8 8 10 7 11 6 12 17 13
REMARK SMILES IDX 4 14 2 15 3 16 5 17 1 19
REMARK H PARENT 16 9 5 18 1 20
REMARK Flexibility Score: inf
ROOT
ATOM      1  C   UNL     1      30.678  24.574  10.739  1.00  0.00     0.044 C 
ENDROOT
BRANCH   1   2
ATOM      2  C   UNL     1      30.652  23.396  11.701  1.00  0.00    -0.006 A 
ATOM      3  C   UNL     1      29.922  22.329  13.774  1.00  0.00     0.001 A 
ATOM      4  C   UNL     1      30.640  21.180  13.447  1.00  0.00     0.004 A 
ATOM      5  C   UNL     1      29.925  23.428  12.914  1.00  0.00     0.007 A 
ATOM      6  C   UNL     1      31.364  21.126  12.258  1.00  0.00     0.046 A 
ATOM      7  C   UNL     1      31.379  22.218  11.382  1.00  0.00     0.118 A 
BRANCH   7   8
ATOM      8  O   UNL     1      32.124  22.099  10.206  1.00  0.00    -0.508 OA
ATOM      9  H   UNL     1      32.520  22.890   9.714  1.00  0.00     0.293 HD
ENDBRANCH   7   8
ENDBRANCH   1   2
BRANCH   1  10
ATOM     10  C   UNL     1      31.871  25.532  10.882  1.00  0.00     0.040 C 
BRANCH  10  11
ATOM     11  C   UNL     1      31.392  26.954  11.014  1.00  0.00    -0.040 A 
ATOM     12  C   UNL     1      30.622  27.342  12.123  1.00  0.00     0.050 A 
ATOM     13  C   UNL     1      31.662  27.889  10.001  1.00  0.00     0.050 A 
ATOM     14  C   UNL     1      30.148  28.654  12.230  1.00  0.00     0.119 A 
ATOM     15  C   UNL     1      31.190  29.202  10.106  1.00  0.00     0.119 A 
ATOM     16  C   UNL     1      30.435  29.584  11.223  1.00  0.00     0.092 A 
BRANCH  14  17
ATOM     17  O   UNL     1      29.392  29.022  13.341  1.00  0.00    -0.508 OA
ATOM     18  H   UNL     1      28.687  29.748  13.285  1.00  0.00     0.293 HD
ENDBRANCH  14  17
BRANCH  15  19
ATOM     19  O   UNL     1      31.475  30.116   9.094  1.00  0.00    -0.508 OA
ATOM     20  H   UNL     1      30.801  30.324   8.364  1.00  0.00     0.293 HD
ENDBRANCH  15  19
ENDBRANCH  10  11
ENDBRANCH   1  10
TORSDOF 6
ENDMDL
MODEL 5
REMARK VINA RESULT:    -5.279      2.502      5.838
REMARK INTER + INTRA:          -7.138
REMARK INTER:                  -6.637
REMARK INTRA:                  -0.502
REMARK UNBOUND:                -0.471
REMARK SMILES Oc1cc(O)cc(CCc2ccccc2O)c1
REMARK SMILES IDX 9 1 10 2 12 3 13 4 11 5 14 6 15 7 16 8 8 10 7 11 6 12 17 13
REMARK SMILES IDX 4 14 2 15 3 16 5 17 1 19
REMARK H PARENT 16 9 5 18 1 20
REMARK Flexibility Score: inf
ROOT
ATOM      1  C   UNL     1      28.686  25.119  11.550  1.00  0.00     0.044 C 
ENDROOT
BRANCH   1   2
ATOM      2  C   UNL     1      29.390  26.463  11.669  1.00  0.00    -0.006 A 
ATOM      3  C   UNL     1      31.407  27.820  11.911  1.00  0.00     0.001 A 
ATOM      4  C   UNL     1      30.640  28.983  11.885  1.00  0.00     0.004 A 
ATOM      5  C   UNL     1      30.793  26.570  11.805  1.00  0.00     0.007 A 
ATOM      6  C   UNL     1      29.255  28.900  11.752  1.00  0.00     0.046 A 
ATOM      7  C   UNL     1      28.621  27.657  11.643  1.00  0.00     0.118 A 
BRANCH   7   8
ATOM      8  O   UNL     1      27.230  27.645  11.513  1.00  0.00    -0.508 OA
ATOM      9  H   UNL     1      26.644  26.899  11.865  1.00  0.00     0.293 HD
ENDBRANCH   7   8
ENDBRANCH   1   2
BRANCH   1  10
ATOM     10  C   UNL     1      28.678  24.251  12.817  1.00  0.00     0.040 C 
BRANCH  10  11
ATOM     11  C   UNL     1      29.714  23.161  12.716  1.00  0.00    -0.040 A 
ATOM     12  C   UNL     1      30.455  22.996  11.535  1.00  0.00     0.050 A 
ATOM     13  C   UNL     1      29.905  22.265  13.782  1.00  0.00     0.050 A 
ATOM     14  C   UNL     1      31.393  21.963  11.428  1.00  0.00     0.119 A 
ATOM     15  C   UNL     1      30.842  21.233  13.678  1.00  0.00     0.119 A 
ATOM     16  C   UNL     1      31.588  21.084  12.500  1.00  0.00     0.092 A 
BRANCH  14  17
ATOM     17  O   UNL     1      32.124  21.820  10.250  1.00  0.00    -0.508 OA
ATOM     18  H   UNL     1      32.622  22.600   9.837  1.00  0.00     0.293 HD
ENDBRANCH  14  17
BRANCH  15  19
ATOM     19  O   UNL     1      31.022  20.359  14.748  1.00  0.00    -0.508 OA
ATOM     20  H   UNL     1      30.634  19.422  14.737  1.00  0.00     0.293 HD
ENDBRANCH  15  19
ENDBRANCH  10  11
ENDBRANCH   1  10
TORSDOF 6
ENDMDL
MODEL 6
REMARK VINA RESULT:    -5.264      2.125      5.732
REMARK INTER + INTRA:          -7.121
REMARK INTER:                  -6.626
REMARK INTRA:                  -0.494
REMARK UNBOUND:                -0.471
REMARK SMILES Oc1cc(O)cc(CCc2ccccc2O)c1
REMARK SMILES IDX 9 1 10 2 12 3 13 4 11 5 14 6 15 7 16 8 8 10 7 11 6 12 17 13
REMARK SMILES IDX 4 14 2 15 3 16 5 17 1 19
REMARK H PARENT 16 9 5 18 1 20
REMARK Flexibility Score: inf
ROOT
ATOM      1  C   UNL     1      30.193  25.582  10.371  1.00  0.00     0.044 C 
ENDROOT
BRANCH   1   2
ATOM      2  C   UNL     1      30.127  27.041  10.798  1.00  0.00    -0.006 A 
ATOM      3  C   UNL     1      31.138  29.249  11.074  1.00  0.00     0.001 A 
ATOM      4  C   UNL     1      29.946  29.738  11.606  1.00  0.00     0.004 A 
ATOM      5  C   UNL     1      31.232  27.914  10.674  1.00  0.00     0.007 A 
ATOM      6  C   UNL     1      28.844  28.895  11.738  1.00  0.00     0.046 A 
ATOM      7  C   UNL     1      28.919  27.556  11.341  1.00  0.00     0.118 A 
BRANCH   7   8
ATOM      8  O   UNL     1      27.779  26.764  11.500  1.00  0.00    -0.508 OA
ATOM      9  H   UNL     1      26.971  27.051  12.038  1.00  0.00     0.293 HD
ENDBRANCH   7   8
ENDBRANCH   1   2
BRANCH   1  10
ATOM     10  C   UNL     1      31.343  24.759  10.972  1.00  0.00     0.040 C 
BRANCH  10  11
ATOM     11  C   UNL     1      30.811  23.757  11.965  1.00  0.00    -0.040 A 
ATOM     12  C   UNL     1      31.437  22.509  12.115  1.00  0.00     0.050 A 
ATOM     13  C   UNL     1      29.653  24.042  12.707  1.00  0.00     0.050 A 
ATOM     14  C   UNL     1      30.924  21.566  13.011  1.00  0.00     0.119 A 
ATOM     15  C   UNL     1      29.139  23.101  13.604  1.00  0.00     0.119 A 
ATOM     16  C   UNL     1      29.777  21.863  13.758  1.00  0.00     0.092 A 
BRANCH  14  17
ATOM     17  O   UNL     1      31.563  20.335  13.151  1.00  0.00    -0.508 OA
ATOM     18  H   UNL     1      31.505  19.803  14.012  1.00  0.00     0.293 HD
ENDBRANCH  14  17
BRANCH  15  19
ATOM     19  O   UNL     1      27.992  23.405  14.336  1.00  0.00    -0.508 OA
ATOM     20  H   UNL     1      27.275  22.709  14.508  1.00  0.00     0.293 HD
ENDBRANCH  15  19
ENDBRANCH  10  11
ENDBRANCH   1  10
TORSDOF 6
ENDMDL
MODEL 7
REMARK VINA RESULT:    -5.241      2.154      5.847
REMARK INTER + INTRA:          -7.091
REMARK INTER:                  -6.642
REMARK INTRA:                  -0.449
REMARK UNBOUND:                -0.471
REMARK SMILES Oc1cc(O)cc(CCc2ccccc2O)c1
REMARK SMILES IDX 9 1 10 2 12 3 13 4 11 5 14 6 15 7 16 8 8 10 7 11 6 12 17 13
REMARK SMILES IDX 4 14 2 15 3 16 5 17 1 19
REMARK H PARENT 16 9 5 18 1 20
REMARK Flexibility Score: inf
ROOT
ATOM      1  C   UNL     1      30.179  25.448  10.350  1.00  0.00     0.044 C 
ENDROOT
BRANCH   1   2
ATOM      2  C   UNL     1      30.119  26.867  10.894  1.00  0.00    -0.006 A 
ATOM      3  C   UNL     1      31.150  29.027  11.387  1.00  0.00     0.001 A 
ATOM      4  C   UNL     1      29.948  29.491  11.919  1.00  0.00     0.004 A 
ATOM      5  C   UNL     1      31.239  27.729  10.880  1.00  0.00     0.007 A 
ATOM      6  C   UNL     1      28.831  28.658  11.944  1.00  0.00     0.046 A 
ATOM      7  C   UNL     1      28.901  27.355  11.439  1.00  0.00     0.118 A 
BRANCH   7   8
ATOM      8  O   UNL     1      27.744  26.572  11.494  1.00  0.00    -0.508 OA
ATOM      9  H   UNL     1      27.100  26.474  10.720  1.00  0.00     0.293 HD
ENDBRANCH   7   8
ENDBRANCH   1   2
BRANCH   1  10
ATOM     10  C   UNL     1      31.303  24.562  10.907  1.00  0.00     0.040 C 
BRANCH  10  11
ATOM     11  C   UNL     1      30.755  23.590  11.920  1.00  0.00    -0.040 A 
ATOM     12  C   UNL     1      29.623  23.924  12.682  1.00  0.00     0.050 A 
ATOM     13  C   UNL     1      31.405  22.366  12.151  1.00  0.00     0.050 A 
ATOM     14  C   UNL     1      29.134  23.036  13.646  1.00  0.00     0.119 A 
ATOM     15  C   UNL     1      30.918  21.477  13.113  1.00  0.00     0.119 A 
ATOM     16  C   UNL     1      29.780  21.812  13.859  1.00  0.00     0.092 A 
BRANCH  14  17
ATOM     17  O   UNL     1      28.006  23.383  14.387  1.00  0.00    -0.508 OA
ATOM     18  H   UNL     1      27.942  24.270  14.873  1.00  0.00     0.293 HD
ENDBRANCH  14  17
BRANCH  15  19
ATOM     19  O   UNL     1      31.573  20.265  13.323  1.00  0.00    -0.508 OA
ATOM     20  H   UNL     1      31.519  19.511  12.647  1.00  0.00     0.293 HD
ENDBRANCH  15  19
ENDBRANCH  10  11
ENDBRANCH   1  10
TORSDOF 6
ENDMDL
MODEL 8
REMARK VINA RESULT:    -5.171      2.165      3.259
REMARK INTER + INTRA:          -7.002
REMARK INTER:                  -6.630
REMARK INTRA:                  -0.372
REMARK UNBOUND:                -0.471
REMARK SMILES Oc1cc(O)cc(CCc2ccccc2O)c1
REMARK SMILES IDX 9 1 10 2 12 3 13 4 11 5 14 6 15 7 16 8 8 10 7 11 6 12 17 13
REMARK SMILES IDX 4 14 2 15 3 16 5 17 1 19
REMARK H PARENT 16 9 5 18 1 20
REMARK Flexibility Score: inf
ROOT
ATOM      1  C   UNL     1      29.135  23.670  12.884  1.00  0.00     0.044 C 
ENDROOT
BRANCH   1   2
ATOM      2  C   UNL     1      30.068  22.618  13.465  1.00  0.00    -0.006 A 
ATOM      3  C   UNL     1      30.681  20.294  13.904  1.00  0.00     0.001 A 
ATOM      4  C   UNL     1      31.836  20.713  14.561  1.00  0.00     0.004 A 
ATOM      5  C   UNL     1      29.802  21.234  13.361  1.00  0.00     0.007 A 
ATOM      6  C   UNL     1      32.118  22.073  14.676  1.00  0.00     0.046 A 
ATOM      7  C   UNL     1      31.250  23.029  14.137  1.00  0.00     0.118 A 
BRANCH   7   8
ATOM      8  O   UNL     1      31.591  24.376  14.287  1.00  0.00    -0.508 OA
ATOM      9  H   UNL     1      30.920  25.130  14.232  1.00  0.00     0.293 HD
ENDBRANCH   7   8
ENDBRANCH   1   2
BRANCH   1  10
ATOM     10  C   UNL     1      29.591  24.320  11.569  1.00  0.00     0.040 C 
BRANCH  10  11
ATOM     11  C   UNL     1      29.581  25.822  11.692  1.00  0.00    -0.040 A 
ATOM     12  C   UNL     1      28.380  26.536  11.551  1.00  0.00     0.050 A 
ATOM     13  C   UNL     1      30.782  26.524  11.891  1.00  0.00     0.050 A 
ATOM     14  C   UNL     1      28.375  27.932  11.631  1.00  0.00     0.119 A 
ATOM     15  C   UNL     1      30.780  27.920  11.972  1.00  0.00     0.119 A 
ATOM     16  C   UNL     1      29.575  28.624  11.844  1.00  0.00     0.092 A 
BRANCH  14  17
ATOM     17  O   UNL     1      27.173  28.623  11.495  1.00  0.00    -0.508 OA
ATOM     18  H   UNL     1      26.775  29.151  12.264  1.00  0.00     0.293 HD
ENDBRANCH  14  17
BRANCH  15  19
ATOM     19  O   UNL     1      31.980  28.597  12.177  1.00  0.00    -0.508 OA
ATOM     20  H   UNL     1      32.466  28.555  13.066  1.00  0.00     0.293 HD
ENDBRANCH  15  19
ENDBRANCH  10  11
ENDBRANCH   1  10
TORSDOF 6
ENDMDL
