MODEL 1
REMARK VINA RESULT:    -6.597      0.000      0.000
REMARK INTER + INTRA:          -7.261
REMARK INTER:                  -6.982
REMARK INTRA:                  -0.278
REMARK UNBOUND:                -0.278
REMARK SMILES CC1=CC[C@@]23[C@@H]([C@@H]12)[C@H](C(C)C)CC[C@@H]3C
REMARK SMILES IDX 15 1 14 2 13 3 12 4 8 5 6 6 5 7 7 8 2 9 3 10 4 11 1 12 9 13
REMARK SMILES IDX 10 14 11 15
REMARK H PARENT
REMARK Flexibility Score: inf
ROOT
ATOM      1  C   UNL     1     109.116 113.248 112.648  1.00  0.00     0.008 C 
ATOM      2  C   UNL     1     108.859 111.977 113.478  1.00  0.00    -0.007 C 
ATOM      3  C   UNL     1     109.077 110.716 112.612  1.00  0.00     0.004 C 
ATOM      4  C   UNL     1     110.561 110.384 112.451  1.00  0.00     0.004 C 
ATOM      5  C   UNL     1     111.187 109.986 113.805  1.00  0.00    -0.004 C 
ATOM      6  C   UNL     1     110.917 111.040 114.910  1.00  0.00     0.007 C 
ATOM      7  C   UNL     1     109.720 111.993 114.771  1.00  0.00    -0.013 C 
ATOM      8  C   UNL     1     109.617 110.769 115.681  1.00  0.00     0.025 C 
ATOM      9  C   UNL     1     109.552 111.333 117.060  1.00  0.00    -0.073 C 
ATOM     10  C   UNL     1     109.581 112.658 117.073  1.00  0.00    -0.027 C 
ATOM     11  C   UNL     1     109.677 113.222 115.700  1.00  0.00     0.035 C 
ATOM     12  C   UNL     1     109.473 110.494 118.296  1.00  0.00     0.039 C 
ENDROOT
BRANCH   5  13
ATOM     13  C   UNL     1     112.714 109.684 113.706  1.00  0.00    -0.014 C 
ATOM     14  C   UNL     1     113.096 109.063 112.354  1.00  0.00     0.007 C 
ATOM     15  C   UNL     1     113.604 110.905 114.000  1.00  0.00     0.007 C 
ENDBRANCH   5  13
TORSDOF 1
ENDMDL
MODEL 2
REMARK VINA RESULT:    -6.573      3.620      6.363
REMARK INTER + INTRA:          -7.235
REMARK INTER:                  -6.962
REMARK INTRA:                  -0.274
REMARK UNBOUND:                -0.278
REMARK SMILES CC1=CC[C@@]23[C@@H]([C@@H]12)[C@H](C(C)C)CC[C@@H]3C
REMARK SMILES IDX 15 1 14 2 13 3 12 4 8 5 6 6 5 7 7 8 2 9 3 10 4 11 1 12 9 13
REMARK SMILES IDX 10 14 11 15
REMARK H PARENT
REMARK Flexibility Score: inf
ROOT
ATOM      1  C   UNL     1     113.246 109.107 107.755  1.00  0.00     0.008 C 
ATOM      2  C   UNL     1     113.439 110.385 108.592  1.00  0.00    -0.007 C 
ATOM      3  C   UNL     1     113.167 111.639 107.732  1.00  0.00     0.004 C 
ATOM      4  C   UNL     1     111.670 111.902 107.564  1.00  0.00     0.004 C 
ATOM      5  C   UNL     1     111.018 112.263 108.916  1.00  0.00    -0.004 C 
ATOM      6  C   UNL     1     111.331 111.217 110.017  1.00  0.00     0.007 C 
ATOM      7  C   UNL     1     112.572 110.322 109.880  1.00  0.00    -0.013 C 
ATOM      8  C   UNL     1     112.612 111.545 110.797  1.00  0.00     0.025 C 
ATOM      9  C   UNL     1     112.696 110.977 112.173  1.00  0.00    -0.073 C 
ATOM     10  C   UNL     1     112.728 109.652 112.180  1.00  0.00    -0.027 C 
ATOM     11  C   UNL     1     112.667 109.091 110.804  1.00  0.00     0.035 C 
ATOM     12  C   UNL     1     112.729 111.812 113.414  1.00  0.00     0.039 C 
ENDROOT
BRANCH   5  13
ATOM     13  C   UNL     1     109.480 112.495 108.810  1.00  0.00    -0.014 C 
ATOM     14  C   UNL     1     109.085 113.170 107.487  1.00  0.00     0.007 C 
ATOM     15  C   UNL     1     108.648 111.216 109.021  1.00  0.00     0.007 C 
ENDBRANCH   5  13
TORSDOF 1
ENDMDL
MODEL 3
REMARK VINA RESULT:    -6.556      3.444      4.871
REMARK INTER + INTRA:          -7.218
REMARK INTER:                  -6.942
REMARK INTRA:                  -0.276
REMARK UNBOUND:                -0.278
REMARK SMILES CC1=CC[C@@]23[C@@H]([C@@H]12)[C@H](C(C)C)CC[C@@H]3C
REMARK SMILES IDX 15 1 14 2 13 3 12 4 8 5 6 6 5 7 7 8 2 9 3 10 4 11 1 12 9 13
REMARK SMILES IDX 10 14 11 15
REMARK H PARENT
REMARK Flexibility Score: inf
ROOT
ATOM      1  C   UNL     1     109.038 113.146 107.813  1.00  0.00     0.008 C 
ATOM      2  C   UNL     1     108.835 111.856 108.629  1.00  0.00    -0.007 C 
ATOM      3  C   UNL     1     109.096 110.615 107.747  1.00  0.00     0.004 C 
ATOM      4  C   UNL     1     110.591 110.342 107.573  1.00  0.00     0.004 C 
ATOM      5  C   UNL     1     111.240 109.952 108.919  1.00  0.00    -0.004 C 
ATOM      6  C   UNL     1     110.937 110.982 110.038  1.00  0.00     0.007 C 
ATOM      7  C   UNL     1     109.703 111.890 109.917  1.00  0.00    -0.013 C 
ATOM      8  C   UNL     1     109.653 110.652 110.813  1.00  0.00     0.025 C 
ATOM      9  C   UNL     1     109.575 111.197 112.199  1.00  0.00    -0.073 C 
ATOM     10  C   UNL     1     109.553 112.522 112.228  1.00  0.00    -0.027 C 
ATOM     11  C   UNL     1     109.618 113.106 110.861  1.00  0.00     0.035 C 
ATOM     12  C   UNL     1     109.535 110.341 113.425  1.00  0.00     0.039 C 
ENDROOT
BRANCH   5  13
ATOM     13  C   UNL     1     112.777 109.710 108.808  1.00  0.00    -0.014 C 
ATOM     14  C   UNL     1     113.169 109.080 107.462  1.00  0.00     0.007 C 
ATOM     15  C   UNL     1     113.620 110.972 109.068  1.00  0.00     0.007 C 
ENDBRANCH   5  13
TORSDOF 1
ENDMDL
MODEL 4
REMARK VINA RESULT:    -6.499      1.811      4.035
REMARK INTER + INTRA:          -7.157
REMARK INTER:                  -6.883
REMARK INTRA:                  -0.274
REMARK UNBOUND:                -0.278
REMARK SMILES CC1=CC[C@@]23[C@@H]([C@@H]12)[C@H](C(C)C)CC[C@@H]3C
REMARK SMILES IDX 15 1 14 2 13 3 12 4 8 5 6 6 5 7 7 8 2 9 3 10 4 11 1 12 9 13
REMARK SMILES IDX 10 14 11 15
REMARK H PARENT
REMARK Flexibility Score: inf
ROOT
ATOM      1  C   UNL     1     113.229 109.124 112.734  1.00  0.00     0.008 C 
ATOM      2  C   UNL     1     113.407 110.386 113.597  1.00  0.00    -0.007 C 
ATOM      3  C   UNL     1     113.183 111.656 112.747  1.00  0.00     0.004 C 
ATOM      4  C   UNL     1     111.697 111.941 112.529  1.00  0.00     0.004 C 
ATOM      5  C   UNL     1     111.001 112.292 113.861  1.00  0.00    -0.004 C 
ATOM      6  C   UNL     1     111.259 111.226 114.957  1.00  0.00     0.007 C 
ATOM      7  C   UNL     1     112.493 110.316 114.852  1.00  0.00    -0.013 C 
ATOM      8  C   UNL     1     112.516 111.524 115.788  1.00  0.00     0.025 C 
ATOM      9  C   UNL     1     112.542 110.935 117.158  1.00  0.00    -0.073 C 
ATOM     10  C   UNL     1     112.557 109.609 117.145  1.00  0.00    -0.027 C 
ATOM     11  C   UNL     1     112.539 109.070 115.759  1.00  0.00     0.035 C 
ATOM     12  C   UNL     1     112.540 111.750 118.412  1.00  0.00     0.039 C 
ENDROOT
BRANCH   5  13
ATOM     13  C   UNL     1     109.470 112.545 113.703  1.00  0.00    -0.014 C 
ATOM     14  C   UNL     1     109.132 113.238 112.374  1.00  0.00     0.007 C 
ATOM     15  C   UNL     1     108.615 111.276 113.873  1.00  0.00     0.007 C 
ENDBRANCH   5  13
TORSDOF 1
ENDMDL
MODEL 5
REMARK VINA RESULT:    -6.495      1.595      3.755
REMARK INTER + INTRA:          -7.153
REMARK INTER:                  -6.898
REMARK INTRA:                  -0.255
REMARK UNBOUND:                -0.278
REMARK SMILES CC1=CC[C@@]23[C@@H]([C@@H]12)[C@H](C(C)C)CC[C@@H]3C
REMARK SMILES IDX 15 1 14 2 13 3 12 4 8 5 6 6 5 7 7 8 2 9 3 10 4 11 1 12 9 13
REMARK SMILES IDX 10 14 11 15
REMARK H PARENT
REMARK Flexibility Score: inf
ROOT
ATOM      1  C   UNL     1     113.600 109.405 113.131  1.00  0.00     0.008 C 
ATOM      2  C   UNL     1     113.100 110.812 113.506  1.00  0.00    -0.007 C 
ATOM      3  C   UNL     1     113.165 111.751 112.280  1.00  0.00     0.004 C 
ATOM      4  C   UNL     1     111.994 111.523 111.324  1.00  0.00     0.004 C 
ATOM      5  C   UNL     1     110.656 111.914 111.987  1.00  0.00    -0.004 C 
ATOM      6  C   UNL     1     110.459 111.227 113.363  1.00  0.00     0.007 C 
ATOM      7  C   UNL     1     111.686 110.730 114.144  1.00  0.00    -0.013 C 
ATOM      8  C   UNL     1     111.025 112.055 114.525  1.00  0.00     0.025 C 
ATOM      9  C   UNL     1     110.416 111.798 115.861  1.00  0.00    -0.073 C 
ATOM     10  C   UNL     1     110.639 110.566 116.298  1.00  0.00    -0.027 C 
ATOM     11  C   UNL     1     111.437 109.772 115.326  1.00  0.00     0.035 C 
ATOM     12  C   UNL     1     109.628 112.816 116.624  1.00  0.00     0.039 C 
ENDROOT
BRANCH   5  13
ATOM     13  C   UNL     1     109.422 111.656 111.070  1.00  0.00    -0.014 C 
ATOM     14  C   UNL     1     109.607 112.252 109.666  1.00  0.00     0.007 C 
ATOM     15  C   UNL     1     109.030 110.171 110.969  1.00  0.00     0.007 C 
ENDBRANCH   5  13
TORSDOF 1
ENDMDL
MODEL 6
REMARK VINA RESULT:    -6.475      1.751      2.195
REMARK INTER + INTRA:          -7.132
REMARK INTER:                  -6.877
REMARK INTRA:                  -0.255
REMARK UNBOUND:                -0.278
REMARK SMILES CC1=CC[C@@]23[C@@H]([C@@H]12)[C@H](C(C)C)CC[C@@H]3C
REMARK SMILES IDX 15 1 14 2 13 3 12 4 8 5 6 6 5 7 7 8 2 9 3 10 4 11 1 12 9 13
REMARK SMILES IDX 10 14 11 15
REMARK H PARENT
REMARK Flexibility Score: inf
ROOT
ATOM      1  C   UNL     1     108.673 112.878 113.114  1.00  0.00     0.008 C 
ATOM      2  C   UNL     1     109.173 111.470 113.487  1.00  0.00    -0.007 C 
ATOM      3  C   UNL     1     109.103 110.532 112.262  1.00  0.00     0.004 C 
ATOM      4  C   UNL     1     110.271 110.760 111.302  1.00  0.00     0.004 C 
ATOM      5  C   UNL     1     111.611 110.367 111.961  1.00  0.00    -0.004 C 
ATOM      6  C   UNL     1     111.813 111.054 113.336  1.00  0.00     0.007 C 
ATOM      7  C   UNL     1     110.589 111.551 114.121  1.00  0.00    -0.013 C 
ATOM      8  C   UNL     1     111.250 110.226 114.500  1.00  0.00     0.025 C 
ATOM      9  C   UNL     1     111.863 110.483 115.835  1.00  0.00    -0.073 C 
ATOM     10  C   UNL     1     111.642 111.714 116.272  1.00  0.00    -0.027 C 
ATOM     11  C   UNL     1     110.842 112.509 115.303  1.00  0.00     0.035 C 
ATOM     12  C   UNL     1     112.653 109.464 116.594  1.00  0.00     0.039 C 
ENDROOT
BRANCH   5  13
ATOM     13  C   UNL     1     112.843 110.625 111.040  1.00  0.00    -0.014 C 
ATOM     14  C   UNL     1     112.654 110.028 109.637  1.00  0.00     0.007 C 
ATOM     15  C   UNL     1     113.234 112.110 110.936  1.00  0.00     0.007 C 
ENDBRANCH   5  13
TORSDOF 1
ENDMDL
MODEL 7
REMARK VINA RESULT:    -6.461      4.703      7.036
REMARK INTER + INTRA:          -7.117
REMARK INTER:                  -6.862
REMARK INTRA:                  -0.255
REMARK UNBOUND:                -0.278
REMARK SMILES CC1=CC[C@@]23[C@@H]([C@@H]12)[C@H](C(C)C)CC[C@@H]3C
REMARK SMILES IDX 15 1 14 2 13 3 12 4 8 5 6 6 5 7 7 8 2 9 3 10 4 11 1 12 9 13
REMARK SMILES IDX 10 14 11 15
REMARK H PARENT
REMARK Flexibility Score: inf
ROOT
ATOM      1  C   UNL     1     113.614 109.486 108.253  1.00  0.00     0.008 C 
ATOM      2  C   UNL     1     113.082 110.878 108.644  1.00  0.00    -0.007 C 
ATOM      3  C   UNL     1     113.119 111.829 107.427  1.00  0.00     0.004 C 
ATOM      4  C   UNL     1     111.949 111.582 106.474  1.00  0.00     0.004 C 
ATOM      5  C   UNL     1     110.605 111.935 107.148  1.00  0.00    -0.004 C 
ATOM      6  C   UNL     1     110.431 111.230 108.518  1.00  0.00     0.007 C 
ATOM      7  C   UNL     1     111.674 110.755 109.288  1.00  0.00    -0.013 C 
ATOM      8  C   UNL     1     110.983 112.060 109.685  1.00  0.00     0.025 C 
ATOM      9  C   UNL     1     110.387 111.775 111.022  1.00  0.00    -0.073 C 
ATOM     10  C   UNL     1     110.642 110.546 111.445  1.00  0.00    -0.027 C 
ATOM     11  C   UNL     1     111.454 109.780 110.462  1.00  0.00     0.035 C 
ATOM     12  C   UNL     1     109.579 112.767 111.798  1.00  0.00     0.039 C 
ENDROOT
BRANCH   5  13
ATOM     13  C   UNL     1     109.372 111.656 106.234  1.00  0.00    -0.014 C 
ATOM     14  C   UNL     1     109.539 112.264 104.833  1.00  0.00     0.007 C 
ATOM     15  C   UNL     1     109.012 110.163 106.125  1.00  0.00     0.007 C 
ENDBRANCH   5  13
TORSDOF 1
ENDMDL
MODEL 8
REMARK VINA RESULT:    -6.450      4.687      6.365
REMARK INTER + INTRA:          -7.105
REMARK INTER:                  -6.850
REMARK INTRA:                  -0.255
REMARK UNBOUND:                -0.278
REMARK SMILES CC1=CC[C@@]23[C@@H]([C@@H]12)[C@H](C(C)C)CC[C@@H]3C
REMARK SMILES IDX 15 1 14 2 13 3 12 4 8 5 6 6 5 7 7 8 2 9 3 10 4 11 1 12 9 13
REMARK SMILES IDX 10 14 11 15
REMARK H PARENT
REMARK Flexibility Score: inf
ROOT
ATOM      1  C   UNL     1     108.748 112.875 108.249  1.00  0.00     0.008 C 
ATOM      2  C   UNL     1     109.230 111.471 108.659  1.00  0.00    -0.007 C 
ATOM      3  C   UNL     1     109.127 110.496 107.464  1.00  0.00     0.004 C 
ATOM      4  C   UNL     1     110.285 110.674 106.481  1.00  0.00     0.004 C 
ATOM      5  C   UNL     1     111.628 110.280 107.133  1.00  0.00    -0.004 C 
ATOM      6  C   UNL     1     111.861 111.006 108.483  1.00  0.00     0.007 C 
ATOM      7  C   UNL     1     110.657 111.547 109.269  1.00  0.00    -0.013 C 
ATOM      8  C   UNL     1     111.302 110.223 109.680  1.00  0.00     0.025 C 
ATOM      9  C   UNL     1     111.939 110.511 110.997  1.00  0.00    -0.073 C 
ATOM     10  C   UNL     1     111.745 111.759 111.399  1.00  0.00    -0.027 C 
ATOM     11  C   UNL     1     110.943 112.537 110.417  1.00  0.00     0.035 C 
ATOM     12  C   UNL     1     112.723 109.503 111.776  1.00  0.00     0.039 C 
ENDROOT
BRANCH   5  13
ATOM     13  C   UNL     1     112.850 110.489 106.187  1.00  0.00    -0.014 C 
ATOM     14  C   UNL     1     112.629 109.854 104.805  1.00  0.00     0.007 C 
ATOM     15  C   UNL     1     113.265 111.963 106.033  1.00  0.00     0.007 C 
ENDBRANCH   5  13
TORSDOF 1
ENDMDL
MODEL 9
REMARK VINA RESULT:    -6.166      2.449      4.075
REMARK INTER + INTRA:          -6.805
REMARK INTER:                  -6.550
REMARK INTRA:                  -0.255
REMARK UNBOUND:                -0.278
REMARK SMILES CC1=CC[C@@]23[C@@H]([C@@H]12)[C@H](C(C)C)CC[C@@H]3C
REMARK SMILES IDX 15 1 14 2 13 3 12 4 8 5 6 6 5 7 7 8 2 9 3 10 4 11 1 12 9 13
REMARK SMILES IDX 10 14 11 15
REMARK H PARENT
REMARK Flexibility Score: inf
ROOT
ATOM      1  C   UNL     1     108.673 112.874 118.007  1.00  0.00     0.008 C 
ATOM      2  C   UNL     1     109.170 111.467 118.386  1.00  0.00    -0.007 C 
ATOM      3  C   UNL     1     109.116 110.529 117.159  1.00  0.00     0.004 C 
ATOM      4  C   UNL     1     110.294 110.758 116.213  1.00  0.00     0.004 C 
ATOM      5  C   UNL     1     111.627 110.367 116.887  1.00  0.00    -0.004 C 
ATOM      6  C   UNL     1     111.813 111.054 118.265  1.00  0.00     0.007 C 
ATOM      7  C   UNL     1     110.579 111.549 119.036  1.00  0.00    -0.013 C 
ATOM      8  C   UNL     1     111.238 110.224 119.421  1.00  0.00     0.025 C 
ATOM      9  C   UNL     1     111.836 110.482 120.763  1.00  0.00    -0.073 C 
ATOM     10  C   UNL     1     111.608 111.713 121.198  1.00  0.00    -0.027 C 
ATOM     11  C   UNL     1     110.818 112.507 120.220  1.00  0.00     0.035 C 
ATOM     12  C   UNL     1     112.618 109.464 121.531  1.00  0.00     0.039 C 
ENDROOT
BRANCH   5  13
ATOM     13  C   UNL     1     112.869 110.627 115.980  1.00  0.00    -0.014 C 
ATOM     14  C   UNL     1     112.699 110.024 114.577  1.00  0.00     0.007 C 
ATOM     15  C   UNL     1     113.255 112.113 115.875  1.00  0.00     0.007 C 
ENDBRANCH   5  13
TORSDOF 1
ENDMDL
