MODEL 1
REMARK VINA RESULT:    -3.276      0.000      0.000
REMARK INTER + INTRA:          -3.941
REMARK INTER:                  -3.850
REMARK INTRA:                  -0.091
REMARK UNBOUND:                -0.091
REMARK SMILES O=C([O-])CCC(=O)[O-]
REMARK SMILES IDX 4 1 2 2 1 3 3 4 5 5 6 6 7 7 8 8
REMARK H PARENT
REMARK Flexibility Score: inf
ROOT
ATOM      1  C   UNL     1      17.984 -37.099  -2.051  1.00  0.00     0.059 C 
ENDROOT
BRANCH   1   2
ATOM      2  C   UNL     1      18.066 -37.933  -0.809  1.00  0.00     0.042 C 
ATOM      3  O   UNL     1      17.022 -38.206  -0.159  1.00  0.00    -0.550 OA
ATOM      4  O   UNL     1      19.289 -38.441  -0.392  1.00  0.00    -0.550 OA
ENDBRANCH   1   2
BRANCH   1   5
ATOM      5  C   UNL     1      16.868 -36.055  -1.957  1.00  0.00     0.059 C 
BRANCH   5   6
ATOM      6  C   UNL     1      17.367 -34.763  -1.386  1.00  0.00     0.042 C 
ATOM      7  O   UNL     1      17.611 -33.788  -2.144  1.00  0.00    -0.550 OA
ATOM      8  O   UNL     1      17.599 -34.649  -0.021  1.00  0.00    -0.550 OA
ENDBRANCH   5   6
ENDBRANCH   1   5
TORSDOF 3
ENDMDL
MODEL 2
REMARK VINA RESULT:    -3.272      1.295      1.808
REMARK INTER + INTRA:          -3.937
REMARK INTER:                  -3.847
REMARK INTRA:                  -0.090
REMARK UNBOUND:                -0.091
REMARK SMILES O=C([O-])CCC(=O)[O-]
REMARK SMILES IDX 4 1 2 2 1 3 3 4 5 5 6 6 7 7 8 8
REMARK H PARENT
REMARK Flexibility Score: inf
ROOT
ATOM      1  C   UNL     1      17.539 -37.833  -1.284  1.00  0.00     0.059 C 
ENDROOT
BRANCH   1   2
ATOM      2  C   UNL     1      18.485 -37.820  -0.122  1.00  0.00     0.042 C 
ATOM      3  O   UNL     1      19.403 -38.679  -0.042  1.00  0.00    -0.550 OA
ATOM      4  O   UNL     1      18.376 -36.837   0.852  1.00  0.00    -0.550 OA
ENDBRANCH   1   2
BRANCH   1   5
ATOM      5  C   UNL     1      17.877 -36.735  -2.298  1.00  0.00     0.059 C 
BRANCH   5   6
ATOM      6  C   UNL     1      17.057 -35.502  -2.070  1.00  0.00     0.042 C 
ATOM      7  O   UNL     1      15.804 -35.583  -1.975  1.00  0.00    -0.550 OA
ATOM      8  O   UNL     1      17.673 -34.259  -2.004  1.00  0.00    -0.550 OA
ENDBRANCH   5   6
ENDBRANCH   1   5
TORSDOF 3
ENDMDL
MODEL 3
REMARK VINA RESULT:    -3.268      0.101      3.685
REMARK INTER + INTRA:          -3.932
REMARK INTER:                  -3.832
REMARK INTRA:                  -0.100
REMARK UNBOUND:                -0.091
REMARK SMILES O=C([O-])CCC(=O)[O-]
REMARK SMILES IDX 4 1 2 2 1 3 3 4 5 5 6 6 7 7 8 8
REMARK H PARENT
REMARK Flexibility Score: inf
ROOT
ATOM      1  C   UNL     1      16.908 -36.113  -2.061  1.00  0.00     0.059 C 
ENDROOT
BRANCH   1   2
ATOM      2  C   UNL     1      17.354 -34.824  -1.440  1.00  0.00     0.042 C 
ATOM      3  O   UNL     1      17.629 -33.833  -2.166  1.00  0.00    -0.550 OA
ATOM      4  O   UNL     1      17.429 -34.708  -0.058  1.00  0.00    -0.550 OA
ENDBRANCH   1   2
BRANCH   1   5
ATOM      5  C   UNL     1      18.040 -37.144  -2.097  1.00  0.00     0.059 C 
BRANCH   5   6
ATOM      6  C   UNL     1      18.061 -37.984  -0.857  1.00  0.00     0.042 C 
ATOM      7  O   UNL     1      16.991 -38.233  -0.242  1.00  0.00    -0.550 OA
ATOM      8  O   UNL     1      19.267 -38.459  -0.358  1.00  0.00    -0.550 OA
ENDBRANCH   5   6
ENDBRANCH   1   5
TORSDOF 3
ENDMDL
MODEL 4
REMARK VINA RESULT:    -3.205      1.570      1.960
REMARK INTER + INTRA:          -3.858
REMARK INTER:                  -3.736
REMARK INTRA:                  -0.122
REMARK UNBOUND:                -0.091
REMARK SMILES O=C([O-])CCC(=O)[O-]
REMARK SMILES IDX 4 1 2 2 1 3 3 4 5 5 6 6 7 7 8 8
REMARK H PARENT
REMARK Flexibility Score: inf
ROOT
ATOM      1  C   UNL     1      17.256 -35.822  -2.136  1.00  0.00     0.059 C 
ENDROOT
BRANCH   1   2
ATOM      2  C   UNL     1      17.784 -36.666  -1.018  1.00  0.00     0.042 C 
ATOM      3  O   UNL     1      18.193 -37.836  -1.244  1.00  0.00    -0.550 OA
ATOM      4  O   UNL     1      17.860 -36.148   0.269  1.00  0.00    -0.550 OA
ENDBRANCH   1   2
BRANCH   1   5
ATOM      5  C   UNL     1      17.466 -34.329  -1.865  1.00  0.00     0.059 C 
BRANCH   5   6
ATOM      6  C   UNL     1      16.169 -33.626  -1.605  1.00  0.00     0.042 C 
ATOM      7  O   UNL     1      15.845 -32.621  -2.290  1.00  0.00    -0.550 OA
ATOM      8  O   UNL     1      15.337 -34.057  -0.579  1.00  0.00    -0.550 OA
ENDBRANCH   5   6
ENDBRANCH   1   5
TORSDOF 3
ENDMDL
MODEL 5
REMARK VINA RESULT:    -3.177      1.632      4.087
REMARK INTER + INTRA:          -3.825
REMARK INTER:                  -3.704
REMARK INTRA:                  -0.121
REMARK UNBOUND:                -0.091
REMARK SMILES O=C([O-])CCC(=O)[O-]
REMARK SMILES IDX 4 1 2 2 1 3 3 4 5 5 6 6 7 7 8 8
REMARK H PARENT
REMARK Flexibility Score: inf
ROOT
ATOM      1  C   UNL     1      17.469 -34.165  -1.729  1.00  0.00     0.059 C 
ENDROOT
BRANCH   1   2
ATOM      2  C   UNL     1      16.122 -33.528  -1.576  1.00  0.00     0.042 C 
ATOM      3  O   UNL     1      15.768 -32.599  -2.350  1.00  0.00    -0.550 OA
ATOM      4  O   UNL     1      15.243 -33.985  -0.603  1.00  0.00    -0.550 OA
ENDBRANCH   1   2
BRANCH   1   5
ATOM      5  C   UNL     1      17.353 -35.643  -2.115  1.00  0.00     0.059 C 
BRANCH   5   6
ATOM      6  C   UNL     1      17.764 -36.542  -0.989  1.00  0.00     0.042 C 
ATOM      7  O   UNL     1      17.819 -36.098   0.188  1.00  0.00    -0.550 OA
ATOM      8  O   UNL     1      18.125 -37.858  -1.245  1.00  0.00    -0.550 OA
ENDBRANCH   5   6
ENDBRANCH   1   5
TORSDOF 3
ENDMDL
MODEL 6
REMARK VINA RESULT:    -3.004      1.494      2.045
REMARK INTER + INTRA:          -3.622
REMARK INTER:                  -3.527
REMARK INTRA:                  -0.094
REMARK UNBOUND:                -0.091
REMARK SMILES O=C([O-])CCC(=O)[O-]
REMARK SMILES IDX 4 1 2 2 1 3 3 4 5 5 6 6 7 7 8 8
REMARK H PARENT
REMARK Flexibility Score: inf
ROOT
ATOM      1  C   UNL     1      18.055 -36.159   0.666  1.00  0.00     0.059 C 
ENDROOT
BRANCH   1   2
ATOM      2  C   UNL     1      18.473 -37.585   0.474  1.00  0.00     0.042 C 
ATOM      3  O   UNL     1      19.623 -37.961   0.824  1.00  0.00    -0.550 OA
ATOM      4  O   UNL     1      17.578 -38.507  -0.054  1.00  0.00    -0.550 OA
ENDBRANCH   1   2
BRANCH   1   5
ATOM      5  C   UNL     1      16.908 -35.776  -0.274  1.00  0.00     0.059 C 
BRANCH   5   6
ATOM      6  C   UNL     1      17.417 -35.277  -1.592  1.00  0.00     0.042 C 
ATOM      7  O   UNL     1      17.737 -36.093  -2.497  1.00  0.00    -0.550 OA
ATOM      8  O   UNL     1      17.576 -33.915  -1.806  1.00  0.00    -0.550 OA
ENDBRANCH   5   6
ENDBRANCH   1   5
TORSDOF 3
ENDMDL
MODEL 7
REMARK VINA RESULT:    -2.985      1.600      3.521
REMARK INTER + INTRA:          -3.600
REMARK INTER:                  -3.529
REMARK INTRA:                  -0.071
REMARK UNBOUND:                -0.091
REMARK SMILES O=C([O-])CCC(=O)[O-]
REMARK SMILES IDX 4 1 2 2 1 3 3 4 5 5 6 6 7 7 8 8
REMARK H PARENT
REMARK Flexibility Score: inf
ROOT
ATOM      1  C   UNL     1      17.560 -36.281  -2.122  1.00  0.00     0.059 C 
ENDROOT
BRANCH   1   2
ATOM      2  C   UNL     1      16.087 -36.040  -1.997  1.00  0.00     0.042 C 
ATOM      3  O   UNL     1      15.269 -36.959  -2.266  1.00  0.00    -0.550 OA
ATOM      4  O   UNL     1      15.619 -34.813  -1.545  1.00  0.00    -0.550 OA
ENDBRANCH   1   2
BRANCH   1   5
ATOM      5  C   UNL     1      17.933 -37.715  -1.734  1.00  0.00     0.059 C 
BRANCH   5   6
ATOM      6  C   UNL     1      18.540 -37.777  -0.365  1.00  0.00     0.042 C 
ATOM      7  O   UNL     1      19.353 -38.693  -0.073  1.00  0.00    -0.550 OA
ATOM      8  O   UNL     1      18.177 -36.846   0.600  1.00  0.00    -0.550 OA
ENDBRANCH   5   6
ENDBRANCH   1   5
TORSDOF 3
ENDMDL
MODEL 8
REMARK VINA RESULT:    -2.945      1.358      3.916
REMARK INTER + INTRA:          -3.552
REMARK INTER:                  -3.513
REMARK INTRA:                  -0.039
REMARK UNBOUND:                -0.091
REMARK SMILES O=C([O-])CCC(=O)[O-]
REMARK SMILES IDX 4 1 2 2 1 3 3 4 5 5 6 6 7 7 8 8
REMARK H PARENT
REMARK Flexibility Score: inf
ROOT
ATOM      1  C   UNL     1      17.497 -35.788  -2.142  1.00  0.00     0.059 C 
ENDROOT
BRANCH   1   2
ATOM      2  C   UNL     1      17.364 -34.461  -1.459  1.00  0.00     0.042 C 
ATOM      3  O   UNL     1      17.740 -34.321  -0.266  1.00  0.00    -0.550 OA
ATOM      4  O   UNL     1      16.861 -33.369  -2.155  1.00  0.00    -0.550 OA
ENDBRANCH   1   2
BRANCH   1   5
ATOM      5  C   UNL     1      16.184 -36.576  -2.104  1.00  0.00     0.059 C 
BRANCH   5   6
ATOM      6  C   UNL     1      16.426 -38.047  -1.955  1.00  0.00     0.042 C 
ATOM      7  O   UNL     1      16.045 -38.846  -2.851  1.00  0.00    -0.550 OA
ATOM      8  O   UNL     1      17.037 -38.540  -0.809  1.00  0.00    -0.550 OA
ENDBRANCH   5   6
ENDBRANCH   1   5
TORSDOF 3
ENDMDL
MODEL 9
REMARK VINA RESULT:    -2.915     10.995     12.016
REMARK INTER + INTRA:          -3.518
REMARK INTER:                  -3.428
REMARK INTRA:                  -0.089
REMARK UNBOUND:                -0.091
REMARK SMILES O=C([O-])CCC(=O)[O-]
REMARK SMILES IDX 4 1 2 2 1 3 3 4 5 5 6 6 7 7 8 8
REMARK H PARENT
REMARK Flexibility Score: inf
ROOT
ATOM      1  C   UNL     1      29.814 -36.759  -2.239  1.00  0.00     0.059 C 
ENDROOT
BRANCH   1   2
ATOM      2  C   UNL     1      29.396 -35.322  -2.170  1.00  0.00     0.042 C 
ATOM      3  O   UNL     1      28.446 -34.974  -1.421  1.00  0.00    -0.550 OA
ATOM      4  O   UNL     1      30.083 -34.363  -2.903  1.00  0.00    -0.550 OA
ENDBRANCH   1   2
BRANCH   1   5
ATOM      5  C   UNL     1      29.760 -37.295  -3.673  1.00  0.00     0.059 C 
BRANCH   5   6
ATOM      6  C   UNL     1      28.548 -38.146  -3.900  1.00  0.00     0.042 C 
ATOM      7  O   UNL     1      27.860 -38.542  -2.922  1.00  0.00    -0.550 OA
ATOM      8  O   UNL     1      28.201 -38.535  -5.187  1.00  0.00    -0.550 OA
ENDBRANCH   5   6
ENDBRANCH   1   5
TORSDOF 3
ENDMDL
