MODEL 1
REMARK VINA RESULT:    -4.255      0.000      0.000
REMARK INTER + INTRA:          -4.976
REMARK INTER:                  -4.877
REMARK INTRA:                  -0.099
REMARK UNBOUND:                -0.099
REMARK SMILES COc1cc(C(=O)[O-])ccc1O
REMARK SMILES IDX 5 1 9 2 4 3 10 4 3 5 11 6 6 7 7 8 8 9 2 10 1 11 12 12
REMARK H PARENT 12 13
REMARK Flexibility Score: inf
ROOT
ATOM      1  C   UNL     1       7.483   2.639  -5.104  1.00  0.00     0.001 A 
ATOM      2  C   UNL     1       7.118   2.349  -3.779  1.00  0.00     0.014 A 
ATOM      3  C   UNL     1       8.252   3.787  -5.365  1.00  0.00     0.060 A 
ATOM      4  C   UNL     1       7.513   3.187  -2.736  1.00  0.00     0.051 A 
ATOM      5  C   UNL     1       8.654   4.637  -4.315  1.00  0.00     0.161 A 
ATOM      6  C   UNL     1       8.279   4.330  -3.000  1.00  0.00     0.157 A 
ENDROOT
BRANCH   1   7
ATOM      7  C   UNL     1       7.065   1.752  -6.212  1.00  0.00     0.072 C 
ATOM      8  O   UNL     1       7.542   1.901  -7.368  1.00  0.00    -0.545 OA
ATOM      9  O   UNL     1       6.139   0.738  -5.992  1.00  0.00    -0.545 OA
ENDBRANCH   1   7
BRANCH   5  10
ATOM     10  O   UNL     1       9.422   5.791  -4.537  1.00  0.00    -0.493 OA
ATOM     11  C   UNL     1       8.994   6.909  -5.309  1.00  0.00     0.278 C 
ENDBRANCH   5  10
BRANCH   6  12
ATOM     12  O   UNL     1       8.674   5.166  -1.957  1.00  0.00    -0.504 OA
ATOM     13  H   UNL     1       8.237   6.068  -1.807  1.00  0.00     0.293 HD
ENDBRANCH   6  12
TORSDOF 3
ENDMDL
MODEL 2
REMARK VINA RESULT:    -4.153      0.990      4.306
REMARK INTER + INTRA:          -4.859
REMARK INTER:                  -4.756
REMARK INTRA:                  -0.103
REMARK UNBOUND:                -0.099
REMARK SMILES COc1cc(C(=O)[O-])ccc1O
REMARK SMILES IDX 5 1 9 2 4 3 10 4 3 5 11 6 6 7 7 8 8 9 2 10 1 11 12 12
REMARK H PARENT 12 13
REMARK Flexibility Score: inf
ROOT
ATOM      1  C   UNL     1       8.349   4.418  -3.996  1.00  0.00     0.001 A 
ATOM      2  C   UNL     1       7.595   3.603  -3.136  1.00  0.00     0.014 A 
ATOM      3  C   UNL     1       8.395   4.106  -5.367  1.00  0.00     0.060 A 
ATOM      4  C   UNL     1       6.902   2.499  -3.634  1.00  0.00     0.051 A 
ATOM      5  C   UNL     1       7.697   2.992  -5.874  1.00  0.00     0.161 A 
ATOM      6  C   UNL     1       6.950   2.192  -4.999  1.00  0.00     0.157 A 
ENDROOT
BRANCH   1   7
ATOM      7  C   UNL     1       9.086   5.589  -3.471  1.00  0.00     0.072 C 
ATOM      8  O   UNL     1       9.685   6.374  -4.253  1.00  0.00    -0.545 OA
ATOM      9  O   UNL     1       9.127   5.841  -2.103  1.00  0.00    -0.545 OA
ENDBRANCH   1   7
BRANCH   5  10
ATOM     10  O   UNL     1       7.719   2.650  -7.236  1.00  0.00    -0.493 OA
ATOM     11  C   UNL     1       8.781   1.947  -7.873  1.00  0.00     0.278 C 
ENDBRANCH   5  10
BRANCH   6  12
ATOM     12  O   UNL     1       6.256   1.089  -5.496  1.00  0.00    -0.504 OA
ATOM     13  H   UNL     1       6.371   0.166  -5.094  1.00  0.00     0.293 HD
ENDBRANCH   6  12
TORSDOF 3
ENDMDL
MODEL 3
REMARK VINA RESULT:    -3.909      0.860      0.908
REMARK INTER + INTRA:          -4.580
REMARK INTER:                  -4.478
REMARK INTRA:                  -0.102
REMARK UNBOUND:                -0.099
REMARK SMILES COc1cc(C(=O)[O-])ccc1O
REMARK SMILES IDX 5 1 9 2 4 3 10 4 3 5 11 6 6 7 7 8 8 9 2 10 1 11 12 12
REMARK H PARENT 12 13
REMARK Flexibility Score: inf
ROOT
ATOM      1  C   UNL     1       7.506   2.585  -5.586  1.00  0.00     0.001 A 
ATOM      2  C   UNL     1       7.364   2.533  -4.190  1.00  0.00     0.014 A 
ATOM      3  C   UNL     1       8.152   3.691  -6.167  1.00  0.00     0.060 A 
ATOM      4  C   UNL     1       7.858   3.563  -3.390  1.00  0.00     0.051 A 
ATOM      5  C   UNL     1       8.653   4.734  -5.362  1.00  0.00     0.161 A 
ATOM      6  C   UNL     1       8.502   4.663  -3.971  1.00  0.00     0.157 A 
ENDROOT
BRANCH   1   7
ATOM      7  C   UNL     1       6.982   1.493  -6.438  1.00  0.00     0.072 C 
ATOM      8  O   UNL     1       7.405   1.338  -7.614  1.00  0.00    -0.545 OA
ATOM      9  O   UNL     1       6.015   0.621  -5.950  1.00  0.00    -0.545 OA
ENDBRANCH   1   7
BRANCH   5  10
ATOM     10  O   UNL     1       9.304   5.852  -5.906  1.00  0.00    -0.493 OA
ATOM     11  C   UNL     1       8.639   6.967  -6.493  1.00  0.00     0.278 C 
ENDBRANCH   5  10
BRANCH   6  12
ATOM     12  O   UNL     1       8.995   5.691  -3.170  1.00  0.00    -0.504 OA
ATOM     13  H   UNL     1       8.421   6.135  -2.463  1.00  0.00     0.293 HD
ENDBRANCH   6  12
TORSDOF 3
ENDMDL
MODEL 4
REMARK VINA RESULT:    -3.902      1.803      3.224
REMARK INTER + INTRA:          -4.571
REMARK INTER:                  -4.476
REMARK INTRA:                  -0.095
REMARK UNBOUND:                -0.099
REMARK SMILES COc1cc(C(=O)[O-])ccc1O
REMARK SMILES IDX 5 1 9 2 4 3 10 4 3 5 11 6 6 7 7 8 8 9 2 10 1 11 12 12
REMARK H PARENT 12 13
REMARK Flexibility Score: inf
ROOT
ATOM      1  C   UNL     1       7.743   1.739  -7.233  1.00  0.00     0.001 A 
ATOM      2  C   UNL     1       8.585   2.704  -7.810  1.00  0.00     0.014 A 
ATOM      3  C   UNL     1       7.130   2.017  -5.999  1.00  0.00     0.060 A 
ATOM      4  C   UNL     1       8.809   3.922  -7.167  1.00  0.00     0.051 A 
ATOM      5  C   UNL     1       7.353   3.245  -5.346  1.00  0.00     0.161 A 
ATOM      6  C   UNL     1       8.196   4.196  -5.938  1.00  0.00     0.157 A 
ENDROOT
BRANCH   1   7
ATOM      7  C   UNL     1       7.505   0.446  -7.913  1.00  0.00     0.072 C 
ATOM      8  O   UNL     1       7.936   0.245  -9.079  1.00  0.00    -0.545 OA
ATOM      9  O   UNL     1       6.800  -0.568  -7.272  1.00  0.00    -0.545 OA
ENDBRANCH   1   7
BRANCH   5  10
ATOM     10  O   UNL     1       6.758   3.558  -4.113  1.00  0.00    -0.493 OA
ATOM     11  C   UNL     1       7.285   3.182  -2.845  1.00  0.00     0.278 C 
ENDBRANCH   5  10
BRANCH   6  12
ATOM     12  O   UNL     1       8.420   5.413  -5.297  1.00  0.00    -0.504 OA
ATOM     13  H   UNL     1       9.304   5.901  -5.380  1.00  0.00     0.293 HD
ENDBRANCH   6  12
TORSDOF 3
ENDMDL
MODEL 5
REMARK VINA RESULT:    -3.831      1.313      4.601
REMARK INTER + INTRA:          -4.490
REMARK INTER:                  -4.397
REMARK INTRA:                  -0.093
REMARK UNBOUND:                -0.099
REMARK SMILES COc1cc(C(=O)[O-])ccc1O
REMARK SMILES IDX 5 1 9 2 4 3 10 4 3 5 11 6 6 7 7 8 8 9 2 10 1 11 12 12
REMARK H PARENT 12 13
REMARK Flexibility Score: inf
ROOT
ATOM      1  C   UNL     1       8.293   4.010  -5.370  1.00  0.00     0.001 A 
ATOM      2  C   UNL     1       7.471   3.509  -4.348  1.00  0.00     0.014 A 
ATOM      3  C   UNL     1       8.358   3.322  -6.595  1.00  0.00     0.060 A 
ATOM      4  C   UNL     1       6.728   2.344  -4.545  1.00  0.00     0.051 A 
ATOM      5  C   UNL     1       7.609   2.145  -6.798  1.00  0.00     0.161 A 
ATOM      6  C   UNL     1       6.794   1.661  -5.765  1.00  0.00     0.157 A 
ENDROOT
BRANCH   1   7
ATOM      7  C   UNL     1       9.082   5.245  -5.164  1.00  0.00     0.072 C 
ATOM      8  O   UNL     1      10.012   5.277  -4.315  1.00  0.00    -0.545 OA
ATOM      9  O   UNL     1       8.808   6.389  -5.906  1.00  0.00    -0.545 OA
ENDBRANCH   1   7
BRANCH   5  10
ATOM     10  O   UNL     1       7.648   1.432  -8.006  1.00  0.00    -0.493 OA
ATOM     11  C   UNL     1       8.653   0.482  -8.351  1.00  0.00     0.278 C 
ENDBRANCH   5  10
BRANCH   6  12
ATOM     12  O   UNL     1       6.052   0.498  -5.961  1.00  0.00    -0.504 OA
ATOM     13  H   UNL     1       5.647  -0.010  -5.183  1.00  0.00     0.293 HD
ENDBRANCH   6  12
TORSDOF 3
ENDMDL
MODEL 6
REMARK VINA RESULT:    -3.778      1.602      2.881
REMARK INTER + INTRA:          -4.429
REMARK INTER:                  -4.347
REMARK INTRA:                  -0.082
REMARK UNBOUND:                -0.099
REMARK SMILES COc1cc(C(=O)[O-])ccc1O
REMARK SMILES IDX 5 1 9 2 4 3 10 4 3 5 11 6 6 7 7 8 8 9 2 10 1 11 12 12
REMARK H PARENT 12 13
REMARK Flexibility Score: inf
ROOT
ATOM      1  C   UNL     1       7.697   3.438  -5.170  1.00  0.00     0.001 A 
ATOM      2  C   UNL     1       7.679   3.778  -6.533  1.00  0.00     0.014 A 
ATOM      3  C   UNL     1       8.296   4.321  -4.253  1.00  0.00     0.060 A 
ATOM      4  C   UNL     1       8.246   4.975  -6.971  1.00  0.00     0.051 A 
ATOM      5  C   UNL     1       8.870   5.531  -4.691  1.00  0.00     0.161 A 
ATOM      6  C   UNL     1       8.842   5.852  -6.055  1.00  0.00     0.157 A 
ENDROOT
BRANCH   1   7
ATOM      7  C   UNL     1       7.096   2.169  -4.702  1.00  0.00     0.072 C 
ATOM      8  O   UNL     1       7.213   1.808  -3.501  1.00  0.00    -0.545 OA
ATOM      9  O   UNL     1       6.392   1.355  -5.584  1.00  0.00    -0.545 OA
ENDBRANCH   1   7
BRANCH   5  10
ATOM     10  O   UNL     1       9.476   6.436  -3.806  1.00  0.00    -0.493 OA
ATOM     11  C   UNL     1       9.431   6.329  -2.386  1.00  0.00     0.278 C 
ENDBRANCH   5  10
BRANCH   6  12
ATOM     12  O   UNL     1       9.408   7.047  -6.494  1.00  0.00    -0.504 OA
ATOM     13  H   UNL     1       8.834   7.823  -6.805  1.00  0.00     0.293 HD
ENDBRANCH   6  12
TORSDOF 3
ENDMDL
MODEL 7
REMARK VINA RESULT:    -3.671     14.297     15.456
REMARK INTER + INTRA:          -4.307
REMARK INTER:                  -4.210
REMARK INTRA:                  -0.097
REMARK UNBOUND:                -0.099
REMARK SMILES COc1cc(C(=O)[O-])ccc1O
REMARK SMILES IDX 5 1 9 2 4 3 10 4 3 5 11 6 6 7 7 8 8 9 2 10 1 11 12 12
REMARK H PARENT 12 13
REMARK Flexibility Score: inf
ROOT
ATOM      1  C   UNL     1       4.418  -2.732   9.334  1.00  0.00     0.001 A 
ATOM      2  C   UNL     1       4.878  -1.585  10.002  1.00  0.00     0.014 A 
ATOM      3  C   UNL     1       5.251  -3.352   8.385  1.00  0.00     0.060 A 
ATOM      4  C   UNL     1       6.146  -1.069   9.728  1.00  0.00     0.051 A 
ATOM      5  C   UNL     1       6.531  -2.834   8.106  1.00  0.00     0.161 A 
ATOM      6  C   UNL     1       6.973  -1.689   8.783  1.00  0.00     0.157 A 
ENDROOT
BRANCH   1   7
ATOM      7  C   UNL     1       3.074  -3.282   9.622  1.00  0.00     0.072 C 
ATOM      8  O   UNL     1       2.942  -4.456  10.058  1.00  0.00    -0.545 OA
ATOM      9  O   UNL     1       1.937  -2.508   9.416  1.00  0.00    -0.545 OA
ENDBRANCH   1   7
BRANCH   5  10
ATOM     10  O   UNL     1       7.390  -3.425   7.166  1.00  0.00    -0.493 OA
ATOM     11  C   UNL     1       8.147  -4.610   7.399  1.00  0.00     0.278 C 
ENDBRANCH   5  10
BRANCH   6  12
ATOM     12  O   UNL     1       8.238  -1.172   8.511  1.00  0.00    -0.504 OA
ATOM     13  H   UNL     1       9.080  -1.628   8.845  1.00  0.00     0.293 HD
ENDBRANCH   6  12
TORSDOF 3
ENDMDL
MODEL 8
REMARK VINA RESULT:    -3.648      2.310      4.290
REMARK INTER + INTRA:          -4.280
REMARK INTER:                  -4.202
REMARK INTRA:                  -0.078
REMARK UNBOUND:                -0.099
REMARK SMILES COc1cc(C(=O)[O-])ccc1O
REMARK SMILES IDX 5 1 9 2 4 3 10 4 3 5 11 6 6 7 7 8 8 9 2 10 1 11 12 12
REMARK H PARENT 12 13
REMARK Flexibility Score: inf
ROOT
ATOM      1  C   UNL     1       8.183   5.323  -6.482  1.00  0.00     0.001 A 
ATOM      2  C   UNL     1       8.805   5.557  -5.244  1.00  0.00     0.014 A 
ATOM      3  C   UNL     1       7.770   4.018  -6.804  1.00  0.00     0.060 A 
ATOM      4  C   UNL     1       9.009   4.509  -4.346  1.00  0.00     0.051 A 
ATOM      5  C   UNL     1       7.975   2.956  -5.900  1.00  0.00     0.161 A 
ATOM      6  C   UNL     1       8.596   3.210  -4.670  1.00  0.00     0.157 A 
ENDROOT
BRANCH   1   7
ATOM      7  C   UNL     1       7.965   6.433  -7.436  1.00  0.00     0.072 C 
ATOM      8  O   UNL     1       7.135   7.346  -7.180  1.00  0.00    -0.545 OA
ATOM      9  O   UNL     1       8.674   6.485  -8.631  1.00  0.00    -0.545 OA
ENDBRANCH   1   7
BRANCH   5  10
ATOM     10  O   UNL     1       7.576   1.641  -6.186  1.00  0.00    -0.493 OA
ATOM     11  C   UNL     1       7.461   1.101  -7.499  1.00  0.00     0.278 C 
ENDBRANCH   5  10
BRANCH   6  12
ATOM     12  O   UNL     1       8.801   2.164  -3.772  1.00  0.00    -0.504 OA
ATOM     13  H   UNL     1       9.386   1.370  -4.007  1.00  0.00     0.293 HD
ENDBRANCH   6  12
TORSDOF 3
ENDMDL
MODEL 9
REMARK VINA RESULT:    -3.575      2.536      4.041
REMARK INTER + INTRA:          -4.197
REMARK INTER:                  -4.112
REMARK INTRA:                  -0.085
REMARK UNBOUND:                -0.099
REMARK SMILES COc1cc(C(=O)[O-])ccc1O
REMARK SMILES IDX 5 1 9 2 4 3 10 4 3 5 11 6 6 7 7 8 8 9 2 10 1 11 12 12
REMARK H PARENT 12 13
REMARK Flexibility Score: inf
ROOT
ATOM      1  C   UNL     1       8.966   5.916  -4.297  1.00  0.00     0.001 A 
ATOM      2  C   UNL     1       9.348   6.339  -3.013  1.00  0.00     0.014 A 
ATOM      3  C   UNL     1       8.845   6.870  -5.323  1.00  0.00     0.060 A 
ATOM      4  C   UNL     1       9.605   7.686  -2.759  1.00  0.00     0.051 A 
ATOM      5  C   UNL     1       9.104   8.233  -5.071  1.00  0.00     0.161 A 
ATOM      6  C   UNL     1       9.484   8.634  -3.783  1.00  0.00     0.157 A 
ENDROOT
BRANCH   1   7
ATOM      7  C   UNL     1       8.693   4.487  -4.569  1.00  0.00     0.072 C 
ATOM      8  O   UNL     1       9.634   3.695  -4.840  1.00  0.00    -0.545 OA
ATOM      9  O   UNL     1       7.392   3.997  -4.527  1.00  0.00    -0.545 OA
ENDBRANCH   1   7
BRANCH   5  10
ATOM     10  O   UNL     1       8.994   9.213  -6.070  1.00  0.00    -0.493 OA
ATOM     11  C   UNL     1       7.861   9.377  -6.918  1.00  0.00     0.278 C 
ENDBRANCH   5  10
BRANCH   6  12
ATOM     12  O   UNL     1       9.741   9.980  -3.529  1.00  0.00    -0.504 OA
ATOM     13  H   UNL     1       9.144  10.712  -3.894  1.00  0.00     0.293 HD
ENDBRANCH   6  12
TORSDOF 3
ENDMDL
