MODEL 1
REMARK VINA RESULT:    -4.689      0.000      0.000
REMARK INTER + INTRA:          -8.002
REMARK INTER:                  -7.155
REMARK INTRA:                  -0.847
REMARK UNBOUND:                -0.847
REMARK SMILES O=C([O-])CCCCCCCCC(=O)[O-]
REMARK SMILES IDX 7 1 6 2 5 3 4 4 2 5 1 6 3 7 8 8 9 9 10 10 11 11 12 12 13 13
REMARK SMILES IDX 14 14
REMARK H PARENT
REMARK Flexibility Score: inf
ROOT
ATOM      1  C   UNL     1     131.849 134.096 132.890  1.00  0.00     0.000 C 
ENDROOT
BRANCH   1   2
ATOM      2  C   UNL     1     131.195 133.001 133.748  1.00  0.00     0.000 C 
BRANCH   2   3
ATOM      3  C   UNL     1     131.077 131.660 133.008  1.00  0.00     0.006 C 
BRANCH   3   4
ATOM      4  C   UNL     1     129.751 131.518 132.251  1.00  0.00     0.053 C 
BRANCH   4   5
ATOM      5  C   UNL     1     129.978 131.623 130.776  1.00  0.00     0.041 C 
ATOM      6  O   UNL     1     131.132 131.462 130.299  1.00  0.00    -0.550 OA
ATOM      7  O   UNL     1     128.924 131.950 129.932  1.00  0.00    -0.550 OA
ENDBRANCH   4   5
ENDBRANCH   3   4
ENDBRANCH   2   3
ENDBRANCH   1   2
BRANCH   1   8
ATOM      8  C   UNL     1     132.885 134.884 133.705  1.00  0.00     0.000 C 
BRANCH   8   9
ATOM      9  C   UNL     1     134.000 133.990 134.271  1.00  0.00     0.000 C 
BRANCH   9  10
ATOM     10  C   UNL     1     135.234 133.934 133.360  1.00  0.00     0.006 C 
BRANCH  10  11
ATOM     11  C   UNL     1     135.833 132.524 133.333  1.00  0.00     0.053 C 
BRANCH  11  12
ATOM     12  C   UNL     1     134.825 131.535 132.839  1.00  0.00     0.041 C 
ATOM     13  O   UNL     1     134.442 130.595 133.584  1.00  0.00    -0.550 OA
ATOM     14  O   UNL     1     134.273 131.680 131.573  1.00  0.00    -0.550 OA
ENDBRANCH  11  12
ENDBRANCH  10  11
ENDBRANCH   9  10
ENDBRANCH   8   9
ENDBRANCH   1   8
TORSDOF 9
ENDMDL
MODEL 2
REMARK VINA RESULT:    -4.688      2.430      4.680
REMARK INTER + INTRA:          -8.002
REMARK INTER:                  -7.163
REMARK INTRA:                  -0.839
REMARK UNBOUND:                -0.847
REMARK SMILES O=C([O-])CCCCCCCCC(=O)[O-]
REMARK SMILES IDX 7 1 6 2 5 3 4 4 2 5 1 6 3 7 8 8 9 9 10 10 11 11 12 12 13 13
REMARK SMILES IDX 14 14
REMARK H PARENT
REMARK Flexibility Score: inf
ROOT
ATOM      1  C   UNL     1     135.008 133.589 134.052  1.00  0.00     0.000 C 
ENDROOT
BRANCH   1   2
ATOM      2  C   UNL     1     135.595 134.769 133.261  1.00  0.00     0.000 C 
BRANCH   2   3
ATOM      3  C   UNL     1     134.558 135.867 132.978  1.00  0.00     0.006 C 
BRANCH   3   4
ATOM      4  C   UNL     1     133.241 135.644 133.731  1.00  0.00     0.053 C 
BRANCH   4   5
ATOM      5  C   UNL     1     132.076 135.999 132.862  1.00  0.00     0.041 C 
ATOM      6  O   UNL     1     131.349 136.987 133.148  1.00  0.00    -0.550 OA
ATOM      7  O   UNL     1     131.762 135.208 131.764  1.00  0.00    -0.550 OA
ENDBRANCH   4   5
ENDBRANCH   3   4
ENDBRANCH   2   3
ENDBRANCH   1   2
BRANCH   1   8
ATOM      8  C   UNL     1     135.211 132.268 133.295  1.00  0.00     0.000 C 
BRANCH   8   9
ATOM      9  C   UNL     1     133.981 131.348 133.366  1.00  0.00     0.000 C 
BRANCH   9  10
ATOM     10  C   UNL     1     132.817 131.848 132.499  1.00  0.00     0.006 C 
BRANCH  10  11
ATOM     11  C   UNL     1     131.545 132.019 133.335  1.00  0.00     0.053 C 
BRANCH  11  12
ATOM     12  C   UNL     1     130.331 131.747 132.505  1.00  0.00     0.041 C 
ATOM     13  O   UNL     1     130.317 132.053 131.283  1.00  0.00    -0.550 OA
ATOM     14  O   UNL     1     129.233 131.110 133.068  1.00  0.00    -0.550 OA
ENDBRANCH  11  12
ENDBRANCH  10  11
ENDBRANCH   9  10
ENDBRANCH   8   9
ENDBRANCH   1   8
TORSDOF 9
ENDMDL
MODEL 3
REMARK VINA RESULT:    -4.681      2.701      4.792
REMARK INTER + INTRA:          -7.990
REMARK INTER:                  -7.214
REMARK INTRA:                  -0.776
REMARK UNBOUND:                -0.847
REMARK SMILES O=C([O-])CCCCCCCCC(=O)[O-]
REMARK SMILES IDX 7 1 6 2 5 3 4 4 2 5 1 6 3 7 8 8 9 9 10 10 11 11 12 12 13 13
REMARK SMILES IDX 14 14
REMARK H PARENT
REMARK Flexibility Score: inf
ROOT
ATOM      1  C   UNL     1     132.258 134.385 132.714  1.00  0.00     0.000 C 
ENDROOT
BRANCH   1   2
ATOM      2  C   UNL     1     132.845 135.359 133.748  1.00  0.00     0.000 C 
BRANCH   2   3
ATOM      3  C   UNL     1     134.240 135.871 133.355  1.00  0.00     0.006 C 
BRANCH   3   4
ATOM      4  C   UNL     1     135.310 134.773 133.413  1.00  0.00     0.053 C 
BRANCH   4   5
ATOM      5  C   UNL     1     136.548 135.212 132.698  1.00  0.00     0.041 C 
ATOM      6  O   UNL     1     136.650 135.057 131.453  1.00  0.00    -0.550 OA
ATOM      7  O   UNL     1     137.611 135.746 133.414  1.00  0.00    -0.550 OA
ENDBRANCH   4   5
ENDBRANCH   3   4
ENDBRANCH   2   3
ENDBRANCH   1   2
BRANCH   1   8
ATOM      8  C   UNL     1     131.273 133.412 133.378  1.00  0.00     0.000 C 
BRANCH   8   9
ATOM      9  C   UNL     1     131.762 131.954 133.340  1.00  0.00     0.000 C 
BRANCH   9  10
ATOM     10  C   UNL     1     133.098 131.797 132.600  1.00  0.00     0.006 C 
BRANCH  10  11
ATOM     11  C   UNL     1     134.161 131.177 133.512  1.00  0.00     0.053 C 
BRANCH  11  12
ATOM     12  C   UNL     1     135.382 130.820 132.727  1.00  0.00     0.041 C 
ATOM     13  O   UNL     1     136.091 129.837 133.070  1.00  0.00    -0.550 OA
ATOM     14  O   UNL     1     135.712 131.541 131.587  1.00  0.00    -0.550 OA
ENDBRANCH  11  12
ENDBRANCH  10  11
ENDBRANCH   9  10
ENDBRANCH   8   9
ENDBRANCH   1   8
TORSDOF 9
ENDMDL
MODEL 4
REMARK VINA RESULT:    -4.673      1.863      2.721
REMARK INTER + INTRA:          -7.979
REMARK INTER:                  -6.932
REMARK INTRA:                  -1.047
REMARK UNBOUND:                -0.847
REMARK SMILES O=C([O-])CCCCCCCCC(=O)[O-]
REMARK SMILES IDX 7 1 6 2 5 3 4 4 2 5 1 6 3 7 8 8 9 9 10 10 11 11 12 12 13 13
REMARK SMILES IDX 14 14
REMARK H PARENT
REMARK Flexibility Score: inf
ROOT
ATOM      1  C   UNL     1     134.129 135.855 132.479  1.00  0.00     0.000 C 
ENDROOT
BRANCH   1   2
ATOM      2  C   UNL     1     133.024 135.856 133.547  1.00  0.00     0.000 C 
BRANCH   2   3
ATOM      3  C   UNL     1     131.795 135.033 133.130  1.00  0.00     0.006 C 
BRANCH   3   4
ATOM      4  C   UNL     1     131.745 133.659 133.810  1.00  0.00     0.053 C 
BRANCH   4   5
ATOM      5  C   UNL     1     131.943 132.571 132.804  1.00  0.00     0.041 C 
ATOM      6  O   UNL     1     132.014 131.370 133.175  1.00  0.00    -0.550 OA
ATOM      7  O   UNL     1     132.101 132.886 131.460  1.00  0.00    -0.550 OA
ENDBRANCH   4   5
ENDBRANCH   3   4
ENDBRANCH   2   3
ENDBRANCH   1   2
BRANCH   1   8
ATOM      8  C   UNL     1     135.510 135.655 133.120  1.00  0.00     0.000 C 
BRANCH   8   9
ATOM      9  C   UNL     1     135.702 134.238 133.687  1.00  0.00     0.000 C 
BRANCH   9  10
ATOM     10  C   UNL     1     135.546 133.148 132.617  1.00  0.00     0.006 C 
BRANCH  10  11
ATOM     11  C   UNL     1     135.559 131.753 133.251  1.00  0.00     0.053 C 
BRANCH  11  12
ATOM     12  C   UNL     1     135.436 130.697 132.198  1.00  0.00     0.041 C 
ATOM     13  O   UNL     1     134.793 130.930 131.140  1.00  0.00    -0.550 OA
ATOM     14  O   UNL     1     136.071 129.474 132.363  1.00  0.00    -0.550 OA
ENDBRANCH  11  12
ENDBRANCH  10  11
ENDBRANCH   9  10
ENDBRANCH   8   9
ENDBRANCH   1   8
TORSDOF 9
ENDMDL
MODEL 5
REMARK VINA RESULT:    -4.661      3.057      5.578
REMARK INTER + INTRA:          -7.960
REMARK INTER:                  -7.032
REMARK INTRA:                  -0.928
REMARK UNBOUND:                -0.847
REMARK SMILES O=C([O-])CCCCCCCCC(=O)[O-]
REMARK SMILES IDX 7 1 6 2 5 3 4 4 2 5 1 6 3 7 8 8 9 9 10 10 11 11 12 12 13 13
REMARK SMILES IDX 14 14
REMARK H PARENT
REMARK Flexibility Score: inf
ROOT
ATOM      1  C   UNL     1     133.419 132.018 132.463  1.00  0.00     0.000 C 
ENDROOT
BRANCH   1   2
ATOM      2  C   UNL     1     134.657 131.515 133.223  1.00  0.00     0.000 C 
BRANCH   2   3
ATOM      3  C   UNL     1     135.793 132.549 133.255  1.00  0.00     0.006 C 
BRANCH   3   4
ATOM      4  C   UNL     1     135.340 133.908 133.804  1.00  0.00     0.053 C 
BRANCH   4   5
ATOM      5  C   UNL     1     135.832 135.016 132.927  1.00  0.00     0.041 C 
ATOM      6  O   UNL     1     136.825 135.706 133.276  1.00  0.00    -0.550 OA
ATOM      7  O   UNL     1     135.161 135.319 131.749  1.00  0.00    -0.550 OA
ENDBRANCH   4   5
ENDBRANCH   3   4
ENDBRANCH   2   3
ENDBRANCH   1   2
BRANCH   1   8
ATOM      8  C   UNL     1     132.142 131.793 133.286  1.00  0.00     0.000 C 
BRANCH   8   9
ATOM      9  C   UNL     1     131.262 133.050 133.373  1.00  0.00     0.000 C 
BRANCH   9  10
ATOM     10  C   UNL     1     131.809 134.214 132.533  1.00  0.00     0.006 C 
BRANCH  10  11
ATOM     11  C   UNL     1     131.984 135.473 133.388  1.00  0.00     0.053 C 
BRANCH  11  12
ATOM     12  C   UNL     1     131.811 136.702 132.554  1.00  0.00     0.041 C 
ATOM     13  O   UNL     1     132.082 136.676 131.324  1.00  0.00    -0.550 OA
ATOM     14  O   UNL     1     131.306 137.863 133.123  1.00  0.00    -0.550 OA
ENDBRANCH  11  12
ENDBRANCH  10  11
ENDBRANCH   9  10
ENDBRANCH   8   9
ENDBRANCH   1   8
TORSDOF 9
ENDMDL
MODEL 6
REMARK VINA RESULT:    -4.650      3.265      4.666
REMARK INTER + INTRA:          -7.943
REMARK INTER:                  -7.211
REMARK INTRA:                  -0.732
REMARK UNBOUND:                -0.847
REMARK SMILES O=C([O-])CCCCCCCCC(=O)[O-]
REMARK SMILES IDX 7 1 6 2 5 3 4 4 2 5 1 6 3 7 8 8 9 9 10 10 11 11 12 12 13 13
REMARK SMILES IDX 14 14
REMARK H PARENT
REMARK Flexibility Score: inf
ROOT
ATOM      1  C   UNL     1     133.949 133.862 134.437  1.00  0.00     0.000 C 
ENDROOT
BRANCH   1   2
ATOM      2  C   UNL     1     133.505 132.496 133.892  1.00  0.00     0.000 C 
BRANCH   2   3
ATOM      3  C   UNL     1     134.349 132.032 132.695  1.00  0.00     0.006 C 
BRANCH   3   4
ATOM      4  C   UNL     1     135.672 131.384 133.120  1.00  0.00     0.053 C 
BRANCH   4   5
ATOM      5  C   UNL     1     135.819 130.035 132.490  1.00  0.00     0.041 C 
ATOM      6  O   UNL     1     136.160 129.044 133.188  1.00  0.00    -0.550 OA
ATOM      7  O   UNL     1     135.630 129.883 131.122  1.00  0.00    -0.550 OA
ENDBRANCH   4   5
ENDBRANCH   3   4
ENDBRANCH   2   3
ENDBRANCH   1   2
BRANCH   1   8
ATOM      8  C   UNL     1     133.860 134.941 133.348  1.00  0.00     0.000 C 
BRANCH   8   9
ATOM      9  C   UNL     1     135.081 135.876 133.338  1.00  0.00     0.000 C 
BRANCH   9  10
ATOM     10  C   UNL     1     136.411 135.112 133.259  1.00  0.00     0.006 C 
BRANCH  10  11
ATOM     11  C   UNL     1     137.395 135.821 132.322  1.00  0.00     0.053 C 
BRANCH  11  12
ATOM     12  C   UNL     1     137.067 135.522 130.894  1.00  0.00     0.041 C 
ATOM     13  O   UNL     1     137.397 136.330 129.986  1.00  0.00    -0.550 OA
ATOM     14  O   UNL     1     136.442 134.328 130.559  1.00  0.00    -0.550 OA
ENDBRANCH  11  12
ENDBRANCH  10  11
ENDBRANCH   9  10
ENDBRANCH   8   9
ENDBRANCH   1   8
TORSDOF 9
ENDMDL
MODEL 7
REMARK VINA RESULT:    -4.637      3.387      5.953
REMARK INTER + INTRA:          -7.923
REMARK INTER:                  -7.131
REMARK INTRA:                  -0.793
REMARK UNBOUND:                -0.847
REMARK SMILES O=C([O-])CCCCCCCCC(=O)[O-]
REMARK SMILES IDX 7 1 6 2 5 3 4 4 2 5 1 6 3 7 8 8 9 9 10 10 11 11 12 12 13 13
REMARK SMILES IDX 14 14
REMARK H PARENT
REMARK Flexibility Score: inf
ROOT
ATOM      1  C   UNL     1     135.015 133.099 133.527  1.00  0.00     0.000 C 
ENDROOT
BRANCH   1   2
ATOM      2  C   UNL     1     136.236 134.030 133.457  1.00  0.00     0.000 C 
BRANCH   2   3
ATOM      3  C   UNL     1     135.867 135.461 133.036  1.00  0.00     0.006 C 
BRANCH   3   4
ATOM      4  C   UNL     1     135.529 135.569 131.544  1.00  0.00     0.053 C 
BRANCH   4   5
ATOM      5  C   UNL     1     136.725 135.231 130.712  1.00  0.00     0.041 C 
ATOM      6  O   UNL     1     137.766 135.937 130.781  1.00  0.00    -0.550 OA
ATOM      7  O   UNL     1     136.674 134.165 129.822  1.00  0.00    -0.550 OA
ENDBRANCH   4   5
ENDBRANCH   3   4
ENDBRANCH   2   3
ENDBRANCH   1   2
BRANCH   1   8
ATOM      8  C   UNL     1     133.825 133.807 134.190  1.00  0.00     0.000 C 
BRANCH   8   9
ATOM      9  C   UNL     1     132.482 133.457 133.527  1.00  0.00     0.000 C 
BRANCH   9  10
ATOM     10  C   UNL     1     131.567 134.679 133.362  1.00  0.00     0.006 C 
BRANCH  10  11
ATOM     11  C   UNL     1     132.368 135.981 133.465  1.00  0.00     0.053 C 
BRANCH  11  12
ATOM     12  C   UNL     1     131.768 137.036 132.591  1.00  0.00     0.041 C 
ATOM     13  O   UNL     1     131.231 138.054 133.103  1.00  0.00    -0.550 OA
ATOM     14  O   UNL     1     131.845 136.920 131.209  1.00  0.00    -0.550 OA
ENDBRANCH  11  12
ENDBRANCH  10  11
ENDBRANCH   9  10
ENDBRANCH   8   9
ENDBRANCH   1   8
TORSDOF 9
ENDMDL
MODEL 8
REMARK VINA RESULT:    -4.592      3.180      4.123
REMARK INTER + INTRA:          -7.855
REMARK INTER:                  -7.050
REMARK INTRA:                  -0.806
REMARK UNBOUND:                -0.847
REMARK SMILES O=C([O-])CCCCCCCCC(=O)[O-]
REMARK SMILES IDX 7 1 6 2 5 3 4 4 2 5 1 6 3 7 8 8 9 9 10 10 11 11 12 12 13 13
REMARK SMILES IDX 14 14
REMARK H PARENT
REMARK Flexibility Score: inf
ROOT
ATOM      1  C   UNL     1     133.559 132.539 134.014  1.00  0.00     0.000 C 
ENDROOT
BRANCH   1   2
ATOM      2  C   UNL     1     132.253 132.191 133.282  1.00  0.00     0.000 C 
BRANCH   2   3
ATOM      3  C   UNL     1     131.425 133.435 132.923  1.00  0.00     0.006 C 
BRANCH   3   4
ATOM      4  C   UNL     1     132.038 134.730 133.471  1.00  0.00     0.053 C 
BRANCH   4   5
ATOM      5  C   UNL     1     131.798 135.863 132.523  1.00  0.00     0.041 C 
ATOM      6  O   UNL     1     131.727 135.648 131.284  1.00  0.00    -0.550 OA
ATOM      7  O   UNL     1     131.705 137.163 133.003  1.00  0.00    -0.550 OA
ENDBRANCH   4   5
ENDBRANCH   3   4
ENDBRANCH   2   3
ENDBRANCH   1   2
BRANCH   1   8
ATOM      8  C   UNL     1     134.762 131.871 133.333  1.00  0.00     0.000 C 
BRANCH   8   9
ATOM      9  C   UNL     1     135.868 132.874 132.965  1.00  0.00     0.000 C 
BRANCH   9  10
ATOM     10  C   UNL     1     135.716 134.216 133.694  1.00  0.00     0.006 C 
BRANCH  10  11
ATOM     11  C   UNL     1     135.751 135.385 132.704  1.00  0.00     0.053 C 
BRANCH  11  12
ATOM     12  C   UNL     1     137.163 135.752 132.376  1.00  0.00     0.041 C 
ATOM     13  O   UNL     1     137.986 135.993 133.299  1.00  0.00    -0.550 OA
ATOM     14  O   UNL     1     137.585 135.780 131.053  1.00  0.00    -0.550 OA
ENDBRANCH  11  12
ENDBRANCH  10  11
ENDBRANCH   9  10
ENDBRANCH   8   9
ENDBRANCH   1   8
TORSDOF 9
ENDMDL
MODEL 9
REMARK VINA RESULT:    -4.574      2.565      3.825
REMARK INTER + INTRA:          -7.827
REMARK INTER:                  -7.025
REMARK INTRA:                  -0.803
REMARK UNBOUND:                -0.847
REMARK SMILES O=C([O-])CCCCCCCCC(=O)[O-]
REMARK SMILES IDX 7 1 6 2 5 3 4 4 2 5 1 6 3 7 8 8 9 9 10 10 11 11 12 12 13 13
REMARK SMILES IDX 14 14
REMARK H PARENT
REMARK Flexibility Score: inf
ROOT
ATOM      1  C   UNL     1     135.486 132.053 133.223  1.00  0.00     0.000 C 
ENDROOT
BRANCH   1   2
ATOM      2  C   UNL     1     134.175 131.862 132.444  1.00  0.00     0.000 C 
BRANCH   2   3
ATOM      3  C   UNL     1     133.018 131.390 133.338  1.00  0.00     0.006 C 
BRANCH   3   4
ATOM      4  C   UNL     1     131.861 132.397 133.386  1.00  0.00     0.053 C 
BRANCH   4   5
ATOM      5  C   UNL     1     130.696 131.891 132.596  1.00  0.00     0.041 C 
ATOM      6  O   UNL     1     129.765 131.266 133.169  1.00  0.00    -0.550 OA
ATOM      7  O   UNL     1     130.662 132.067 131.218  1.00  0.00    -0.550 OA
ENDBRANCH   4   5
ENDBRANCH   3   4
ENDBRANCH   2   3
ENDBRANCH   1   2
BRANCH   1   8
ATOM      8  C   UNL     1     135.819 133.544 133.376  1.00  0.00     0.000 C 
BRANCH   8   9
ATOM      9  C   UNL     1     134.970 134.439 132.459  1.00  0.00     0.000 C 
BRANCH   9  10
ATOM     10  C   UNL     1     134.593 135.773 133.118  1.00  0.00     0.006 C 
BRANCH  10  11
ATOM     11  C   UNL     1     133.212 135.689 133.776  1.00  0.00     0.053 C 
BRANCH  11  12
ATOM     12  C   UNL     1     132.174 136.315 132.899  1.00  0.00     0.041 C 
ATOM     13  O   UNL     1     131.784 135.724 131.858  1.00  0.00    -0.550 OA
ATOM     14  O   UNL     1     131.603 137.529 133.256  1.00  0.00    -0.550 OA
ENDBRANCH  11  12
ENDBRANCH  10  11
ENDBRANCH   9  10
ENDBRANCH   8   9
ENDBRANCH   1   8
TORSDOF 9
ENDMDL
