MODEL 1
REMARK VINA RESULT:    -3.265      0.000      0.000
REMARK INTER + INTRA:          -3.635
REMARK INTER:                  -3.456
REMARK INTRA:                  -0.179
REMARK UNBOUND:                -0.179
REMARK SMILES CC(C)[C@@H]1CC[C@H](C)CC1=O
REMARK SMILES IDX 8 1 7 2 6 3 5 4 4 5 10 6 11 7 9 8 2 9 1 10 3 11
REMARK H PARENT
REMARK Flexibility Score: inf
ROOT
ATOM      1  C   UNL     1     112.372 113.134 105.752  1.00  0.00     0.008 C 
ATOM      2  C   UNL     1     112.142 112.775 104.275  1.00  0.00    -0.007 C 
ATOM      3  C   UNL     1     112.861 111.468 103.875  1.00  0.00     0.004 C 
ATOM      4  C   UNL     1     112.225 110.225 104.523  1.00  0.00     0.012 C 
ATOM      5  C   UNL     1     110.719 110.111 104.187  1.00  0.00     0.058 C 
ATOM      6  C   UNL     1     110.025 111.434 104.466  1.00  0.00     0.136 C 
ATOM      7  O   UNL     1     108.932 111.476 105.012  1.00  0.00    -0.299 OA
ATOM      8  C   UNL     1     110.641 112.703 103.941  1.00  0.00     0.079 C 
ENDROOT
BRANCH   5   9
ATOM      9  C   UNL     1     110.022 108.894 104.875  1.00  0.00    -0.007 C 
ATOM     10  C   UNL     1     110.801 108.338 106.082  1.00  0.00     0.008 C 
ATOM     11  C   UNL     1     109.725 107.766 103.875  1.00  0.00     0.008 C 
ENDBRANCH   5   9
TORSDOF 1
ENDMDL
MODEL 2
REMARK VINA RESULT:    -3.257      2.083      4.799
REMARK INTER + INTRA:          -3.627
REMARK INTER:                  -3.442
REMARK INTRA:                  -0.184
REMARK UNBOUND:                -0.179
REMARK SMILES CC(C)[C@@H]1CC[C@H](C)CC1=O
REMARK SMILES IDX 8 1 7 2 6 3 5 4 4 5 10 6 11 7 9 8 2 9 1 10 3 11
REMARK H PARENT
REMARK Flexibility Score: inf
ROOT
ATOM      1  C   UNL     1     107.760 107.143 105.914  1.00  0.00     0.008 C 
ATOM      2  C   UNL     1     108.083 107.405 104.434  1.00  0.00    -0.007 C 
ATOM      3  C   UNL     1     107.319 108.628 103.879  1.00  0.00     0.004 C 
ATOM      4  C   UNL     1     107.825 109.955 104.471  1.00  0.00     0.012 C 
ATOM      5  C   UNL     1     109.343 110.144 104.238  1.00  0.00     0.058 C 
ATOM      6  C   UNL     1     110.092 108.896 104.672  1.00  0.00     0.136 C 
ATOM      7  O   UNL     1     111.140 108.967 105.297  1.00  0.00    -0.299 OA
ATOM      8  C   UNL     1     109.599 107.553 104.206  1.00  0.00     0.079 C 
ENDROOT
BRANCH   5   9
ATOM      9  C   UNL     1     109.909 111.454 104.875  1.00  0.00    -0.007 C 
ATOM     10  C   UNL     1     109.185 111.872 106.169  1.00  0.00     0.008 C 
ATOM     11  C   UNL     1     109.915 112.620 103.875  1.00  0.00     0.008 C 
ENDBRANCH   5   9
TORSDOF 1
ENDMDL
MODEL 3
REMARK VINA RESULT:    -3.256      1.987      3.295
REMARK INTER + INTRA:          -3.626
REMARK INTER:                  -3.445
REMARK INTRA:                  -0.181
REMARK UNBOUND:                -0.179
REMARK SMILES CC(C)[C@@H]1CC[C@H](C)CC1=O
REMARK SMILES IDX 8 1 7 2 6 3 5 4 4 5 10 6 11 7 9 8 2 9 1 10 3 11
REMARK H PARENT
REMARK Flexibility Score: inf
ROOT
ATOM      1  C   UNL     1     113.085 107.866 105.881  1.00  0.00     0.008 C 
ATOM      2  C   UNL     1     112.775 108.200 104.413  1.00  0.00    -0.007 C 
ATOM      3  C   UNL     1     111.570 107.396 103.876  1.00  0.00     0.004 C 
ATOM      4  C   UNL     1     110.239 107.840 104.507  1.00  0.00     0.012 C 
ATOM      5  C   UNL     1     109.984 109.353 104.302  1.00  0.00     0.058 C 
ATOM      6  C   UNL     1     111.212 110.145 104.717  1.00  0.00     0.136 C 
ATOM      7  O   UNL     1     111.115 111.179 105.361  1.00  0.00    -0.299 OA
ATOM      8  C   UNL     1     112.562 109.712 104.212  1.00  0.00     0.079 C 
ENDROOT
BRANCH   5   9
ATOM      9  C   UNL     1     108.670 109.856 104.979  1.00  0.00    -0.007 C 
ATOM     10  C   UNL     1     108.188 108.959 106.134  1.00  0.00     0.008 C 
ATOM     11  C   UNL     1     107.539 110.051 103.957  1.00  0.00     0.008 C 
ENDBRANCH   5   9
TORSDOF 1
ENDMDL
MODEL 4
REMARK VINA RESULT:    -3.217      2.022      3.503
REMARK INTER + INTRA:          -3.584
REMARK INTER:                  -3.400
REMARK INTRA:                  -0.184
REMARK UNBOUND:                -0.179
REMARK SMILES CC(C)[C@@H]1CC[C@H](C)CC1=O
REMARK SMILES IDX 8 1 7 2 6 3 5 4 4 5 10 6 11 7 9 8 2 9 1 10 3 11
REMARK H PARENT
REMARK Flexibility Score: inf
ROOT
ATOM      1  C   UNL     1     106.995 112.044 105.738  1.00  0.00     0.008 C 
ATOM      2  C   UNL     1     107.387 111.866 104.262  1.00  0.00    -0.007 C 
ATOM      3  C   UNL     1     108.605 112.735 103.875  1.00  0.00     0.004 C 
ATOM      4  C   UNL     1     109.909 112.244 104.528  1.00  0.00     0.012 C 
ATOM      5  C   UNL     1     110.200 110.763 104.183  1.00  0.00     0.058 C 
ATOM      6  C   UNL     1     108.965 109.919 104.450  1.00  0.00     0.136 C 
ATOM      7  O   UNL     1     109.046 108.824 104.988  1.00  0.00    -0.299 OA
ATOM      8  C   UNL     1     107.636 110.386 103.920  1.00  0.00     0.079 C 
ENDROOT
BRANCH   5   9
ATOM      9  C   UNL     1     111.485 110.208 104.875  1.00  0.00    -0.007 C 
ATOM     10  C   UNL     1     111.757 110.827 106.259  1.00  0.00     0.008 C 
ATOM     11  C   UNL     1     112.725 110.356 103.980  1.00  0.00     0.008 C 
ENDBRANCH   5   9
TORSDOF 1
ENDMDL
MODEL 5
REMARK VINA RESULT:    -3.104      2.418      4.338
REMARK INTER + INTRA:          -3.465
REMARK INTER:                  -3.283
REMARK INTRA:                  -0.182
REMARK UNBOUND:                -0.179
REMARK SMILES CC(C)[C@@H]1CC[C@H](C)CC1=O
REMARK SMILES IDX 8 1 7 2 6 3 5 4 4 5 10 6 11 7 9 8 2 9 1 10 3 11
REMARK H PARENT
REMARK Flexibility Score: inf
ROOT
ATOM      1  C   UNL     1     107.576 109.491 104.190  1.00  0.00     0.008 C 
ATOM      2  C   UNL     1     107.919 108.098 104.740  1.00  0.00    -0.007 C 
ATOM      3  C   UNL     1     108.976 107.375 103.875  1.00  0.00     0.004 C 
ATOM      4  C   UNL     1     110.367 108.023 103.983  1.00  0.00     0.012 C 
ATOM      5  C   UNL     1     110.857 108.087 105.450  1.00  0.00     0.058 C 
ATOM      6  C   UNL     1     109.774 108.690 106.329  1.00  0.00     0.136 C 
ATOM      7  O   UNL     1     110.041 109.507 107.198  1.00  0.00    -0.299 OA
ATOM      8  C   UNL     1     108.367 108.168 106.211  1.00  0.00     0.079 C 
ENDROOT
BRANCH   5   9
ATOM      9  C   UNL     1     112.242 108.792 105.609  1.00  0.00    -0.007 C 
ATOM     10  C   UNL     1     112.578 109.759 104.458  1.00  0.00     0.008 C 
ATOM     11  C   UNL     1     113.380 107.779 105.795  1.00  0.00     0.008 C 
ENDBRANCH   5   9
TORSDOF 1
ENDMDL
MODEL 6
REMARK VINA RESULT:    -3.073      1.732      4.298
REMARK INTER + INTRA:          -3.432
REMARK INTER:                  -3.249
REMARK INTRA:                  -0.183
REMARK UNBOUND:                -0.179
REMARK SMILES CC(C)[C@@H]1CC[C@H](C)CC1=O
REMARK SMILES IDX 8 1 7 2 6 3 5 4 4 5 10 6 11 7 9 8 2 9 1 10 3 11
REMARK H PARENT
REMARK Flexibility Score: inf
ROOT
ATOM      1  C   UNL     1     108.320 109.115 106.671  1.00  0.00     0.008 C 
ATOM      2  C   UNL     1     108.090 109.640 105.244  1.00  0.00    -0.007 C 
ATOM      3  C   UNL     1     107.868 111.168 105.215  1.00  0.00     0.004 C 
ATOM      4  C   UNL     1     109.146 111.955 105.555  1.00  0.00     0.012 C 
ATOM      5  C   UNL     1     110.315 111.584 104.611  1.00  0.00     0.058 C 
ATOM      6  C   UNL     1     110.464 110.074 104.541  1.00  0.00     0.136 C 
ATOM      7  O   UNL     1     111.564 109.541 104.567  1.00  0.00    -0.299 OA
ATOM      8  C   UNL     1     109.239 109.232 104.303  1.00  0.00     0.079 C 
ENDROOT
BRANCH   5   9
ATOM      9  C   UNL     1     111.649 112.318 104.960  1.00  0.00    -0.007 C 
ATOM     10  C   UNL     1     111.757 112.731 106.440  1.00  0.00     0.008 C 
ATOM     11  C   UNL     1     111.884 113.537 104.055  1.00  0.00     0.008 C 
ENDBRANCH   5   9
TORSDOF 1
ENDMDL
MODEL 7
REMARK VINA RESULT:    -3.055      1.927      3.950
REMARK INTER + INTRA:          -3.413
REMARK INTER:                  -3.230
REMARK INTRA:                  -0.183
REMARK UNBOUND:                -0.179
REMARK SMILES CC(C)[C@@H]1CC[C@H](C)CC1=O
REMARK SMILES IDX 8 1 7 2 6 3 5 4 4 5 10 6 11 7 9 8 2 9 1 10 3 11
REMARK H PARENT
REMARK Flexibility Score: inf
ROOT
ATOM      1  C   UNL     1     113.404 108.263 104.154  1.00  0.00     0.008 C 
ATOM      2  C   UNL     1     112.335 107.793 105.154  1.00  0.00    -0.007 C 
ATOM      3  C   UNL     1     112.588 108.342 106.576  1.00  0.00     0.004 C 
ATOM      4  C   UNL     1     112.353 109.860 106.671  1.00  0.00     0.012 C 
ATOM      5  C   UNL     1     110.926 110.248 106.214  1.00  0.00     0.058 C 
ATOM      6  C   UNL     1     110.625 109.612 104.867  1.00  0.00     0.136 C 
ATOM      7  O   UNL     1     110.056 110.235 103.982  1.00  0.00    -0.299 OA
ATOM      8  C   UNL     1     110.917 108.149 104.671  1.00  0.00     0.079 C 
ENDROOT
BRANCH   5   9
ATOM      9  C   UNL     1     110.665 111.788 106.239  1.00  0.00    -0.007 C 
ATOM     10  C   UNL     1     111.939 112.632 106.047  1.00  0.00     0.008 C 
ATOM     11  C   UNL     1     109.933 112.222 107.518  1.00  0.00     0.008 C 
ENDBRANCH   5   9
TORSDOF 1
ENDMDL
MODEL 8
REMARK VINA RESULT:    -3.053      1.564      2.216
REMARK INTER + INTRA:          -3.411
REMARK INTER:                  -3.230
REMARK INTRA:                  -0.181
REMARK UNBOUND:                -0.179
REMARK SMILES CC(C)[C@@H]1CC[C@H](C)CC1=O
REMARK SMILES IDX 8 1 7 2 6 3 5 4 4 5 10 6 11 7 9 8 2 9 1 10 3 11
REMARK H PARENT
REMARK Flexibility Score: inf
ROOT
ATOM      1  C   UNL     1     111.575 111.052 106.674  1.00  0.00     0.008 C 
ATOM      2  C   UNL     1     111.880 110.511 105.268  1.00  0.00    -0.007 C 
ATOM      3  C   UNL     1     112.136 108.987 105.274  1.00  0.00     0.004 C 
ATOM      4  C   UNL     1     110.861 108.178 105.569  1.00  0.00     0.012 C 
ATOM      5  C   UNL     1     109.728 108.508 104.567  1.00  0.00     0.058 C 
ATOM      6  C   UNL     1     109.551 110.014 104.466  1.00  0.00     0.136 C 
ATOM      7  O   UNL     1     108.440 110.523 104.434  1.00  0.00    -0.299 OA
ATOM      8  C   UNL     1     110.767 110.878 104.270  1.00  0.00     0.079 C 
ENDROOT
BRANCH   5   9
ATOM      9  C   UNL     1     108.395 107.751 104.867  1.00  0.00    -0.007 C 
ATOM     10  C   UNL     1     108.274 107.271 106.326  1.00  0.00     0.008 C 
ATOM     11  C   UNL     1     108.179 106.573 103.906  1.00  0.00     0.008 C 
ENDBRANCH   5   9
TORSDOF 1
ENDMDL
MODEL 9
REMARK VINA RESULT:    -3.037      1.975      3.032
REMARK INTER + INTRA:          -3.393
REMARK INTER:                  -3.215
REMARK INTRA:                  -0.178
REMARK UNBOUND:                -0.179
REMARK SMILES CC(C)[C@@H]1CC[C@H](C)CC1=O
REMARK SMILES IDX 8 1 7 2 6 3 5 4 4 5 10 6 11 7 9 8 2 9 1 10 3 11
REMARK H PARENT
REMARK Flexibility Score: inf
ROOT
ATOM      1  C   UNL     1     112.820 111.389 103.875  1.00  0.00     0.008 C 
ATOM      2  C   UNL     1     112.227 112.680 104.460  1.00  0.00    -0.007 C 
ATOM      3  C   UNL     1     110.832 112.996 103.875  1.00  0.00     0.004 C 
ATOM      4  C   UNL     1     109.756 112.004 104.349  1.00  0.00     0.012 C 
ATOM      5  C   UNL     1     109.669 111.949 105.894  1.00  0.00     0.058 C 
ATOM      6  C   UNL     1     111.056 111.757 106.483  1.00  0.00     0.136 C 
ATOM      7  O   UNL     1     111.251 110.986 107.411  1.00  0.00    -0.299 OA
ATOM      8  C   UNL     1     112.180 112.632 105.998  1.00  0.00     0.079 C 
ENDROOT
BRANCH   5   9
ATOM      9  C   UNL     1     108.628 110.909 106.418  1.00  0.00    -0.007 C 
ATOM     10  C   UNL     1     108.208 109.870 105.361  1.00  0.00     0.008 C 
ATOM     11  C   UNL     1     107.385 111.592 107.007  1.00  0.00     0.008 C 
ENDBRANCH   5   9
TORSDOF 1
ENDMDL
