MODEL 1
REMARK VINA RESULT:    -2.915      0.000      0.000
REMARK INTER + INTRA:          -4.565
REMARK INTER:                  -4.449
REMARK INTRA:                  -0.116
REMARK UNBOUND:                -0.116
REMARK SMILES CC1=CCC[C@@H](C)C(=O)C[C@@H](C(C)C)C(=O)C1
REMARK SMILES IDX 8 1 9 2 6 3 7 4 5 5 4 6 3 7 2 8 1 9 10 11 11 12 15 13 16 14
REMARK SMILES IDX 17 15 12 17 13 18 14 19
REMARK H PARENT
REMARK Flexibility Score: 70.00
ROOT
ATOM      1  C   UNL     1      83.291  -5.305  28.969  1.00  0.00     0.136 C 
ATOM      2  O   UNL     1      83.875  -4.325  29.407  1.00  0.00    -0.299 OA
ENDROOT
BRANCH   1   3
ATOM      3  C   UNL     1      82.549  -5.215  27.652  1.00  0.00     0.053 C 
ATOM      4  C   UNL     1      82.811  -3.848  27.014  1.00  0.00     0.016 C 
BRANCH   3   5
ATOM      5  C   UNL     1      81.028  -5.444  27.815  1.00  0.00     0.015 C 
BRANCH   5   6
ATOM      6  C   UNL     1      80.575  -6.872  27.479  1.00  0.00     0.028 C 
BRANCH   6   7
ATOM      7  C   UNL     1      81.518  -7.533  26.501  1.00  0.00    -0.028 C 
ATOM      8  C   UNL     1      82.414  -8.494  26.817  1.00  0.00    -0.070 CG0
ATOM      9  C   UNL     1      83.277  -9.050  25.713  1.00  0.00     0.039 C 
ATOM     10  G   UNL     1      82.576  -9.040  28.224  1.00  0.00     0.000 G0
ENDBRANCH   6   7
ENDBRANCH   5   6
ENDBRANCH   3   5
ENDBRANCH   1   3
BRANCH   1  11
ATOM     11  C   UNL     1      83.372  -6.610  29.725  1.00  0.00     0.087 C 
BRANCH  11  12
ATOM     12  C   UNL     1      84.530  -7.535  29.260  1.00  0.00     0.066 C 
BRANCH  12  13
ATOM     13  C   UNL     1      83.979  -8.883  28.803  1.00  0.00     0.140 C 
ATOM     14  O   UNL     1      84.717  -9.857  28.825  1.00  0.00    -0.299 OA
BRANCH  13  15
ATOM     15  C   UNL     1      82.587  -9.059  28.227  1.00  0.00     0.106 CG0
ATOM     16  G   UNL     1      82.413  -8.497  26.828  1.00  0.00     0.000 G0
ENDBRANCH  13  15
ENDBRANCH  12  13
BRANCH  12  17
ATOM     17  C   UNL     1      85.588  -7.738  30.392  1.00  0.00    -0.006 C 
ATOM     18  C   UNL     1      84.935  -8.060  31.749  1.00  0.00     0.008 C 
ATOM     19  C   UNL     1      86.485  -6.497  30.557  1.00  0.00     0.008 C 
ENDBRANCH  12  17
ENDBRANCH  11  12
ENDBRANCH   1  11
TORSDOF 1
ENDMDL
MODEL 2
REMARK VINA RESULT:    -2.902      2.032      2.839
REMARK INTER + INTRA:          -4.544
REMARK INTER:                  -4.178
REMARK INTRA:                  -0.366
REMARK UNBOUND:                -0.116
REMARK SMILES CC1=CCC[C@@H](C)C(=O)C[C@@H](C(C)C)C(=O)C1
REMARK SMILES IDX 8 1 9 2 6 3 7 4 5 5 4 6 3 7 2 8 1 9 10 11 11 12 15 13 16 14
REMARK SMILES IDX 17 15 12 17 13 18 14 19
REMARK H PARENT
REMARK Flexibility Score: 70.00
ROOT
ATOM      1  C   UNL     1      81.597  -5.328  28.465  1.00  0.00     0.136 C 
ATOM      2  O   UNL     1      80.525  -5.053  27.944  1.00  0.00    -0.299 OA
ENDROOT
BRANCH   1   3
ATOM      3  C   UNL     1      82.830  -5.503  27.604  1.00  0.00     0.053 C 
ATOM      4  C   UNL     1      83.233  -4.149  27.012  1.00  0.00     0.016 C 
BRANCH   3   5
ATOM      5  C   UNL     1      82.616  -6.536  26.472  1.00  0.00     0.015 C 
BRANCH   5   6
ATOM      6  C   UNL     1      82.613  -7.994  26.955  1.00  0.00     0.028 C 
BRANCH   6   7
ATOM      7  C   UNL     1      83.904  -8.346  27.656  1.00  0.00    -0.028 C 
ATOM      8  C   UNL     1      84.019  -8.630  28.972  1.00  0.00    -0.070 CG0
ATOM      9  C   UNL     1      85.387  -8.966  29.508  1.00  0.00     0.039 C 
ATOM     10  G   UNL     1      82.834  -8.638  29.921  1.00  0.00     0.000 G0
ENDBRANCH   6   7
ENDBRANCH   5   6
ENDBRANCH   3   5
ENDBRANCH   1   3
BRANCH   1  11
ATOM     11  C   UNL     1      81.681  -5.426  29.969  1.00  0.00     0.087 C 
BRANCH  11  12
ATOM     12  C   UNL     1      83.020  -6.018  30.486  1.00  0.00     0.066 C 
BRANCH  12  13
ATOM     13  C   UNL     1      82.825  -7.468  30.922  1.00  0.00     0.140 C 
ATOM     14  O   UNL     1      82.730  -7.716  32.115  1.00  0.00    -0.299 OA
BRANCH  13  15
ATOM     15  C   UNL     1      82.840  -8.636  29.953  1.00  0.00     0.106 CG0
ATOM     16  G   UNL     1      84.007  -8.628  28.983  1.00  0.00     0.000 G0
ENDBRANCH  13  15
ENDBRANCH  12  13
BRANCH  12  17
ATOM     17  C   UNL     1      83.602  -5.172  31.664  1.00  0.00    -0.006 C 
ATOM     18  C   UNL     1      82.870  -3.828  31.832  1.00  0.00     0.008 C 
ATOM     19  C   UNL     1      85.105  -4.897  31.474  1.00  0.00     0.008 C 
ENDBRANCH  12  17
ENDBRANCH  11  12
ENDBRANCH   1  11
TORSDOF 1
ENDMDL
MODEL 3
REMARK VINA RESULT:    -2.878      2.478      4.645
REMARK INTER + INTRA:          -4.509
REMARK INTER:                  -4.056
REMARK INTRA:                  -0.453
REMARK UNBOUND:                -0.116
REMARK SMILES CC1=CCC[C@@H](C)C(=O)C[C@@H](C(C)C)C(=O)C1
REMARK SMILES IDX 8 1 9 2 6 3 7 4 5 5 4 6 3 7 2 8 1 9 10 11 11 12 15 13 16 14
REMARK SMILES IDX 17 15 12 17 13 18 14 19
REMARK H PARENT
REMARK Flexibility Score: 70.00
ROOT
ATOM      1  C   UNL     1      82.278  -6.127  27.038  1.00  0.00     0.136 C 
ATOM      2  O   UNL     1      82.805  -6.506  26.002  1.00  0.00    -0.299 OA
ENDROOT
BRANCH   1   3
ATOM      3  C   UNL     1      82.868  -4.960  27.801  1.00  0.00     0.053 C 
ATOM      4  C   UNL     1      83.117  -3.796  26.837  1.00  0.00     0.016 C 
BRANCH   3   5
ATOM      5  C   UNL     1      84.179  -5.336  28.531  1.00  0.00     0.015 C 
BRANCH   5   6
ATOM      6  C   UNL     1      84.001  -5.595  30.034  1.00  0.00     0.028 C 
BRANCH   6   7
ATOM      7  C   UNL     1      84.090  -7.069  30.353  1.00  0.00    -0.028 C 
ATOM      8  C   UNL     1      83.075  -7.821  30.832  1.00  0.00    -0.070 CG0
ATOM      9  C   UNL     1      83.336  -9.283  31.093  1.00  0.00     0.039 C 
ATOM     10  G   UNL     1      81.690  -7.260  31.103  1.00  0.00     0.000 G0
ENDBRANCH   6   7
ENDBRANCH   5   6
ENDBRANCH   3   5
ENDBRANCH   1   3
BRANCH   1  11
ATOM     11  C   UNL     1      81.006  -6.794  27.504  1.00  0.00     0.087 C 
BRANCH  11  12
ATOM     12  C   UNL     1      80.510  -6.303  28.891  1.00  0.00     0.066 C 
BRANCH  12  13
ATOM     13  C   UNL     1      80.711  -7.392  29.942  1.00  0.00     0.140 C 
ATOM     14  O   UNL     1      80.005  -8.389  29.898  1.00  0.00    -0.299 OA
BRANCH  13  15
ATOM     15  C   UNL     1      81.679  -7.258  31.102  1.00  0.00     0.106 CG0
ATOM     16  G   UNL     1      83.062  -7.823  30.830  1.00  0.00     0.000 G0
ENDBRANCH  13  15
ENDBRANCH  12  13
BRANCH  12  17
ATOM     17  C   UNL     1      79.010  -5.869  28.841  1.00  0.00    -0.006 C 
ATOM     18  C   UNL     1      78.371  -6.144  27.467  1.00  0.00     0.008 C 
ATOM     19  C   UNL     1      78.842  -4.375  29.173  1.00  0.00     0.008 C 
ENDBRANCH  12  17
ENDBRANCH  11  12
ENDBRANCH   1  11
TORSDOF 1
ENDMDL
MODEL 4
REMARK VINA RESULT:    -2.853      1.938      3.804
REMARK INTER + INTRA:          -4.470
REMARK INTER:                  -4.077
REMARK INTRA:                  -0.394
REMARK UNBOUND:                -0.116
REMARK SMILES CC1=CCC[C@@H](C)C(=O)C[C@@H](C(C)C)C(=O)C1
REMARK SMILES IDX 8 1 9 2 6 3 7 4 5 5 4 6 3 7 2 8 1 9 10 11 11 12 15 13 16 14
REMARK SMILES IDX 17 15 12 17 13 18 14 19
REMARK H PARENT
REMARK Flexibility Score: 70.00
ROOT
ATOM      1  C   UNL     1      83.097  -5.004  28.435  1.00  0.00     0.136 C 
ATOM      2  O   UNL     1      83.680  -4.420  27.533  1.00  0.00    -0.299 OA
ENDROOT
BRANCH   1   3
ATOM      3  C   UNL     1      83.862  -5.446  29.665  1.00  0.00     0.053 C 
ATOM      4  C   UNL     1      84.392  -4.213  30.404  1.00  0.00     0.016 C 
BRANCH   3   5
ATOM      5  C   UNL     1      85.027  -6.403  29.322  1.00  0.00     0.015 C 
BRANCH   5   6
ATOM      6  C   UNL     1      84.677  -7.890  29.479  1.00  0.00     0.028 C 
BRANCH   6   7
ATOM      7  C   UNL     1      84.449  -8.547  28.139  1.00  0.00    -0.028 C 
ATOM      8  C   UNL     1      83.262  -9.019  27.698  1.00  0.00    -0.070 CG0
ATOM      9  C   UNL     1      83.212  -9.645  26.327  1.00  0.00     0.039 C 
ATOM     10  G   UNL     1      81.986  -8.935  28.516  1.00  0.00     0.000 G0
ENDBRANCH   6   7
ENDBRANCH   5   6
ENDBRANCH   3   5
ENDBRANCH   1   3
BRANCH   1  11
ATOM     11  C   UNL     1      81.606  -5.220  28.331  1.00  0.00     0.087 C 
BRANCH  11  12
ATOM     12  C   UNL     1      81.096  -6.469  29.099  1.00  0.00     0.066 C 
BRANCH  12  13
ATOM     13  C   UNL     1      81.131  -7.698  28.195  1.00  0.00     0.140 C 
ATOM     14  O   UNL     1      80.391  -7.734  27.222  1.00  0.00    -0.299 OA
BRANCH  13  15
ATOM     15  C   UNL     1      81.969  -8.927  28.495  1.00  0.00     0.106 CG0
ATOM     16  G   UNL     1      83.261  -9.010  27.702  1.00  0.00     0.000 G0
ENDBRANCH  13  15
ENDBRANCH  12  13
BRANCH  12  17
ATOM     17  C   UNL     1      79.653  -6.247  29.657  1.00  0.00    -0.006 C 
ATOM     18  C   UNL     1      79.013  -4.955  29.116  1.00  0.00     0.008 C 
ATOM     19  C   UNL     1      79.643  -6.197  31.196  1.00  0.00     0.008 C 
ENDBRANCH  12  17
ENDBRANCH  11  12
ENDBRANCH   1  11
TORSDOF 1
ENDMDL
MODEL 5
REMARK VINA RESULT:    -2.836      2.214      4.101
REMARK INTER + INTRA:          -4.444
REMARK INTER:                  -4.518
REMARK INTRA:                   0.074
REMARK UNBOUND:                -0.116
REMARK SMILES CC1=CCC[C@@H](C)C(=O)C[C@@H](C(C)C)C(=O)C1
REMARK SMILES IDX 8 1 9 2 6 3 7 4 5 5 4 6 3 7 2 8 1 9 10 11 11 12 15 13 16 14
REMARK SMILES IDX 17 15 12 17 13 18 14 19
REMARK H PARENT
REMARK Flexibility Score: 70.00
ROOT
ATOM      1  C   UNL     1      82.802  -6.209  27.240  1.00  0.00     0.136 C 
ATOM      2  O   UNL     1      82.941  -5.444  26.297  1.00  0.00    -0.299 OA
ENDROOT
BRANCH   1   3
ATOM      3  C   UNL     1      81.716  -5.954  28.265  1.00  0.00     0.053 C 
ATOM      4  C   UNL     1      80.702  -4.958  27.693  1.00  0.00     0.016 C 
BRANCH   3   5
ATOM      5  C   UNL     1      82.282  -5.428  29.604  1.00  0.00     0.015 C 
BRANCH   5   6
ATOM      6  C   UNL     1      83.476  -4.476  29.443  1.00  0.00     0.028 C 
BRANCH   6   7
ATOM      7  C   UNL     1      84.482  -4.660  30.555  1.00  0.00    -0.028 C 
ATOM      8  C   UNL     1      85.535  -5.505  30.516  1.00  0.00    -0.070 CG0
ATOM      9  C   UNL     1      86.445  -5.560  31.716  1.00  0.00     0.039 C 
ATOM     10  G   UNL     1      85.842  -6.385  29.317  1.00  0.00     0.000 G0
ENDBRANCH   6   7
ENDBRANCH   5   6
ENDBRANCH   3   5
ENDBRANCH   1   3
BRANCH   1  11
ATOM     11  C   UNL     1      83.681  -7.434  27.331  1.00  0.00     0.087 C 
BRANCH  11  12
ATOM     12  C   UNL     1      83.802  -8.015  28.766  1.00  0.00     0.066 C 
BRANCH  12  13
ATOM     13  C   UNL     1      85.196  -7.750  29.329  1.00  0.00     0.140 C 
ATOM     14  O   UNL     1      85.786  -8.659  29.893  1.00  0.00    -0.299 OA
BRANCH  13  15
ATOM     15  C   UNL     1      85.853  -6.382  29.309  1.00  0.00     0.106 CG0
ATOM     16  G   UNL     1      85.528  -5.516  30.513  1.00  0.00     0.000 G0
ENDBRANCH  13  15
ENDBRANCH  12  13
BRANCH  12  17
ATOM     17  C   UNL     1      83.492  -9.547  28.790  1.00  0.00    -0.006 C 
ATOM     18  C   UNL     1      82.938 -10.049  27.443  1.00  0.00     0.008 C 
ATOM     19  C   UNL     1      82.487  -9.902  29.901  1.00  0.00     0.008 C 
ENDBRANCH  12  17
ENDBRANCH  11  12
ENDBRANCH   1  11
TORSDOF 1
ENDMDL
MODEL 6
REMARK VINA RESULT:    -2.752      2.141      4.507
REMARK INTER + INTRA:          -4.316
REMARK INTER:                  -4.452
REMARK INTRA:                   0.136
REMARK UNBOUND:                -0.116
REMARK SMILES CC1=CCC[C@@H](C)C(=O)C[C@@H](C(C)C)C(=O)C1
REMARK SMILES IDX 8 1 9 2 6 3 7 4 5 5 4 6 3 7 2 8 1 9 10 11 11 12 15 13 16 14
REMARK SMILES IDX 17 15 12 17 13 18 14 19
REMARK H PARENT
REMARK Flexibility Score: 70.00
ROOT
ATOM      1  C   UNL     1      85.477  -5.797  30.402  1.00  0.00     0.136 C 
ATOM      2  O   UNL     1      85.561  -4.616  30.706  1.00  0.00    -0.299 OA
ENDROOT
BRANCH   1   3
ATOM      3  C   UNL     1      86.234  -6.837  31.201  1.00  0.00     0.053 C 
ATOM      4  C   UNL     1      87.696  -6.402  31.344  1.00  0.00     0.016 C 
BRANCH   3   5
ATOM      5  C   UNL     1      86.157  -8.243  30.561  1.00  0.00     0.015 C 
BRANCH   5   6
ATOM      6  C   UNL     1      85.192  -9.199  31.276  1.00  0.00     0.028 C 
BRANCH   6   7
ATOM      7  C   UNL     1      84.027  -9.571  30.389  1.00  0.00    -0.028 C 
ATOM      8  C   UNL     1      82.893  -8.848  30.255  1.00  0.00    -0.070 CG0
ATOM      9  C   UNL     1      81.829  -9.365  29.320  1.00  0.00     0.039 C 
ATOM     10  G   UNL     1      82.654  -7.543  30.993  1.00  0.00     0.000 G0
ENDBRANCH   6   7
ENDBRANCH   5   6
ENDBRANCH   3   5
ENDBRANCH   1   3
BRANCH   1  11
ATOM     11  C   UNL     1      84.566  -6.203  29.269  1.00  0.00     0.087 C 
BRANCH  11  12
ATOM     12  C   UNL     1      83.168  -5.529  29.313  1.00  0.00     0.066 C 
BRANCH  12  13
ATOM     13  C   UNL     1      82.198  -6.375  30.135  1.00  0.00     0.140 C 
ATOM     14  O   UNL     1      81.018  -6.056  30.163  1.00  0.00    -0.299 OA
BRANCH  13  15
ATOM     15  C   UNL     1      82.640  -7.539  31.001  1.00  0.00     0.106 CG0
ATOM     16  G   UNL     1      82.891  -8.826  30.236  1.00  0.00     0.000 G0
ENDBRANCH  13  15
ENDBRANCH  12  13
BRANCH  12  17
ATOM     17  C   UNL     1      82.600  -5.297  27.876  1.00  0.00    -0.006 C 
ATOM     18  C   UNL     1      82.980  -6.433  26.909  1.00  0.00     0.008 C 
ATOM     19  C   UNL     1      83.087  -3.961  27.285  1.00  0.00     0.008 C 
ENDBRANCH  12  17
ENDBRANCH  11  12
ENDBRANCH   1  11
TORSDOF 1
ENDMDL
MODEL 7
REMARK VINA RESULT:    -2.650      3.128      4.579
REMARK INTER + INTRA:          -4.159
REMARK INTER:                  -3.903
REMARK INTRA:                  -0.256
REMARK UNBOUND:                -0.116
REMARK SMILES CC1=CCC[C@@H](C)C(=O)C[C@@H](C(C)C)C(=O)C1
REMARK SMILES IDX 8 1 9 2 6 3 7 4 5 5 4 6 3 7 2 8 1 9 10 11 11 12 15 13 16 14
REMARK SMILES IDX 17 15 12 17 13 18 14 19
REMARK H PARENT
REMARK Flexibility Score: 70.00
ROOT
ATOM      1  C   UNL     1      81.800  -6.235  27.740  1.00  0.00     0.136 C 
ATOM      2  O   UNL     1      82.559  -5.556  27.062  1.00  0.00    -0.299 OA
ENDROOT
BRANCH   1   3
ATOM      3  C   UNL     1      80.886  -5.567  28.745  1.00  0.00     0.053 C 
ATOM      4  C   UNL     1      80.648  -6.516  29.924  1.00  0.00     0.016 C 
BRANCH   3   5
ATOM      5  C   UNL     1      79.535  -5.143  28.122  1.00  0.00     0.015 C 
BRANCH   5   6
ATOM      6  C   UNL     1      78.358  -6.046  28.517  1.00  0.00     0.028 C 
BRANCH   6   7
ATOM      7  C   UNL     1      77.621  -6.554  27.300  1.00  0.00    -0.028 C 
ATOM      8  C   UNL     1      77.859  -7.734  26.686  1.00  0.00    -0.070 CG0
ATOM      9  C   UNL     1      77.024  -8.087  25.481  1.00  0.00     0.039 C 
ATOM     10  G   UNL     1      78.916  -8.713  27.163  1.00  0.00     0.000 G0
ENDBRANCH   6   7
ENDBRANCH   5   6
ENDBRANCH   3   5
ENDBRANCH   1   3
BRANCH   1  11
ATOM     11  C   UNL     1      81.747  -7.727  27.514  1.00  0.00     0.087 C 
BRANCH  11  12
ATOM     12  C   UNL     1      81.292  -8.131  26.086  1.00  0.00     0.066 C 
BRANCH  12  13
ATOM     13  C   UNL     1      80.026  -8.982  26.154  1.00  0.00     0.140 C 
ATOM     14  O   UNL     1      79.860  -9.858  25.318  1.00  0.00    -0.299 OA
BRANCH  13  15
ATOM     15  C   UNL     1      78.911  -8.734  27.153  1.00  0.00     0.106 CG0
ATOM     16  G   UNL     1      77.869  -7.732  26.690  1.00  0.00     0.000 G0
ENDBRANCH  13  15
ENDBRANCH  12  13
BRANCH  12  17
ATOM     17  C   UNL     1      82.419  -8.898  25.323  1.00  0.00    -0.006 C 
ATOM     18  C   UNL     1      83.774  -8.816  26.050  1.00  0.00     0.008 C 
ATOM     19  C   UNL     1      82.594  -8.365  23.889  1.00  0.00     0.008 C 
ENDBRANCH  12  17
ENDBRANCH  11  12
ENDBRANCH   1  11
TORSDOF 1
ENDMDL
MODEL 8
REMARK VINA RESULT:    -2.578      2.448      3.671
REMARK INTER + INTRA:          -4.050
REMARK INTER:                  -4.069
REMARK INTRA:                   0.019
REMARK UNBOUND:                -0.116
REMARK SMILES CC1=CCC[C@@H](C)C(=O)C[C@@H](C(C)C)C(=O)C1
REMARK SMILES IDX 8 1 9 2 6 3 7 4 5 5 4 6 3 7 2 8 1 9 10 11 11 12 15 13 16 14
REMARK SMILES IDX 17 15 12 17 13 18 14 19
REMARK H PARENT
REMARK Flexibility Score: 70.00
ROOT
ATOM      1  C   UNL     1      83.432  -5.431  27.989  1.00  0.00     0.136 C 
ATOM      2  O   UNL     1      83.462  -4.333  27.451  1.00  0.00    -0.299 OA
ENDROOT
BRANCH   1   3
ATOM      3  C   UNL     1      82.275  -6.370  27.721  1.00  0.00     0.053 C 
ATOM      4  C   UNL     1      82.477  -7.052  26.365  1.00  0.00     0.016 C 
BRANCH   3   5
ATOM      5  C   UNL     1      80.908  -5.645  27.754  1.00  0.00     0.015 C 
BRANCH   5   6
ATOM      6  C   UNL     1      80.398  -5.347  29.171  1.00  0.00     0.028 C 
BRANCH   6   7
ATOM      7  C   UNL     1      80.532  -6.554  30.071  1.00  0.00    -0.028 C 
ATOM      8  C   UNL     1      81.289  -6.607  31.189  1.00  0.00    -0.070 CG0
ATOM      9  C   UNL     1      81.305  -7.894  31.974  1.00  0.00     0.039 C 
ATOM     10  G   UNL     1      82.105  -5.428  31.688  1.00  0.00     0.000 G0
ENDBRANCH   6   7
ENDBRANCH   5   6
ENDBRANCH   3   5
ENDBRANCH   1   3
BRANCH   1  11
ATOM     11  C   UNL     1      84.587  -5.854  28.864  1.00  0.00     0.087 C 
BRANCH  11  12
ATOM     12  C   UNL     1      84.159  -6.363  30.267  1.00  0.00     0.066 C 
BRANCH  12  13
ATOM     13  C   UNL     1      83.452  -5.252  31.040  1.00  0.00     0.140 C 
ATOM     14  O   UNL     1      84.031  -4.188  31.202  1.00  0.00    -0.299 OA
BRANCH  13  15
ATOM     15  C   UNL     1      82.100  -5.433  31.704  1.00  0.00     0.106 CG0
ATOM     16  G   UNL     1      81.292  -6.601  31.168  1.00  0.00     0.000 G0
ENDBRANCH  13  15
ENDBRANCH  12  13
BRANCH  12  17
ATOM     17  C   UNL     1      85.384  -6.893  31.081  1.00  0.00    -0.006 C 
ATOM     18  C   UNL     1      86.724  -6.426  30.485  1.00  0.00     0.008 C 
ATOM     19  C   UNL     1      85.387  -8.431  31.159  1.00  0.00     0.008 C 
ENDBRANCH  12  17
ENDBRANCH  11  12
ENDBRANCH   1  11
TORSDOF 1
ENDMDL
MODEL 9
REMARK VINA RESULT:    -2.480      1.779      4.113
REMARK INTER + INTRA:          -3.900
REMARK INTER:                  -3.642
REMARK INTRA:                  -0.258
REMARK UNBOUND:                -0.116
REMARK SMILES CC1=CCC[C@@H](C)C(=O)C[C@@H](C(C)C)C(=O)C1
REMARK SMILES IDX 8 1 9 2 6 3 7 4 5 5 4 6 3 7 2 8 1 9 10 11 11 12 15 13 16 14
REMARK SMILES IDX 17 15 12 17 13 18 14 19
REMARK H PARENT
REMARK Flexibility Score: 70.00
ROOT
ATOM      1  C   UNL     1      81.193  -5.266  28.001  1.00  0.00     0.136 C 
ATOM      2  O   UNL     1      80.047  -4.923  28.253  1.00  0.00    -0.299 OA
ENDROOT
BRANCH   1   3
ATOM      3  C   UNL     1      82.357  -4.443  28.512  1.00  0.00     0.053 C 
ATOM      4  C   UNL     1      83.377  -4.251  27.385  1.00  0.00     0.016 C 
BRANCH   3   5
ATOM      5  C   UNL     1      83.038  -5.086  29.743  1.00  0.00     0.015 C 
BRANCH   5   6
ATOM      6  C   UNL     1      84.494  -5.507  29.498  1.00  0.00     0.028 C 
BRANCH   6   7
ATOM      7  C   UNL     1      84.777  -6.875  30.073  1.00  0.00    -0.028 C 
ATOM      8  C   UNL     1      84.534  -8.046  29.443  1.00  0.00    -0.070 CG0
ATOM      9  C   UNL     1      84.881  -9.324  30.163  1.00  0.00     0.039 C 
ATOM     10  G   UNL     1      83.942  -8.124  28.047  1.00  0.00     0.000 G0
ENDBRANCH   6   7
ENDBRANCH   5   6
ENDBRANCH   3   5
ENDBRANCH   1   3
BRANCH   1  11
ATOM     11  C   UNL     1      81.427  -6.545  27.232  1.00  0.00     0.087 C 
BRANCH  11  12
ATOM     12  C   UNL     1      81.273  -7.831  28.089  1.00  0.00     0.066 C 
BRANCH  12  13
ATOM     13  C   UNL     1      82.528  -8.693  27.980  1.00  0.00     0.140 C 
ATOM     14  O   UNL     1      82.404  -9.908  27.920  1.00  0.00    -0.299 OA
BRANCH  13  15
ATOM     15  C   UNL     1      83.934  -8.125  28.038  1.00  0.00     0.106 CG0
ATOM     16  G   UNL     1      84.517  -8.044  29.437  1.00  0.00     0.000 G0
ENDBRANCH  13  15
ENDBRANCH  12  13
BRANCH  12  17
ATOM     17  C   UNL     1      80.013  -8.652  27.665  1.00  0.00    -0.006 C 
ATOM     18  C   UNL     1      79.210  -7.954  26.552  1.00  0.00     0.008 C 
ATOM     19  C   UNL     1      79.078  -8.910  28.861  1.00  0.00     0.008 C 
ENDBRANCH  12  17
ENDBRANCH  11  12
ENDBRANCH   1  11
TORSDOF 1
ENDMDL
