MODEL 1
REMARK VINA RESULT:    -5.300      0.000      0.000
REMARK INTER + INTRA:         -10.375
REMARK INTER:                  -8.243
REMARK INTRA:                  -2.132
REMARK UNBOUND:                -2.132
REMARK SMILES COc1cc(CNC(=O)CCCCC=CC(C)C)ccc1O
REMARK SMILES IDX 11 1 12 2 13 3 14 4 15 5 16 6 17 7 18 8 10 9 8 10 9 11 7 12
REMARK SMILES IDX 6 14 5 15 4 16 19 17 3 18 20 19 21 20 2 21 1 22 22 23
REMARK H PARENT 7 13 22 24
REMARK Flexibility Score: inf
ROOT
ATOM      1  C   UNL     1      20.988  22.544   7.878  1.00  0.00     0.010 C 
ENDROOT
BRANCH   1   2
ATOM      2  C   UNL     1      20.230  23.857   8.122  1.00  0.00     0.005 C 
BRANCH   2   3
ATOM      3  C   UNL     1      19.488  23.864   9.468  1.00  0.00     0.027 C 
BRANCH   3   4
ATOM      4  C   UNL     1      17.997  23.914   9.258  1.00  0.00    -0.031 C 
ATOM      5  C   UNL     1      17.167  22.870   9.439  1.00  0.00    -0.028 C 
BRANCH   5   6
ATOM      6  C   UNL     1      17.590  21.509   9.955  1.00  0.00     0.005 C 
ATOM      7  C   UNL     1      17.210  20.426   8.942  1.00  0.00     0.012 C 
ATOM      8  C   UNL     1      16.929  21.238  11.308  1.00  0.00     0.012 C 
ENDBRANCH   5   6
ENDBRANCH   3   4
ENDBRANCH   2   3
ENDBRANCH   1   2
BRANCH   1   9
ATOM      9  C   UNL     1      21.217  21.755   9.175  1.00  0.00     0.100 C 
BRANCH   9  10
ATOM     10  C   UNL     1      20.956  20.296   8.952  1.00  0.00     0.220 C 
ATOM     11  O   UNL     1      20.598  19.897   7.811  1.00  0.00    -0.275 OA
ATOM     12  N   UNL     1      21.156  19.359  10.019  1.00  0.00    -0.352 N 
ATOM     13  H   UNL     1      21.510  19.707  10.940  1.00  0.00     0.163 HD
BRANCH  12  14
ATOM     14  C   UNL     1      20.876  17.933   9.875  1.00  0.00     0.151 C 
BRANCH  14  15
ATOM     15  C   UNL     1      19.441  17.648  10.231  1.00  0.00    -0.025 A 
ATOM     16  C   UNL     1      18.937  17.988  11.496  1.00  0.00     0.056 A 
ATOM     17  C   UNL     1      18.610  16.996   9.309  1.00  0.00     0.009 A 
ATOM     18  C   UNL     1      17.603  17.688  11.840  1.00  0.00     0.160 A 
ATOM     19  C   UNL     1      17.288  16.700   9.642  1.00  0.00     0.050 A 
ATOM     20  C   UNL     1      16.780  17.042  10.900  1.00  0.00     0.157 A 
BRANCH  18  21
ATOM     21  O   UNL     1      17.069  18.014  13.097  1.00  0.00    -0.493 OA
ATOM     22  C   UNL     1      17.486  17.430  14.327  1.00  0.00     0.278 C 
ENDBRANCH  18  21
BRANCH  20  23
ATOM     23  O   UNL     1      15.454  16.728  11.198  1.00  0.00    -0.504 OA
ATOM     24  H   UNL     1      14.943  17.192  11.939  1.00  0.00     0.293 HD
ENDBRANCH  20  23
ENDBRANCH  14  15
ENDBRANCH  12  14
ENDBRANCH   9  10
ENDBRANCH   1   9
TORSDOF 10
ENDMDL
MODEL 2
REMARK VINA RESULT:    -5.200      3.116      3.926
REMARK INTER + INTRA:         -10.220
REMARK INTER:                  -8.815
REMARK INTRA:                  -1.405
REMARK UNBOUND:                -2.132
REMARK SMILES COc1cc(CNC(=O)CCCCC=CC(C)C)ccc1O
REMARK SMILES IDX 11 1 12 2 13 3 14 4 15 5 16 6 17 7 18 8 10 9 8 10 9 11 7 12
REMARK SMILES IDX 6 14 5 15 4 16 19 17 3 18 20 19 21 20 2 21 1 22 22 23
REMARK H PARENT 7 13 22 24
REMARK Flexibility Score: inf
ROOT
ATOM      1  C   UNL     1      20.668  18.724   8.262  1.00  0.00     0.010 C 
ENDROOT
BRANCH   1   2
ATOM      2  C   UNL     1      20.390  20.223   8.068  1.00  0.00     0.005 C 
BRANCH   2   3
ATOM      3  C   UNL     1      20.144  20.949   9.399  1.00  0.00     0.027 C 
BRANCH   3   4
ATOM      4  C   UNL     1      18.855  21.728   9.354  1.00  0.00    -0.031 C 
ATOM      5  C   UNL     1      17.679  21.284   9.836  1.00  0.00    -0.028 C 
BRANCH   5   6
ATOM      6  C   UNL     1      17.485  19.970  10.564  1.00  0.00     0.005 C 
ATOM      7  C   UNL     1      16.975  18.904   9.591  1.00  0.00     0.012 C 
ATOM      8  C   UNL     1      16.502  20.158  11.722  1.00  0.00     0.012 C 
ENDBRANCH   5   6
ENDBRANCH   3   4
ENDBRANCH   2   3
ENDBRANCH   1   2
BRANCH   1   9
ATOM      9  C   UNL     1      20.702  18.325   9.744  1.00  0.00     0.100 C 
BRANCH   9  10
ATOM     10  C   UNL     1      20.400  16.866   9.899  1.00  0.00     0.220 C 
ATOM     11  O   UNL     1      19.567  16.319   9.127  1.00  0.00    -0.275 OA
ATOM     12  N   UNL     1      21.087  16.092  10.891  1.00  0.00    -0.352 N 
ATOM     13  H   UNL     1      21.817  16.554  11.481  1.00  0.00     0.163 HD
BRANCH  12  14
ATOM     14  C   UNL     1      20.803  14.677  11.119  1.00  0.00     0.151 C 
BRANCH  14  15
ATOM     15  C   UNL     1      19.822  14.521  12.250  1.00  0.00    -0.025 A 
ATOM     16  C   UNL     1      18.788  13.574  12.173  1.00  0.00     0.056 A 
ATOM     17  C   UNL     1      19.911  15.356  13.372  1.00  0.00     0.009 A 
ATOM     18  C   UNL     1      17.849  13.453  13.218  1.00  0.00     0.160 A 
ATOM     19  C   UNL     1      18.986  15.238  14.411  1.00  0.00     0.050 A 
ATOM     20  C   UNL     1      17.958  14.293  14.340  1.00  0.00     0.157 A 
BRANCH  18  21
ATOM     21  O   UNL     1      16.803  12.517  13.172  1.00  0.00    -0.493 OA
ATOM     22  C   UNL     1      16.980  11.115  12.991  1.00  0.00     0.278 C 
ENDBRANCH  18  21
BRANCH  20  23
ATOM     23  O   UNL     1      17.052  14.205  15.398  1.00  0.00    -0.504 OA
ATOM     24  H   UNL     1      17.209  13.599  16.194  1.00  0.00     0.293 HD
ENDBRANCH  20  23
ENDBRANCH  14  15
ENDBRANCH  12  14
ENDBRANCH   9  10
ENDBRANCH   1   9
TORSDOF 10
ENDMDL
MODEL 3
REMARK VINA RESULT:    -5.070      2.077      3.449
REMARK INTER + INTRA:         -10.019
REMARK INTER:                  -8.707
REMARK INTRA:                  -1.312
REMARK UNBOUND:                -2.132
REMARK SMILES COc1cc(CNC(=O)CCCCC=CC(C)C)ccc1O
REMARK SMILES IDX 11 1 12 2 13 3 14 4 15 5 16 6 17 7 18 8 10 9 8 10 9 11 7 12
REMARK SMILES IDX 6 14 5 15 4 16 19 17 3 18 20 19 21 20 2 21 1 22 22 23
REMARK H PARENT 7 13 22 24
REMARK Flexibility Score: inf
ROOT
ATOM      1  C   UNL     1      20.638  18.582   8.198  1.00  0.00     0.010 C 
ENDROOT
BRANCH   1   2
ATOM      2  C   UNL     1      20.680  20.075   7.835  1.00  0.00     0.005 C 
BRANCH   2   3
ATOM      3  C   UNL     1      20.786  20.976   9.075  1.00  0.00     0.027 C 
BRANCH   3   4
ATOM      4  C   UNL     1      19.806  22.117   8.994  1.00  0.00    -0.031 C 
ATOM      5  C   UNL     1      18.505  22.029   9.332  1.00  0.00    -0.028 C 
BRANCH   5   6
ATOM      6  C   UNL     1      17.846  20.798   9.918  1.00  0.00     0.005 C 
ATOM      7  C   UNL     1      17.071  20.052   8.829  1.00  0.00     0.012 C 
ATOM      8  C   UNL     1      16.914  21.202  11.062  1.00  0.00     0.012 C 
ENDBRANCH   5   6
ENDBRANCH   3   4
ENDBRANCH   2   3
ENDBRANCH   1   2
BRANCH   1   9
ATOM      9  C   UNL     1      20.989  18.331   9.671  1.00  0.00     0.100 C 
BRANCH   9  10
ATOM     10  C   UNL     1      20.383  17.044  10.140  1.00  0.00     0.220 C 
ATOM     11  O   UNL     1      19.725  16.337   9.331  1.00  0.00    -0.275 OA
ATOM     12  N   UNL     1      20.590  16.602  11.489  1.00  0.00    -0.352 N 
ATOM     13  H   UNL     1      21.189  17.177  12.125  1.00  0.00     0.163 HD
BRANCH  12  14
ATOM     14  C   UNL     1      19.989  15.381  12.016  1.00  0.00     0.151 C 
BRANCH  14  15
ATOM     15  C   UNL     1      19.112  15.701  13.197  1.00  0.00    -0.025 A 
ATOM     16  C   UNL     1      18.452  16.938  13.282  1.00  0.00     0.056 A 
ATOM     17  C   UNL     1      18.985  14.778  14.243  1.00  0.00     0.009 A 
ATOM     18  C   UNL     1      17.660  17.250  14.405  1.00  0.00     0.160 A 
ATOM     19  C   UNL     1      18.199  15.080  15.356  1.00  0.00     0.050 A 
ATOM     20  C   UNL     1      17.536  16.309  15.443  1.00  0.00     0.157 A 
BRANCH  18  21
ATOM     21  O   UNL     1      16.988  18.478  14.522  1.00  0.00    -0.493 OA
ATOM     22  C   UNL     1      15.714  18.760  13.950  1.00  0.00     0.278 C 
ENDBRANCH  18  21
BRANCH  20  23
ATOM     23  O   UNL     1      16.760  16.575  16.571  1.00  0.00    -0.504 OA
ATOM     24  H   UNL     1      16.022  17.268  16.567  1.00  0.00     0.293 HD
ENDBRANCH  20  23
ENDBRANCH  14  15
ENDBRANCH  12  14
ENDBRANCH   9  10
ENDBRANCH   1   9
TORSDOF 10
ENDMDL
MODEL 4
REMARK VINA RESULT:    -5.059      3.033      4.234
REMARK INTER + INTRA:         -10.001
REMARK INTER:                  -9.180
REMARK INTRA:                  -0.821
REMARK UNBOUND:                -2.132
REMARK SMILES COc1cc(CNC(=O)CCCCC=CC(C)C)ccc1O
REMARK SMILES IDX 11 1 12 2 13 3 14 4 15 5 16 6 17 7 18 8 10 9 8 10 9 11 7 12
REMARK SMILES IDX 6 14 5 15 4 16 19 17 3 18 20 19 21 20 2 21 1 22 22 23
REMARK H PARENT 7 13 22 24
REMARK Flexibility Score: inf
ROOT
ATOM      1  C   UNL     1      20.630  18.814   8.440  1.00  0.00     0.010 C 
ENDROOT
BRANCH   1   2
ATOM      2  C   UNL     1      19.956  20.187   8.295  1.00  0.00     0.005 C 
BRANCH   2   3
ATOM      3  C   UNL     1      20.975  21.335   8.238  1.00  0.00     0.027 C 
BRANCH   3   4
ATOM      4  C   UNL     1      20.928  22.156   9.500  1.00  0.00    -0.031 C 
ATOM      5  C   UNL     1      20.154  23.244   9.674  1.00  0.00    -0.028 C 
BRANCH   5   6
ATOM      6  C   UNL     1      19.156  23.765   8.659  1.00  0.00     0.005 C 
ATOM      7  C   UNL     1      19.582  25.153   8.173  1.00  0.00     0.012 C 
ATOM      8  C   UNL     1      17.760  23.816   9.283  1.00  0.00     0.012 C 
ENDBRANCH   5   6
ENDBRANCH   3   4
ENDBRANCH   2   3
ENDBRANCH   1   2
BRANCH   1   9
ATOM      9  C   UNL     1      20.704  18.354   9.903  1.00  0.00     0.100 C 
BRANCH   9  10
ATOM     10  C   UNL     1      20.388  16.893  10.009  1.00  0.00     0.220 C 
ATOM     11  O   UNL     1      19.510  16.392   9.256  1.00  0.00    -0.275 OA
ATOM     12  N   UNL     1      21.113  16.066  10.929  1.00  0.00    -0.352 N 
ATOM     13  H   UNL     1      21.877  16.493  11.502  1.00  0.00     0.163 HD
BRANCH  12  14
ATOM     14  C   UNL     1      20.820  14.647  11.109  1.00  0.00     0.151 C 
BRANCH  14  15
ATOM     15  C   UNL     1      19.813  14.460  12.212  1.00  0.00    -0.025 A 
ATOM     16  C   UNL     1      18.802  13.493  12.102  1.00  0.00     0.056 A 
ATOM     17  C   UNL     1      19.856  15.287  13.343  1.00  0.00     0.009 A 
ATOM     18  C   UNL     1      17.840  13.343  13.121  1.00  0.00     0.160 A 
ATOM     19  C   UNL     1      18.909  15.141  14.357  1.00  0.00     0.050 A 
ATOM     20  C   UNL     1      17.903  14.175  14.253  1.00  0.00     0.157 A 
BRANCH  18  21
ATOM     21  O   UNL     1      16.815  12.386  13.041  1.00  0.00    -0.493 OA
ATOM     22  C   UNL     1      16.365  11.785  11.830  1.00  0.00     0.278 C 
ENDBRANCH  18  21
BRANCH  20  23
ATOM     23  O   UNL     1      16.972  14.059  15.286  1.00  0.00    -0.504 OA
ATOM     24  H   UNL     1      16.072  13.615  15.154  1.00  0.00     0.293 HD
ENDBRANCH  20  23
ENDBRANCH  14  15
ENDBRANCH  12  14
ENDBRANCH   9  10
ENDBRANCH   1   9
TORSDOF 10
ENDMDL
MODEL 5
REMARK VINA RESULT:    -4.997      1.964      2.764
REMARK INTER + INTRA:          -9.904
REMARK INTER:                  -8.217
REMARK INTRA:                  -1.687
REMARK UNBOUND:                -2.132
REMARK SMILES COc1cc(CNC(=O)CCCCC=CC(C)C)ccc1O
REMARK SMILES IDX 11 1 12 2 13 3 14 4 15 5 16 6 17 7 18 8 10 9 8 10 9 11 7 12
REMARK SMILES IDX 6 14 5 15 4 16 19 17 3 18 20 19 21 20 2 21 1 22 22 23
REMARK H PARENT 7 13 22 24
REMARK Flexibility Score: inf
ROOT
ATOM      1  C   UNL     1      19.875  23.499  10.532  1.00  0.00     0.010 C 
ENDROOT
BRANCH   1   2
ATOM      2  C   UNL     1      18.689  24.027   9.711  1.00  0.00     0.005 C 
BRANCH   2   3
ATOM      3  C   UNL     1      17.541  23.010   9.622  1.00  0.00     0.027 C 
BRANCH   3   4
ATOM      4  C   UNL     1      17.940  21.695  10.240  1.00  0.00    -0.031 C 
ATOM      5  C   UNL     1      17.072  20.747  10.641  1.00  0.00    -0.028 C 
BRANCH   5   6
ATOM      6  C   UNL     1      15.569  20.821  10.464  1.00  0.00     0.005 C 
ATOM      7  C   UNL     1      14.880  19.880  11.456  1.00  0.00     0.012 C 
ATOM      8  C   UNL     1      15.197  20.455   9.026  1.00  0.00     0.012 C 
ENDBRANCH   5   6
ENDBRANCH   3   4
ENDBRANCH   2   3
ENDBRANCH   1   2
BRANCH   1   9
ATOM      9  C   UNL     1      21.187  23.514   9.735  1.00  0.00     0.100 C 
BRANCH   9  10
ATOM     10  C   UNL     1      21.161  22.465   8.666  1.00  0.00     0.220 C 
ATOM     11  O   UNL     1      21.233  22.811   7.456  1.00  0.00    -0.275 OA
ATOM     12  N   UNL     1      21.099  21.077   9.022  1.00  0.00    -0.352 N 
ATOM     13  H   UNL     1      21.099  20.812  10.034  1.00  0.00     0.163 HD
BRANCH  12  14
ATOM     14  C   UNL     1      21.026  20.013   8.025  1.00  0.00     0.151 C 
BRANCH  14  15
ATOM     15  C   UNL     1      19.999  18.990   8.432  1.00  0.00    -0.025 A 
ATOM     16  C   UNL     1      20.278  18.065   9.450  1.00  0.00     0.056 A 
ATOM     17  C   UNL     1      18.770  18.929   7.762  1.00  0.00     0.009 A 
ATOM     18  C   UNL     1      19.329  17.085   9.807  1.00  0.00     0.160 A 
ATOM     19  C   UNL     1      17.825  17.964   8.112  1.00  0.00     0.050 A 
ATOM     20  C   UNL     1      18.097  17.043   9.129  1.00  0.00     0.157 A 
BRANCH  18  21
ATOM     21  O   UNL     1      19.576  16.144  10.819  1.00  0.00    -0.493 OA
ATOM     22  C   UNL     1      20.554  15.111  10.741  1.00  0.00     0.278 C 
ENDBRANCH  18  21
BRANCH  20  23
ATOM     23  O   UNL     1      17.129  16.092   9.451  1.00  0.00    -0.504 OA
ATOM     24  H   UNL     1      17.299  15.354  10.124  1.00  0.00     0.293 HD
ENDBRANCH  20  23
ENDBRANCH  14  15
ENDBRANCH  12  14
ENDBRANCH   9  10
ENDBRANCH   1   9
TORSDOF 10
ENDMDL
MODEL 6
REMARK VINA RESULT:    -4.985      2.042      4.007
REMARK INTER + INTRA:          -9.885
REMARK INTER:                  -8.011
REMARK INTRA:                  -1.874
REMARK UNBOUND:                -2.132
REMARK SMILES COc1cc(CNC(=O)CCCCC=CC(C)C)ccc1O
REMARK SMILES IDX 11 1 12 2 13 3 14 4 15 5 16 6 17 7 18 8 10 9 8 10 9 11 7 12
REMARK SMILES IDX 6 14 5 15 4 16 19 17 3 18 20 19 21 20 2 21 1 22 22 23
REMARK H PARENT 7 13 22 24
REMARK Flexibility Score: inf
ROOT
ATOM      1  C   UNL     1      21.152  20.885   8.860  1.00  0.00     0.010 C 
ENDROOT
BRANCH   1   2
ATOM      2  C   UNL     1      20.992  19.865   7.721  1.00  0.00     0.005 C 
BRANCH   2   3
ATOM      3  C   UNL     1      20.165  18.641   8.143  1.00  0.00     0.027 C 
BRANCH   3   4
ATOM      4  C   UNL     1      18.701  18.987   8.225  1.00  0.00    -0.031 C 
ATOM      5  C   UNL     1      17.818  18.375   9.037  1.00  0.00    -0.028 C 
BRANCH   5   6
ATOM      6  C   UNL     1      18.172  17.301  10.046  1.00  0.00     0.005 C 
ATOM      7  C   UNL     1      16.933  16.463  10.372  1.00  0.00     0.012 C 
ATOM      8  C   UNL     1      18.736  17.946  11.314  1.00  0.00     0.012 C 
ENDBRANCH   5   6
ENDBRANCH   3   4
ENDBRANCH   2   3
ENDBRANCH   1   2
BRANCH   1   9
ATOM      9  C   UNL     1      21.140  22.332   8.350  1.00  0.00     0.100 C 
BRANCH   9  10
ATOM     10  C   UNL     1      19.825  22.983   8.656  1.00  0.00     0.220 C 
ATOM     11  O   UNL     1      19.629  24.179   8.309  1.00  0.00    -0.275 OA
ATOM     12  N   UNL     1      18.785  22.233   9.298  1.00  0.00    -0.352 N 
ATOM     13  H   UNL     1      18.951  21.225   9.523  1.00  0.00     0.163 HD
BRANCH  12  14
ATOM     14  C   UNL     1      17.500  22.825   9.661  1.00  0.00     0.151 C 
BRANCH  14  15
ATOM     15  C   UNL     1      16.576  21.766  10.200  1.00  0.00    -0.025 A 
ATOM     16  C   UNL     1      16.821  21.170  11.447  1.00  0.00     0.056 A 
ATOM     17  C   UNL     1      15.483  21.338   9.434  1.00  0.00     0.009 A 
ATOM     18  C   UNL     1      15.974  20.154  11.935  1.00  0.00     0.160 A 
ATOM     19  C   UNL     1      14.638  20.336   9.913  1.00  0.00     0.050 A 
ATOM     20  C   UNL     1      14.877  19.742  11.157  1.00  0.00     0.157 A 
BRANCH  18  21
ATOM     21  O   UNL     1      16.193  19.536  13.177  1.00  0.00    -0.493 OA
ATOM     22  C   UNL     1      15.728  20.044  14.424  1.00  0.00     0.278 C 
ENDBRANCH  18  21
BRANCH  20  23
ATOM     23  O   UNL     1      14.012  18.743  11.601  1.00  0.00    -0.504 OA
ATOM     24  H   UNL     1      13.167  18.498  11.100  1.00  0.00     0.293 HD
ENDBRANCH  20  23
ENDBRANCH  14  15
ENDBRANCH  12  14
ENDBRANCH   9  10
ENDBRANCH   1   9
TORSDOF 10
ENDMDL
MODEL 7
REMARK VINA RESULT:    -4.955      2.812      3.800
REMARK INTER + INTRA:          -9.840
REMARK INTER:                  -7.902
REMARK INTRA:                  -1.938
REMARK UNBOUND:                -2.132
REMARK SMILES COc1cc(CNC(=O)CCCCC=CC(C)C)ccc1O
REMARK SMILES IDX 11 1 12 2 13 3 14 4 15 5 16 6 17 7 18 8 10 9 8 10 9 11 7 12
REMARK SMILES IDX 6 14 5 15 4 16 19 17 3 18 20 19 21 20 2 21 1 22 22 23
REMARK H PARENT 7 13 22 24
REMARK Flexibility Score: inf
ROOT
ATOM      1  C   UNL     1      20.200  19.919   9.189  1.00  0.00     0.010 C 
ENDROOT
BRANCH   1   2
ATOM      2  C   UNL     1      18.828  20.575   9.404  1.00  0.00     0.005 C 
BRANCH   2   3
ATOM      3  C   UNL     1      17.696  19.808   8.703  1.00  0.00     0.027 C 
BRANCH   3   4
ATOM      4  C   UNL     1      16.465  19.760   9.570  1.00  0.00    -0.031 C 
ATOM      5  C   UNL     1      16.259  18.862  10.552  1.00  0.00    -0.028 C 
BRANCH   5   6
ATOM      6  C   UNL     1      17.262  17.814  10.988  1.00  0.00     0.005 C 
ATOM      7  C   UNL     1      16.776  16.422  10.576  1.00  0.00     0.012 C 
ATOM      8  C   UNL     1      17.465  17.888  12.503  1.00  0.00     0.012 C 
ENDBRANCH   5   6
ENDBRANCH   3   4
ENDBRANCH   2   3
ENDBRANCH   1   2
BRANCH   1   9
ATOM      9  C   UNL     1      20.659  19.115  10.413  1.00  0.00     0.100 C 
BRANCH   9  10
ATOM     10  C   UNL     1      20.629  17.647  10.116  1.00  0.00     0.220 C 
ATOM     11  O   UNL     1      20.308  17.254   8.962  1.00  0.00    -0.275 OA
ATOM     12  N   UNL     1      21.005  16.701  11.126  1.00  0.00    -0.352 N 
ATOM     13  H   UNL     1      21.325  17.054  12.058  1.00  0.00     0.163 HD
BRANCH  12  14
ATOM     14  C   UNL     1      20.954  15.258  10.909  1.00  0.00     0.151 C 
BRANCH  14  15
ATOM     15  C   UNL     1      19.923  14.634  11.812  1.00  0.00    -0.025 A 
ATOM     16  C   UNL     1      19.730  15.116  13.116  1.00  0.00     0.056 A 
ATOM     17  C   UNL     1      19.177  13.535  11.365  1.00  0.00     0.009 A 
ATOM     18  C   UNL     1      18.789  14.508  13.972  1.00  0.00     0.160 A 
ATOM     19  C   UNL     1      18.242  12.932  12.206  1.00  0.00     0.050 A 
ATOM     20  C   UNL     1      18.043  13.411  13.505  1.00  0.00     0.157 A 
BRANCH  18  21
ATOM     21  O   UNL     1      18.574  14.964  15.283  1.00  0.00    -0.493 OA
ATOM     22  C   UNL     1      17.746  16.071  15.627  1.00  0.00     0.278 C 
ENDBRANCH  18  21
BRANCH  20  23
ATOM     23  O   UNL     1      17.100  12.781  14.317  1.00  0.00    -0.504 OA
ATOM     24  H   UNL     1      16.112  12.998  14.265  1.00  0.00     0.293 HD
ENDBRANCH  20  23
ENDBRANCH  14  15
ENDBRANCH  12  14
ENDBRANCH   9  10
ENDBRANCH   1   9
TORSDOF 10
ENDMDL
MODEL 8
REMARK VINA RESULT:    -4.950      4.608      5.955
REMARK INTER + INTRA:          -9.831
REMARK INTER:                  -8.948
REMARK INTRA:                  -0.883
REMARK UNBOUND:                -2.132
REMARK SMILES COc1cc(CNC(=O)CCCCC=CC(C)C)ccc1O
REMARK SMILES IDX 11 1 12 2 13 3 14 4 15 5 16 6 17 7 18 8 10 9 8 10 9 11 7 12
REMARK SMILES IDX 6 14 5 15 4 16 19 17 3 18 20 19 21 20 2 21 1 22 22 23
REMARK H PARENT 7 13 22 24
REMARK Flexibility Score: inf
ROOT
ATOM      1  C   UNL     1      18.256  17.935   9.495  1.00  0.00     0.010 C 
ENDROOT
BRANCH   1   2
ATOM      2  C   UNL     1      19.017  18.435   8.258  1.00  0.00     0.005 C 
BRANCH   2   3
ATOM      3  C   UNL     1      20.493  18.732   8.559  1.00  0.00     0.027 C 
BRANCH   3   4
ATOM      4  C   UNL     1      20.966  19.936   7.787  1.00  0.00    -0.031 C 
ATOM      5  C   UNL     1      20.832  21.209   8.204  1.00  0.00    -0.028 C 
BRANCH   5   6
ATOM      6  C   UNL     1      20.258  21.624   9.544  1.00  0.00     0.005 C 
ATOM      7  C   UNL     1      18.790  22.026   9.382  1.00  0.00     0.012 C 
ATOM      8  C   UNL     1      21.074  22.782  10.123  1.00  0.00     0.012 C 
ENDBRANCH   5   6
ENDBRANCH   3   4
ENDBRANCH   2   3
ENDBRANCH   1   2
BRANCH   1   9
ATOM      9  C   UNL     1      17.519  16.614   9.231  1.00  0.00     0.100 C 
BRANCH   9  10
ATOM     10  C   UNL     1      18.442  15.451   9.437  1.00  0.00     0.220 C 
ATOM     11  O   UNL     1      19.016  14.931   8.443  1.00  0.00    -0.275 OA
ATOM     12  N   UNL     1      18.700  14.965  10.761  1.00  0.00    -0.352 N 
ATOM     13  H   UNL     1      18.258  15.450  11.575  1.00  0.00     0.163 HD
BRANCH  12  14
ATOM     14  C   UNL     1      19.554  13.809  11.020  1.00  0.00     0.151 C 
BRANCH  14  15
ATOM     15  C   UNL     1      18.763  12.721  11.696  1.00  0.00    -0.025 A 
ATOM     16  C   UNL     1      18.868  11.389  11.266  1.00  0.00     0.056 A 
ATOM     17  C   UNL     1      17.879  13.043  12.735  1.00  0.00     0.009 A 
ATOM     18  C   UNL     1      18.100  10.377  11.877  1.00  0.00     0.160 A 
ATOM     19  C   UNL     1      17.119  12.045  13.346  1.00  0.00     0.050 A 
ATOM     20  C   UNL     1      17.224  10.716  12.924  1.00  0.00     0.157 A 
BRANCH  18  21
ATOM     21  O   UNL     1      18.180   9.035  11.470  1.00  0.00    -0.493 OA
ATOM     22  C   UNL     1      18.742   8.597  10.236  1.00  0.00     0.278 C 
ENDBRANCH  18  21
BRANCH  20  23
ATOM     23  O   UNL     1      16.447   9.746  13.558  1.00  0.00    -0.504 OA
ATOM     24  H   UNL     1      16.058   8.955  13.059  1.00  0.00     0.293 HD
ENDBRANCH  20  23
ENDBRANCH  14  15
ENDBRANCH  12  14
ENDBRANCH   9  10
ENDBRANCH   1   9
TORSDOF 10
ENDMDL
MODEL 9
REMARK VINA RESULT:    -4.830      2.263      4.080
REMARK INTER + INTRA:          -9.645
REMARK INTER:                  -7.543
REMARK INTRA:                  -2.102
REMARK UNBOUND:                -2.132
REMARK SMILES COc1cc(CNC(=O)CCCCC=CC(C)C)ccc1O
REMARK SMILES IDX 11 1 12 2 13 3 14 4 15 5 16 6 17 7 18 8 10 9 8 10 9 11 7 12
REMARK SMILES IDX 6 14 5 15 4 16 19 17 3 18 20 19 21 20 2 21 1 22 22 23
REMARK H PARENT 7 13 22 24
REMARK Flexibility Score: inf
ROOT
ATOM      1  C   UNL     1      18.051  22.463  10.535  1.00  0.00     0.010 C 
ENDROOT
BRANCH   1   2
ATOM      2  C   UNL     1      19.200  23.107   9.744  1.00  0.00     0.005 C 
BRANCH   2   3
ATOM      3  C   UNL     1      20.512  22.318   9.870  1.00  0.00     0.027 C 
BRANCH   3   4
ATOM      4  C   UNL     1      20.915  21.734   8.541  1.00  0.00    -0.031 C 
ATOM      5  C   UNL     1      20.619  20.485   8.136  1.00  0.00    -0.028 C 
BRANCH   5   6
ATOM      6  C   UNL     1      19.771  19.502   8.917  1.00  0.00     0.005 C 
ATOM      7  C   UNL     1      20.667  18.456   9.586  1.00  0.00     0.012 C 
ATOM      8  C   UNL     1      18.762  18.829   7.983  1.00  0.00     0.012 C 
ENDBRANCH   5   6
ENDBRANCH   3   4
ENDBRANCH   2   3
ENDBRANCH   1   2
BRANCH   1   9
ATOM      9  C   UNL     1      16.960  21.893   9.618  1.00  0.00     0.100 C 
BRANCH   9  10
ATOM     10  C   UNL     1      16.374  20.650  10.213  1.00  0.00     0.220 C 
ATOM     11  O   UNL     1      15.369  20.116   9.670  1.00  0.00    -0.275 OA
ATOM     12  N   UNL     1      16.980  20.050  11.366  1.00  0.00    -0.352 N 
ATOM     13  H   UNL     1      17.848  20.478  11.764  1.00  0.00     0.163 HD
BRANCH  12  14
ATOM     14  C   UNL     1      16.428  18.865  12.016  1.00  0.00     0.151 C 
BRANCH  14  15
ATOM     15  C   UNL     1      17.421  17.735  11.963  1.00  0.00    -0.025 A 
ATOM     16  C   UNL     1      17.466  16.873  10.856  1.00  0.00     0.056 A 
ATOM     17  C   UNL     1      18.281  17.510  13.047  1.00  0.00     0.009 A 
ATOM     18  C   UNL     1      18.372  15.795  10.823  1.00  0.00     0.160 A 
ATOM     19  C   UNL     1      19.184  16.446  13.019  1.00  0.00     0.050 A 
ATOM     20  C   UNL     1      19.234  15.588  11.915  1.00  0.00     0.157 A 
BRANCH  18  21
ATOM     21  O   UNL     1      18.441  14.914   9.731  1.00  0.00    -0.493 OA
ATOM     22  C   UNL     1      19.270  15.107   8.589  1.00  0.00     0.278 C 
ENDBRANCH  18  21
BRANCH  20  23
ATOM     23  O   UNL     1      20.149  14.535  11.924  1.00  0.00    -0.504 OA
ATOM     24  H   UNL     1      19.904  13.605  11.606  1.00  0.00     0.293 HD
ENDBRANCH  20  23
ENDBRANCH  14  15
ENDBRANCH  12  14
ENDBRANCH   9  10
ENDBRANCH   1   9
TORSDOF 10
ENDMDL
