MODEL 1
REMARK VINA RESULT:    -3.479      0.000      0.000
REMARK INTER + INTRA:          -4.276
REMARK INTER:                  -4.089
REMARK INTRA:                  -0.187
REMARK UNBOUND:                -0.187
REMARK SMILES O=C([O-])CCC(=O)[O-]
REMARK SMILES IDX 4 1 2 2 1 3 3 4 5 5 6 6 7 7 8 8
REMARK H PARENT
REMARK Flexibility Score: inf
ROOT
ATOM      1  C   UNL     1       7.364  -0.645  47.202  1.00  0.00     0.059 C 
ENDROOT
BRANCH   1   2
ATOM      2  C   UNL     1       8.128  -1.765  47.834  1.00  0.00     0.042 C 
ATOM      3  O   UNL     1       8.101  -1.927  49.082  1.00  0.00    -0.550 OA
ATOM      4  O   UNL     1       8.830  -2.663  47.039  1.00  0.00    -0.550 OA
ENDBRANCH   1   2
BRANCH   1   5
ATOM      5  C   UNL     1       5.880  -0.741  47.558  1.00  0.00     0.059 C 
BRANCH   5   6
ATOM      6  C   UNL     1       5.280  -1.979  46.970  1.00  0.00     0.042 C 
ATOM      7  O   UNL     1       5.246  -2.134  45.721  1.00  0.00    -0.550 OA
ATOM      8  O   UNL     1       4.804  -2.983  47.802  1.00  0.00    -0.550 OA
ENDBRANCH   5   6
ENDBRANCH   1   5
TORSDOF 3
ENDMDL
MODEL 2
REMARK VINA RESULT:    -3.478      0.173      1.620
REMARK INTER + INTRA:          -4.274
REMARK INTER:                  -4.092
REMARK INTRA:                  -0.183
REMARK UNBOUND:                -0.187
REMARK SMILES O=C([O-])CCC(=O)[O-]
REMARK SMILES IDX 4 1 2 2 1 3 3 4 5 5 6 6 7 7 8 8
REMARK H PARENT
REMARK Flexibility Score: inf
ROOT
ATOM      1  C   UNL     1       7.348  -0.748  47.070  1.00  0.00     0.059 C 
ENDROOT
BRANCH   1   2
ATOM      2  C   UNL     1       8.073  -1.835  47.799  1.00  0.00     0.042 C 
ATOM      3  O   UNL     1       8.762  -2.675  47.162  1.00  0.00    -0.550 OA
ATOM      4  O   UNL     1       8.030  -1.890  49.186  1.00  0.00    -0.550 OA
ENDBRANCH   1   2
BRANCH   1   5
ATOM      5  C   UNL     1       5.869  -0.738  47.459  1.00  0.00     0.059 C 
BRANCH   5   6
ATOM      6  C   UNL     1       5.211  -2.017  47.045  1.00  0.00     0.042 C 
ATOM      7  O   UNL     1       4.667  -2.757  47.907  1.00  0.00    -0.550 OA
ATOM      8  O   UNL     1       5.155  -2.367  45.703  1.00  0.00    -0.550 OA
ENDBRANCH   5   6
ENDBRANCH   1   5
TORSDOF 3
ENDMDL
MODEL 3
REMARK VINA RESULT:    -3.475      0.068      3.461
REMARK INTER + INTRA:          -4.271
REMARK INTER:                  -4.089
REMARK INTRA:                  -0.181
REMARK UNBOUND:                -0.187
REMARK SMILES O=C([O-])CCC(=O)[O-]
REMARK SMILES IDX 4 1 2 2 1 3 3 4 5 5 6 6 7 7 8 8
REMARK H PARENT
REMARK Flexibility Score: inf
ROOT
ATOM      1  C   UNL     1       5.868  -0.799  47.524  1.00  0.00     0.059 C 
ENDROOT
BRANCH   1   2
ATOM      2  C   UNL     1       5.269  -2.051  46.964  1.00  0.00     0.042 C 
ATOM      3  O   UNL     1       5.195  -2.215  45.717  1.00  0.00    -0.550 OA
ATOM      4  O   UNL     1       4.838  -3.058  47.818  1.00  0.00    -0.550 OA
ENDBRANCH   1   2
BRANCH   1   5
ATOM      5  C   UNL     1       7.346  -0.698  47.145  1.00  0.00     0.059 C 
BRANCH   5   6
ATOM      6  C   UNL     1       8.136  -1.772  47.824  1.00  0.00     0.042 C 
ATOM      7  O   UNL     1       8.094  -1.894  49.076  1.00  0.00    -0.550 OA
ATOM      8  O   UNL     1       8.878  -2.671  47.069  1.00  0.00    -0.550 OA
ENDBRANCH   5   6
ENDBRANCH   1   5
TORSDOF 3
ENDMDL
MODEL 4
REMARK VINA RESULT:    -3.474      0.153      3.159
REMARK INTER + INTRA:          -4.270
REMARK INTER:                  -4.084
REMARK INTRA:                  -0.186
REMARK UNBOUND:                -0.187
REMARK SMILES O=C([O-])CCC(=O)[O-]
REMARK SMILES IDX 4 1 2 2 1 3 3 4 5 5 6 6 7 7 8 8
REMARK H PARENT
REMARK Flexibility Score: inf
ROOT
ATOM      1  C   UNL     1       5.866  -0.829  47.478  1.00  0.00     0.059 C 
ENDROOT
BRANCH   1   2
ATOM      2  C   UNL     1       5.250  -2.112  47.020  1.00  0.00     0.042 C 
ATOM      3  O   UNL     1       4.754  -2.912  47.858  1.00  0.00    -0.550 OA
ATOM      4  O   UNL     1       5.177  -2.404  45.664  1.00  0.00    -0.550 OA
ENDBRANCH   1   2
BRANCH   1   5
ATOM      5  C   UNL     1       7.336  -0.762  47.062  1.00  0.00     0.059 C 
BRANCH   5   6
ATOM      6  C   UNL     1       8.117  -1.855  47.722  1.00  0.00     0.042 C 
ATOM      7  O   UNL     1       8.783  -2.666  47.027  1.00  0.00    -0.550 OA
ATOM      8  O   UNL     1       8.148  -1.947  49.107  1.00  0.00    -0.550 OA
ENDBRANCH   5   6
ENDBRANCH   1   5
TORSDOF 3
ENDMDL
MODEL 5
REMARK VINA RESULT:    -3.446      1.507      2.030
REMARK INTER + INTRA:          -4.237
REMARK INTER:                  -4.055
REMARK INTRA:                  -0.182
REMARK UNBOUND:                -0.187
REMARK SMILES O=C([O-])CCC(=O)[O-]
REMARK SMILES IDX 4 1 2 2 1 3 3 4 5 5 6 6 7 7 8 8
REMARK H PARENT
REMARK Flexibility Score: inf
ROOT
ATOM      1  C   UNL     1       7.509  -1.820  48.684  1.00  0.00     0.059 C 
ENDROOT
BRANCH   1   2
ATOM      2  C   UNL     1       8.117  -2.841  47.775  1.00  0.00     0.042 C 
ATOM      3  O   UNL     1       9.269  -2.661  47.299  1.00  0.00    -0.550 OA
ATOM      4  O   UNL     1       7.433  -4.017  47.494  1.00  0.00    -0.550 OA
ENDBRANCH   1   2
BRANCH   1   5
ATOM      5  C   UNL     1       6.079  -1.500  48.248  1.00  0.00     0.059 C 
BRANCH   5   6
ATOM      6  C   UNL     1       6.079  -0.803  46.924  1.00  0.00     0.042 C 
ATOM      7  O   UNL     1       6.643   0.315  46.797  1.00  0.00    -0.550 OA
ATOM      8  O   UNL     1       5.499  -1.412  45.819  1.00  0.00    -0.550 OA
ENDBRANCH   5   6
ENDBRANCH   1   5
TORSDOF 3
ENDMDL
MODEL 6
REMARK VINA RESULT:    -3.443      1.512      3.092
REMARK INTER + INTRA:          -4.233
REMARK INTER:                  -4.045
REMARK INTRA:                  -0.188
REMARK UNBOUND:                -0.187
REMARK SMILES O=C([O-])CCC(=O)[O-]
REMARK SMILES IDX 4 1 2 2 1 3 3 4 5 5 6 6 7 7 8 8
REMARK H PARENT
REMARK Flexibility Score: inf
ROOT
ATOM      1  C   UNL     1       6.090  -1.501  48.269  1.00  0.00     0.059 C 
ENDROOT
BRANCH   1   2
ATOM      2  C   UNL     1       6.121  -0.801  46.947  1.00  0.00     0.042 C 
ATOM      3  O   UNL     1       6.729   0.296  46.824  1.00  0.00    -0.550 OA
ATOM      4  O   UNL     1       5.522  -1.384  45.838  1.00  0.00    -0.550 OA
ENDBRANCH   1   2
BRANCH   1   5
ATOM      5  C   UNL     1       7.507  -1.872  48.711  1.00  0.00     0.059 C 
BRANCH   5   6
ATOM      6  C   UNL     1       8.101  -2.875  47.774  1.00  0.00     0.042 C 
ATOM      7  O   UNL     1       9.224  -2.661  47.246  1.00  0.00    -0.550 OA
ATOM      8  O   UNL     1       7.439  -4.069  47.523  1.00  0.00    -0.550 OA
ENDBRANCH   5   6
ENDBRANCH   1   5
TORSDOF 3
ENDMDL
MODEL 7
REMARK VINA RESULT:    -3.417      1.096      3.707
REMARK INTER + INTRA:          -4.203
REMARK INTER:                  -4.085
REMARK INTRA:                  -0.118
REMARK UNBOUND:                -0.187
REMARK SMILES O=C([O-])CCC(=O)[O-]
REMARK SMILES IDX 4 1 2 2 1 3 3 4 5 5 6 6 7 7 8 8
REMARK H PARENT
REMARK Flexibility Score: inf
ROOT
ATOM      1  C   UNL     1       7.267  -0.913  47.376  1.00  0.00     0.059 C 
ENDROOT
BRANCH   1   2
ATOM      2  C   UNL     1       5.935  -1.417  46.916  1.00  0.00     0.042 C 
ATOM      3  O   UNL     1       5.555  -1.215  45.732  1.00  0.00    -0.550 OA
ATOM      4  O   UNL     1       5.134  -2.154  47.780  1.00  0.00    -0.550 OA
ENDBRANCH   1   2
BRANCH   1   5
ATOM      5  C   UNL     1       8.292  -2.048  47.393  1.00  0.00     0.059 C 
BRANCH   5   6
ATOM      6  C   UNL     1       8.788  -2.284  48.785  1.00  0.00     0.042 C 
ATOM      7  O   UNL     1       9.996  -2.578  48.986  1.00  0.00    -0.550 OA
ATOM      8  O   UNL     1       7.928  -2.131  49.864  1.00  0.00    -0.550 OA
ENDBRANCH   5   6
ENDBRANCH   1   5
TORSDOF 3
ENDMDL
MODEL 8
REMARK VINA RESULT:    -3.360      1.839      2.628
REMARK INTER + INTRA:          -4.136
REMARK INTER:                  -3.946
REMARK INTRA:                  -0.190
REMARK UNBOUND:                -0.187
REMARK SMILES O=C([O-])CCC(=O)[O-]
REMARK SMILES IDX 4 1 2 2 1 3 3 4 5 5 6 6 7 7 8 8
REMARK H PARENT
REMARK Flexibility Score: inf
ROOT
ATOM      1  C   UNL     1       8.980  -2.274  48.666  1.00  0.00     0.059 C 
ENDROOT
BRANCH   1   2
ATOM      2  C   UNL     1       7.911  -2.808  49.567  1.00  0.00     0.042 C 
ATOM      3  O   UNL     1       7.329  -2.044  50.381  1.00  0.00    -0.550 OA
ATOM      4  O   UNL     1       7.522  -4.138  49.472  1.00  0.00    -0.550 OA
ENDBRANCH   1   2
BRANCH   1   5
ATOM      5  C   UNL     1       8.619  -2.525  47.201  1.00  0.00     0.059 C 
BRANCH   5   6
ATOM      6  C   UNL     1       7.428  -1.709  46.808  1.00  0.00     0.042 C 
ATOM      7  O   UNL     1       6.420  -2.264  46.298  1.00  0.00    -0.550 OA
ATOM      8  O   UNL     1       7.412  -0.341  47.050  1.00  0.00    -0.550 OA
ENDBRANCH   5   6
ENDBRANCH   1   5
TORSDOF 3
ENDMDL
MODEL 9
REMARK VINA RESULT:    -3.305      1.964      2.750
REMARK INTER + INTRA:          -4.072
REMARK INTER:                  -3.934
REMARK INTRA:                  -0.138
REMARK UNBOUND:                -0.187
REMARK SMILES O=C([O-])CCC(=O)[O-]
REMARK SMILES IDX 4 1 2 2 1 3 3 4 5 5 6 6 7 7 8 8
REMARK H PARENT
REMARK Flexibility Score: inf
ROOT
ATOM      1  C   UNL     1       6.373  -2.685  48.779  1.00  0.00     0.059 C 
ENDROOT
BRANCH   1   2
ATOM      2  C   UNL     1       7.262  -2.319  49.925  1.00  0.00     0.042 C 
ATOM      3  O   UNL     1       8.514  -2.392  49.804  1.00  0.00    -0.550 OA
ATOM      4  O   UNL     1       6.711  -1.848  51.110  1.00  0.00    -0.550 OA
ENDBRANCH   1   2
BRANCH   1   5
ATOM      5  C   UNL     1       5.806  -1.427  48.118  1.00  0.00     0.059 C 
BRANCH   5   6
ATOM      6  C   UNL     1       6.744  -0.920  47.068  1.00  0.00     0.042 C 
ATOM      7  O   UNL     1       6.813   0.313  46.822  1.00  0.00    -0.550 OA
ATOM      8  O   UNL     1       7.578  -1.804  46.396  1.00  0.00    -0.550 OA
ENDBRANCH   5   6
ENDBRANCH   1   5
TORSDOF 3
ENDMDL
