MODEL 1
REMARK VINA RESULT:    -3.847      0.000      0.000
REMARK INTER + INTRA:          -5.161
REMARK INTER:                  -5.084
REMARK INTRA:                  -0.077
REMARK UNBOUND:                -0.077
REMARK SMILES CCCCCCCO
REMARK SMILES IDX 5 1 4 2 3 3 2 4 1 5 6 6 7 7 8 8
REMARK H PARENT 8 9
REMARK Flexibility Score: inf
ROOT
ATOM      1  C   UNL     1      -2.310  21.784  12.740  1.00  0.00     0.002 C 
ENDROOT
BRANCH   1   2
ATOM      2  C   UNL     1      -3.485  21.045  12.077  1.00  0.00     0.000 C 
BRANCH   2   3
ATOM      3  C   UNL     1      -3.971  19.839  12.901  1.00  0.00    -0.000 C 
BRANCH   3   4
ATOM      4  C   UNL     1      -5.384  19.343  12.543  1.00  0.00    -0.003 C 
ATOM      5  C   UNL     1      -6.073  18.617  13.697  1.00  0.00     0.004 C 
ENDBRANCH   3   4
ENDBRANCH   2   3
ENDBRANCH   1   2
BRANCH   1   6
ATOM      6  C   UNL     1      -0.959  21.491  12.063  1.00  0.00     0.028 C 
BRANCH   6   7
ATOM      7  C   UNL     1      -0.210  22.757  11.620  1.00  0.00     0.156 C 
BRANCH   7   8
ATOM      8  O   UNL     1      -0.705  23.894  12.272  1.00  0.00    -0.396 OA
ATOM      9  H   UNL     1      -0.677  24.636  11.612  1.00  0.00     0.210 HD
ENDBRANCH   7   8
ENDBRANCH   6   7
ENDBRANCH   1   6
TORSDOF 6
ENDMDL
MODEL 2
REMARK VINA RESULT:    -3.680      6.309      8.900
REMARK INTER + INTRA:          -4.939
REMARK INTER:                  -4.717
REMARK INTRA:                  -0.223
REMARK UNBOUND:                -0.077
REMARK SMILES CCCCCCCO
REMARK SMILES IDX 5 1 4 2 3 3 2 4 1 5 6 6 7 7 8 8
REMARK H PARENT 8 9
REMARK Flexibility Score: inf
ROOT
ATOM      1  C   UNL     1       3.164  26.452  10.778  1.00  0.00     0.002 C 
ENDROOT
BRANCH   1   2
ATOM      2  C   UNL     1       3.288  27.794  11.520  1.00  0.00     0.000 C 
BRANCH   2   3
ATOM      3  C   UNL     1       2.467  27.834  12.821  1.00  0.00    -0.000 C 
BRANCH   3   4
ATOM      4  C   UNL     1       1.610  29.100  13.002  1.00  0.00    -0.003 C 
ATOM      5  C   UNL     1       1.931  30.191  11.983  1.00  0.00     0.004 C 
ENDBRANCH   3   4
ENDBRANCH   2   3
ENDBRANCH   1   2
BRANCH   1   6
ATOM      6  C   UNL     1       2.416  25.384  11.595  1.00  0.00     0.028 C 
BRANCH   6   7
ATOM      7  C   UNL     1       1.119  24.901  10.927  1.00  0.00     0.156 C 
BRANCH   7   8
ATOM      8  O   UNL     1       0.023  25.042  11.789  1.00  0.00    -0.396 OA
ATOM      9  H   UNL     1       0.264  25.748  12.445  1.00  0.00     0.210 HD
ENDBRANCH   7   8
ENDBRANCH   6   7
ENDBRANCH   1   6
TORSDOF 6
ENDMDL
MODEL 3
REMARK VINA RESULT:    -3.669      6.442      8.748
REMARK INTER + INTRA:          -4.925
REMARK INTER:                  -4.737
REMARK INTRA:                  -0.188
REMARK UNBOUND:                -0.077
REMARK SMILES CCCCCCCO
REMARK SMILES IDX 5 1 4 2 3 3 2 4 1 5 6 6 7 7 8 8
REMARK H PARENT 8 9
REMARK Flexibility Score: inf
ROOT
ATOM      1  C   UNL     1       3.225  26.684  11.036  1.00  0.00     0.002 C 
ENDROOT
BRANCH   1   2
ATOM      2  C   UNL     1       3.183  28.099  11.640  1.00  0.00     0.000 C 
BRANCH   2   3
ATOM      3  C   UNL     1       2.145  28.235  12.768  1.00  0.00    -0.000 C 
BRANCH   3   4
ATOM      4  C   UNL     1       2.741  28.530  14.157  1.00  0.00    -0.003 C 
ATOM      5  C   UNL     1       1.698  28.506  15.273  1.00  0.00     0.004 C 
ENDBRANCH   3   4
ENDBRANCH   2   3
ENDBRANCH   1   2
BRANCH   1   6
ATOM      6  C   UNL     1       2.410  25.663  11.848  1.00  0.00     0.028 C 
BRANCH   6   7
ATOM      7  C   UNL     1       1.276  25.007  11.045  1.00  0.00     0.156 C 
BRANCH   7   8
ATOM      8  O   UNL     1       0.063  25.060  11.744  1.00  0.00    -0.396 OA
ATOM      9  H   UNL     1      -0.644  24.767  11.110  1.00  0.00     0.210 HD
ENDBRANCH   7   8
ENDBRANCH   6   7
ENDBRANCH   1   6
TORSDOF 6
ENDMDL
MODEL 4
REMARK VINA RESULT:    -3.663      2.872      5.315
REMARK INTER + INTRA:          -4.917
REMARK INTER:                  -4.804
REMARK INTRA:                  -0.113
REMARK UNBOUND:                -0.077
REMARK SMILES CCCCCCCO
REMARK SMILES IDX 5 1 4 2 3 3 2 4 1 5 6 6 7 7 8 8
REMARK H PARENT 8 9
REMARK Flexibility Score: inf
ROOT
ATOM      1  C   UNL     1      -4.188  19.826  12.947  1.00  0.00     0.002 C 
ENDROOT
BRANCH   1   2
ATOM      2  C   UNL     1      -3.409  20.779  12.024  1.00  0.00     0.000 C 
BRANCH   2   3
ATOM      3  C   UNL     1      -2.485  21.735  12.799  1.00  0.00    -0.000 C 
BRANCH   3   4
ATOM      4  C   UNL     1      -1.069  21.877  12.212  1.00  0.00    -0.003 C 
ATOM      5  C   UNL     1      -0.794  20.899  11.071  1.00  0.00     0.004 C 
ENDBRANCH   3   4
ENDBRANCH   2   3
ENDBRANCH   1   2
BRANCH   1   6
ATOM      6  C   UNL     1      -5.549  19.406  12.363  1.00  0.00     0.028 C 
BRANCH   6   7
ATOM      7  C   UNL     1      -6.259  18.320  13.186  1.00  0.00     0.156 C 
BRANCH   7   8
ATOM      8  O   UNL     1      -6.183  18.592  14.558  1.00  0.00    -0.396 OA
ATOM      9  H   UNL     1      -5.833  19.518  14.646  1.00  0.00     0.210 HD
ENDBRANCH   7   8
ENDBRANCH   6   7
ENDBRANCH   1   6
TORSDOF 6
ENDMDL
MODEL 5
REMARK VINA RESULT:    -3.618      8.344      9.302
REMARK INTER + INTRA:          -4.858
REMARK INTER:                  -4.752
REMARK INTRA:                  -0.106
REMARK UNBOUND:                -0.077
REMARK SMILES CCCCCCCO
REMARK SMILES IDX 5 1 4 2 3 3 2 4 1 5 6 6 7 7 8 8
REMARK H PARENT 8 9
REMARK Flexibility Score: inf
ROOT
ATOM      1  C   UNL     1       3.488  26.460  11.122  1.00  0.00     0.002 C 
ENDROOT
BRANCH   1   2
ATOM      2  C   UNL     1       2.398  26.747  12.169  1.00  0.00     0.000 C 
BRANCH   2   3
ATOM      3  C   UNL     1       2.719  27.972  13.044  1.00  0.00    -0.000 C 
BRANCH   3   4
ATOM      4  C   UNL     1       1.653  29.081  13.014  1.00  0.00    -0.003 C 
ATOM      5  C   UNL     1       1.948  30.166  11.980  1.00  0.00     0.004 C 
ENDBRANCH   3   4
ENDBRANCH   2   3
ENDBRANCH   1   2
BRANCH   1   6
ATOM      6  C   UNL     1       3.634  24.962  10.804  1.00  0.00     0.028 C 
BRANCH   6   7
ATOM      7  C   UNL     1       5.057  24.561  10.388  1.00  0.00     0.156 C 
BRANCH   7   8
ATOM      8  O   UNL     1       5.842  24.246  11.506  1.00  0.00    -0.396 OA
ATOM      9  H   UNL     1       5.594  23.323  11.777  1.00  0.00     0.210 HD
ENDBRANCH   7   8
ENDBRANCH   6   7
ENDBRANCH   1   6
TORSDOF 6
ENDMDL
MODEL 6
REMARK VINA RESULT:    -3.560      9.572     11.851
REMARK INTER + INTRA:          -4.781
REMARK INTER:                  -4.584
REMARK INTRA:                  -0.197
REMARK UNBOUND:                -0.077
REMARK SMILES CCCCCCCO
REMARK SMILES IDX 5 1 4 2 3 3 2 4 1 5 6 6 7 7 8 8
REMARK H PARENT 8 9
REMARK Flexibility Score: inf
ROOT
ATOM      1  C   UNL     1       2.363  29.717  11.778  1.00  0.00     0.002 C 
ENDROOT
BRANCH   1   2
ATOM      2  C   UNL     1       1.972  31.179  11.502  1.00  0.00     0.000 C 
BRANCH   2   3
ATOM      3  C   UNL     1       3.192  32.109  11.375  1.00  0.00    -0.000 C 
BRANCH   3   4
ATOM      4  C   UNL     1       4.551  31.417  11.584  1.00  0.00    -0.003 C 
ATOM      5  C   UNL     1       5.430  32.125  12.614  1.00  0.00     0.004 C 
ENDBRANCH   3   4
ENDBRANCH   2   3
ENDBRANCH   1   2
BRANCH   1   6
ATOM      6  C   UNL     1       1.646  29.127  13.005  1.00  0.00     0.028 C 
BRANCH   6   7
ATOM      7  C   UNL     1       2.607  28.617  14.089  1.00  0.00     0.156 C 
BRANCH   7   8
ATOM      8  O   UNL     1       2.403  27.254  14.348  1.00  0.00    -0.396 OA
ATOM      9  H   UNL     1       2.883  27.050  15.193  1.00  0.00     0.210 HD
ENDBRANCH   7   8
ENDBRANCH   6   7
ENDBRANCH   1   6
TORSDOF 6
ENDMDL
MODEL 7
REMARK VINA RESULT:    -3.441      9.006     10.846
REMARK INTER + INTRA:          -4.624
REMARK INTER:                  -4.366
REMARK INTRA:                  -0.258
REMARK UNBOUND:                -0.077
REMARK SMILES CCCCCCCO
REMARK SMILES IDX 5 1 4 2 3 3 2 4 1 5 6 6 7 7 8 8
REMARK H PARENT 8 9
REMARK Flexibility Score: inf
ROOT
ATOM      1  C   UNL     1       3.323  28.600  11.416  1.00  0.00     0.002 C 
ENDROOT
BRANCH   1   2
ATOM      2  C   UNL     1       3.829  29.885  12.093  1.00  0.00     0.000 C 
BRANCH   2   3
ATOM      3  C   UNL     1       3.245  31.161  11.461  1.00  0.00    -0.000 C 
BRANCH   3   4
ATOM      4  C   UNL     1       1.707  31.202  11.402  1.00  0.00    -0.003 C 
ATOM      5  C   UNL     1       1.173  31.638  10.039  1.00  0.00     0.004 C 
ENDBRANCH   3   4
ENDBRANCH   2   3
ENDBRANCH   1   2
BRANCH   1   6
ATOM      6  C   UNL     1       2.687  27.611  12.409  1.00  0.00     0.028 C 
BRANCH   6   7
ATOM      7  C   UNL     1       2.386  28.232  13.782  1.00  0.00     0.156 C 
BRANCH   7   8
ATOM      8  O   UNL     1       2.401  27.260  14.792  1.00  0.00    -0.396 OA
ATOM      9  H   UNL     1       1.827  27.604  15.526  1.00  0.00     0.210 HD
ENDBRANCH   7   8
ENDBRANCH   6   7
ENDBRANCH   1   6
TORSDOF 6
ENDMDL
MODEL 8
REMARK VINA RESULT:    -3.419      9.284      9.754
REMARK INTER + INTRA:          -4.595
REMARK INTER:                  -4.320
REMARK INTRA:                  -0.276
REMARK UNBOUND:                -0.077
REMARK SMILES CCCCCCCO
REMARK SMILES IDX 5 1 4 2 3 3 2 4 1 5 6 6 7 7 8 8
REMARK H PARENT 8 9
REMARK Flexibility Score: inf
ROOT
ATOM      1  C   UNL     1       3.644  29.258  12.178  1.00  0.00     0.002 C 
ENDROOT
BRANCH   1   2
ATOM      2  C   UNL     1       2.201  29.791  12.139  1.00  0.00     0.000 C 
BRANCH   2   3
ATOM      3  C   UNL     1       1.319  29.203  13.256  1.00  0.00    -0.000 C 
BRANCH   3   4
ATOM      4  C   UNL     1       2.089  28.440  14.348  1.00  0.00    -0.003 C 
ATOM      5  C   UNL     1       1.567  28.722  15.756  1.00  0.00     0.004 C 
ENDBRANCH   3   4
ENDBRANCH   2   3
ENDBRANCH   1   2
BRANCH   1   6
ATOM      6  C   UNL     1       4.081  28.615  10.851  1.00  0.00     0.028 C 
BRANCH   6   7
ATOM      7  C   UNL     1       3.605  27.163  10.689  1.00  0.00     0.156 C 
BRANCH   7   8
ATOM      8  O   UNL     1       3.656  26.473  11.908  1.00  0.00    -0.396 OA
ATOM      9  H   UNL     1       2.896  26.805  12.456  1.00  0.00     0.210 HD
ENDBRANCH   7   8
ENDBRANCH   6   7
ENDBRANCH   1   6
TORSDOF 6
ENDMDL
MODEL 9
REMARK VINA RESULT:    -3.366     13.044     14.288
REMARK INTER + INTRA:          -4.524
REMARK INTER:                  -4.448
REMARK INTRA:                  -0.076
REMARK UNBOUND:                -0.077
REMARK SMILES CCCCCCCO
REMARK SMILES IDX 5 1 4 2 3 3 2 4 1 5 6 6 7 7 8 8
REMARK H PARENT 8 9
REMARK Flexibility Score: inf
ROOT
ATOM      1  C   UNL     1      -9.962  15.815  22.093  1.00  0.00     0.002 C 
ENDROOT
BRANCH   1   2
ATOM      2  C   UNL     1     -10.744  16.060  23.395  1.00  0.00     0.000 C 
BRANCH   2   3
ATOM      3  C   UNL     1     -10.678  17.525  23.862  1.00  0.00    -0.000 C 
BRANCH   3   4
ATOM      4  C   UNL     1     -11.123  17.755  25.318  1.00  0.00    -0.003 C 
ATOM      5  C   UNL     1     -10.559  19.042  25.919  1.00  0.00     0.004 C 
ENDBRANCH   3   4
ENDBRANCH   2   3
ENDBRANCH   1   2
BRANCH   1   6
ATOM      6  C   UNL     1     -10.877  15.547  20.885  1.00  0.00     0.028 C 
BRANCH   6   7
ATOM      7  C   UNL     1     -10.535  14.252  20.133  1.00  0.00     0.156 C 
BRANCH   7   8
ATOM      8  O   UNL     1      -9.279  13.762  20.514  1.00  0.00    -0.396 OA
ATOM      9  H   UNL     1      -9.444  12.945  21.055  1.00  0.00     0.210 HD
ENDBRANCH   7   8
ENDBRANCH   6   7
ENDBRANCH   1   6
TORSDOF 6
ENDMDL
