MODEL 1
REMARK VINA RESULT:    -5.992      0.000      0.000
REMARK INTER + INTRA:          -6.440
REMARK INTER:                  -6.342
REMARK INTRA:                  -0.098
REMARK UNBOUND:                -0.098
REMARK SMILES C=C(C)[C@H]1CC=C(C)C(=O)C1
REMARK SMILES IDX 8 1 7 2 6 3 5 4 4 5 11 6 9 7 10 8 2 9 1 10 3 11
REMARK H PARENT
REMARK Flexibility Score: inf
ROOT
ATOM      1  C   UNL     1      -7.454  33.030  19.738  1.00  0.00     0.048 C 
ATOM      2  C   UNL     1      -7.562  33.346  21.205  1.00  0.00    -0.012 C 
ATOM      3  C   UNL     1      -7.549  34.626  21.616  1.00  0.00    -0.019 C 
ATOM      4  C   UNL     1      -7.635  34.997  23.072  1.00  0.00     0.036 C 
ATOM      5  C   UNL     1      -8.494  33.984  23.853  1.00  0.00     0.025 C 
ATOM      6  C   UNL     1      -7.956  32.556  23.646  1.00  0.00     0.089 C 
ATOM      7  C   UNL     1      -7.807  32.254  22.180  1.00  0.00     0.158 C 
ATOM      8  O   UNL     1      -7.856  31.056  21.792  1.00  0.00    -0.295 OA
ENDROOT
BRANCH   5   9
ATOM      9  C   UNL     1      -8.582  34.342  25.330  1.00  0.00    -0.077 C 
ATOM     10  C   UNL     1      -8.570  33.393  26.283  1.00  0.00     0.008 C 
ATOM     11  C   UNL     1      -8.685  35.786  25.752  1.00  0.00     0.039 C 
ENDBRANCH   5   9
TORSDOF 1
ENDMDL
MODEL 2
REMARK VINA RESULT:    -5.887      2.091      4.420
REMARK INTER + INTRA:          -6.329
REMARK INTER:                  -6.231
REMARK INTRA:                  -0.098
REMARK UNBOUND:                -0.098
REMARK SMILES C=C(C)[C@H]1CC=C(C)C(=O)C1
REMARK SMILES IDX 8 1 7 2 6 3 5 4 4 5 11 6 9 7 10 8 2 9 1 10 3 11
REMARK H PARENT
REMARK Flexibility Score: inf
ROOT
ATOM      1  C   UNL     1      -9.011  29.116  24.762  1.00  0.00     0.048 C 
ATOM      2  C   UNL     1      -8.492  30.233  23.899  1.00  0.00    -0.012 C 
ATOM      3  C   UNL     1      -8.259  30.016  22.593  1.00  0.00    -0.019 C 
ATOM      4  C   UNL     1      -7.723  31.092  21.688  1.00  0.00     0.036 C 
ATOM      5  C   UNL     1      -8.224  32.483  22.121  1.00  0.00     0.025 C 
ATOM      6  C   UNL     1      -7.877  32.738  23.600  1.00  0.00     0.089 C 
ATOM      7  C   UNL     1      -8.358  31.600  24.460  1.00  0.00     0.158 C 
ATOM      8  O   UNL     1      -8.610  31.815  25.676  1.00  0.00    -0.295 OA
ENDROOT
BRANCH   5   9
ATOM      9  C   UNL     1      -7.681  33.583  21.220  1.00  0.00    -0.077 C 
ATOM     10  C   UNL     1      -7.628  34.862  21.631  1.00  0.00     0.008 C 
ATOM     11  C   UNL     1      -7.188  33.250  19.835  1.00  0.00     0.039 C 
ENDBRANCH   5   9
TORSDOF 1
ENDMDL
MODEL 3
REMARK VINA RESULT:    -5.828      1.676      4.298
REMARK INTER + INTRA:          -6.267
REMARK INTER:                  -6.170
REMARK INTRA:                  -0.097
REMARK UNBOUND:                -0.098
REMARK SMILES C=C(C)[C@H]1CC=C(C)C(=O)C1
REMARK SMILES IDX 8 1 7 2 6 3 5 4 4 5 11 6 9 7 10 8 2 9 1 10 3 11
REMARK H PARENT
REMARK Flexibility Score: inf
ROOT
ATOM      1  C   UNL     1      -8.262  35.110  26.161  1.00  0.00     0.048 C 
ATOM      2  C   UNL     1      -8.395  34.529  24.780  1.00  0.00    -0.012 C 
ATOM      3  C   UNL     1      -7.889  35.190  23.725  1.00  0.00    -0.019 C 
ATOM      4  C   UNL     1      -8.011  34.663  22.321  1.00  0.00     0.036 C 
ATOM      5  C   UNL     1      -7.987  33.122  22.301  1.00  0.00     0.025 C 
ATOM      6  C   UNL     1      -9.078  32.561  23.232  1.00  0.00     0.089 C 
ATOM      7  C   UNL     1      -8.972  33.173  24.602  1.00  0.00     0.158 C 
ATOM      8  O   UNL     1      -9.415  32.536  25.595  1.00  0.00    -0.295 OA
ENDROOT
BRANCH   5   9
ATOM      9  C   UNL     1      -8.119  32.575  20.887  1.00  0.00    -0.077 C 
ATOM     10  C   UNL     1      -9.109  31.730  20.553  1.00  0.00     0.008 C 
ATOM     11  C   UNL     1      -7.129  32.981  19.825  1.00  0.00     0.039 C 
ENDBRANCH   5   9
TORSDOF 1
ENDMDL
MODEL 4
REMARK VINA RESULT:    -5.820      2.174      4.373
REMARK INTER + INTRA:          -6.258
REMARK INTER:                  -6.163
REMARK INTRA:                  -0.095
REMARK UNBOUND:                -0.098
REMARK SMILES C=C(C)[C@H]1CC=C(C)C(=O)C1
REMARK SMILES IDX 8 1 7 2 6 3 5 4 4 5 11 6 9 7 10 8 2 9 1 10 3 11
REMARK H PARENT
REMARK Flexibility Score: inf
ROOT
ATOM      1  C   UNL     1      -8.457  35.881  25.363  1.00  0.00     0.048 C 
ATOM      2  C   UNL     1      -8.436  34.542  24.677  1.00  0.00    -0.012 C 
ATOM      3  C   UNL     1      -8.191  34.471  23.357  1.00  0.00    -0.019 C 
ATOM      4  C   UNL     1      -8.176  33.160  22.618  1.00  0.00     0.036 C 
ATOM      5  C   UNL     1      -7.669  32.019  23.520  1.00  0.00     0.025 C 
ATOM      6  C   UNL     1      -8.503  31.951  24.813  1.00  0.00     0.089 C 
ATOM      7  C   UNL     1      -8.561  33.299  25.478  1.00  0.00     0.158 C 
ATOM      8  O   UNL     1      -8.755  33.362  26.721  1.00  0.00    -0.295 OA
ENDROOT
BRANCH   5   9
ATOM      9  C   UNL     1      -7.658  30.685  22.788  1.00  0.00    -0.077 C 
ATOM     10  C   UNL     1      -8.555  30.408  21.825  1.00  0.00     0.008 C 
ATOM     11  C   UNL     1      -6.627  29.641  23.134  1.00  0.00     0.039 C 
ENDBRANCH   5   9
TORSDOF 1
ENDMDL
MODEL 5
REMARK VINA RESULT:    -5.657      2.119      4.339
REMARK INTER + INTRA:          -6.085
REMARK INTER:                  -5.990
REMARK INTRA:                  -0.095
REMARK UNBOUND:                -0.098
REMARK SMILES C=C(C)[C@H]1CC=C(C)C(=O)C1
REMARK SMILES IDX 8 1 7 2 6 3 5 4 4 5 11 6 9 7 10 8 2 9 1 10 3 11
REMARK H PARENT
REMARK Flexibility Score: inf
ROOT
ATOM      1  C   UNL     1      -8.784  35.763  25.022  1.00  0.00     0.048 C 
ATOM      2  C   UNL     1      -8.407  34.337  24.730  1.00  0.00    -0.012 C 
ATOM      3  C   UNL     1      -8.664  33.378  25.637  1.00  0.00    -0.019 C 
ATOM      4  C   UNL     1      -8.291  31.939  25.403  1.00  0.00     0.036 C 
ATOM      5  C   UNL     1      -8.382  31.577  23.908  1.00  0.00     0.025 C 
ATOM      6  C   UNL     1      -7.523  32.545  23.073  1.00  0.00     0.089 C 
ATOM      7  C   UNL     1      -7.869  33.973  23.396  1.00  0.00     0.158 C 
ATOM      8  O   UNL     1      -7.661  34.865  22.531  1.00  0.00    -0.295 OA
ENDROOT
BRANCH   5   9
ATOM      9  C   UNL     1      -7.998  30.125  23.656  1.00  0.00    -0.077 C 
ATOM     10  C   UNL     1      -6.782  29.794  23.189  1.00  0.00     0.008 C 
ATOM     11  C   UNL     1      -8.989  29.023  23.933  1.00  0.00     0.039 C 
ENDBRANCH   5   9
TORSDOF 1
ENDMDL
MODEL 6
REMARK VINA RESULT:    -5.611      1.701      2.469
REMARK INTER + INTRA:          -6.037
REMARK INTER:                  -5.941
REMARK INTRA:                  -0.097
REMARK UNBOUND:                -0.098
REMARK SMILES C=C(C)[C@H]1CC=C(C)C(=O)C1
REMARK SMILES IDX 8 1 7 2 6 3 5 4 4 5 11 6 9 7 10 8 2 9 1 10 3 11
REMARK H PARENT
REMARK Flexibility Score: inf
ROOT
ATOM      1  C   UNL     1      -7.114  33.135  19.771  1.00  0.00     0.048 C 
ATOM      2  C   UNL     1      -7.713  32.935  21.137  1.00  0.00    -0.012 C 
ATOM      3  C   UNL     1      -8.061  31.701  21.541  1.00  0.00    -0.019 C 
ATOM      4  C   UNL     1      -8.679  31.448  22.889  1.00  0.00     0.036 C 
ATOM      5  C   UNL     1      -8.147  32.440  23.941  1.00  0.00     0.025 C 
ATOM      6  C   UNL     1      -8.361  33.889  23.463  1.00  0.00     0.089 C 
ATOM      7  C   UNL     1      -7.801  34.078  22.079  1.00  0.00     0.158 C 
ATOM      8  O   UNL     1      -7.442  35.230  21.716  1.00  0.00    -0.295 OA
ENDROOT
BRANCH   5   9
ATOM      9  C   UNL     1      -8.772  32.201  25.308  1.00  0.00    -0.077 C 
ATOM     10  C   UNL     1      -9.599  31.164  25.527  1.00  0.00     0.008 C 
ATOM     11  C   UNL     1      -8.468  33.135  26.451  1.00  0.00     0.039 C 
ENDBRANCH   5   9
TORSDOF 1
ENDMDL
MODEL 7
REMARK VINA RESULT:    -5.498      2.221      3.811
REMARK INTER + INTRA:          -5.918
REMARK INTER:                  -5.819
REMARK INTRA:                  -0.098
REMARK UNBOUND:                -0.098
REMARK SMILES C=C(C)[C@H]1CC=C(C)C(=O)C1
REMARK SMILES IDX 8 1 7 2 6 3 5 4 4 5 11 6 9 7 10 8 2 9 1 10 3 11
REMARK H PARENT
REMARK Flexibility Score: inf
ROOT
ATOM      1  C   UNL     1      -7.497  35.429  21.625  1.00  0.00     0.048 C 
ATOM      2  C   UNL     1      -7.876  34.048  22.087  1.00  0.00    -0.012 C 
ATOM      3  C   UNL     1      -8.024  33.060  21.188  1.00  0.00    -0.019 C 
ATOM      4  C   UNL     1      -8.419  31.665  21.594  1.00  0.00     0.036 C 
ATOM      5  C   UNL     1      -7.861  31.313  22.987  1.00  0.00     0.025 C 
ATOM      6  C   UNL     1      -8.301  32.368  24.019  1.00  0.00     0.089 C 
ATOM      7  C   UNL     1      -7.961  33.752  23.539  1.00  0.00     0.158 C 
ATOM      8  O   UNL     1      -7.787  34.670  24.385  1.00  0.00    -0.295 OA
ENDROOT
BRANCH   5   9
ATOM      9  C   UNL     1      -8.262  29.908  23.414  1.00  0.00    -0.077 C 
ATOM     10  C   UNL     1      -8.310  29.557  24.711  1.00  0.00     0.008 C 
ATOM     11  C   UNL     1      -8.618  28.875  22.375  1.00  0.00     0.039 C 
ENDBRANCH   5   9
TORSDOF 1
ENDMDL
MODEL 8
REMARK VINA RESULT:    -5.274      1.781      3.018
REMARK INTER + INTRA:          -5.680
REMARK INTER:                  -5.583
REMARK INTRA:                  -0.098
REMARK UNBOUND:                -0.098
REMARK SMILES C=C(C)[C@H]1CC=C(C)C(=O)C1
REMARK SMILES IDX 8 1 7 2 6 3 5 4 4 5 11 6 9 7 10 8 2 9 1 10 3 11
REMARK H PARENT
REMARK Flexibility Score: inf
ROOT
ATOM      1  C   UNL     1      -8.523  28.875  22.347  1.00  0.00     0.048 C 
ATOM      2  C   UNL     1      -8.624  30.238  22.975  1.00  0.00    -0.012 C 
ATOM      3  C   UNL     1      -8.263  30.412  24.258  1.00  0.00    -0.019 C 
ATOM      4  C   UNL     1      -8.360  31.749  24.941  1.00  0.00     0.036 C 
ATOM      5  C   UNL     1      -8.111  32.900  23.946  1.00  0.00     0.025 C 
ATOM      6  C   UNL     1      -9.070  32.785  22.747  1.00  0.00     0.089 C 
ATOM      7  C   UNL     1      -9.002  31.408  22.144  1.00  0.00     0.158 C 
ATOM      8  O   UNL     1      -9.306  31.254  20.931  1.00  0.00    -0.295 OA
ENDROOT
BRANCH   5   9
ATOM      9  C   UNL     1      -8.217  34.260  24.622  1.00  0.00    -0.077 C 
ATOM     10  C   UNL     1      -8.284  35.395  23.904  1.00  0.00     0.008 C 
ATOM     11  C   UNL     1      -8.249  34.356  26.126  1.00  0.00     0.039 C 
ENDBRANCH   5   9
TORSDOF 1
ENDMDL
MODEL 9
REMARK VINA RESULT:    -5.255     16.386     17.397
REMARK INTER + INTRA:          -5.660
REMARK INTER:                  -5.562
REMARK INTRA:                  -0.098
REMARK UNBOUND:                -0.098
REMARK SMILES C=C(C)[C@H]1CC=C(C)C(=O)C1
REMARK SMILES IDX 8 1 7 2 6 3 5 4 4 5 11 6 9 7 10 8 2 9 1 10 3 11
REMARK H PARENT
REMARK Flexibility Score: inf
ROOT
ATOM      1  C   UNL     1       3.840  48.023  23.882  1.00  0.00     0.048 C 
ATOM      2  C   UNL     1       2.454  47.996  23.299  1.00  0.00    -0.012 C 
ATOM      3  C   UNL     1       1.405  48.378  24.049  1.00  0.00    -0.019 C 
ATOM      4  C   UNL     1      -0.004  48.353  23.521  1.00  0.00     0.036 C 
ATOM      5  C   UNL     1      -0.037  48.649  22.009  1.00  0.00     0.025 C 
ATOM      6  C   UNL     1       0.887  47.674  21.255  1.00  0.00     0.089 C 
ATOM      7  C   UNL     1       2.262  47.668  21.865  1.00  0.00     0.158 C 
ATOM      8  O   UNL     1       3.248  47.345  21.150  1.00  0.00    -0.295 OA
ENDROOT
BRANCH   5   9
ATOM      9  C   UNL     1      -1.456  48.618  21.460  1.00  0.00    -0.077 C 
ATOM     10  C   UNL     1      -1.694  48.503  20.142  1.00  0.00     0.008 C 
ATOM     11  C   UNL     1      -2.631  48.714  22.399  1.00  0.00     0.039 C 
ENDBRANCH   5   9
TORSDOF 1
ENDMDL
