MODEL 1
REMARK VINA RESULT:    -5.277      0.000      0.000
REMARK INTER + INTRA:          -6.394
REMARK INTER:                  -6.048
REMARK INTRA:                  -0.346
REMARK UNBOUND:                -0.346
REMARK SMILES COc1ccc(C(C)=O)c(O)c1
REMARK SMILES IDX 6 1 10 2 12 3 3 4 4 5 5 6 7 7 8 8 9 9 11 10 2 12 1 13
REMARK H PARENT 11 11
REMARK Flexibility Score: inf
ROOT
ATOM      1  C   UNL     1      10.984   1.391  35.572  1.00  0.00     0.059 A 
ATOM      2  C   UNL     1      10.655   0.383  34.636  1.00  0.00     0.130 A 
ATOM      3  C   UNL     1       9.346  -0.119  34.578  1.00  0.00     0.093 A 
ATOM      4  C   UNL     1       8.355   0.358  35.454  1.00  0.00     0.122 A 
ATOM      5  C   UNL     1       8.689   1.339  36.388  1.00  0.00     0.047 A 
ATOM      6  C   UNL     1       9.987   1.850  36.451  1.00  0.00     0.019 A 
ENDROOT
BRANCH   1   7
ATOM      7  C   UNL     1      12.349   1.977  35.670  1.00  0.00     0.163 C 
ATOM      8  C   UNL     1      12.592   3.456  35.674  1.00  0.00     0.093 C 
ATOM      9  O   UNL     1      13.347   1.209  35.753  1.00  0.00    -0.294 OA
ENDBRANCH   1   7
BRANCH   2  10
ATOM     10  O   UNL     1      11.623  -0.140  33.779  1.00  0.00    -0.507 OA
ATOM     11  H   UNL     1      12.289  -0.839  34.089  1.00  0.00     0.293 HD
ENDBRANCH   2  10
BRANCH   4  12
ATOM     12  O   UNL     1       7.035  -0.118  35.429  1.00  0.00    -0.497 OA
ATOM     13  C   UNL     1       6.015   0.293  36.333  1.00  0.00     0.278 C 
ENDBRANCH   4  12
TORSDOF 3
ENDMDL
MODEL 2
REMARK VINA RESULT:    -5.253      1.593      4.999
REMARK INTER + INTRA:          -6.367
REMARK INTER:                  -6.046
REMARK INTRA:                  -0.321
REMARK UNBOUND:                -0.346
REMARK SMILES COc1ccc(C(C)=O)c(O)c1
REMARK SMILES IDX 6 1 10 2 12 3 3 4 4 5 5 6 7 7 8 8 9 9 11 10 2 12 1 13
REMARK H PARENT 11 11
REMARK Flexibility Score: inf
ROOT
ATOM      1  C   UNL     1       9.096   0.496  35.509  1.00  0.00     0.059 A 
ATOM      2  C   UNL     1       9.828   1.421  36.290  1.00  0.00     0.130 A 
ATOM      3  C   UNL     1      11.141   1.759  35.928  1.00  0.00     0.093 A 
ATOM      4  C   UNL     1      11.748   1.176  34.802  1.00  0.00     0.122 A 
ATOM      5  C   UNL     1      11.028   0.250  34.045  1.00  0.00     0.047 A 
ATOM      6  C   UNL     1       9.719  -0.090  34.393  1.00  0.00     0.019 A 
ENDROOT
BRANCH   1   7
ATOM      7  C   UNL     1       7.695   0.111  35.830  1.00  0.00     0.163 C 
ATOM      8  C   UNL     1       7.169  -1.274  35.607  1.00  0.00     0.093 C 
ATOM      9  O   UNL     1       6.910   0.976  36.308  1.00  0.00    -0.294 OA
ENDBRANCH   1   7
BRANCH   2  10
ATOM     10  O   UNL     1       9.270   1.988  37.435  1.00  0.00    -0.507 OA
ATOM     11  H   UNL     1       8.330   2.369  37.439  1.00  0.00     0.293 HD
ENDBRANCH   2  10
BRANCH   4  12
ATOM     12  O   UNL     1      13.058   1.486  34.406  1.00  0.00    -0.497 OA
ATOM     13  C   UNL     1      13.425   2.653  33.679  1.00  0.00     0.278 C 
ENDBRANCH   4  12
TORSDOF 3
ENDMDL
MODEL 3
REMARK VINA RESULT:    -5.198      1.265      4.754
REMARK INTER + INTRA:          -6.304
REMARK INTER:                  -5.970
REMARK INTRA:                  -0.335
REMARK UNBOUND:                -0.346
REMARK SMILES COc1ccc(C(C)=O)c(O)c1
REMARK SMILES IDX 6 1 10 2 12 3 3 4 4 5 5 6 7 7 8 8 9 9 11 10 2 12 1 13
REMARK H PARENT 11 11
REMARK Flexibility Score: inf
ROOT
ATOM      1  C   UNL     1       7.926   0.067  35.682  1.00  0.00     0.059 A 
ATOM      2  C   UNL     1       8.684  -0.419  34.590  1.00  0.00     0.130 A 
ATOM      3  C   UNL     1       9.941   0.136  34.308  1.00  0.00     0.093 A 
ATOM      4  C   UNL     1      10.456   1.185  35.090  1.00  0.00     0.122 A 
ATOM      5  C   UNL     1       9.697   1.674  36.155  1.00  0.00     0.047 A 
ATOM      6  C   UNL     1       8.446   1.126  36.448  1.00  0.00     0.019 A 
ENDROOT
BRANCH   1   7
ATOM      7  C   UNL     1       6.596  -0.491  36.044  1.00  0.00     0.163 C 
ATOM      8  C   UNL     1       5.431   0.377  36.412  1.00  0.00     0.093 C 
ATOM      9  O   UNL     1       6.430  -1.742  36.046  1.00  0.00    -0.294 OA
ENDBRANCH   1   7
BRANCH   2  10
ATOM     10  O   UNL     1       8.186  -1.432  33.771  1.00  0.00    -0.507 OA
ATOM     11  H   UNL     1       7.306  -1.894  33.968  1.00  0.00     0.293 HD
ENDBRANCH   2  10
BRANCH   4  12
ATOM     12  O   UNL     1      11.707   1.767  34.841  1.00  0.00    -0.497 OA
ATOM     13  C   UNL     1      12.889   1.485  35.583  1.00  0.00     0.278 C 
ENDBRANCH   4  12
TORSDOF 3
ENDMDL
MODEL 4
REMARK VINA RESULT:    -5.162      1.239      4.584
REMARK INTER + INTRA:          -6.263
REMARK INTER:                  -5.936
REMARK INTRA:                  -0.328
REMARK UNBOUND:                -0.346
REMARK SMILES COc1ccc(C(C)=O)c(O)c1
REMARK SMILES IDX 6 1 10 2 12 3 3 4 4 5 5 6 7 7 8 8 9 9 11 10 2 12 1 13
REMARK H PARENT 11 11
REMARK Flexibility Score: inf
ROOT
ATOM      1  C   UNL     1       9.663   0.506  34.799  1.00  0.00     0.059 A 
ATOM      2  C   UNL     1      10.874  -0.001  34.273  1.00  0.00     0.130 A 
ATOM      3  C   UNL     1      12.093   0.613  34.602  1.00  0.00     0.093 A 
ATOM      4  C   UNL     1      12.124   1.742  35.439  1.00  0.00     0.122 A 
ATOM      5  C   UNL     1      10.925   2.251  35.940  1.00  0.00     0.047 A 
ATOM      6  C   UNL     1       9.707   1.644  35.623  1.00  0.00     0.019 A 
ENDROOT
BRANCH   1   7
ATOM      7  C   UNL     1       8.342  -0.111  34.503  1.00  0.00     0.163 C 
ATOM      8  C   UNL     1       7.462  -0.682  35.573  1.00  0.00     0.093 C 
ATOM      9  O   UNL     1       7.937  -0.163  33.309  1.00  0.00    -0.294 OA
ENDBRANCH   1   7
BRANCH   2  10
ATOM     10  O   UNL     1      10.875  -1.096  33.409  1.00  0.00    -0.507 OA
ATOM     11  H   UNL     1      10.261  -1.890  33.553  1.00  0.00     0.293 HD
ENDBRANCH   2  10
BRANCH   4  12
ATOM     12  O   UNL     1      13.320   2.386  35.792  1.00  0.00    -0.497 OA
ATOM     13  C   UNL     1      13.458   3.793  35.959  1.00  0.00     0.278 C 
ENDBRANCH   4  12
TORSDOF 3
ENDMDL
MODEL 5
REMARK VINA RESULT:    -5.036      1.571      2.374
REMARK INTER + INTRA:          -6.118
REMARK INTER:                  -5.819
REMARK INTRA:                  -0.299
REMARK UNBOUND:                -0.346
REMARK SMILES COc1ccc(C(C)=O)c(O)c1
REMARK SMILES IDX 6 1 10 2 12 3 3 4 4 5 5 6 7 7 8 8 9 9 11 10 2 12 1 13
REMARK H PARENT 11 11
REMARK Flexibility Score: inf
ROOT
ATOM      1  C   UNL     1      10.300   0.839  34.725  1.00  0.00     0.059 A 
ATOM      2  C   UNL     1       9.652   1.387  35.856  1.00  0.00     0.130 A 
ATOM      3  C   UNL     1       8.384   0.919  36.232  1.00  0.00     0.093 A 
ATOM      4  C   UNL     1       7.738  -0.083  35.487  1.00  0.00     0.122 A 
ATOM      5  C   UNL     1       8.373  -0.608  34.360  1.00  0.00     0.047 A 
ATOM      6  C   UNL     1       9.638  -0.153  33.980  1.00  0.00     0.019 A 
ENDROOT
BRANCH   1   7
ATOM      7  C   UNL     1      11.652   1.279  34.286  1.00  0.00     0.163 C 
ATOM      8  C   UNL     1      12.853   0.385  34.357  1.00  0.00     0.093 C 
ATOM      9  O   UNL     1      11.806   2.447  33.836  1.00  0.00    -0.294 OA
ENDBRANCH   1   7
BRANCH   2  10
ATOM     10  O   UNL     1      10.248   2.408  36.595  1.00  0.00    -0.507 OA
ATOM     11  H   UNL     1      10.332   2.358  37.604  1.00  0.00     0.293 HD
ENDBRANCH   2  10
BRANCH   4  12
ATOM     12  O   UNL     1       6.470  -0.578  35.828  1.00  0.00    -0.497 OA
ATOM     13  C   UNL     1       5.439   0.197  36.431  1.00  0.00     0.278 C 
ENDBRANCH   4  12
TORSDOF 3
ENDMDL
MODEL 6
REMARK VINA RESULT:    -4.916      1.884      2.411
REMARK INTER + INTRA:          -5.980
REMARK INTER:                  -5.647
REMARK INTRA:                  -0.334
REMARK UNBOUND:                -0.346
REMARK SMILES COc1ccc(C(C)=O)c(O)c1
REMARK SMILES IDX 6 1 10 2 12 3 3 4 4 5 5 6 7 7 8 8 9 9 11 10 2 12 1 13
REMARK H PARENT 11 11
REMARK Flexibility Score: inf
ROOT
ATOM      1  C   UNL     1      11.664   2.477  34.152  1.00  0.00     0.059 A 
ATOM      2  C   UNL     1      11.733   1.854  35.420  1.00  0.00     0.130 A 
ATOM      3  C   UNL     1      10.564   1.373  36.029  1.00  0.00     0.093 A 
ATOM      4  C   UNL     1       9.315   1.515  35.398  1.00  0.00     0.122 A 
ATOM      5  C   UNL     1       9.250   2.147  34.156  1.00  0.00     0.047 A 
ATOM      6  C   UNL     1      10.408   2.626  33.539  1.00  0.00     0.019 A 
ENDROOT
BRANCH   1   7
ATOM      7  C   UNL     1      12.870   2.992  33.447  1.00  0.00     0.163 C 
ATOM      8  C   UNL     1      12.887   4.314  32.742  1.00  0.00     0.093 C 
ATOM      9  O   UNL     1      13.922   2.296  33.435  1.00  0.00    -0.294 OA
ENDBRANCH   1   7
BRANCH   2  10
ATOM     10  O   UNL     1      12.950   1.731  36.090  1.00  0.00    -0.507 OA
ATOM     11  H   UNL     1      13.391   0.830  36.235  1.00  0.00     0.293 HD
ENDBRANCH   2  10
BRANCH   4  12
ATOM     12  O   UNL     1       8.123   1.049  35.973  1.00  0.00    -0.497 OA
ATOM     13  C   UNL     1       7.472  -0.163  35.604  1.00  0.00     0.278 C 
ENDBRANCH   4  12
TORSDOF 3
ENDMDL
MODEL 7
REMARK VINA RESULT:    -4.890      3.460      5.496
REMARK INTER + INTRA:          -5.951
REMARK INTER:                  -5.616
REMARK INTRA:                  -0.335
REMARK UNBOUND:                -0.346
REMARK SMILES COc1ccc(C(C)=O)c(O)c1
REMARK SMILES IDX 6 1 10 2 12 3 3 4 4 5 5 6 7 7 8 8 9 9 11 10 2 12 1 13
REMARK H PARENT 11 11
REMARK Flexibility Score: inf
ROOT
ATOM      1  C   UNL     1       6.572  -0.834  35.954  1.00  0.00     0.059 A 
ATOM      2  C   UNL     1       5.381  -0.254  36.448  1.00  0.00     0.130 A 
ATOM      3  C   UNL     1       4.380  -1.069  36.999  1.00  0.00     0.093 A 
ATOM      4  C   UNL     1       4.540  -2.465  37.052  1.00  0.00     0.122 A 
ATOM      5  C   UNL     1       5.709  -3.035  36.546  1.00  0.00     0.047 A 
ATOM      6  C   UNL     1       6.713  -2.233  36.000  1.00  0.00     0.019 A 
ENDROOT
BRANCH   1   7
ATOM      7  C   UNL     1       7.678  -0.023  35.376  1.00  0.00     0.163 C 
ATOM      8  C   UNL     1       8.349  -0.380  34.084  1.00  0.00     0.093 C 
ATOM      9  O   UNL     1       8.074   1.007  35.988  1.00  0.00    -0.294 OA
ENDBRANCH   1   7
BRANCH   2  10
ATOM     10  O   UNL     1       5.174   1.123  36.376  1.00  0.00    -0.507 OA
ATOM     11  H   UNL     1       5.828   1.738  35.904  1.00  0.00     0.293 HD
ENDBRANCH   2  10
BRANCH   4  12
ATOM     12  O   UNL     1       3.564  -3.315  37.593  1.00  0.00    -0.497 OA
ATOM     13  C   UNL     1       3.250  -3.402  38.979  1.00  0.00     0.278 C 
ENDBRANCH   4  12
TORSDOF 3
ENDMDL
MODEL 8
REMARK VINA RESULT:    -4.867      2.241      4.944
REMARK INTER + INTRA:          -5.925
REMARK INTER:                  -5.780
REMARK INTRA:                  -0.145
REMARK UNBOUND:                -0.346
REMARK SMILES COc1ccc(C(C)=O)c(O)c1
REMARK SMILES IDX 6 1 10 2 12 3 3 4 4 5 5 6 7 7 8 8 9 9 11 10 2 12 1 13
REMARK H PARENT 11 11
REMARK Flexibility Score: inf
ROOT
ATOM      1  C   UNL     1      10.533   1.574  35.518  1.00  0.00     0.059 A 
ATOM      2  C   UNL     1      10.420   2.244  34.278  1.00  0.00     0.130 A 
ATOM      3  C   UNL     1      11.573   2.548  33.538  1.00  0.00     0.093 A 
ATOM      4  C   UNL     1      12.848   2.207  34.022  1.00  0.00     0.122 A 
ATOM      5  C   UNL     1      12.956   1.562  35.256  1.00  0.00     0.047 A 
ATOM      6  C   UNL     1      11.815   1.250  35.998  1.00  0.00     0.019 A 
ENDROOT
BRANCH   1   7
ATOM      7  C   UNL     1       9.348   1.207  36.341  1.00  0.00     0.163 C 
ATOM      8  C   UNL     1       8.453   0.057  35.995  1.00  0.00     0.093 C 
ATOM      9  O   UNL     1       9.077   1.885  37.370  1.00  0.00    -0.294 OA
ENDBRANCH   1   7
BRANCH   2  10
ATOM     10  O   UNL     1       9.174   2.631  33.786  1.00  0.00    -0.507 OA
ATOM     11  H   UNL     1       8.321   2.156  34.060  1.00  0.00     0.293 HD
ENDBRANCH   2  10
BRANCH   4  12
ATOM     12  O   UNL     1      14.025   2.493  33.315  1.00  0.00    -0.497 OA
ATOM     13  C   UNL     1      14.219   3.650  32.509  1.00  0.00     0.278 C 
ENDBRANCH   4  12
TORSDOF 3
ENDMDL
MODEL 9
REMARK VINA RESULT:    -4.837      5.274      7.097
REMARK INTER + INTRA:          -5.891
REMARK INTER:                  -5.591
REMARK INTRA:                  -0.300
REMARK UNBOUND:                -0.346
REMARK SMILES COc1ccc(C(C)=O)c(O)c1
REMARK SMILES IDX 6 1 10 2 12 3 3 4 4 5 5 6 7 7 8 8 9 9 11 10 2 12 1 13
REMARK H PARENT 11 11
REMARK Flexibility Score: inf
ROOT
ATOM      1  C   UNL     1       4.998  -1.708  36.783  1.00  0.00     0.059 A 
ATOM      2  C   UNL     1       4.510  -0.401  37.021  1.00  0.00     0.130 A 
ATOM      3  C   UNL     1       3.402  -0.210  37.860  1.00  0.00     0.093 A 
ATOM      4  C   UNL     1       2.756  -1.306  38.459  1.00  0.00     0.122 A 
ATOM      5  C   UNL     1       3.230  -2.594  38.206  1.00  0.00     0.047 A 
ATOM      6  C   UNL     1       4.335  -2.796  37.376  1.00  0.00     0.019 A 
ENDROOT
BRANCH   1   7
ATOM      7  C   UNL     1       6.180  -1.975  35.918  1.00  0.00     0.163 C 
ATOM      8  C   UNL     1       6.402  -3.295  35.244  1.00  0.00     0.093 C 
ATOM      9  O   UNL     1       7.034  -1.064  35.740  1.00  0.00    -0.294 OA
ENDBRANCH   1   7
BRANCH   2  10
ATOM     10  O   UNL     1       5.103   0.704  36.412  1.00  0.00    -0.507 OA
ATOM     11  H   UNL     1       4.552   1.477  36.056  1.00  0.00     0.293 HD
ENDBRANCH   2  10
BRANCH   4  12
ATOM     12  O   UNL     1       1.646  -1.157  39.303  1.00  0.00    -0.497 OA
ATOM     13  C   UNL     1       1.424  -1.922  40.483  1.00  0.00     0.278 C 
ENDBRANCH   4  12
TORSDOF 3
ENDMDL
