MODEL 1
REMARK VINA RESULT:    -5.378      0.000      0.000
REMARK INTER + INTRA:          -6.581
REMARK INTER:                  -6.321
REMARK INTRA:                  -0.260
REMARK UNBOUND:                -0.260
REMARK SMILES CCCC[C@@H]1OC(=O)C2=C1CCC=C2
REMARK SMILES IDX 3 1 2 2 1 3 4 4 5 5 10 6 6 7 9 8 11 9 7 10 14 11 12 12 8 13
REMARK SMILES IDX 13 14
REMARK H PARENT
REMARK Flexibility Score: inf
ROOT
ATOM      1  C   UNL     1      21.051  46.371  44.735  1.00  0.00     0.004 C 
ENDROOT
BRANCH   1   2
ATOM      2  C   UNL     1      21.489  45.296  43.723  1.00  0.00    -0.003 C 
ATOM      3  C   UNL     1      22.259  44.149  44.376  1.00  0.00     0.004 C 
ENDBRANCH   1   2
BRANCH   1   4
ATOM      4  C   UNL     1      19.849  47.210  44.259  1.00  0.00     0.050 C 
BRANCH   4   5
ATOM      5  C   UNL     1      20.083  48.728  44.394  1.00  0.00     0.204 C 
ATOM      6  C   UNL     1      20.425  49.141  45.812  1.00  0.00    -0.015 C 
ATOM      7  O   UNL     1      21.249  49.111  43.660  1.00  0.00    -0.454 OA
ATOM      8  C   UNL     1      21.610  49.731  45.849  1.00  0.00     0.062 C 
ATOM      9  C   UNL     1      19.492  49.195  46.994  1.00  0.00     0.040 C 
ATOM     10  C   UNL     1      22.150  49.717  44.517  1.00  0.00     0.338 C 
ATOM     11  C   UNL     1      22.139  50.383  47.054  1.00  0.00     0.011 C 
ATOM     12  C   UNL     1      20.278  49.331  48.319  1.00  0.00     0.032 C 
ATOM     13  O   UNL     1      23.261  50.189  44.161  1.00  0.00    -0.246 OA
ATOM     14  C   UNL     1      21.472  50.256  48.206  1.00  0.00    -0.026 C 
ENDBRANCH   4   5
ENDBRANCH   1   4
TORSDOF 3
ENDMDL
MODEL 2
REMARK VINA RESULT:    -5.202      2.309      3.532
REMARK INTER + INTRA:          -6.374
REMARK INTER:                  -6.166
REMARK INTRA:                  -0.208
REMARK UNBOUND:                -0.260
REMARK SMILES CCCC[C@@H]1OC(=O)C2=C1CCC=C2
REMARK SMILES IDX 3 1 2 2 1 3 4 4 5 5 10 6 6 7 9 8 11 9 7 10 14 11 12 12 8 13
REMARK SMILES IDX 13 14
REMARK H PARENT
REMARK Flexibility Score: inf
ROOT
ATOM      1  C   UNL     1      21.366  46.701  44.341  1.00  0.00     0.004 C 
ENDROOT
BRANCH   1   2
ATOM      2  C   UNL     1      21.190  45.293  43.743  1.00  0.00    -0.003 C 
ATOM      3  C   UNL     1      22.135  44.265  44.365  1.00  0.00     0.004 C 
ENDBRANCH   1   2
BRANCH   1   4
ATOM      4  C   UNL     1      20.833  47.826  43.432  1.00  0.00     0.050 C 
BRANCH   4   5
ATOM      5  C   UNL     1      20.581  49.145  44.191  1.00  0.00     0.204 C 
ATOM      6  C   UNL     1      19.125  49.565  44.161  1.00  0.00    -0.015 C 
ATOM      7  O   UNL     1      20.831  48.961  45.587  1.00  0.00    -0.454 OA
ATOM      8  C   UNL     1      18.644  49.658  45.391  1.00  0.00     0.062 C 
ATOM      9  C   UNL     1      18.362  50.115  42.984  1.00  0.00     0.040 C 
ATOM     10  C   UNL     1      19.690  49.277  46.302  1.00  0.00     0.338 C 
ATOM     11  C   UNL     1      17.312  50.200  45.688  1.00  0.00     0.011 C 
ATOM     12  C   UNL     1      16.838  50.100  43.251  1.00  0.00     0.032 C 
ATOM     13  O   UNL     1      19.605  49.243  47.556  1.00  0.00    -0.246 OA
ATOM     14  C   UNL     1      16.485  50.479  44.674  1.00  0.00    -0.026 C 
ENDBRANCH   4   5
ENDBRANCH   1   4
TORSDOF 3
ENDMDL
MODEL 3
REMARK VINA RESULT:    -5.164      1.633      2.357
REMARK INTER + INTRA:          -6.330
REMARK INTER:                  -5.952
REMARK INTRA:                  -0.379
REMARK UNBOUND:                -0.260
REMARK SMILES CCCC[C@@H]1OC(=O)C2=C1CCC=C2
REMARK SMILES IDX 3 1 2 2 1 3 4 4 5 5 10 6 6 7 9 8 11 9 7 10 14 11 12 12 8 13
REMARK SMILES IDX 13 14
REMARK H PARENT
REMARK Flexibility Score: inf
ROOT
ATOM      1  C   UNL     1      21.606  46.630  44.361  1.00  0.00     0.004 C 
ENDROOT
BRANCH   1   2
ATOM      2  C   UNL     1      21.240  45.258  43.765  1.00  0.00    -0.003 C 
ATOM      3  C   UNL     1      22.142  44.134  44.273  1.00  0.00     0.004 C 
ENDBRANCH   1   2
BRANCH   1   4
ATOM      4  C   UNL     1      21.149  47.819  43.494  1.00  0.00     0.050 C 
BRANCH   4   5
ATOM      5  C   UNL     1      20.371  48.884  44.293  1.00  0.00     0.204 C 
ATOM      6  C   UNL     1      19.581  48.289  45.442  1.00  0.00    -0.015 C 
ATOM      7  O   UNL     1      21.285  49.762  44.956  1.00  0.00    -0.454 OA
ATOM      8  C   UNL     1      19.970  48.814  46.593  1.00  0.00     0.062 C 
ATOM      9  C   UNL     1      18.325  47.462  45.349  1.00  0.00     0.040 C 
ATOM     10  C   UNL     1      21.041  49.734  46.317  1.00  0.00     0.338 C 
ATOM     11  C   UNL     1      19.280  48.555  47.863  1.00  0.00     0.011 C 
ATOM     12  C   UNL     1      18.018  46.762  46.694  1.00  0.00     0.032 C 
ATOM     13  O   UNL     1      21.664  50.424  47.164  1.00  0.00    -0.246 OA
ATOM     14  C   UNL     1      18.307  47.638  47.895  1.00  0.00    -0.026 C 
ENDBRANCH   4   5
ENDBRANCH   1   4
TORSDOF 3
ENDMDL
MODEL 4
REMARK VINA RESULT:    -5.163      2.096      4.575
REMARK INTER + INTRA:          -6.329
REMARK INTER:                  -5.636
REMARK INTRA:                  -0.693
REMARK UNBOUND:                -0.260
REMARK SMILES CCCC[C@@H]1OC(=O)C2=C1CCC=C2
REMARK SMILES IDX 3 1 2 2 1 3 4 4 5 5 10 6 6 7 9 8 11 9 7 10 14 11 12 12 8 13
REMARK SMILES IDX 13 14
REMARK H PARENT
REMARK Flexibility Score: inf
ROOT
ATOM      1  C   UNL     1      18.973  49.518  46.612  1.00  0.00     0.004 C 
ENDROOT
BRANCH   1   2
ATOM      2  C   UNL     1      19.758  48.680  47.638  1.00  0.00    -0.003 C 
ATOM      3  C   UNL     1      19.445  47.187  47.544  1.00  0.00     0.004 C 
ENDBRANCH   1   2
BRANCH   1   4
ATOM      4  C   UNL     1      19.861  50.472  45.789  1.00  0.00     0.050 C 
BRANCH   4   5
ATOM      5  C   UNL     1      19.973  50.060  44.306  1.00  0.00     0.204 C 
ATOM      6  C   UNL     1      20.254  48.581  44.132  1.00  0.00    -0.015 C 
ATOM      7  O   UNL     1      18.710  50.224  43.656  1.00  0.00    -0.454 OA
ATOM      8  C   UNL     1      19.294  48.008  43.424  1.00  0.00     0.062 C 
ATOM      9  C   UNL     1      21.548  47.863  44.414  1.00  0.00     0.040 C 
ATOM     10  C   UNL     1      18.311  49.013  43.121  1.00  0.00     0.338 C 
ATOM     11  C   UNL     1      19.370  46.618  42.954  1.00  0.00     0.011 C 
ATOM     12  C   UNL     1      21.340  46.329  44.440  1.00  0.00     0.032 C 
ATOM     13  O   UNL     1      17.253  48.841  42.462  1.00  0.00    -0.246 OA
ATOM     14  C   UNL     1      20.378  45.846  43.375  1.00  0.00    -0.026 C 
ENDBRANCH   4   5
ENDBRANCH   1   4
TORSDOF 3
ENDMDL
MODEL 5
REMARK VINA RESULT:    -5.123      1.847      4.348
REMARK INTER + INTRA:          -6.282
REMARK INTER:                  -5.604
REMARK INTRA:                  -0.678
REMARK UNBOUND:                -0.260
REMARK SMILES CCCC[C@@H]1OC(=O)C2=C1CCC=C2
REMARK SMILES IDX 3 1 2 2 1 3 4 4 5 5 10 6 6 7 9 8 11 9 7 10 14 11 12 12 8 13
REMARK SMILES IDX 13 14
REMARK H PARENT
REMARK Flexibility Score: inf
ROOT
ATOM      1  C   UNL     1      18.840  50.876  45.336  1.00  0.00     0.004 C 
ENDROOT
BRANCH   1   2
ATOM      2  C   UNL     1      17.430  50.593  44.784  1.00  0.00    -0.003 C 
ATOM      3  C   UNL     1      17.450  50.108  43.335  1.00  0.00     0.004 C 
ENDBRANCH   1   2
BRANCH   1   4
ATOM      4  C   UNL     1      19.156  50.110  46.635  1.00  0.00     0.050 C 
BRANCH   4   5
ATOM      5  C   UNL     1      20.361  49.156  46.494  1.00  0.00     0.204 C 
ATOM      6  C   UNL     1      20.288  48.308  45.240  1.00  0.00    -0.015 C 
ATOM      7  O   UNL     1      21.561  49.910  46.301  1.00  0.00    -0.454 OA
ATOM      8  C   UNL     1      21.346  48.523  44.474  1.00  0.00     0.062 C 
ATOM      9  C   UNL     1      19.360  47.151  44.977  1.00  0.00     0.040 C 
ATOM     10  C   UNL     1      22.154  49.527  45.111  1.00  0.00     0.338 C 
ATOM     11  C   UNL     1      21.637  47.729  43.273  1.00  0.00     0.011 C 
ATOM     12  C   UNL     1      19.355  46.769  43.478  1.00  0.00     0.032 C 
ATOM     13  O   UNL     1      23.241  49.990  44.679  1.00  0.00    -0.246 OA
ATOM     14  C   UNL     1      20.728  46.847  42.844  1.00  0.00    -0.026 C 
ENDBRANCH   4   5
ENDBRANCH   1   4
TORSDOF 3
ENDMDL
MODEL 6
REMARK VINA RESULT:    -5.109      2.680      4.959
REMARK INTER + INTRA:          -6.265
REMARK INTER:                  -5.952
REMARK INTRA:                  -0.314
REMARK UNBOUND:                -0.260
REMARK SMILES CCCC[C@@H]1OC(=O)C2=C1CCC=C2
REMARK SMILES IDX 3 1 2 2 1 3 4 4 5 5 10 6 6 7 9 8 11 9 7 10 14 11 12 12 8 13
REMARK SMILES IDX 13 14
REMARK H PARENT
REMARK Flexibility Score: inf
ROOT
ATOM      1  C   UNL     1      16.742  50.141  42.714  1.00  0.00     0.004 C 
ENDROOT
BRANCH   1   2
ATOM      2  C   UNL     1      16.491  50.037  41.198  1.00  0.00    -0.003 C 
ATOM      3  C   UNL     1      17.270  51.081  40.398  1.00  0.00     0.004 C 
ENDBRANCH   1   2
BRANCH   1   4
ATOM      4  C   UNL     1      18.219  50.384  43.078  1.00  0.00     0.050 C 
BRANCH   4   5
ATOM      5  C   UNL     1      18.696  49.525  44.267  1.00  0.00     0.204 C 
ATOM      6  C   UNL     1      19.360  48.236  43.825  1.00  0.00    -0.015 C 
ATOM      7  O   UNL     1      19.743  50.200  44.968  1.00  0.00    -0.454 OA
ATOM      8  C   UNL     1      20.604  48.179  44.275  1.00  0.00     0.062 C 
ATOM      9  C   UNL     1      18.689  47.023  43.237  1.00  0.00     0.040 C 
ATOM     10  C   UNL     1      20.871  49.399  44.987  1.00  0.00     0.338 C 
ATOM     11  C   UNL     1      21.445  46.981  44.146  1.00  0.00     0.011 C 
ATOM     12  C   UNL     1      19.726  46.062  42.606  1.00  0.00     0.032 C 
ATOM     13  O   UNL     1      21.951  49.705  45.556  1.00  0.00    -0.246 OA
ATOM     14  C   UNL     1      20.998  45.951  43.419  1.00  0.00    -0.026 C 
ENDBRANCH   4   5
ENDBRANCH   1   4
TORSDOF 3
ENDMDL
MODEL 7
REMARK VINA RESULT:    -5.014      2.544      4.307
REMARK INTER + INTRA:          -6.154
REMARK INTER:                  -5.573
REMARK INTRA:                  -0.580
REMARK UNBOUND:                -0.260
REMARK SMILES CCCC[C@@H]1OC(=O)C2=C1CCC=C2
REMARK SMILES IDX 3 1 2 2 1 3 4 4 5 5 10 6 6 7 9 8 11 9 7 10 14 11 12 12 8 13
REMARK SMILES IDX 13 14
REMARK H PARENT
REMARK Flexibility Score: inf
ROOT
ATOM      1  C   UNL     1      21.745  48.581  43.531  1.00  0.00     0.004 C 
ENDROOT
BRANCH   1   2
ATOM      2  C   UNL     1      22.573  49.807  43.959  1.00  0.00    -0.003 C 
ATOM      3  C   UNL     1      22.925  49.791  45.446  1.00  0.00     0.004 C 
ENDBRANCH   1   2
BRANCH   1   4
ATOM      4  C   UNL     1      21.398  47.635  44.697  1.00  0.00     0.050 C 
BRANCH   4   5
ATOM      5  C   UNL     1      19.880  47.423  44.869  1.00  0.00     0.204 C 
ATOM      6  C   UNL     1      19.089  48.703  44.690  1.00  0.00    -0.015 C 
ATOM      7  O   UNL     1      19.380  46.590  43.819  1.00  0.00    -0.454 OA
ATOM      8  C   UNL     1      18.219  48.576  43.700  1.00  0.00     0.062 C 
ATOM      9  C   UNL     1      19.018  49.869  45.642  1.00  0.00     0.040 C 
ATOM     10  C   UNL     1      18.387  47.265  43.133  1.00  0.00     0.338 C 
ATOM     11  C   UNL     1      17.201  49.590  43.396  1.00  0.00     0.011 C 
ATOM     12  C   UNL     1      18.393  51.109  44.960  1.00  0.00     0.032 C 
ATOM     13  O   UNL     1      17.734  46.782  42.173  1.00  0.00    -0.246 OA
ATOM     14  C   UNL     1      17.238  50.760  44.044  1.00  0.00    -0.026 C 
ENDBRANCH   4   5
ENDBRANCH   1   4
TORSDOF 3
ENDMDL
MODEL 8
REMARK VINA RESULT:    -4.997      2.792      5.042
REMARK INTER + INTRA:          -6.134
REMARK INTER:                  -5.570
REMARK INTRA:                  -0.564
REMARK UNBOUND:                -0.260
REMARK SMILES CCCC[C@@H]1OC(=O)C2=C1CCC=C2
REMARK SMILES IDX 3 1 2 2 1 3 4 4 5 5 10 6 6 7 9 8 11 9 7 10 14 11 12 12 8 13
REMARK SMILES IDX 13 14
REMARK H PARENT
REMARK Flexibility Score: inf
ROOT
ATOM      1  C   UNL     1      16.477  50.717  44.918  1.00  0.00     0.004 C 
ENDROOT
BRANCH   1   2
ATOM      2  C   UNL     1      16.461  49.748  46.115  1.00  0.00    -0.003 C 
ATOM      3  C   UNL     1      17.802  49.689  46.845  1.00  0.00     0.004 C 
ENDBRANCH   1   2
BRANCH   1   4
ATOM      4  C   UNL     1      17.888  51.212  44.547  1.00  0.00     0.050 C 
BRANCH   4   5
ATOM      5  C   UNL     1      18.493  50.461  43.343  1.00  0.00     0.204 C 
ATOM      6  C   UNL     1      19.562  49.468  43.753  1.00  0.00    -0.015 C 
ATOM      7  O   UNL     1      17.500  49.629  42.737  1.00  0.00    -0.454 OA
ATOM      8  C   UNL     1      19.230  48.245  43.371  1.00  0.00     0.062 C 
ATOM      9  C   UNL     1      20.954  49.780  44.237  1.00  0.00     0.040 C 
ATOM     10  C   UNL     1      17.939  48.317  42.740  1.00  0.00     0.338 C 
ATOM     11  C   UNL     1      20.140  47.099  43.483  1.00  0.00     0.011 C 
ATOM     12  C   UNL     1      21.615  48.535  44.874  1.00  0.00     0.032 C 
ATOM     13  O   UNL     1      17.298  47.352  42.249  1.00  0.00    -0.246 OA
ATOM     14  C   UNL     1      21.301  47.254  44.129  1.00  0.00    -0.026 C 
ENDBRANCH   4   5
ENDBRANCH   1   4
TORSDOF 3
ENDMDL
MODEL 9
REMARK VINA RESULT:    -4.965      2.405      3.940
REMARK INTER + INTRA:          -6.096
REMARK INTER:                  -5.396
REMARK INTRA:                  -0.701
REMARK UNBOUND:                -0.260
REMARK SMILES CCCC[C@@H]1OC(=O)C2=C1CCC=C2
REMARK SMILES IDX 3 1 2 2 1 3 4 4 5 5 10 6 6 7 9 8 11 9 7 10 14 11 12 12 8 13
REMARK SMILES IDX 13 14
REMARK H PARENT
REMARK Flexibility Score: inf
ROOT
ATOM      1  C   UNL     1      17.398  47.780  45.489  1.00  0.00     0.004 C 
ENDROOT
BRANCH   1   2
ATOM      2  C   UNL     1      17.185  47.351  44.025  1.00  0.00    -0.003 C 
ATOM      3  C   UNL     1      17.736  48.367  43.026  1.00  0.00     0.004 C 
ENDBRANCH   1   2
BRANCH   1   4
ATOM      4  C   UNL     1      18.130  46.724  46.339  1.00  0.00     0.050 C 
BRANCH   4   5
ATOM      5  C   UNL     1      19.537  47.175  46.781  1.00  0.00     0.204 C 
ATOM      6  C   UNL     1      20.361  47.721  45.632  1.00  0.00    -0.015 C 
ATOM      7  O   UNL     1      19.436  48.297  47.662  1.00  0.00    -0.454 OA
ATOM      8  C   UNL     1      20.721  48.972  45.873  1.00  0.00     0.062 C 
ATOM      9  C   UNL     1      20.983  46.936  44.506  1.00  0.00     0.040 C 
ATOM     10  C   UNL     1      20.148  49.359  47.133  1.00  0.00     0.338 C 
ATOM     11  C   UNL     1      21.659  49.712  45.018  1.00  0.00     0.011 C 
ATOM     12  C   UNL     1      21.446  47.871  43.363  1.00  0.00     0.032 C 
ATOM     13  O   UNL     1      20.272  50.479  47.693  1.00  0.00    -0.246 OA
ATOM     14  C   UNL     1      22.060  49.160  43.868  1.00  0.00    -0.026 C 
ENDBRANCH   4   5
ENDBRANCH   1   4
TORSDOF 3
ENDMDL
