MODEL 1
REMARK VINA RESULT:    -4.344      0.000      0.000
REMARK INTER + INTRA:          -8.590
REMARK INTER:                  -7.645
REMARK INTRA:                  -0.945
REMARK UNBOUND:                -0.945
REMARK SMILES CCCCCCCCCCCCCCC(=O)[O-]
REMARK SMILES IDX 9 1 10 2 11 3 12 4 13 5 14 6 15 7 16 8 17 9 8 10 7 11 6 12
REMARK SMILES IDX 5 13 4 14 3 15 2 16 1 17
REMARK H PARENT
REMARK Flexibility Score: inf
ROOT
ATOM      1  C   UNL     1      32.476  -0.559  43.291  1.00  0.00     0.000 C 
ENDROOT
BRANCH   1   2
ATOM      2  C   UNL     1      33.288   0.473  42.496  1.00  0.00     0.000 C 
BRANCH   2   3
ATOM      3  C   UNL     1      34.592  -0.109  41.926  1.00  0.00     0.000 C 
BRANCH   3   4
ATOM      4  C   UNL     1      35.667  -0.320  43.004  1.00  0.00     0.000 C 
BRANCH   4   5
ATOM      5  C   UNL     1      36.498  -1.578  42.709  1.00  0.00     0.006 C 
BRANCH   5   6
ATOM      6  C   UNL     1      35.618  -2.803  42.428  1.00  0.00     0.053 C 
BRANCH   6   7
ATOM      7  C   UNL     1      35.711  -3.819  43.526  1.00  0.00     0.041 C 
ATOM      8  O   UNL     1      34.677  -4.414  43.928  1.00  0.00    -0.550 OA
ATOM      9  O   UNL     1      36.946  -4.132  44.081  1.00  0.00    -0.550 OA
ENDBRANCH   6   7
ENDBRANCH   5   6
ENDBRANCH   4   5
ENDBRANCH   3   4
ENDBRANCH   2   3
ENDBRANCH   1   2
BRANCH   1  10
ATOM     10  C   UNL     1      31.192  -0.941  42.545  1.00  0.00     0.000 C 
BRANCH  10  11
ATOM     11  C   UNL     1      30.109  -1.418  43.519  1.00  0.00    -0.000 C 
BRANCH  11  12
ATOM     12  C   UNL     1      30.735  -2.084  44.754  1.00  0.00    -0.000 C 
BRANCH  12  13
ATOM     13  C   UNL     1      29.973  -1.760  46.049  1.00  0.00    -0.000 C 
BRANCH  13  14
ATOM     14  C   UNL     1      28.612  -1.091  45.783  1.00  0.00    -0.000 C 
BRANCH  14  15
ATOM     15  C   UNL     1      27.428  -1.978  46.196  1.00  0.00    -0.000 C 
BRANCH  15  16
ATOM     16  C   UNL     1      27.874  -3.354  46.714  1.00  0.00    -0.003 C 
ATOM     17  C   UNL     1      26.869  -3.916  47.716  1.00  0.00     0.004 C 
ENDBRANCH  15  16
ENDBRANCH  14  15
ENDBRANCH  13  14
ENDBRANCH  12  13
ENDBRANCH  11  12
ENDBRANCH  10  11
ENDBRANCH   1  10
TORSDOF 13
ENDMDL
MODEL 2
REMARK VINA RESULT:    -3.963      3.469      7.421
REMARK INTER + INTRA:          -7.920
REMARK INTER:                  -6.990
REMARK INTRA:                  -0.930
REMARK UNBOUND:                -0.945
REMARK SMILES CCCCCCCCCCCCCCC(=O)[O-]
REMARK SMILES IDX 9 1 10 2 11 3 12 4 13 5 14 6 15 7 16 8 17 9 8 10 7 11 6 12
REMARK SMILES IDX 5 13 4 14 3 15 2 16 1 17
REMARK H PARENT
REMARK Flexibility Score: inf
ROOT
ATOM      1  C   UNL     1      31.881  -0.299  42.221  1.00  0.00     0.000 C 
ENDROOT
BRANCH   1   2
ATOM      2  C   UNL     1      30.936  -1.158  43.075  1.00  0.00     0.000 C 
BRANCH   2   3
ATOM      3  C   UNL     1      31.568  -1.587  44.410  1.00  0.00     0.000 C 
BRANCH   3   4
ATOM      4  C   UNL     1      30.755  -2.677  45.126  1.00  0.00     0.000 C 
BRANCH   4   5
ATOM      5  C   UNL     1      29.259  -2.329  45.132  1.00  0.00     0.006 C 
BRANCH   5   6
ATOM      6  C   UNL     1      28.489  -3.096  46.216  1.00  0.00     0.053 C 
BRANCH   6   7
ATOM      7  C   UNL     1      27.216  -2.401  46.591  1.00  0.00     0.041 C 
ATOM      8  O   UNL     1      26.310  -3.025  47.204  1.00  0.00    -0.550 OA
ATOM      9  O   UNL     1      27.044  -1.055  46.293  1.00  0.00    -0.550 OA
ENDBRANCH   6   7
ENDBRANCH   5   6
ENDBRANCH   4   5
ENDBRANCH   3   4
ENDBRANCH   2   3
ENDBRANCH   1   2
BRANCH   1  10
ATOM     10  C   UNL     1      33.260  -0.176  42.881  1.00  0.00     0.000 C 
BRANCH  10  11
ATOM     11  C   UNL     1      34.348  -0.811  42.007  1.00  0.00    -0.000 C 
BRANCH  11  12
ATOM     12  C   UNL     1      35.723  -0.196  42.309  1.00  0.00    -0.000 C 
BRANCH  12  13
ATOM     13  C   UNL     1      36.484  -0.960  43.404  1.00  0.00    -0.000 C 
BRANCH  13  14
ATOM     14  C   UNL     1      37.562  -1.898  42.830  1.00  0.00    -0.000 C 
BRANCH  14  15
ATOM     15  C   UNL     1      37.027  -3.310  42.547  1.00  0.00    -0.000 C 
BRANCH  15  16
ATOM     16  C   UNL     1      36.513  -4.011  43.813  1.00  0.00    -0.003 C 
ATOM     17  C   UNL     1      34.994  -4.157  43.781  1.00  0.00     0.004 C 
ENDBRANCH  15  16
ENDBRANCH  14  15
ENDBRANCH  13  14
ENDBRANCH  12  13
ENDBRANCH  11  12
ENDBRANCH  10  11
ENDBRANCH   1  10
TORSDOF 13
ENDMDL
MODEL 3
REMARK VINA RESULT:    -3.851      1.419      1.991
REMARK INTER + INTRA:          -7.722
REMARK INTER:                  -6.605
REMARK INTRA:                  -1.117
REMARK UNBOUND:                -0.945
REMARK SMILES CCCCCCCCCCCCCCC(=O)[O-]
REMARK SMILES IDX 9 1 10 2 11 3 12 4 13 5 14 6 15 7 16 8 17 9 8 10 7 11 6 12
REMARK SMILES IDX 5 13 4 14 3 15 2 16 1 17
REMARK H PARENT
REMARK Flexibility Score: inf
ROOT
ATOM      1  C   UNL     1      31.995  -0.777  42.886  1.00  0.00     0.000 C 
ENDROOT
BRANCH   1   2
ATOM      2  C   UNL     1      33.222   0.143  42.812  1.00  0.00     0.000 C 
BRANCH   2   3
ATOM      3  C   UNL     1      34.319  -0.404  41.884  1.00  0.00     0.000 C 
BRANCH   3   4
ATOM      4  C   UNL     1      35.721   0.096  42.268  1.00  0.00     0.000 C 
BRANCH   4   5
ATOM      5  C   UNL     1      36.342  -0.795  43.355  1.00  0.00     0.006 C 
BRANCH   5   6
ATOM      6  C   UNL     1      36.914  -2.098  42.782  1.00  0.00     0.053 C 
BRANCH   6   7
ATOM      7  C   UNL     1      36.270  -3.305  43.395  1.00  0.00     0.041 C 
ATOM      8  O   UNL     1      35.047  -3.536  43.205  1.00  0.00    -0.550 OA
ATOM      9  O   UNL     1      37.030  -4.191  44.149  1.00  0.00    -0.550 OA
ENDBRANCH   6   7
ENDBRANCH   5   6
ENDBRANCH   4   5
ENDBRANCH   3   4
ENDBRANCH   2   3
ENDBRANCH   1   2
BRANCH   1  10
ATOM     10  C   UNL     1      30.898  -0.309  41.922  1.00  0.00     0.000 C 
BRANCH  10  11
ATOM     11  C   UNL     1      29.737  -1.309  41.880  1.00  0.00    -0.000 C 
BRANCH  11  12
ATOM     12  C   UNL     1      28.590  -0.859  42.796  1.00  0.00    -0.000 C 
BRANCH  12  13
ATOM     13  C   UNL     1      28.230  -1.914  43.854  1.00  0.00    -0.000 C 
BRANCH  13  14
ATOM     14  C   UNL     1      28.258  -1.350  45.286  1.00  0.00    -0.000 C 
BRANCH  14  15
ATOM     15  C   UNL     1      29.681  -1.027  45.766  1.00  0.00    -0.000 C 
BRANCH  15  16
ATOM     16  C   UNL     1      30.377  -2.237  46.408  1.00  0.00    -0.003 C 
ATOM     17  C   UNL     1      31.159  -3.035  45.368  1.00  0.00     0.004 C 
ENDBRANCH  15  16
ENDBRANCH  14  15
ENDBRANCH  13  14
ENDBRANCH  12  13
ENDBRANCH  11  12
ENDBRANCH  10  11
ENDBRANCH   1  10
TORSDOF 13
ENDMDL
MODEL 4
REMARK VINA RESULT:    -3.807      3.375      7.770
REMARK INTER + INTRA:          -7.646
REMARK INTER:                  -7.008
REMARK INTRA:                  -0.638
REMARK UNBOUND:                -0.945
REMARK SMILES CCCCCCCCCCCCCCC(=O)[O-]
REMARK SMILES IDX 9 1 10 2 11 3 12 4 13 5 14 6 15 7 16 8 17 9 8 10 7 11 6 12
REMARK SMILES IDX 5 13 4 14 3 15 2 16 1 17
REMARK H PARENT
REMARK Flexibility Score: inf
ROOT
ATOM      1  C   UNL     1      32.057  -0.774  43.058  1.00  0.00     0.000 C 
ENDROOT
BRANCH   1   2
ATOM      2  C   UNL     1      30.843  -0.744  42.118  1.00  0.00     0.000 C 
BRANCH   2   3
ATOM      3  C   UNL     1      29.576  -1.323  42.767  1.00  0.00     0.000 C 
BRANCH   3   4
ATOM      4  C   UNL     1      29.827  -1.855  44.186  1.00  0.00     0.000 C 
BRANCH   4   5
ATOM      5  C   UNL     1      28.607  -2.630  44.705  1.00  0.00     0.006 C 
BRANCH   5   6
ATOM      6  C   UNL     1      28.747  -3.011  46.185  1.00  0.00     0.053 C 
BRANCH   6   7
ATOM      7  C   UNL     1      27.411  -3.181  46.843  1.00  0.00     0.041 C 
ATOM      8  O   UNL     1      26.547  -2.268  46.767  1.00  0.00    -0.550 OA
ATOM      9  O   UNL     1      27.110  -4.361  47.512  1.00  0.00    -0.550 OA
ENDBRANCH   6   7
ENDBRANCH   5   6
ENDBRANCH   4   5
ENDBRANCH   3   4
ENDBRANCH   2   3
ENDBRANCH   1   2
BRANCH   1  10
ATOM     10  C   UNL     1      33.166   0.157  42.553  1.00  0.00     0.000 C 
BRANCH  10  11
ATOM     11  C   UNL     1      34.380  -0.645  42.070  1.00  0.00    -0.000 C 
BRANCH  11  12
ATOM     12  C   UNL     1      35.644  -0.252  42.850  1.00  0.00    -0.000 C 
BRANCH  12  13
ATOM     13  C   UNL     1      36.588  -1.442  43.083  1.00  0.00    -0.000 C 
BRANCH  13  14
ATOM     14  C   UNL     1      35.898  -2.799  42.850  1.00  0.00    -0.000 C 
BRANCH  14  15
ATOM     15  C   UNL     1      36.750  -3.985  43.328  1.00  0.00    -0.000 C 
BRANCH  15  16
ATOM     16  C   UNL     1      38.192  -3.576  43.668  1.00  0.00    -0.003 C 
ATOM     17  C   UNL     1      39.124  -4.784  43.645  1.00  0.00     0.004 C 
ENDBRANCH  15  16
ENDBRANCH  14  15
ENDBRANCH  13  14
ENDBRANCH  12  13
ENDBRANCH  11  12
ENDBRANCH  10  11
ENDBRANCH   1  10
TORSDOF 13
ENDMDL
MODEL 5
REMARK VINA RESULT:    -3.759      2.764      7.233
REMARK INTER + INTRA:          -7.561
REMARK INTER:                  -6.404
REMARK INTRA:                  -1.156
REMARK UNBOUND:                -0.945
REMARK SMILES CCCCCCCCCCCCCCC(=O)[O-]
REMARK SMILES IDX 9 1 10 2 11 3 12 4 13 5 14 6 15 7 16 8 17 9 8 10 7 11 6 12
REMARK SMILES IDX 5 13 4 14 3 15 2 16 1 17
REMARK H PARENT
REMARK Flexibility Score: inf
ROOT
ATOM      1  C   UNL     1      31.655  -1.472  43.438  1.00  0.00     0.000 C 
ENDROOT
BRANCH   1   2
ATOM      2  C   UNL     1      30.726  -1.984  44.550  1.00  0.00     0.000 C 
BRANCH   2   3
ATOM      3  C   UNL     1      30.782  -1.116  45.817  1.00  0.00     0.000 C 
BRANCH   3   4
ATOM      4  C   UNL     1      29.390  -0.668  46.289  1.00  0.00     0.000 C 
BRANCH   4   5
ATOM      5  C   UNL     1      28.287  -1.336  45.455  1.00  0.00     0.006 C 
BRANCH   5   6
ATOM      6  C   UNL     1      27.195  -1.963  46.332  1.00  0.00     0.053 C 
BRANCH   6   7
ATOM      7  C   UNL     1      27.557  -3.353  46.762  1.00  0.00     0.041 C 
ATOM      8  O   UNL     1      28.397  -4.021  46.103  1.00  0.00    -0.550 OA
ATOM      9  O   UNL     1      26.992  -3.896  47.909  1.00  0.00    -0.550 OA
ENDBRANCH   6   7
ENDBRANCH   5   6
ENDBRANCH   4   5
ENDBRANCH   3   4
ENDBRANCH   2   3
ENDBRANCH   1   2
BRANCH   1  10
ATOM     10  C   UNL     1      32.379  -0.193  43.874  1.00  0.00     0.000 C 
BRANCH  10  11
ATOM     11  C   UNL     1      33.274   0.343  42.751  1.00  0.00    -0.000 C 
BRANCH  11  12
ATOM     12  C   UNL     1      34.183  -0.764  42.196  1.00  0.00    -0.000 C 
BRANCH  12  13
ATOM     13  C   UNL     1      35.663  -0.543  42.545  1.00  0.00    -0.000 C 
BRANCH  13  14
ATOM     14  C   UNL     1      36.538  -1.767  42.214  1.00  0.00    -0.000 C 
BRANCH  14  15
ATOM     15  C   UNL     1      35.763  -3.091  42.314  1.00  0.00    -0.000 C 
BRANCH  15  16
ATOM     16  C   UNL     1      35.913  -3.759  43.690  1.00  0.00    -0.003 C 
ATOM     17  C   UNL     1      34.618  -4.449  44.108  1.00  0.00     0.004 C 
ENDBRANCH  15  16
ENDBRANCH  14  15
ENDBRANCH  13  14
ENDBRANCH  12  13
ENDBRANCH  11  12
ENDBRANCH  10  11
ENDBRANCH   1  10
TORSDOF 13
ENDMDL
MODEL 6
REMARK VINA RESULT:    -3.668      2.427      7.152
REMARK INTER + INTRA:          -7.401
REMARK INTER:                  -6.594
REMARK INTRA:                  -0.807
REMARK UNBOUND:                -0.945
REMARK SMILES CCCCCCCCCCCCCCC(=O)[O-]
REMARK SMILES IDX 9 1 10 2 11 3 12 4 13 5 14 6 15 7 16 8 17 9 8 10 7 11 6 12
REMARK SMILES IDX 5 13 4 14 3 15 2 16 1 17
REMARK H PARENT
REMARK Flexibility Score: inf
ROOT
ATOM      1  C   UNL     1      31.704  -1.067  43.160  1.00  0.00     0.000 C 
ENDROOT
BRANCH   1   2
ATOM      2  C   UNL     1      30.796  -0.733  41.967  1.00  0.00     0.000 C 
BRANCH   2   3
ATOM      3  C   UNL     1      29.420  -1.412  42.059  1.00  0.00     0.000 C 
BRANCH   3   4
ATOM      4  C   UNL     1      28.722  -1.154  43.404  1.00  0.00     0.000 C 
BRANCH   4   5
ATOM      5  C   UNL     1      28.284  -2.474  44.056  1.00  0.00     0.006 C 
BRANCH   5   6
ATOM      6  C   UNL     1      28.367  -2.421  45.587  1.00  0.00     0.053 C 
BRANCH   6   7
ATOM      7  C   UNL     1      29.561  -1.643  46.053  1.00  0.00     0.041 C 
ATOM      8  O   UNL     1      29.439  -0.434  46.383  1.00  0.00    -0.550 OA
ATOM      9  O   UNL     1      30.799  -2.263  46.155  1.00  0.00    -0.550 OA
ENDBRANCH   6   7
ENDBRANCH   5   6
ENDBRANCH   4   5
ENDBRANCH   3   4
ENDBRANCH   2   3
ENDBRANCH   1   2
BRANCH   1  10
ATOM     10  C   UNL     1      32.900  -0.109  43.225  1.00  0.00     0.000 C 
BRANCH  10  11
ATOM     11  C   UNL     1      33.640  -0.059  41.884  1.00  0.00    -0.000 C 
BRANCH  11  12
ATOM     12  C   UNL     1      34.834  -1.026  41.878  1.00  0.00    -0.000 C 
BRANCH  12  13
ATOM     13  C   UNL     1      36.055  -0.461  42.621  1.00  0.00    -0.000 C 
BRANCH  13  14
ATOM     14  C   UNL     1      36.850  -1.550  43.365  1.00  0.00    -0.000 C 
BRANCH  14  15
ATOM     15  C   UNL     1      36.132  -2.908  43.367  1.00  0.00    -0.000 C 
BRANCH  15  16
ATOM     16  C   UNL     1      37.092  -4.083  43.610  1.00  0.00    -0.003 C 
ATOM     17  C   UNL     1      38.541  -3.665  43.374  1.00  0.00     0.004 C 
ENDBRANCH  15  16
ENDBRANCH  14  15
ENDBRANCH  13  14
ENDBRANCH  12  13
ENDBRANCH  11  12
ENDBRANCH  10  11
ENDBRANCH   1  10
TORSDOF 13
ENDMDL
MODEL 7
REMARK VINA RESULT:    -3.569     12.500     15.393
REMARK INTER + INTRA:          -7.226
REMARK INTER:                  -6.101
REMARK INTRA:                  -1.125
REMARK UNBOUND:                -0.945
REMARK SMILES CCCCCCCCCCCCCCC(=O)[O-]
REMARK SMILES IDX 9 1 10 2 11 3 12 4 13 5 14 6 15 7 16 8 17 9 8 10 7 11 6 12
REMARK SMILES IDX 5 13 4 14 3 15 2 16 1 17
REMARK H PARENT
REMARK Flexibility Score: inf
ROOT
ATOM      1  C   UNL     1      21.786 -11.326  45.549  1.00  0.00     0.000 C 
ENDROOT
BRANCH   1   2
ATOM      2  C   UNL     1      20.331 -11.297  46.039  1.00  0.00     0.000 C 
BRANCH   2   3
ATOM      3  C   UNL     1      19.739 -12.703  46.226  1.00  0.00     0.000 C 
BRANCH   3   4
ATOM      4  C   UNL     1      20.777 -13.816  46.009  1.00  0.00     0.000 C 
BRANCH   4   5
ATOM      5  C   UNL     1      20.333 -14.768  44.888  1.00  0.00     0.006 C 
BRANCH   5   6
ATOM      6  C   UNL     1      19.623 -14.030  43.746  1.00  0.00     0.053 C 
BRANCH   6   7
ATOM      7  C   UNL     1      20.599 -13.450  42.768  1.00  0.00     0.041 C 
ATOM      8  O   UNL     1      21.763 -13.923  42.678  1.00  0.00    -0.550 OA
ATOM      9  O   UNL     1      20.212 -12.410  41.931  1.00  0.00    -0.550 OA
ENDBRANCH   6   7
ENDBRANCH   5   6
ENDBRANCH   4   5
ENDBRANCH   3   4
ENDBRANCH   2   3
ENDBRANCH   1   2
BRANCH   1  10
ATOM     10  C   UNL     1      22.004 -10.320  44.412  1.00  0.00     0.000 C 
BRANCH  10  11
ATOM     11  C   UNL     1      20.744  -9.481  44.170  1.00  0.00    -0.000 C 
BRANCH  11  12
ATOM     12  C   UNL     1      20.713  -8.937  42.734  1.00  0.00    -0.000 C 
BRANCH  12  13
ATOM     13  C   UNL     1      19.940  -7.614  42.621  1.00  0.00    -0.000 C 
BRANCH  13  14
ATOM     14  C   UNL     1      20.670  -6.441  43.301  1.00  0.00    -0.000 C 
BRANCH  14  15
ATOM     15  C   UNL     1      20.175  -5.072  42.809  1.00  0.00    -0.000 C 
BRANCH  15  16
ATOM     16  C   UNL     1      20.919  -3.903  43.472  1.00  0.00    -0.003 C 
ATOM     17  C   UNL     1      20.508  -3.750  44.933  1.00  0.00     0.004 C 
ENDBRANCH  15  16
ENDBRANCH  14  15
ENDBRANCH  13  14
ENDBRANCH  12  13
ENDBRANCH  11  12
ENDBRANCH  10  11
ENDBRANCH   1  10
TORSDOF 13
ENDMDL
MODEL 8
REMARK VINA RESULT:    -3.442      1.406      2.311
REMARK INTER + INTRA:          -7.003
REMARK INTER:                  -6.046
REMARK INTRA:                  -0.957
REMARK UNBOUND:                -0.945
REMARK SMILES CCCCCCCCCCCCCCC(=O)[O-]
REMARK SMILES IDX 9 1 10 2 11 3 12 4 13 5 14 6 15 7 16 8 17 9 8 10 7 11 6 12
REMARK SMILES IDX 5 13 4 14 3 15 2 16 1 17
REMARK H PARENT
REMARK Flexibility Score: inf
ROOT
ATOM      1  C   UNL     1      32.489  -0.885  42.996  1.00  0.00     0.000 C 
ENDROOT
BRANCH   1   2
ATOM      2  C   UNL     1      33.125   0.484  42.711  1.00  0.00     0.000 C 
BRANCH   2   3
ATOM      3  C   UNL     1      34.447   0.375  41.935  1.00  0.00     0.000 C 
BRANCH   3   4
ATOM      4  C   UNL     1      35.625  -0.048  42.828  1.00  0.00     0.000 C 
BRANCH   4   5
ATOM      5  C   UNL     1      36.287  -1.326  42.293  1.00  0.00     0.006 C 
BRANCH   5   6
ATOM      6  C   UNL     1      37.045  -2.089  43.387  1.00  0.00     0.053 C 
BRANCH   6   7
ATOM      7  C   UNL     1      36.527  -3.486  43.551  1.00  0.00     0.041 C 
ATOM      8  O   UNL     1      37.309  -4.416  43.882  1.00  0.00    -0.550 OA
ATOM      9  O   UNL     1      35.175  -3.753  43.373  1.00  0.00    -0.550 OA
ENDBRANCH   6   7
ENDBRANCH   5   6
ENDBRANCH   4   5
ENDBRANCH   3   4
ENDBRANCH   2   3
ENDBRANCH   1   2
BRANCH   1  10
ATOM     10  C   UNL     1      31.725  -0.869  44.325  1.00  0.00     0.000 C 
BRANCH  10  11
ATOM     11  C   UNL     1      31.542  -2.289  44.872  1.00  0.00    -0.000 C 
BRANCH  11  12
ATOM     12  C   UNL     1      30.520  -2.309  46.019  1.00  0.00    -0.000 C 
BRANCH  12  13
ATOM     13  C   UNL     1      29.543  -1.124  45.961  1.00  0.00    -0.000 C 
BRANCH  13  14
ATOM     14  C   UNL     1      28.217  -1.485  45.265  1.00  0.00    -0.000 C 
BRANCH  14  15
ATOM     15  C   UNL     1      28.384  -2.594  44.214  1.00  0.00    -0.000 C 
BRANCH  15  16
ATOM     16  C   UNL     1      27.941  -2.149  42.812  1.00  0.00    -0.003 C 
ATOM     17  C   UNL     1      28.910  -1.124  42.230  1.00  0.00     0.004 C 
ENDBRANCH  15  16
ENDBRANCH  14  15
ENDBRANCH  13  14
ENDBRANCH  12  13
ENDBRANCH  11  12
ENDBRANCH  10  11
ENDBRANCH   1  10
TORSDOF 13
ENDMDL
MODEL 9
REMARK VINA RESULT:    -3.394     12.731     15.148
REMARK INTER + INTRA:          -6.918
REMARK INTER:                  -5.902
REMARK INTRA:                  -1.016
REMARK UNBOUND:                -0.945
REMARK SMILES CCCCCCCCCCCCCCC(=O)[O-]
REMARK SMILES IDX 9 1 10 2 11 3 12 4 13 5 14 6 15 7 16 8 17 9 8 10 7 11 6 12
REMARK SMILES IDX 5 13 4 14 3 15 2 16 1 17
REMARK H PARENT
REMARK Flexibility Score: inf
ROOT
ATOM      1  C   UNL     1      20.896  -9.805  44.448  1.00  0.00     0.000 C 
ENDROOT
BRANCH   1   2
ATOM      2  C   UNL     1      22.245 -10.539  44.450  1.00  0.00     0.000 C 
BRANCH   2   3
ATOM      3  C   UNL     1      22.144 -11.964  45.017  1.00  0.00     0.000 C 
BRANCH   3   4
ATOM      4  C   UNL     1      22.476 -13.042  43.972  1.00  0.00     0.000 C 
BRANCH   4   5
ATOM      5  C   UNL     1      21.248 -13.918  43.680  1.00  0.00     0.006 C 
BRANCH   5   6
ATOM      6  C   UNL     1      20.055 -13.563  44.577  1.00  0.00     0.053 C 
BRANCH   6   7
ATOM      7  C   UNL     1      19.924 -14.512  45.730  1.00  0.00     0.041 C 
ATOM      8  O   UNL     1      19.443 -14.116  46.824  1.00  0.00    -0.550 OA
ATOM      9  O   UNL     1      20.301 -15.841  45.584  1.00  0.00    -0.550 OA
ENDBRANCH   6   7
ENDBRANCH   5   6
ENDBRANCH   4   5
ENDBRANCH   3   4
ENDBRANCH   2   3
ENDBRANCH   1   2
BRANCH   1  10
ATOM     10  C   UNL     1      20.145 -10.038  43.131  1.00  0.00     0.000 C 
BRANCH  10  11
ATOM     11  C   UNL     1      19.816  -8.709  42.441  1.00  0.00    -0.000 C 
BRANCH  11  12
ATOM     12  C   UNL     1      21.085  -8.055  41.875  1.00  0.00    -0.000 C 
BRANCH  12  13
ATOM     13  C   UNL     1      21.046  -6.521  41.958  1.00  0.00    -0.000 C 
BRANCH  13  14
ATOM     14  C   UNL     1      19.910  -6.006  42.861  1.00  0.00    -0.000 C 
BRANCH  14  15
ATOM     15  C   UNL     1      20.369  -4.887  43.809  1.00  0.00    -0.000 C 
BRANCH  15  16
ATOM     16  C   UNL     1      21.143  -3.778  43.080  1.00  0.00    -0.003 C 
ATOM     17  C   UNL     1      20.223  -2.616  42.716  1.00  0.00     0.004 C 
ENDBRANCH  15  16
ENDBRANCH  14  15
ENDBRANCH  13  14
ENDBRANCH  12  13
ENDBRANCH  11  12
ENDBRANCH  10  11
ENDBRANCH   1  10
TORSDOF 13
ENDMDL
