MODEL 1
REMARK VINA RESULT:    -3.784      0.000      0.000
REMARK INTER + INTRA:          -6.452
REMARK INTER:                  -5.996
REMARK INTRA:                  -0.456
REMARK UNBOUND:                -0.456
REMARK SMILES CCCCCCCCCCCC(=O)[O-]
REMARK SMILES IDX 7 1 8 2 9 3 10 4 11 5 12 6 13 7 14 8 6 9 5 10 4 11 3 12 2 13
REMARK SMILES IDX 1 14
REMARK H PARENT
REMARK Flexibility Score: inf
ROOT
ATOM      1  C   UNL     1       7.509   9.097  33.329  1.00  0.00     0.000 C 
ENDROOT
BRANCH   1   2
ATOM      2  C   UNL     1       6.131   9.455  33.905  1.00  0.00     0.000 C 
BRANCH   2   3
ATOM      3  C   UNL     1       5.613  10.770  33.311  1.00  0.00     0.000 C 
BRANCH   3   4
ATOM      4  C   UNL     1       5.218  11.758  34.420  1.00  0.00     0.006 C 
BRANCH   4   5
ATOM      5  C   UNL     1       5.088  13.194  33.899  1.00  0.00     0.053 C 
BRANCH   5   6
ATOM      6  C   UNL     1       5.547  14.196  34.913  1.00  0.00     0.041 C 
ATOM      7  O   UNL     1       5.969  13.815  36.036  1.00  0.00    -0.550 OA
ATOM      8  O   UNL     1       5.542  15.550  34.605  1.00  0.00    -0.550 OA
ENDBRANCH   5   6
ENDBRANCH   4   5
ENDBRANCH   3   4
ENDBRANCH   2   3
ENDBRANCH   1   2
BRANCH   1   9
ATOM      9  C   UNL     1       7.948   7.669  33.689  1.00  0.00     0.000 C 
BRANCH   9  10
ATOM     10  C   UNL     1       6.755   6.730  33.944  1.00  0.00    -0.000 C 
BRANCH  10  11
ATOM     11  C   UNL     1       7.003   5.764  35.115  1.00  0.00    -0.000 C 
BRANCH  11  12
ATOM     12  C   UNL     1       8.288   6.093  35.888  1.00  0.00    -0.000 C 
BRANCH  12  13
ATOM     13  C   UNL     1       9.365   5.031  35.635  1.00  0.00    -0.003 C 
ATOM     14  C   UNL     1       9.056   3.742  36.390  1.00  0.00     0.004 C 
ENDBRANCH  12  13
ENDBRANCH  11  12
ENDBRANCH  10  11
ENDBRANCH   9  10
ENDBRANCH   1   9
TORSDOF 10
ENDMDL
MODEL 2
REMARK VINA RESULT:    -3.767      4.095      7.285
REMARK INTER + INTRA:          -6.425
REMARK INTER:                  -5.527
REMARK INTRA:                  -0.898
REMARK UNBOUND:                -0.456
REMARK SMILES CCCCCCCCCCCC(=O)[O-]
REMARK SMILES IDX 7 1 8 2 9 3 10 4 11 5 12 6 13 7 14 8 6 9 5 10 4 11 3 12 2 13
REMARK SMILES IDX 1 14
REMARK H PARENT
REMARK Flexibility Score: inf
ROOT
ATOM      1  C   UNL     1       5.242   5.648  33.143  1.00  0.00     0.000 C 
ENDROOT
BRANCH   1   2
ATOM      2  C   UNL     1       5.303   4.300  33.877  1.00  0.00     0.000 C 
BRANCH   2   3
ATOM      3  C   UNL     1       5.594   4.501  35.369  1.00  0.00     0.000 C 
BRANCH   3   4
ATOM      4  C   UNL     1       6.896   3.796  35.777  1.00  0.00     0.006 C 
BRANCH   4   5
ATOM      5  C   UNL     1       7.890   4.753  36.446  1.00  0.00     0.053 C 
BRANCH   5   6
ATOM      6  C   UNL     1       9.262   4.629  35.858  1.00  0.00     0.041 C 
ATOM      7  O   UNL     1       9.736   5.554  35.149  1.00  0.00    -0.550 OA
ATOM      8  O   UNL     1      10.032   3.503  36.122  1.00  0.00    -0.550 OA
ENDBRANCH   5   6
ENDBRANCH   4   5
ENDBRANCH   3   4
ENDBRANCH   2   3
ENDBRANCH   1   2
BRANCH   1   9
ATOM      9  C   UNL     1       5.723   6.818  34.016  1.00  0.00     0.000 C 
BRANCH   9  10
ATOM     10  C   UNL     1       7.122   7.319  33.615  1.00  0.00    -0.000 C 
BRANCH  10  11
ATOM     11  C   UNL     1       7.356   8.789  34.002  1.00  0.00    -0.000 C 
BRANCH  11  12
ATOM     12  C   UNL     1       6.589   9.766  33.098  1.00  0.00    -0.000 C 
BRANCH  12  13
ATOM     13  C   UNL     1       5.551  10.556  33.905  1.00  0.00    -0.003 C 
ATOM     14  C   UNL     1       5.709  10.304  35.402  1.00  0.00     0.004 C 
ENDBRANCH  12  13
ENDBRANCH  11  12
ENDBRANCH  10  11
ENDBRANCH   9  10
ENDBRANCH   1   9
TORSDOF 10
ENDMDL
MODEL 3
REMARK VINA RESULT:    -3.752      4.599      7.780
REMARK INTER + INTRA:          -6.401
REMARK INTER:                  -5.687
REMARK INTRA:                  -0.714
REMARK UNBOUND:                -0.456
REMARK SMILES CCCCCCCCCCCC(=O)[O-]
REMARK SMILES IDX 7 1 8 2 9 3 10 4 11 5 12 6 13 7 14 8 6 9 5 10 4 11 3 12 2 13
REMARK SMILES IDX 1 14
REMARK H PARENT
REMARK Flexibility Score: inf
ROOT
ATOM      1  C   UNL     1       7.242   7.678  33.359  1.00  0.00     0.000 C 
ENDROOT
BRANCH   1   2
ATOM      2  C   UNL     1       6.206   6.738  33.994  1.00  0.00     0.000 C 
BRANCH   2   3
ATOM      3  C   UNL     1       6.874   5.777  34.986  1.00  0.00     0.000 C 
BRANCH   3   4
ATOM      4  C   UNL     1       8.371   6.089  35.132  1.00  0.00     0.006 C 
BRANCH   4   5
ATOM      5  C   UNL     1       8.988   5.411  36.362  1.00  0.00     0.053 C 
BRANCH   5   6
ATOM      6  C   UNL     1       9.302   3.970  36.102  1.00  0.00     0.041 C 
ATOM      7  O   UNL     1      10.382   3.646  35.542  1.00  0.00    -0.550 OA
ATOM      8  O   UNL     1       8.416   2.981  36.509  1.00  0.00    -0.550 OA
ENDBRANCH   5   6
ENDBRANCH   4   5
ENDBRANCH   3   4
ENDBRANCH   2   3
ENDBRANCH   1   2
BRANCH   1   9
ATOM      9  C   UNL     1       6.804   9.151  33.398  1.00  0.00     0.000 C 
BRANCH   9  10
ATOM     10  C   UNL     1       6.219   9.559  34.763  1.00  0.00    -0.000 C 
BRANCH  10  11
ATOM     11  C   UNL     1       5.099  10.605  34.636  1.00  0.00    -0.000 C 
BRANCH  11  12
ATOM     12  C   UNL     1       5.263  11.498  33.397  1.00  0.00    -0.000 C 
BRANCH  12  13
ATOM     13  C   UNL     1       5.303  12.979  33.792  1.00  0.00    -0.003 C 
ATOM     14  C   UNL     1       5.320  13.144  35.309  1.00  0.00     0.004 C 
ENDBRANCH  12  13
ENDBRANCH  11  12
ENDBRANCH  10  11
ENDBRANCH   9  10
ENDBRANCH   1   9
TORSDOF 10
ENDMDL
MODEL 4
REMARK VINA RESULT:    -3.660      3.524      6.955
REMARK INTER + INTRA:          -6.255
REMARK INTER:                  -5.390
REMARK INTRA:                  -0.865
REMARK UNBOUND:                -0.456
REMARK SMILES CCCCCCCCCCCC(=O)[O-]
REMARK SMILES IDX 7 1 8 2 9 3 10 4 11 5 12 6 13 7 14 8 6 9 5 10 4 11 3 12 2 13
REMARK SMILES IDX 1 14
REMARK H PARENT
REMARK Flexibility Score: inf
ROOT
ATOM      1  C   UNL     1       6.504   9.206  35.054  1.00  0.00     0.000 C 
ENDROOT
BRANCH   1   2
ATOM      2  C   UNL     1       5.631   8.074  35.616  1.00  0.00     0.000 C 
BRANCH   2   3
ATOM      3  C   UNL     1       5.193   7.116  34.502  1.00  0.00     0.000 C 
BRANCH   3   4
ATOM      4  C   UNL     1       6.126   5.898  34.425  1.00  0.00     0.006 C 
BRANCH   4   5
ATOM      5  C   UNL     1       7.014   5.766  35.669  1.00  0.00     0.053 C 
BRANCH   5   6
ATOM      6  C   UNL     1       8.469   5.806  35.319  1.00  0.00     0.041 C 
ATOM      7  O   UNL     1       9.304   5.150  35.996  1.00  0.00    -0.550 OA
ATOM      8  O   UNL     1       8.901   6.542  34.223  1.00  0.00    -0.550 OA
ENDBRANCH   5   6
ENDBRANCH   4   5
ENDBRANCH   3   4
ENDBRANCH   2   3
ENDBRANCH   1   2
BRANCH   1   9
ATOM      9  C   UNL     1       6.511   9.240  33.518  1.00  0.00     0.000 C 
BRANCH   9  10
ATOM     10  C   UNL     1       6.028  10.590  32.954  1.00  0.00    -0.000 C 
BRANCH  10  11
ATOM     11  C   UNL     1       5.153  11.367  33.949  1.00  0.00    -0.000 C 
BRANCH  11  12
ATOM     12  C   UNL     1       5.235  12.887  33.746  1.00  0.00    -0.000 C 
BRANCH  12  13
ATOM     13  C   UNL     1       5.464  13.606  35.081  1.00  0.00    -0.003 C 
ATOM     14  C   UNL     1       5.451  12.621  36.246  1.00  0.00     0.004 C 
ENDBRANCH  12  13
ENDBRANCH  11  12
ENDBRANCH  10  11
ENDBRANCH   9  10
ENDBRANCH   1   9
TORSDOF 10
ENDMDL
MODEL 5
REMARK VINA RESULT:    -3.631      2.675      2.992
REMARK INTER + INTRA:          -6.210
REMARK INTER:                  -5.147
REMARK INTRA:                  -1.063
REMARK UNBOUND:                -0.456
REMARK SMILES CCCCCCCCCCCC(=O)[O-]
REMARK SMILES IDX 7 1 8 2 9 3 10 4 11 5 12 6 13 7 14 8 6 9 5 10 4 11 3 12 2 13
REMARK SMILES IDX 1 14
REMARK H PARENT
REMARK Flexibility Score: inf
ROOT
ATOM      1  C   UNL     1       7.838   8.798  33.392  1.00  0.00     0.000 C 
ENDROOT
BRANCH   1   2
ATOM      2  C   UNL     1       6.401   9.216  33.048  1.00  0.00     0.000 C 
BRANCH   2   3
ATOM      3  C   UNL     1       6.099  10.625  33.572  1.00  0.00     0.000 C 
BRANCH   3   4
ATOM      4  C   UNL     1       5.091  10.579  34.730  1.00  0.00     0.006 C 
BRANCH   4   5
ATOM      5  C   UNL     1       5.753  10.851  36.087  1.00  0.00     0.053 C 
BRANCH   5   6
ATOM      6  C   UNL     1       6.178   9.583  36.761  1.00  0.00     0.041 C 
ATOM      7  O   UNL     1       5.319   8.738  37.125  1.00  0.00    -0.550 OA
ATOM      8  O   UNL     1       7.528   9.319  36.958  1.00  0.00    -0.550 OA
ENDBRANCH   5   6
ENDBRANCH   4   5
ENDBRANCH   3   4
ENDBRANCH   2   3
ENDBRANCH   1   2
BRANCH   1   9
ATOM      9  C   UNL     1       7.906   7.422  34.073  1.00  0.00     0.000 C 
BRANCH   9  10
ATOM     10  C   UNL     1       6.622   6.597  33.869  1.00  0.00    -0.000 C 
BRANCH  10  11
ATOM     11  C   UNL     1       6.084   6.008  35.183  1.00  0.00    -0.000 C 
BRANCH  11  12
ATOM     12  C   UNL     1       6.632   4.601  35.467  1.00  0.00    -0.000 C 
BRANCH  12  13
ATOM     13  C   UNL     1       7.682   4.638  36.583  1.00  0.00    -0.003 C 
ATOM     14  C   UNL     1       9.093   4.495  36.018  1.00  0.00     0.004 C 
ENDBRANCH  12  13
ENDBRANCH  11  12
ENDBRANCH  10  11
ENDBRANCH   9  10
ENDBRANCH   1   9
TORSDOF 10
ENDMDL
MODEL 6
REMARK VINA RESULT:    -3.602      3.173      5.664
REMARK INTER + INTRA:          -6.164
REMARK INTER:                  -5.883
REMARK INTRA:                  -0.282
REMARK UNBOUND:                -0.456
REMARK SMILES CCCCCCCCCCCC(=O)[O-]
REMARK SMILES IDX 7 1 8 2 9 3 10 4 11 5 12 6 13 7 14 8 6 9 5 10 4 11 3 12 2 13
REMARK SMILES IDX 1 14
REMARK H PARENT
REMARK Flexibility Score: inf
ROOT
ATOM      1  C   UNL     1       4.876  14.221  34.512  1.00  0.00     0.000 C 
ENDROOT
BRANCH   1   2
ATOM      2  C   UNL     1       6.007  15.253  34.634  1.00  0.00     0.000 C 
BRANCH   2   3
ATOM      3  C   UNL     1       5.457  16.682  34.545  1.00  0.00     0.000 C 
BRANCH   3   4
ATOM      4  C   UNL     1       6.498  17.704  35.026  1.00  0.00     0.006 C 
BRANCH   4   5
ATOM      5  C   UNL     1       6.074  19.148  34.732  1.00  0.00     0.053 C 
BRANCH   5   6
ATOM      6  C   UNL     1       6.422  19.555  33.333  1.00  0.00     0.041 C 
ATOM      7  O   UNL     1       7.580  19.967  33.061  1.00  0.00    -0.550 OA
ATOM      8  O   UNL     1       5.477  19.447  32.321  1.00  0.00    -0.550 OA
ENDBRANCH   5   6
ENDBRANCH   4   5
ENDBRANCH   3   4
ENDBRANCH   2   3
ENDBRANCH   1   2
BRANCH   1   9
ATOM      9  C   UNL     1       5.359  12.783  34.759  1.00  0.00     0.000 C 
BRANCH   9  10
ATOM     10  C   UNL     1       5.051  11.844  33.577  1.00  0.00    -0.000 C 
BRANCH  10  11
ATOM     11  C   UNL     1       5.496  10.397  33.842  1.00  0.00    -0.000 C 
BRANCH  11  12
ATOM     12  C   UNL     1       6.635   9.951  32.913  1.00  0.00    -0.000 C 
BRANCH  12  13
ATOM     13  C   UNL     1       7.237   8.622  33.386  1.00  0.00    -0.003 C 
ATOM     14  C   UNL     1       6.150   7.663  33.862  1.00  0.00     0.004 C 
ENDBRANCH  12  13
ENDBRANCH  11  12
ENDBRANCH  10  11
ENDBRANCH   9  10
ENDBRANCH   1   9
TORSDOF 10
ENDMDL
MODEL 7
REMARK VINA RESULT:    -3.566      1.480      2.622
REMARK INTER + INTRA:          -6.107
REMARK INTER:                  -5.235
REMARK INTRA:                  -0.872
REMARK UNBOUND:                -0.456
REMARK SMILES CCCCCCCCCCCC(=O)[O-]
REMARK SMILES IDX 7 1 8 2 9 3 10 4 11 5 12 6 13 7 14 8 6 9 5 10 4 11 3 12 2 13
REMARK SMILES IDX 1 14
REMARK H PARENT
REMARK Flexibility Score: inf
ROOT
ATOM      1  C   UNL     1       7.966   7.177  33.914  1.00  0.00     0.000 C 
ENDROOT
BRANCH   1   2
ATOM      2  C   UNL     1       6.538   7.392  33.389  1.00  0.00     0.000 C 
BRANCH   2   3
ATOM      3  C   UNL     1       5.848   8.541  34.133  1.00  0.00     0.000 C 
BRANCH   3   4
ATOM      4  C   UNL     1       6.392   9.902  33.672  1.00  0.00     0.006 C 
BRANCH   4   5
ATOM      5  C   UNL     1       5.272  10.915  33.404  1.00  0.00     0.053 C 
BRANCH   5   6
ATOM      6  C   UNL     1       5.311  12.055  34.374  1.00  0.00     0.041 C 
ATOM      7  O   UNL     1       5.394  11.833  35.611  1.00  0.00    -0.550 OA
ATOM      8  O   UNL     1       5.290  13.364  33.911  1.00  0.00    -0.550 OA
ENDBRANCH   5   6
ENDBRANCH   4   5
ENDBRANCH   3   4
ENDBRANCH   2   3
ENDBRANCH   1   2
BRANCH   1   9
ATOM      9  C   UNL     1       7.992   6.681  35.368  1.00  0.00     0.000 C 
BRANCH   9  10
ATOM     10  C   UNL     1       8.968   5.508  35.577  1.00  0.00    -0.000 C 
BRANCH  10  11
ATOM     11  C   UNL     1       8.285   4.275  36.189  1.00  0.00    -0.000 C 
BRANCH  11  12
ATOM     12  C   UNL     1       6.755   4.404  36.225  1.00  0.00    -0.000 C 
BRANCH  12  13
ATOM     13  C   UNL     1       6.098   3.386  35.284  1.00  0.00    -0.003 C 
ATOM     14  C   UNL     1       5.221   4.082  34.247  1.00  0.00     0.004 C 
ENDBRANCH  12  13
ENDBRANCH  11  12
ENDBRANCH  10  11
ENDBRANCH   9  10
ENDBRANCH   1   9
TORSDOF 10
ENDMDL
MODEL 8
REMARK VINA RESULT:    -3.516      2.017      2.973
REMARK INTER + INTRA:          -6.028
REMARK INTER:                  -5.348
REMARK INTRA:                  -0.680
REMARK UNBOUND:                -0.456
REMARK SMILES CCCCCCCCCCCC(=O)[O-]
REMARK SMILES IDX 7 1 8 2 9 3 10 4 11 5 12 6 13 7 14 8 6 9 5 10 4 11 3 12 2 13
REMARK SMILES IDX 1 14
REMARK H PARENT
REMARK Flexibility Score: inf
ROOT
ATOM      1  C   UNL     1       5.506  11.353  33.039  1.00  0.00     0.000 C 
ENDROOT
BRANCH   1   2
ATOM      2  C   UNL     1       5.198  12.485  34.031  1.00  0.00     0.000 C 
BRANCH   2   3
ATOM      3  C   UNL     1       5.234  11.972  35.476  1.00  0.00     0.000 C 
BRANCH   3   4
ATOM      4  C   UNL     1       5.072  13.128  36.475  1.00  0.00     0.006 C 
BRANCH   4   5
ATOM      5  C   UNL     1       6.332  13.999  36.564  1.00  0.00     0.053 C 
BRANCH   5   6
ATOM      6  C   UNL     1       6.086  15.384  36.049  1.00  0.00     0.041 C 
ATOM      7  O   UNL     1       5.539  16.247  36.784  1.00  0.00    -0.550 OA
ATOM      8  O   UNL     1       6.493  15.731  34.767  1.00  0.00    -0.550 OA
ENDBRANCH   5   6
ENDBRANCH   4   5
ENDBRANCH   3   4
ENDBRANCH   2   3
ENDBRANCH   1   2
BRANCH   1   9
ATOM      9  C   UNL     1       5.891  10.041  33.741  1.00  0.00     0.000 C 
BRANCH   9  10
ATOM     10  C   UNL     1       7.167   9.409  33.155  1.00  0.00    -0.000 C 
BRANCH  10  11
ATOM     11  C   UNL     1       7.439   8.003  33.714  1.00  0.00    -0.000 C 
BRANCH  11  12
ATOM     12  C   UNL     1       6.643   7.712  34.995  1.00  0.00    -0.000 C 
BRANCH  12  13
ATOM     13  C   UNL     1       5.830   6.420  34.852  1.00  0.00    -0.003 C 
ATOM     14  C   UNL     1       5.646   6.044  33.384  1.00  0.00     0.004 C 
ENDBRANCH  12  13
ENDBRANCH  11  12
ENDBRANCH  10  11
ENDBRANCH   9  10
ENDBRANCH   1   9
TORSDOF 10
ENDMDL
