MODEL 1
REMARK VINA RESULT:    -4.803      0.000      0.000
REMARK INTER + INTRA:          -5.299
REMARK INTER:                  -5.926
REMARK INTRA:                   0.626
REMARK UNBOUND:                 0.626
REMARK SMILES C=C1[C@@H]2CC[C@H]3[C@@H]2C(C)(C)CCC[C@@]13C
REMARK SMILES IDX 14 1 6 2 7 3 3 4 2 5 1 6 4 7 5 8 15 9 8 10 9 11 10 12 11 13
REMARK SMILES IDX 13 15 12 16
REMARK H PARENT
REMARK Flexibility Score: 80.00
ROOT
ATOM      1  C   UNL     1     146.369 147.644 162.293  1.00  0.00    -0.008 C 
ATOM      2  C   UNL     1     147.596 148.637 162.256  1.00  0.00     0.003 C 
ATOM      3  C   UNL     1     147.138 149.855 163.086  1.00  0.00     0.006 C 
ATOM      4  C   UNL     1     145.839 150.029 162.298  1.00  0.00     0.019 C 
ATOM      5  C   UNL     1     145.246 148.649 162.362  1.00  0.00    -0.068 C 
ATOM      6  C   UNL     1     143.935 148.375 162.383  1.00  0.00     0.009 C 
ATOM      7  C   UNL     1     146.388 150.206 160.862  1.00  0.00     0.008 C 
ATOM      8  C   UNL     1     147.663 149.326 160.864  1.00  0.00     0.005 C 
ATOM      9  C   UNL     1     146.242 146.767 161.019  1.00  0.00     0.016 C 
ENDROOT
BRANCH   3  10
ATOM     10  C   UNL     1     147.096 149.762 164.672  1.00  0.00    -0.032 C 
ATOM     11  C   UNL     1     148.308 150.560 165.228  1.00  0.00     0.011 C 
ATOM     12  C   UNL     1     145.829 150.446 165.247  1.00  0.00     0.011 C 
BRANCH  10  13
ATOM     13  C   UNL     1     147.250 148.326 165.249  1.00  0.00     0.007 CG0
ATOM     14  G   UNL     1     146.154 147.334 164.868  1.00  0.00     0.000 G0
ENDBRANCH  10  13
ENDBRANCH   3  10
BRANCH   1  15
ATOM     15  C   UNL     1     146.409 146.685 163.514  1.00  0.00     0.011 C 
BRANCH  15  16
ATOM     16  C   UNL     1     146.161 147.327 164.876  1.00  0.00     0.001 CG0
ATOM     17  G   UNL     1     147.246 148.331 165.254  1.00  0.00     0.000 G0
ENDBRANCH  15  16
ENDBRANCH   1  15
TORSDOF 0
ENDMDL
MODEL 2
REMARK VINA RESULT:    -4.799      3.941      5.455
REMARK INTER + INTRA:          -5.295
REMARK INTER:                  -5.927
REMARK INTRA:                   0.632
REMARK UNBOUND:                 0.626
REMARK SMILES C=C1[C@@H]2CC[C@H]3[C@@H]2C(C)(C)CCC[C@@]13C
REMARK SMILES IDX 14 1 6 2 7 3 3 4 2 5 1 6 4 7 5 8 15 9 8 10 9 11 10 12 11 13
REMARK SMILES IDX 13 15 12 16
REMARK H PARENT
REMARK Flexibility Score: 80.00
ROOT
ATOM      1  C   UNL     1     147.600 144.332 162.236  1.00  0.00    -0.008 C 
ATOM      2  C   UNL     1     148.638 143.143 162.226  1.00  0.00     0.003 C 
ATOM      3  C   UNL     1     149.817 143.647 163.083  1.00  0.00     0.006 C 
ATOM      4  C   UNL     1     149.962 144.949 162.295  1.00  0.00     0.019 C 
ATOM      5  C   UNL     1     148.560 145.491 162.325  1.00  0.00    -0.068 C 
ATOM      6  C   UNL     1     148.238 146.791 162.336  1.00  0.00     0.009 C 
ATOM      7  C   UNL     1     150.194 144.405 160.866  1.00  0.00     0.008 C 
ATOM      8  C   UNL     1     149.362 143.098 160.850  1.00  0.00     0.005 C 
ATOM      9  C   UNL     1     146.749 144.423 160.940  1.00  0.00     0.016 C 
ENDROOT
BRANCH   3  10
ATOM     10  C   UNL     1     149.685 143.689 164.666  1.00  0.00    -0.032 C 
ATOM     11  C   UNL     1     150.511 142.506 165.245  1.00  0.00     0.011 C 
ATOM     12  C   UNL     1     150.311 144.980 165.254  1.00  0.00     0.011 C 
BRANCH  10  13
ATOM     13  C   UNL     1     148.242 143.486 165.209  1.00  0.00     0.007 CG0
ATOM     14  G   UNL     1     147.218 144.536 164.787  1.00  0.00     0.000 G0
ENDBRANCH  10  13
ENDBRANCH   3  10
BRANCH   1  15
ATOM     15  C   UNL     1     146.614 144.259 163.433  1.00  0.00     0.011 C 
BRANCH  15  16
ATOM     16  C   UNL     1     147.214 144.530 164.810  1.00  0.00     0.001 CG0
ATOM     17  G   UNL     1     148.245 143.481 165.214  1.00  0.00     0.000 G0
ENDBRANCH  15  16
ENDBRANCH   1  15
TORSDOF 0
ENDMDL
MODEL 3
REMARK VINA RESULT:    -4.789      3.956      5.449
REMARK INTER + INTRA:          -5.283
REMARK INTER:                  -5.923
REMARK INTRA:                   0.640
REMARK UNBOUND:                 0.626
REMARK SMILES C=C1[C@@H]2CC[C@H]3[C@@H]2C(C)(C)CCC[C@@]13C
REMARK SMILES IDX 14 1 6 2 7 3 3 4 2 5 1 6 4 7 5 8 15 9 8 10 9 11 10 12 11 13
REMARK SMILES IDX 13 15 12 16
REMARK H PARENT
REMARK Flexibility Score: 80.00
ROOT
ATOM      1  C   UNL     1     143.130 146.373 162.290  1.00  0.00    -0.008 C 
ATOM      2  C   UNL     1     142.159 147.617 162.265  1.00  0.00     0.003 C 
ATOM      3  C   UNL     1     140.937 147.175 163.096  1.00  0.00     0.006 C 
ATOM      4  C   UNL     1     140.737 145.885 162.300  1.00  0.00     0.019 C 
ATOM      5  C   UNL     1     142.107 145.267 162.355  1.00  0.00    -0.068 C 
ATOM      6  C   UNL     1     142.357 143.952 162.366  1.00  0.00     0.009 C 
ATOM      7  C   UNL     1     140.565 146.446 160.868  1.00  0.00     0.008 C 
ATOM      8  C   UNL     1     141.467 147.706 160.876  1.00  0.00     0.005 C 
ATOM      9  C   UNL     1     144.001 146.239 161.011  1.00  0.00     0.016 C 
ENDROOT
BRANCH   3  10
ATOM     10  C   UNL     1     141.035 147.120 164.681  1.00  0.00    -0.032 C 
ATOM     11  C   UNL     1     140.252 148.337 165.249  1.00  0.00     0.011 C 
ATOM     12  C   UNL     1     140.338 145.857 165.250  1.00  0.00     0.011 C 
BRANCH  10  13
ATOM     13  C   UNL     1     142.475 147.254 165.254  1.00  0.00     0.007 CG0
ATOM     14  G   UNL     1     143.452 146.150 164.864  1.00  0.00     0.000 G0
ENDBRANCH  10  13
ENDBRANCH   3  10
BRANCH   1  15
ATOM     15  C   UNL     1     144.095 146.387 163.507  1.00  0.00     0.011 C 
BRANCH  15  16
ATOM     16  C   UNL     1     143.452 146.151 164.871  1.00  0.00     0.001 CG0
ATOM     17  G   UNL     1     142.466 147.252 165.250  1.00  0.00     0.000 G0
ENDBRANCH  15  16
ENDBRANCH   1  15
TORSDOF 0
ENDMDL
MODEL 4
REMARK VINA RESULT:    -4.772      5.548      7.760
REMARK INTER + INTRA:          -5.262
REMARK INTER:                  -5.897
REMARK INTRA:                   0.635
REMARK UNBOUND:                 0.626
REMARK SMILES C=C1[C@@H]2CC[C@H]3[C@@H]2C(C)(C)CCC[C@@]13C
REMARK SMILES IDX 14 1 6 2 7 3 3 4 2 5 1 6 4 7 5 8 15 9 8 10 9 11 10 12 11 13
REMARK SMILES IDX 13 15 12 16
REMARK H PARENT
REMARK Flexibility Score: 80.00
ROOT
ATOM      1  C   UNL     1     144.364 143.104 162.274  1.00  0.00    -0.008 C 
ATOM      2  C   UNL     1     143.166 142.077 162.242  1.00  0.00     0.003 C 
ATOM      3  C   UNL     1     143.656 140.878 163.081  1.00  0.00     0.006 C 
ATOM      4  C   UNL     1     144.960 140.735 162.295  1.00  0.00     0.019 C 
ATOM      5  C   UNL     1     145.515 142.132 162.352  1.00  0.00    -0.068 C 
ATOM      6  C   UNL     1     146.817 142.442 162.372  1.00  0.00     0.009 C 
ATOM      7  C   UNL     1     144.419 140.533 160.860  1.00  0.00     0.008 C 
ATOM      8  C   UNL     1     143.119 141.377 160.855  1.00  0.00     0.005 C 
ATOM      9  C   UNL     1     144.468 143.976 160.994  1.00  0.00     0.016 C 
ENDROOT
BRANCH   3  10
ATOM     10  C   UNL     1     143.694 140.983 164.666  1.00  0.00    -0.032 C 
ATOM     11  C   UNL     1     142.508 140.149 165.227  1.00  0.00     0.011 C 
ATOM     12  C   UNL     1     144.982 140.345 165.247  1.00  0.00     0.011 C 
BRANCH  10  13
ATOM     13  C   UNL     1     143.492 142.417 165.234  1.00  0.00     0.007 CG0
ATOM     14  G   UNL     1     144.558 143.440 164.854  1.00  0.00     0.000 G0
ENDBRANCH  10  13
ENDBRANCH   3  10
BRANCH   1  15
ATOM     15  C   UNL     1     144.296 144.070 163.488  1.00  0.00     0.011 C 
BRANCH  15  16
ATOM     16  C   UNL     1     144.555 143.443 164.855  1.00  0.00     0.001 CG0
ATOM     17  G   UNL     1     143.491 142.419 165.239  1.00  0.00     0.000 G0
ENDBRANCH  15  16
ENDBRANCH   1  15
TORSDOF 0
ENDMDL
MODEL 5
REMARK VINA RESULT:    -4.694      3.841      6.059
REMARK INTER + INTRA:          -5.165
REMARK INTER:                  -5.806
REMARK INTRA:                   0.640
REMARK UNBOUND:                 0.626
REMARK SMILES C=C1[C@@H]2CC[C@H]3[C@@H]2C(C)(C)CCC[C@@]13C
REMARK SMILES IDX 14 1 6 2 7 3 3 4 2 5 1 6 4 7 5 8 15 9 8 10 9 11 10 12 11 13
REMARK SMILES IDX 13 15 12 16
REMARK H PARENT
REMARK Flexibility Score: 80.00
ROOT
ATOM      1  C   UNL     1     141.882 147.014 164.368  1.00  0.00    -0.008 C 
ATOM      2  C   UNL     1     141.201 145.600 164.544  1.00  0.00     0.003 C 
ATOM      3  C   UNL     1     141.914 144.693 163.520  1.00  0.00     0.006 C 
ATOM      4  C   UNL     1     141.670 145.649 162.353  1.00  0.00     0.019 C 
ATOM      5  C   UNL     1     142.200 146.948 162.896  1.00  0.00    -0.068 C 
ATOM      6  C   UNL     1     142.772 147.911 162.162  1.00  0.00     0.009 C 
ATOM      7  C   UNL     1     140.127 145.758 162.379  1.00  0.00     0.008 C 
ATOM      8  C   UNL     1     139.792 145.618 163.886  1.00  0.00     0.005 C 
ATOM      9  C   UNL     1     140.931 148.203 164.671  1.00  0.00     0.016 C 
ENDROOT
BRANCH   3  10
ATOM     10  C   UNL     1     143.384 144.165 163.818  1.00  0.00    -0.032 C 
ATOM     11  C   UNL     1     143.281 142.665 164.210  1.00  0.00     0.011 C 
ATOM     12  C   UNL     1     144.275 144.220 162.550  1.00  0.00     0.011 C 
BRANCH  10  13
ATOM     13  C   UNL     1     144.097 144.854 165.017  1.00  0.00     0.007 CG0
ATOM     14  G   UNL     1     144.352 146.351 164.869  1.00  0.00     0.000 G0
ENDBRANCH  10  13
ENDBRANCH   3  10
BRANCH   1  15
ATOM     15  C   UNL     1     143.141 147.189 165.260  1.00  0.00     0.011 C 
BRANCH  15  16
ATOM     16  C   UNL     1     144.355 146.348 164.874  1.00  0.00     0.001 CG0
ATOM     17  G   UNL     1     144.093 144.851 165.007  1.00  0.00     0.000 G0
ENDBRANCH  15  16
ENDBRANCH   1  15
TORSDOF 0
ENDMDL
MODEL 6
REMARK VINA RESULT:    -4.577      3.948      6.219
REMARK INTER + INTRA:          -5.021
REMARK INTER:                  -5.661
REMARK INTRA:                   0.640
REMARK UNBOUND:                 0.626
REMARK SMILES C=C1[C@@H]2CC[C@H]3[C@@H]2C(C)(C)CCC[C@@]13C
REMARK SMILES IDX 14 1 6 2 7 3 3 4 2 5 1 6 4 7 5 8 15 9 8 10 9 11 10 12 11 13
REMARK SMILES IDX 13 15 12 16
REMARK H PARENT
REMARK Flexibility Score: 80.00
ROOT
ATOM      1  C   UNL     1     142.422 145.232 163.530  1.00  0.00    -0.008 C 
ATOM      2  C   UNL     1     141.007 145.703 163.013  1.00  0.00     0.003 C 
ATOM      3  C   UNL     1     141.259 147.097 162.402  1.00  0.00     0.006 C 
ATOM      4  C   UNL     1     141.962 147.627 163.652  1.00  0.00     0.019 C 
ATOM      5  C   UNL     1     143.006 146.573 163.895  1.00  0.00    -0.068 C 
ATOM      6  C   UNL     1     144.212 146.794 164.434  1.00  0.00     0.009 C 
ATOM      7  C   UNL     1     140.863 147.415 164.720  1.00  0.00     0.008 C 
ATOM      8  C   UNL     1     140.133 146.142 164.221  1.00  0.00     0.005 C 
ATOM      9  C   UNL     1     142.350 144.307 164.775  1.00  0.00     0.016 C 
ENDROOT
BRANCH   3  10
ATOM     10  C   UNL     1     141.964 147.225 160.983  1.00  0.00    -0.032 C 
ATOM     11  C   UNL     1     140.875 147.607 159.942  1.00  0.00     0.011 C 
ATOM     12  C   UNL     1     143.000 148.378 160.965  1.00  0.00     0.011 C 
BRANCH  10  13
ATOM     13  C   UNL     1     142.601 145.910 160.447  1.00  0.00     0.007 CG0
ATOM     14  G   UNL     1     143.738 145.332 161.283  1.00  0.00     0.000 G0
ENDBRANCH  10  13
ENDBRANCH   3  10
BRANCH   1  15
ATOM     15  C   UNL     1     143.240 144.483 162.443  1.00  0.00     0.011 C 
BRANCH  15  16
ATOM     16  C   UNL     1     143.739 145.333 161.279  1.00  0.00     0.001 CG0
ATOM     17  G   UNL     1     142.598 145.906 160.444  1.00  0.00     0.000 G0
ENDBRANCH  15  16
ENDBRANCH   1  15
TORSDOF 0
ENDMDL
MODEL 7
REMARK VINA RESULT:    -4.572      1.783      3.788
REMARK INTER + INTRA:          -5.015
REMARK INTER:                  -5.653
REMARK INTRA:                   0.638
REMARK UNBOUND:                 0.626
REMARK SMILES C=C1[C@@H]2CC[C@H]3[C@@H]2C(C)(C)CCC[C@@]13C
REMARK SMILES IDX 14 1 6 2 7 3 3 4 2 5 1 6 4 7 5 8 15 9 8 10 9 11 10 12 11 13
REMARK SMILES IDX 13 15 12 16
REMARK H PARENT
REMARK Flexibility Score: 80.00
ROOT
ATOM      1  C   UNL     1     145.245 148.311 163.573  1.00  0.00    -0.008 C 
ATOM      2  C   UNL     1     145.681 149.732 163.040  1.00  0.00     0.003 C 
ATOM      3  C   UNL     1     147.088 149.511 162.448  1.00  0.00     0.006 C 
ATOM      4  C   UNL     1     147.625 148.842 163.713  1.00  0.00     0.019 C 
ATOM      5  C   UNL     1     146.598 147.772 163.961  1.00  0.00    -0.068 C 
ATOM      6  C   UNL     1     146.849 146.581 164.520  1.00  0.00     0.009 C 
ATOM      7  C   UNL     1     147.369 149.950 164.763  1.00  0.00     0.008 C 
ATOM      8  C   UNL     1     146.081 150.636 164.240  1.00  0.00     0.005 C 
ATOM      9  C   UNL     1     144.305 148.374 164.807  1.00  0.00     0.016 C 
ENDROOT
BRANCH   3  10
ATOM     10  C   UNL     1     147.251 148.790 161.041  1.00  0.00    -0.032 C 
ATOM     11  C   UNL     1     147.617 149.874 159.989  1.00  0.00     0.011 C 
ATOM     12  C   UNL     1     148.432 147.785 161.051  1.00  0.00     0.011 C 
BRANCH  10  13
ATOM     13  C   UNL     1     145.961 148.111 160.499  1.00  0.00     0.007 CG0
ATOM     14  G   UNL     1     145.402 146.971 161.346  1.00  0.00     0.000 G0
ENDBRANCH  10  13
ENDBRANCH   3  10
BRANCH   1  15
ATOM     15  C   UNL     1     144.532 147.456 162.491  1.00  0.00     0.011 C 
BRANCH  15  16
ATOM     16  C   UNL     1     145.408 146.968 161.341  1.00  0.00     0.001 CG0
ATOM     17  G   UNL     1     145.961 148.115 160.501  1.00  0.00     0.000 G0
ENDBRANCH  15  16
ENDBRANCH   1  15
TORSDOF 0
ENDMDL
MODEL 8
REMARK VINA RESULT:    -4.568      5.604      7.947
REMARK INTER + INTRA:          -5.010
REMARK INTER:                  -5.649
REMARK INTRA:                   0.639
REMARK UNBOUND:                 0.626
REMARK SMILES C=C1[C@@H]2CC[C@H]3[C@@H]2C(C)(C)CCC[C@@]13C
REMARK SMILES IDX 14 1 6 2 7 3 3 4 2 5 1 6 4 7 5 8 15 9 8 10 9 11 10 12 11 13
REMARK SMILES IDX 13 15 12 16
REMARK H PARENT
REMARK Flexibility Score: 80.00
ROOT
ATOM      1  C   UNL     1     145.521 142.416 163.553  1.00  0.00    -0.008 C 
ATOM      2  C   UNL     1     145.046 141.002 163.036  1.00  0.00     0.003 C 
ATOM      3  C   UNL     1     143.650 141.256 162.431  1.00  0.00     0.006 C 
ATOM      4  C   UNL     1     143.125 141.958 163.683  1.00  0.00     0.019 C 
ATOM      5  C   UNL     1     144.181 143.001 163.924  1.00  0.00    -0.068 C 
ATOM      6  C   UNL     1     143.963 144.206 164.464  1.00  0.00     0.009 C 
ATOM      7  C   UNL     1     143.341 140.858 164.750  1.00  0.00     0.008 C 
ATOM      8  C   UNL     1     144.612 140.127 164.245  1.00  0.00     0.005 C 
ATOM      9  C   UNL     1     146.450 142.343 164.794  1.00  0.00     0.016 C 
ENDROOT
BRANCH   3  10
ATOM     10  C   UNL     1     143.518 141.962 161.013  1.00  0.00    -0.032 C 
ATOM     11  C   UNL     1     143.125 140.875 159.974  1.00  0.00     0.011 C 
ATOM     12  C   UNL     1     142.369 143.003 161.002  1.00  0.00     0.011 C 
BRANCH  10  13
ATOM     13  C   UNL     1     144.831 142.593 160.470  1.00  0.00     0.007 CG0
ATOM     14  G   UNL     1     145.412 143.736 161.297  1.00  0.00     0.000 G0
ENDBRANCH  10  13
ENDBRANCH   3  10
BRANCH   1  15
ATOM     15  C   UNL     1     146.266 143.235 162.464  1.00  0.00     0.011 C 
BRANCH  15  16
ATOM     16  C   UNL     1     145.411 143.734 161.302  1.00  0.00     0.001 CG0
ATOM     17  G   UNL     1     144.830 142.593 160.473  1.00  0.00     0.000 G0
ENDBRANCH  15  16
ENDBRANCH   1  15
TORSDOF 0
ENDMDL
MODEL 9
REMARK VINA RESULT:    -4.555      3.839      6.232
REMARK INTER + INTRA:          -4.994
REMARK INTER:                  -5.638
REMARK INTRA:                   0.644
REMARK UNBOUND:                 0.626
REMARK SMILES C=C1[C@@H]2CC[C@H]3[C@@H]2C(C)(C)CCC[C@@]13C
REMARK SMILES IDX 14 1 6 2 7 3 3 4 2 5 1 6 4 7 5 8 15 9 8 10 9 11 10 12 11 13
REMARK SMILES IDX 13 15 12 16
REMARK H PARENT
REMARK Flexibility Score: 80.00
ROOT
ATOM      1  C   UNL     1     148.312 145.525 163.570  1.00  0.00    -0.008 C 
ATOM      2  C   UNL     1     149.729 145.055 163.057  1.00  0.00     0.003 C 
ATOM      3  C   UNL     1     149.481 143.657 162.454  1.00  0.00     0.006 C 
ATOM      4  C   UNL     1     148.780 143.132 163.707  1.00  0.00     0.019 C 
ATOM      5  C   UNL     1     147.732 144.184 163.944  1.00  0.00    -0.068 C 
ATOM      6  C   UNL     1     146.526 143.962 164.483  1.00  0.00     0.009 C 
ATOM      7  C   UNL     1     149.877 143.355 164.775  1.00  0.00     0.008 C 
ATOM      8  C   UNL     1     150.603 144.627 164.269  1.00  0.00     0.005 C 
ATOM      9  C   UNL     1     148.379 146.458 164.810  1.00  0.00     0.016 C 
ENDROOT
BRANCH   3  10
ATOM     10  C   UNL     1     148.778 143.519 161.036  1.00  0.00    -0.032 C 
ATOM     11  C   UNL     1     149.868 143.125 160.000  1.00  0.00     0.011 C 
ATOM     12  C   UNL     1     147.739 142.368 161.027  1.00  0.00     0.011 C 
BRANCH  10  13
ATOM     13  C   UNL     1     148.145 144.829 160.487  1.00  0.00     0.007 CG0
ATOM     14  G   UNL     1     147.004 145.415 161.314  1.00  0.00     0.000 G0
ENDBRANCH  10  13
ENDBRANCH   3  10
BRANCH   1  15
ATOM     15  C   UNL     1     147.492 146.265 162.479  1.00  0.00     0.011 C 
BRANCH  15  16
ATOM     16  C   UNL     1     146.999 145.406 161.317  1.00  0.00     0.001 CG0
ATOM     17  G   UNL     1     148.145 144.833 160.489  1.00  0.00     0.000 G0
ENDBRANCH  15  16
ENDBRANCH   1  15
TORSDOF 0
ENDMDL
