MODEL 1
REMARK VINA RESULT:    -7.616      0.000      0.000
REMARK INTER + INTRA:          -9.218
REMARK INTER:                  -8.951
REMARK INTRA:                  -0.266
REMARK UNBOUND:                -0.266
REMARK SMILES O=c1cc(-c2ccc(O)c(O)c2)oc2cc(O)cc(O)c12
REMARK SMILES IDX 4 1 3 2 2 3 1 4 21 5 19 6 18 7 16 8 15 9 14 10 13 11 5 12
REMARK SMILES IDX 6 13 7 14 8 15 12 16 10 17 9 18 11 20 20 22 17 24
REMARK H PARENT 9 19 11 21 20 23 17 25
REMARK Flexibility Score: inf
ROOT
ATOM      1  C   UNL     1      16.992  13.884  17.714  1.00  0.00     0.138 A 
ATOM      2  C   UNL     1      17.322  13.822  16.353  1.00  0.00     0.100 A 
ATOM      3  C   UNL     1      17.641  14.994  15.667  1.00  0.00     0.197 A 
ATOM      4  O   UNL     1      17.873  14.916  14.432  1.00  0.00    -0.289 OA
ATOM      5  C   UNL     1      17.661  16.230  16.356  1.00  0.00     0.107 A 
ATOM      6  C   UNL     1      18.012  17.483  15.769  1.00  0.00     0.134 A 
ATOM      7  C   UNL     1      17.882  18.657  16.522  1.00  0.00     0.093 A 
ATOM      8  C   UNL     1      17.472  18.617  17.857  1.00  0.00     0.123 A 
ATOM      9  C   UNL     1      17.180  17.394  18.454  1.00  0.00     0.094 A 
ATOM     10  C   UNL     1      17.266  16.208  17.721  1.00  0.00     0.146 A 
ATOM     11  O   UNL     1      16.964  15.063  18.325  1.00  0.00    -0.456 OA
ENDROOT
BRANCH   1  12
ATOM     12  C   UNL     1      16.645  12.668  18.492  1.00  0.00     0.021 A 
ATOM     13  C   UNL     1      15.393  12.522  19.119  1.00  0.00     0.016 A 
ATOM     14  C   UNL     1      15.090  11.362  19.836  1.00  0.00     0.051 A 
ATOM     15  C   UNL     1      16.026  10.325  19.933  1.00  0.00     0.157 A 
ATOM     16  C   UNL     1      17.575  11.615  18.583  1.00  0.00     0.062 A 
ATOM     17  C   UNL     1      17.273  10.453  19.302  1.00  0.00     0.158 A 
BRANCH  15  18
ATOM     18  O   UNL     1      15.720   9.169  20.651  1.00  0.00    -0.504 OA
ATOM     19  H   UNL     1      15.171   8.421  20.243  1.00  0.00     0.293 HD
ENDBRANCH  15  18
BRANCH  17  20
ATOM     20  O   UNL     1      18.226   9.437  19.376  1.00  0.00    -0.504 OA
ATOM     21  H   UNL     1      19.182   9.571  19.066  1.00  0.00     0.293 HD
ENDBRANCH  17  20
ENDBRANCH   1  12
BRANCH   6  22
ATOM     22  O   UNL     1      18.512  17.625  14.472  1.00  0.00    -0.507 OA
ATOM     23  H   UNL     1      18.643  16.868  13.818  1.00  0.00     0.293 HD
ENDBRANCH   6  22
BRANCH   8  24
ATOM     24  O   UNL     1      17.361  19.790  18.601  1.00  0.00    -0.508 OA
ATOM     25  H   UNL     1      16.484  20.066  19.027  1.00  0.00     0.293 HD
ENDBRANCH   8  24
TORSDOF 5
ENDMDL
MODEL 2
REMARK VINA RESULT:    -7.337      4.155      7.511
REMARK INTER + INTRA:          -8.890
REMARK INTER:                  -8.605
REMARK INTRA:                  -0.285
REMARK UNBOUND:                -0.266
REMARK SMILES O=c1cc(-c2ccc(O)c(O)c2)oc2cc(O)cc(O)c12
REMARK SMILES IDX 4 1 3 2 2 3 1 4 21 5 19 6 18 7 16 8 15 9 14 10 13 11 5 12
REMARK SMILES IDX 6 13 7 14 8 15 12 16 10 17 9 18 11 20 20 22 17 24
REMARK H PARENT 9 19 11 21 20 23 17 25
REMARK Flexibility Score: inf
ROOT
ATOM      1  C   UNL     1      15.827  19.721  18.850  1.00  0.00     0.138 A 
ATOM      2  C   UNL     1      16.377  20.975  19.154  1.00  0.00     0.100 A 
ATOM      3  C   UNL     1      15.722  21.814  20.056  1.00  0.00     0.197 A 
ATOM      4  O   UNL     1      16.208  22.957  20.262  1.00  0.00    -0.289 OA
ATOM      5  C   UNL     1      14.528  21.384  20.680  1.00  0.00     0.107 A 
ATOM      6  C   UNL     1      13.797  22.138  21.646  1.00  0.00     0.134 A 
ATOM      7  C   UNL     1      12.565  21.657  22.108  1.00  0.00     0.093 A 
ATOM      8  C   UNL     1      12.068  20.423  21.684  1.00  0.00     0.123 A 
ATOM      9  C   UNL     1      12.800  19.654  20.783  1.00  0.00     0.094 A 
ATOM     10  C   UNL     1      14.015  20.121  20.277  1.00  0.00     0.146 A 
ATOM     11  O   UNL     1      14.675  19.362  19.407  1.00  0.00    -0.456 OA
ENDROOT
BRANCH   1  12
ATOM     12  C   UNL     1      16.482  18.788  17.898  1.00  0.00     0.021 A 
ATOM     13  C   UNL     1      16.877  19.200  16.612  1.00  0.00     0.016 A 
ATOM     14  C   UNL     1      17.501  18.303  15.741  1.00  0.00     0.051 A 
ATOM     15  C   UNL     1      17.747  16.984  16.140  1.00  0.00     0.157 A 
ATOM     16  C   UNL     1      16.745  17.465  18.297  1.00  0.00     0.062 A 
ATOM     17  C   UNL     1      17.369  16.565  17.426  1.00  0.00     0.158 A 
BRANCH  15  18
ATOM     18  O   UNL     1      18.369  16.092  15.268  1.00  0.00    -0.504 OA
ATOM     19  H   UNL     1      19.378  16.038  15.194  1.00  0.00     0.293 HD
ENDBRANCH  15  18
BRANCH  17  20
ATOM     20  O   UNL     1      17.603  15.259  17.856  1.00  0.00    -0.504 OA
ATOM     21  H   UNL     1      17.901  14.528  17.220  1.00  0.00     0.293 HD
ENDBRANCH  17  20
ENDBRANCH   1  12
BRANCH   6  22
ATOM     22  O   UNL     1      14.245  23.342  22.198  1.00  0.00    -0.507 OA
ATOM     23  H   UNL     1      13.672  23.982  22.727  1.00  0.00     0.293 HD
ENDBRANCH   6  22
BRANCH   8  24
ATOM     24  O   UNL     1      10.848  19.946  22.162  1.00  0.00    -0.508 OA
ATOM     25  H   UNL     1      10.754  19.582  23.103  1.00  0.00     0.293 HD
ENDBRANCH   8  24
TORSDOF 5
ENDMDL
MODEL 3
REMARK VINA RESULT:    -7.163      2.875      8.029
REMARK INTER + INTRA:          -8.686
REMARK INTER:                  -8.369
REMARK INTRA:                  -0.317
REMARK UNBOUND:                -0.266
REMARK SMILES O=c1cc(-c2ccc(O)c(O)c2)oc2cc(O)cc(O)c12
REMARK SMILES IDX 4 1 3 2 2 3 1 4 21 5 19 6 18 7 16 8 15 9 14 10 13 11 5 12
REMARK SMILES IDX 6 13 7 14 8 15 12 16 10 17 9 18 11 20 20 22 17 24
REMARK H PARENT 9 19 11 21 20 23 17 25
REMARK Flexibility Score: inf
ROOT
ATOM      1  C   UNL     1      16.762  19.584  17.741  1.00  0.00     0.138 A 
ATOM      2  C   UNL     1      17.262  19.282  16.467  1.00  0.00     0.100 A 
ATOM      3  C   UNL     1      17.499  17.953  16.115  1.00  0.00     0.197 A 
ATOM      4  O   UNL     1      18.005  17.719  14.987  1.00  0.00    -0.289 OA
ATOM      5  C   UNL     1      17.203  16.918  17.034  1.00  0.00     0.107 A 
ATOM      6  C   UNL     1      17.366  15.525  16.771  1.00  0.00     0.134 A 
ATOM      7  C   UNL     1      17.151  14.599  17.799  1.00  0.00     0.093 A 
ATOM      8  C   UNL     1      16.722  15.011  19.063  1.00  0.00     0.123 A 
ATOM      9  C   UNL     1      16.509  16.364  19.314  1.00  0.00     0.094 A 
ATOM     10  C   UNL     1      16.747  17.316  18.320  1.00  0.00     0.146 A 
ATOM     11  O   UNL     1      16.545  18.598  18.606  1.00  0.00    -0.456 OA
ENDROOT
BRANCH   1  12
ATOM     12  C   UNL     1      16.491  20.980  18.167  1.00  0.00     0.021 A 
ATOM     13  C   UNL     1      16.487  22.046  17.248  1.00  0.00     0.016 A 
ATOM     14  C   UNL     1      16.218  23.349  17.675  1.00  0.00     0.051 A 
ATOM     15  C   UNL     1      15.943  23.610  19.023  1.00  0.00     0.157 A 
ATOM     16  C   UNL     1      16.200  21.249  19.518  1.00  0.00     0.062 A 
ATOM     17  C   UNL     1      15.932  22.553  19.947  1.00  0.00     0.158 A 
BRANCH  15  18
ATOM     18  O   UNL     1      15.677  24.911  19.446  1.00  0.00    -0.504 OA
ATOM     19  H   UNL     1      15.533  25.133  20.424  1.00  0.00     0.293 HD
ENDBRANCH  15  18
BRANCH  17  20
ATOM     20  O   UNL     1      15.657  22.778  21.296  1.00  0.00    -0.504 OA
ATOM     21  H   UNL     1      14.827  23.272  21.601  1.00  0.00     0.293 HD
ENDBRANCH  17  20
ENDBRANCH   1  12
BRANCH   6  22
ATOM     22  O   UNL     1      17.709  15.002  15.520  1.00  0.00    -0.507 OA
ATOM     23  H   UNL     1      17.524  15.452  14.636  1.00  0.00     0.293 HD
ENDBRANCH   6  22
BRANCH   8  24
ATOM     24  O   UNL     1      16.497  14.080  20.075  1.00  0.00    -0.508 OA
ATOM     25  H   UNL     1      15.560  13.856  20.389  1.00  0.00     0.293 HD
ENDBRANCH   8  24
TORSDOF 5
ENDMDL
MODEL 4
REMARK VINA RESULT:    -7.088      2.813      5.162
REMARK INTER + INTRA:          -8.597
REMARK INTER:                  -8.327
REMARK INTRA:                  -0.271
REMARK UNBOUND:                -0.266
REMARK SMILES O=c1cc(-c2ccc(O)c(O)c2)oc2cc(O)cc(O)c12
REMARK SMILES IDX 4 1 3 2 2 3 1 4 21 5 19 6 18 7 16 8 15 9 14 10 13 11 5 12
REMARK SMILES IDX 6 13 7 14 8 15 12 16 10 17 9 18 11 20 20 22 17 24
REMARK H PARENT 9 19 11 21 20 23 17 25
REMARK Flexibility Score: inf
ROOT
ATOM      1  C   UNL     1      18.153  14.555  15.440  1.00  0.00     0.138 A 
ATOM      2  C   UNL     1      17.830  13.987  16.681  1.00  0.00     0.100 A 
ATOM      3  C   UNL     1      17.332  14.798  17.702  1.00  0.00     0.197 A 
ATOM      4  O   UNL     1      17.110  14.271  18.823  1.00  0.00    -0.289 OA
ATOM      5  C   UNL     1      17.126  16.178  17.468  1.00  0.00     0.107 A 
ATOM      6  C   UNL     1      16.586  17.093  18.421  1.00  0.00     0.134 A 
ATOM      7  C   UNL     1      16.537  18.459  18.115  1.00  0.00     0.093 A 
ATOM      8  C   UNL     1      16.954  18.934  16.869  1.00  0.00     0.123 A 
ATOM      9  C   UNL     1      17.433  18.043  15.913  1.00  0.00     0.094 A 
ATOM     10  C   UNL     1      17.526  16.679  16.200  1.00  0.00     0.146 A 
ATOM     11  O   UNL     1      18.002  15.864  15.264  1.00  0.00    -0.456 OA
ENDROOT
BRANCH   1  12
ATOM     12  C   UNL     1      18.685  13.739  14.320  1.00  0.00     0.021 A 
ATOM     13  C   UNL     1      18.125  13.798  13.030  1.00  0.00     0.016 A 
ATOM     14  C   UNL     1      18.654  13.027  11.992  1.00  0.00     0.051 A 
ATOM     15  C   UNL     1      19.752  12.190  12.221  1.00  0.00     0.157 A 
ATOM     16  C   UNL     1      19.798  12.906  14.538  1.00  0.00     0.062 A 
ATOM     17  C   UNL     1      20.327  12.132  13.500  1.00  0.00     0.158 A 
BRANCH  15  18
ATOM     18  O   UNL     1      20.276  11.421  11.182  1.00  0.00    -0.504 OA
ATOM     19  H   UNL     1      19.712  11.153  10.383  1.00  0.00     0.293 HD
ENDBRANCH  15  18
BRANCH  17  20
ATOM     20  O   UNL     1      21.425  11.311  13.760  1.00  0.00    -0.504 OA
ATOM     21  H   UNL     1      22.322  11.453  13.309  1.00  0.00     0.293 HD
ENDBRANCH  17  20
ENDBRANCH   1  12
BRANCH   6  22
ATOM     22  O   UNL     1      16.063  16.711  19.660  1.00  0.00    -0.507 OA
ATOM     23  H   UNL     1      15.356  16.006  19.795  1.00  0.00     0.293 HD
ENDBRANCH   6  22
BRANCH   8  24
ATOM     24  O   UNL     1      16.887  20.294  16.570  1.00  0.00    -0.508 OA
ATOM     25  H   UNL     1      17.720  20.869  16.533  1.00  0.00     0.293 HD
ENDBRANCH   8  24
TORSDOF 5
ENDMDL
MODEL 5
REMARK VINA RESULT:    -6.956      2.825      8.017
REMARK INTER + INTRA:          -8.442
REMARK INTER:                  -8.124
REMARK INTRA:                  -0.318
REMARK UNBOUND:                -0.266
REMARK SMILES O=c1cc(-c2ccc(O)c(O)c2)oc2cc(O)cc(O)c12
REMARK SMILES IDX 4 1 3 2 2 3 1 4 21 5 19 6 18 7 16 8 15 9 14 10 13 11 5 12
REMARK SMILES IDX 6 13 7 14 8 15 12 16 10 17 9 18 11 20 20 22 17 24
REMARK H PARENT 9 19 11 21 20 23 17 25
REMARK Flexibility Score: inf
ROOT
ATOM      1  C   UNL     1      16.756  18.751  17.936  1.00  0.00     0.138 A 
ATOM      2  C   UNL     1      16.498  17.919  19.035  1.00  0.00     0.100 A 
ATOM      3  C   UNL     1      16.700  16.544  18.920  1.00  0.00     0.197 A 
ATOM      4  O   UNL     1      16.402  15.816  19.903  1.00  0.00    -0.289 OA
ATOM      5  C   UNL     1      17.194  16.002  17.710  1.00  0.00     0.107 A 
ATOM      6  C   UNL     1      17.476  14.621  17.491  1.00  0.00     0.134 A 
ATOM      7  C   UNL     1      17.851  14.187  16.214  1.00  0.00     0.093 A 
ATOM      8  C   UNL     1      18.009  15.092  15.162  1.00  0.00     0.123 A 
ATOM      9  C   UNL     1      17.788  16.450  15.378  1.00  0.00     0.094 A 
ATOM     10  C   UNL     1      17.381  16.910  16.633  1.00  0.00     0.146 A 
ATOM     11  O   UNL     1      17.166  18.213  16.793  1.00  0.00    -0.456 OA
ENDROOT
BRANCH   1  12
ATOM     12  C   UNL     1      16.559  20.221  18.004  1.00  0.00     0.021 A 
ATOM     13  C   UNL     1      16.168  20.862  19.194  1.00  0.00     0.016 A 
ATOM     14  C   UNL     1      16.000  22.249  19.231  1.00  0.00     0.051 A 
ATOM     15  C   UNL     1      16.226  23.020  18.084  1.00  0.00     0.157 A 
ATOM     16  C   UNL     1      16.798  21.005  16.859  1.00  0.00     0.062 A 
ATOM     17  C   UNL     1      16.629  22.393  16.894  1.00  0.00     0.158 A 
BRANCH  15  18
ATOM     18  O   UNL     1      16.056  24.403  18.125  1.00  0.00    -0.504 OA
ATOM     19  H   UNL     1      16.738  25.009  18.568  1.00  0.00     0.293 HD
ENDBRANCH  15  18
BRANCH  17  20
ATOM     20  O   UNL     1      16.866  23.133  15.736  1.00  0.00    -0.504 OA
ATOM     21  H   UNL     1      16.700  22.753  14.811  1.00  0.00     0.293 HD
ENDBRANCH  17  20
ENDBRANCH   1  12
BRANCH   6  22
ATOM     22  O   UNL     1      17.431  13.647  18.494  1.00  0.00    -0.507 OA
ATOM     23  H   UNL     1      17.955  13.680  19.355  1.00  0.00     0.293 HD
ENDBRANCH   6  22
BRANCH   8  24
ATOM     24  O   UNL     1      18.396  14.652  13.898  1.00  0.00    -0.508 OA
ATOM     25  H   UNL     1      18.071  13.769  13.522  1.00  0.00     0.293 HD
ENDBRANCH   8  24
TORSDOF 5
ENDMDL
MODEL 6
REMARK VINA RESULT:    -6.948      2.646      6.965
REMARK INTER + INTRA:          -8.433
REMARK INTER:                  -8.147
REMARK INTRA:                  -0.286
REMARK UNBOUND:                -0.266
REMARK SMILES O=c1cc(-c2ccc(O)c(O)c2)oc2cc(O)cc(O)c12
REMARK SMILES IDX 4 1 3 2 2 3 1 4 21 5 19 6 18 7 16 8 15 9 14 10 13 11 5 12
REMARK SMILES IDX 6 13 7 14 8 15 12 16 10 17 9 18 11 20 20 22 17 24
REMARK H PARENT 9 19 11 21 20 23 17 25
REMARK Flexibility Score: inf
ROOT
ATOM      1  C   UNL     1      17.305  16.323  16.659  1.00  0.00     0.138 A 
ATOM      2  C   UNL     1      17.241  15.255  17.566  1.00  0.00     0.100 A 
ATOM      3  C   UNL     1      17.505  13.959  17.125  1.00  0.00     0.197 A 
ATOM      4  O   UNL     1      17.380  13.015  17.948  1.00  0.00    -0.289 OA
ATOM      5  C   UNL     1      17.865  13.733  15.775  1.00  0.00     0.107 A 
ATOM      6  C   UNL     1      18.195  12.460  15.223  1.00  0.00     0.134 A 
ATOM      7  C   UNL     1      18.422  12.343  13.846  1.00  0.00     0.093 A 
ATOM      8  C   UNL     1      18.390  13.463  13.012  1.00  0.00     0.123 A 
ATOM      9  C   UNL     1      18.122  14.719  13.550  1.00  0.00     0.094 A 
ATOM     10  C   UNL     1      17.857  14.864  14.914  1.00  0.00     0.146 A 
ATOM     11  O   UNL     1      17.591  16.078  15.384  1.00  0.00    -0.456 OA
ENDROOT
BRANCH   1  12
ATOM     12  C   UNL     1      17.035  17.722  17.075  1.00  0.00     0.021 A 
ATOM     13  C   UNL     1      17.619  18.817  16.411  1.00  0.00     0.016 A 
ATOM     14  C   UNL     1      17.338  20.124  16.818  1.00  0.00     0.051 A 
ATOM     15  C   UNL     1      16.466  20.361  17.887  1.00  0.00     0.157 A 
ATOM     16  C   UNL     1      16.148  17.969  18.140  1.00  0.00     0.062 A 
ATOM     17  C   UNL     1      15.867  19.277  18.549  1.00  0.00     0.158 A 
BRANCH  15  18
ATOM     18  O   UNL     1      16.189  21.667  18.290  1.00  0.00    -0.504 OA
ATOM     19  H   UNL     1      15.755  21.865  19.185  1.00  0.00     0.293 HD
ENDBRANCH  15  18
BRANCH  17  20
ATOM     20  O   UNL     1      14.990  19.479  19.614  1.00  0.00    -0.504 OA
ATOM     21  H   UNL     1      14.171  20.071  19.533  1.00  0.00     0.293 HD
ENDBRANCH  17  20
ENDBRANCH   1  12
BRANCH   6  22
ATOM     22  O   UNL     1      18.337  11.293  15.981  1.00  0.00    -0.507 OA
ATOM     23  H   UNL     1      18.158  11.223  16.971  1.00  0.00     0.293 HD
ENDBRANCH   6  22
BRANCH   8  24
ATOM     24  O   UNL     1      18.632  13.338  11.645  1.00  0.00    -0.508 OA
ATOM     25  H   UNL     1      18.622  14.143  11.030  1.00  0.00     0.293 HD
ENDBRANCH   8  24
TORSDOF 5
ENDMDL
MODEL 7
REMARK VINA RESULT:    -6.847      5.089      8.643
REMARK INTER + INTRA:          -8.314
REMARK INTER:                  -8.011
REMARK INTRA:                  -0.303
REMARK UNBOUND:                -0.266
REMARK SMILES O=c1cc(-c2ccc(O)c(O)c2)oc2cc(O)cc(O)c12
REMARK SMILES IDX 4 1 3 2 2 3 1 4 21 5 19 6 18 7 16 8 15 9 14 10 13 11 5 12
REMARK SMILES IDX 6 13 7 14 8 15 12 16 10 17 9 18 11 20 20 22 17 24
REMARK H PARENT 9 19 11 21 20 23 17 25
REMARK Flexibility Score: inf
ROOT
ATOM      1  C   UNL     1      16.448  21.885  18.974  1.00  0.00     0.138 A 
ATOM      2  C   UNL     1      16.042  23.034  18.280  1.00  0.00     0.100 A 
ATOM      3  C   UNL     1      16.056  24.270  18.926  1.00  0.00     0.197 A 
ATOM      4  O   UNL     1      15.628  25.273  18.298  1.00  0.00    -0.289 OA
ATOM      5  C   UNL     1      16.510  24.361  20.263  1.00  0.00     0.107 A 
ATOM      6  C   UNL     1      16.607  25.574  21.009  1.00  0.00     0.134 A 
ATOM      7  C   UNL     1      16.959  25.525  22.363  1.00  0.00     0.093 A 
ATOM      8  C   UNL     1      17.276  24.313  22.983  1.00  0.00     0.123 A 
ATOM      9  C   UNL     1      17.237  23.130  22.250  1.00  0.00     0.094 A 
ATOM     10  C   UNL     1      16.855  23.141  20.906  1.00  0.00     0.146 A 
ATOM     11  O   UNL     1      16.817  21.988  20.246  1.00  0.00    -0.456 OA
ENDROOT
BRANCH   1  12
ATOM     12  C   UNL     1      16.453  20.544  18.335  1.00  0.00     0.021 A 
ATOM     13  C   UNL     1      16.780  20.373  16.977  1.00  0.00     0.016 A 
ATOM     14  C   UNL     1      16.787  19.098  16.405  1.00  0.00     0.051 A 
ATOM     15  C   UNL     1      16.475  17.974  17.178  1.00  0.00     0.157 A 
ATOM     16  C   UNL     1      16.154  19.407  19.108  1.00  0.00     0.062 A 
ATOM     17  C   UNL     1      16.159  18.130  18.537  1.00  0.00     0.158 A 
BRANCH  15  18
ATOM     18  O   UNL     1      16.482  16.704  16.603  1.00  0.00    -0.504 OA
ATOM     19  H   UNL     1      16.618  15.869  17.161  1.00  0.00     0.293 HD
ENDBRANCH  15  18
BRANCH  17  20
ATOM     20  O   UNL     1      15.848  17.030  19.335  1.00  0.00    -0.504 OA
ATOM     21  H   UNL     1      14.926  16.900  19.737  1.00  0.00     0.293 HD
ENDBRANCH  17  20
ENDBRANCH   1  12
BRANCH   6  22
ATOM     22  O   UNL     1      16.394  26.844  20.464  1.00  0.00    -0.507 OA
ATOM     23  H   UNL     1      16.459  27.710  20.978  1.00  0.00     0.293 HD
ENDBRANCH   6  22
BRANCH   8  24
ATOM     24  O   UNL     1      17.640  24.277  24.327  1.00  0.00    -0.508 OA
ATOM     25  H   UNL     1      16.964  24.440  25.064  1.00  0.00     0.293 HD
ENDBRANCH   8  24
TORSDOF 5
ENDMDL
MODEL 8
REMARK VINA RESULT:    -6.844      1.719      6.836
REMARK INTER + INTRA:          -8.311
REMARK INTER:                  -8.003
REMARK INTRA:                  -0.308
REMARK UNBOUND:                -0.266
REMARK SMILES O=c1cc(-c2ccc(O)c(O)c2)oc2cc(O)cc(O)c12
REMARK SMILES IDX 4 1 3 2 2 3 1 4 21 5 19 6 18 7 16 8 15 9 14 10 13 11 5 12
REMARK SMILES IDX 6 13 7 14 8 15 12 16 10 17 9 18 11 20 20 22 17 24
REMARK H PARENT 9 19 11 21 20 23 17 25
REMARK Flexibility Score: inf
ROOT
ATOM      1  C   UNL     1      17.122  16.243  17.294  1.00  0.00     0.138 A 
ATOM      2  C   UNL     1      17.400  15.680  16.040  1.00  0.00     0.100 A 
ATOM      3  C   UNL     1      17.599  14.304  15.931  1.00  0.00     0.197 A 
ATOM      4  O   UNL     1      17.907  13.836  14.803  1.00  0.00    -0.289 OA
ATOM      5  C   UNL     1      17.488  13.482  17.078  1.00  0.00     0.107 A 
ATOM      6  C   UNL     1      17.631  12.063  17.079  1.00  0.00     0.134 A 
ATOM      7  C   UNL     1      17.616  11.369  18.295  1.00  0.00     0.093 A 
ATOM      8  C   UNL     1      17.404  12.037  19.504  1.00  0.00     0.123 A 
ATOM      9  C   UNL     1      17.210  13.416  19.508  1.00  0.00     0.094 A 
ATOM     10  C   UNL     1      17.254  14.141  18.315  1.00  0.00     0.146 A 
ATOM     11  O   UNL     1      17.078  15.458  18.365  1.00  0.00    -0.456 OA
ENDROOT
BRANCH   1  12
ATOM     12  C   UNL     1      16.901  17.701  17.467  1.00  0.00     0.021 A 
ATOM     13  C   UNL     1      17.454  18.644  16.580  1.00  0.00     0.016 A 
ATOM     14  C   UNL     1      17.221  20.009  16.762  1.00  0.00     0.051 A 
ATOM     15  C   UNL     1      16.426  20.457  17.824  1.00  0.00     0.157 A 
ATOM     16  C   UNL     1      16.092  18.158  18.524  1.00  0.00     0.062 A 
ATOM     17  C   UNL     1      15.858  19.525  18.708  1.00  0.00     0.158 A 
BRANCH  15  18
ATOM     18  O   UNL     1      16.197  21.820  18.002  1.00  0.00    -0.504 OA
ATOM     19  H   UNL     1      16.675  22.350  18.722  1.00  0.00     0.293 HD
ENDBRANCH  15  18
BRANCH  17  20
ATOM     20  O   UNL     1      15.059  19.937  19.773  1.00  0.00    -0.504 OA
ATOM     21  H   UNL     1      14.438  19.300  20.259  1.00  0.00     0.293 HD
ENDBRANCH  17  20
ENDBRANCH   1  12
BRANCH   6  22
ATOM     22  O   UNL     1      17.763  11.290  15.921  1.00  0.00    -0.507 OA
ATOM     23  H   UNL     1      17.159  10.523  15.668  1.00  0.00     0.293 HD
ENDBRANCH   6  22
BRANCH   8  24
ATOM     24  O   UNL     1      17.376  11.335  20.708  1.00  0.00    -0.508 OA
ATOM     25  H   UNL     1      16.502  11.051  21.135  1.00  0.00     0.293 HD
ENDBRANCH   8  24
TORSDOF 5
ENDMDL
MODEL 9
REMARK VINA RESULT:    -6.789      2.681      7.175
REMARK INTER + INTRA:          -8.246
REMARK INTER:                  -7.971
REMARK INTRA:                  -0.275
REMARK UNBOUND:                -0.266
REMARK SMILES O=c1cc(-c2ccc(O)c(O)c2)oc2cc(O)cc(O)c12
REMARK SMILES IDX 4 1 3 2 2 3 1 4 21 5 19 6 18 7 16 8 15 9 14 10 13 11 5 12
REMARK SMILES IDX 6 13 7 14 8 15 12 16 10 17 9 18 11 20 20 22 17 24
REMARK H PARENT 9 19 11 21 20 23 17 25
REMARK Flexibility Score: inf
ROOT
ATOM      1  C   UNL     1      16.314  18.453  18.226  1.00  0.00     0.138 A 
ATOM      2  C   UNL     1      16.837  18.694  16.948  1.00  0.00     0.100 A 
ATOM      3  C   UNL     1      17.411  17.645  16.229  1.00  0.00     0.197 A 
ATOM      4  O   UNL     1      17.926  17.904  15.110  1.00  0.00    -0.289 OA
ATOM      5  C   UNL     1      17.433  16.342  16.780  1.00  0.00     0.107 A 
ATOM      6  C   UNL     1      17.955  15.189  16.122  1.00  0.00     0.134 A 
ATOM      7  C   UNL     1      18.028  13.973  16.814  1.00  0.00     0.093 A 
ATOM      8  C   UNL     1      17.544  13.856  18.119  1.00  0.00     0.123 A 
ATOM      9  C   UNL     1      16.983  14.963  18.751  1.00  0.00     0.094 A 
ATOM     10  C   UNL     1      16.926  16.198  18.100  1.00  0.00     0.146 A 
ATOM     11  O   UNL     1      16.396  17.233  18.745  1.00  0.00    -0.456 OA
ENDROOT
BRANCH   1  12
ATOM     12  C   UNL     1      15.691  19.532  19.034  1.00  0.00     0.021 A 
ATOM     13  C   UNL     1      14.481  19.335  19.725  1.00  0.00     0.016 A 
ATOM     14  C   UNL     1      13.923  20.365  20.486  1.00  0.00     0.051 A 
ATOM     15  C   UNL     1      14.566  21.606  20.577  1.00  0.00     0.157 A 
ATOM     16  C   UNL     1      16.338  20.777  19.142  1.00  0.00     0.062 A 
ATOM     17  C   UNL     1      15.780  21.810  19.903  1.00  0.00     0.158 A 
BRANCH  15  18
ATOM     18  O   UNL     1      14.006  22.632  21.337  1.00  0.00    -0.504 OA
ATOM     19  H   UNL     1      14.579  23.245  21.905  1.00  0.00     0.293 HD
ENDBRANCH  15  18
BRANCH  17  20
ATOM     20  O   UNL     1      16.448  23.033  19.977  1.00  0.00    -0.504 OA
ATOM     21  H   UNL     1      15.969  23.917  19.848  1.00  0.00     0.293 HD
ENDBRANCH  17  20
ENDBRANCH   1  12
BRANCH   6  22
ATOM     22  O   UNL     1      18.387  15.177  14.792  1.00  0.00    -0.507 OA
ATOM     23  H   UNL     1      18.812  15.959  14.317  1.00  0.00     0.293 HD
ENDBRANCH   6  22
BRANCH   8  24
ATOM     24  O   UNL     1      17.608  12.639  18.794  1.00  0.00    -0.508 OA
ATOM     25  H   UNL     1      16.771  12.168  19.118  1.00  0.00     0.293 HD
ENDBRANCH   8  24
TORSDOF 5
ENDMDL
