MODEL 1
REMARK VINA RESULT:    -4.692      0.000      0.000
REMARK INTER + INTRA:          -4.829
REMARK INTER:                  -4.829
REMARK INTRA:                   0.000
REMARK UNBOUND:                 0.000
REMARK SMILES Nc1ncnc2nc[nH]c12
REMARK SMILES IDX 8 1 7 2 6 3 5 4 4 5 3 6 2 7 10 8 9 9 1 11
REMARK H PARENT 9 10 1 12 1 13
REMARK Flexibility Score: inf
ROOT
ATOM      1  C   UNL     1     110.994 109.747 106.794  1.00  0.00     0.199 A 
ATOM      2  N   UNL     1     111.782 110.750 107.269  1.00  0.00    -0.217 NA
ATOM      3  C   UNL     1     111.478 110.758 108.577  1.00  0.00     0.182 A 
ATOM      4  N   UNL     1     111.993 111.581 109.521  1.00  0.00    -0.215 NA
ATOM      5  C   UNL     1     111.556 111.438 110.809  1.00  0.00     0.226 A 
ATOM      6  N   UNL     1     110.622 110.484 111.126  1.00  0.00    -0.217 NA
ATOM      7  C   UNL     1     110.103 109.652 110.174  1.00  0.00     0.152 A 
ATOM      8  C   UNL     1     110.557 109.811 108.868  1.00  0.00     0.127 A 
ATOM      9  N   UNL     1     110.233 109.154 107.748  1.00  0.00    -0.340 N 
ATOM     10  H   UNL     1     109.556 108.368 107.624  1.00  0.00     0.168 HD
ENDROOT
BRANCH   7  11
ATOM     11  N   UNL     1     109.131 108.667 110.528  1.00  0.00    -0.382 N 
ATOM     12  H   UNL     1     108.116 108.909 110.523  1.00  0.00     0.158 HD
ATOM     13  H   UNL     1     109.412 107.698 110.795  1.00  0.00     0.158 HD
ENDBRANCH   7  11
TORSDOF 1
ENDMDL
MODEL 2
REMARK VINA RESULT:    -4.681      1.877      2.211
REMARK INTER + INTRA:          -4.818
REMARK INTER:                  -4.818
REMARK INTRA:                   0.000
REMARK UNBOUND:                 0.000
REMARK SMILES Nc1ncnc2nc[nH]c12
REMARK SMILES IDX 8 1 7 2 6 3 5 4 4 5 3 6 2 7 10 8 9 9 1 11
REMARK H PARENT 9 10 1 12 1 13
REMARK Flexibility Score: inf
ROOT
ATOM      1  C   UNL     1     112.125 110.273 106.824  1.00  0.00     0.199 A 
ATOM      2  N   UNL     1     111.234 111.175 106.327  1.00  0.00    -0.217 NA
ATOM      3  C   UNL     1     110.298 111.212 107.289  1.00  0.00     0.182 A 
ATOM      4  N   UNL     1     109.173 111.965 107.293  1.00  0.00    -0.215 NA
ATOM      5  C   UNL     1     108.334 111.868 108.369  1.00  0.00     0.226 A 
ATOM      6  N   UNL     1     108.634 111.028 109.411  1.00  0.00    -0.217 NA
ATOM      7  C   UNL     1     109.771 110.269 109.410  1.00  0.00     0.152 A 
ATOM      8  C   UNL     1     110.613 110.379 108.307  1.00  0.00     0.127 A 
ATOM      9  N   UNL     1     111.773 109.769 108.033  1.00  0.00    -0.340 N 
ATOM     10  H   UNL     1     112.293 109.069 108.606  1.00  0.00     0.168 HD
ENDROOT
BRANCH   7  11
ATOM     11  N   UNL     1     110.062 109.401 110.507  1.00  0.00    -0.382 N 
ATOM     12  H   UNL     1     110.097 108.369 110.361  1.00  0.00     0.158 HD
ATOM     13  H   UNL     1     110.243 109.776 111.463  1.00  0.00     0.158 HD
ENDBRANCH   7  11
TORSDOF 1
ENDMDL
MODEL 3
REMARK VINA RESULT:    -4.670      1.060      3.045
REMARK INTER + INTRA:          -4.806
REMARK INTER:                  -4.806
REMARK INTRA:                   0.000
REMARK UNBOUND:                 0.000
REMARK SMILES Nc1ncnc2nc[nH]c12
REMARK SMILES IDX 8 1 7 2 6 3 5 4 4 5 3 6 2 7 10 8 9 9 1 11
REMARK H PARENT 9 10 1 12 1 13
REMARK Flexibility Score: inf
ROOT
ATOM      1  C   UNL     1     109.829 109.808 110.731  1.00  0.00     0.199 A 
ATOM      2  N   UNL     1     110.660 110.865 110.513  1.00  0.00    -0.217 NA
ATOM      3  C   UNL     1     110.954 110.734 109.210  1.00  0.00     0.182 A 
ATOM      4  N   UNL     1     111.758 111.542 108.478  1.00  0.00    -0.215 NA
ATOM      5  C   UNL     1     111.939 111.245 107.155  1.00  0.00     0.226 A 
ATOM      6  N   UNL     1     111.319 110.156 106.595  1.00  0.00    -0.217 NA
ATOM      7  C   UNL     1     110.507 109.341 107.332  1.00  0.00     0.152 A 
ATOM      8  C   UNL     1     110.334 109.656 108.677  1.00  0.00     0.127 A 
ATOM      9  N   UNL     1     109.611 109.051 109.627  1.00  0.00    -0.340 N 
ATOM     10  H   UNL     1     109.016 108.197 109.549  1.00  0.00     0.168 HD
ENDROOT
BRANCH   7  11
ATOM     11  N   UNL     1     109.873 108.214 106.726  1.00  0.00    -0.382 N 
ATOM     12  H   UNL     1     108.952 107.878 107.085  1.00  0.00     0.158 HD
ATOM     13  H   UNL     1     110.310 107.709 105.924  1.00  0.00     0.158 HD
ENDBRANCH   7  11
TORSDOF 1
ENDMDL
MODEL 4
REMARK VINA RESULT:    -4.332      1.215      2.595
REMARK INTER + INTRA:          -4.459
REMARK INTER:                  -4.459
REMARK INTRA:                   0.000
REMARK UNBOUND:                 0.000
REMARK SMILES Nc1ncnc2nc[nH]c12
REMARK SMILES IDX 8 1 7 2 6 3 5 4 4 5 3 6 2 7 10 8 9 9 1 11
REMARK H PARENT 9 10 1 12 1 13
REMARK Flexibility Score: inf
ROOT
ATOM      1  C   UNL     1     110.672 110.547 107.409  1.00  0.00     0.199 A 
ATOM      2  N   UNL     1     109.897 109.524 107.864  1.00  0.00    -0.217 NA
ATOM      3  C   UNL     1     109.816 109.790 109.178  1.00  0.00     0.182 A 
ATOM      4  N   UNL     1     109.148 109.068 110.109  1.00  0.00    -0.215 NA
ATOM      5  C   UNL     1     109.181 109.499 111.407  1.00  0.00     0.226 A 
ATOM      6  N   UNL     1     109.875 110.633 111.746  1.00  0.00    -0.217 NA
ATOM      7  C   UNL     1     110.548 111.364 110.807  1.00  0.00     0.152 A 
ATOM      8  C   UNL     1     110.505 110.911 109.492  1.00  0.00     0.127 A 
ATOM      9  N   UNL     1     111.059 111.411 108.380  1.00  0.00    -0.340 N 
ATOM     10  H   UNL     1     111.652 112.264 108.273  1.00  0.00     0.168 HD
ENDROOT
BRANCH   7  11
ATOM     11  N   UNL     1     111.263 112.541 111.184  1.00  0.00    -0.382 N 
ATOM     12  H   UNL     1     112.021 112.485 111.900  1.00  0.00     0.158 HD
ATOM     13  H   UNL     1     111.047 113.469 110.759  1.00  0.00     0.158 HD
ENDBRANCH   7  11
TORSDOF 1
ENDMDL
MODEL 5
REMARK VINA RESULT:    -4.327      1.767      3.736
REMARK INTER + INTRA:          -4.453
REMARK INTER:                  -4.453
REMARK INTRA:                   0.000
REMARK UNBOUND:                 0.000
REMARK SMILES Nc1ncnc2nc[nH]c12
REMARK SMILES IDX 8 1 7 2 6 3 5 4 4 5 3 6 2 7 10 8 9 9 1 11
REMARK H PARENT 9 10 1 12 1 13
REMARK Flexibility Score: inf
ROOT
ATOM      1  C   UNL     1     112.074 112.118 111.792  1.00  0.00     0.199 A 
ATOM      2  N   UNL     1     111.600 110.993 112.394  1.00  0.00    -0.217 NA
ATOM      3  C   UNL     1     110.764 110.502 111.464  1.00  0.00     0.182 A 
ATOM      4  N   UNL     1     110.022 109.373 111.561  1.00  0.00    -0.215 NA
ATOM      5  C   UNL     1     109.224 109.033 110.503  1.00  0.00     0.226 A 
ATOM      6  N   UNL     1     109.184 109.820 109.380  1.00  0.00    -0.217 NA
ATOM      7  C   UNL     1     109.933 110.958 109.281  1.00  0.00     0.152 A 
ATOM      8  C   UNL     1     110.739 111.291 110.366  1.00  0.00     0.127 A 
ATOM      9  N   UNL     1     111.566 112.328 110.551  1.00  0.00    -0.340 N 
ATOM     10  H   UNL     1     111.778 113.117 109.902  1.00  0.00     0.168 HD
ENDROOT
BRANCH   7  11
ATOM     11  N   UNL     1     109.875 111.761 108.101  1.00  0.00    -0.382 N 
ATOM     12  H   UNL     1     110.691 112.352 107.831  1.00  0.00     0.158 HD
ATOM     13  H   UNL     1     109.026 111.775 107.494  1.00  0.00     0.158 HD
ENDBRANCH   7  11
TORSDOF 1
ENDMDL
MODEL 6
REMARK VINA RESULT:    -4.210      1.024      3.580
REMARK INTER + INTRA:          -4.333
REMARK INTER:                  -4.333
REMARK INTRA:                   0.000
REMARK UNBOUND:                 0.000
REMARK SMILES Nc1ncnc2nc[nH]c12
REMARK SMILES IDX 8 1 7 2 6 3 5 4 4 5 3 6 2 7 10 8 9 9 1 11
REMARK H PARENT 9 10 1 12 1 13
REMARK Flexibility Score: inf
ROOT
ATOM      1  C   UNL     1     108.859 109.749 111.322  1.00  0.00     0.199 A 
ATOM      2  N   UNL     1     108.766 109.099 110.129  1.00  0.00    -0.217 NA
ATOM      3  C   UNL     1     109.739 109.683 109.410  1.00  0.00     0.182 A 
ATOM      4  N   UNL     1     110.077 109.399 108.130  1.00  0.00    -0.215 NA
ATOM      5  C   UNL     1     111.102 110.105 107.562  1.00  0.00     0.226 A 
ATOM      6  N   UNL     1     111.762 111.071 108.278  1.00  0.00    -0.217 NA
ATOM      7  C   UNL     1     111.423 111.357 109.570  1.00  0.00     0.152 A 
ATOM      8  C   UNL     1     110.377 110.631 110.133  1.00  0.00     0.127 A 
ATOM      9  N   UNL     1     109.834 110.691 111.355  1.00  0.00    -0.340 N 
ATOM     10  H   UNL     1     110.091 111.312 112.154  1.00  0.00     0.168 HD
ENDROOT
BRANCH   7  11
ATOM     11  N   UNL     1     112.125 112.367 110.295  1.00  0.00    -0.382 N 
ATOM     12  H   UNL     1     111.615 112.969 110.979  1.00  0.00     0.158 HD
ATOM     13  H   UNL     1     113.148 112.523 110.159  1.00  0.00     0.158 HD
ENDBRANCH   7  11
TORSDOF 1
ENDMDL
MODEL 7
REMARK VINA RESULT:    -4.182      1.893      3.628
REMARK INTER + INTRA:          -4.304
REMARK INTER:                  -4.304
REMARK INTRA:                   0.000
REMARK UNBOUND:                 0.000
REMARK SMILES Nc1ncnc2nc[nH]c12
REMARK SMILES IDX 8 1 7 2 6 3 5 4 4 5 3 6 2 7 10 8 9 9 1 11
REMARK H PARENT 9 10 1 12 1 13
REMARK Flexibility Score: inf
ROOT
ATOM      1  C   UNL     1     109.154 109.406 111.005  1.00  0.00     0.199 A 
ATOM      2  N   UNL     1     108.220 110.291 110.558  1.00  0.00    -0.217 NA
ATOM      3  C   UNL     1     108.777 110.747 109.425  1.00  0.00     0.182 A 
ATOM      4  N   UNL     1     108.251 111.663 108.578  1.00  0.00    -0.215 NA
ATOM      5  C   UNL     1     108.973 112.005 107.467  1.00  0.00     0.226 A 
ATOM      6  N   UNL     1     110.195 111.429 107.227  1.00  0.00    -0.217 NA
ATOM      7  C   UNL     1     110.727 110.504 108.080  1.00  0.00     0.152 A 
ATOM      8  C   UNL     1     109.980 110.168 109.206  1.00  0.00     0.127 A 
ATOM      9  N   UNL     1     110.241 109.309 110.200  1.00  0.00    -0.340 N 
ATOM     10  H   UNL     1     111.080 108.703 110.335  1.00  0.00     0.168 HD
ENDROOT
BRANCH   7  11
ATOM     11  N   UNL     1     112.001 109.918 107.809  1.00  0.00    -0.382 N 
ATOM     12  H   UNL     1     112.082 108.887 107.667  1.00  0.00     0.158 HD
ATOM     13  H   UNL     1     112.865 110.500 107.749  1.00  0.00     0.158 HD
ENDBRANCH   7  11
TORSDOF 1
ENDMDL
MODEL 8
REMARK VINA RESULT:    -4.129      1.910      3.380
REMARK INTER + INTRA:          -4.249
REMARK INTER:                  -4.249
REMARK INTRA:                   0.000
REMARK UNBOUND:                 0.000
REMARK SMILES Nc1ncnc2nc[nH]c12
REMARK SMILES IDX 8 1 7 2 6 3 5 4 4 5 3 6 2 7 10 8 9 9 1 11
REMARK H PARENT 9 10 1 12 1 13
REMARK Flexibility Score: inf
ROOT
ATOM      1  C   UNL     1     109.430 110.082 111.080  1.00  0.00     0.199 A 
ATOM      2  N   UNL     1     110.683 109.794 110.630  1.00  0.00    -0.217 NA
ATOM      3  C   UNL     1     110.692 110.373 109.418  1.00  0.00     0.182 A 
ATOM      4  N   UNL     1     111.719 110.384 108.536  1.00  0.00    -0.215 NA
ATOM      5  C   UNL     1     111.539 111.029 107.344  1.00  0.00     0.226 A 
ATOM      6  N   UNL     1     110.347 111.646 107.059  1.00  0.00    -0.217 NA
ATOM      7  C   UNL     1     109.310 111.636 107.949  1.00  0.00     0.152 A 
ATOM      8  C   UNL     1     109.509 110.974 109.157  1.00  0.00     0.127 A 
ATOM      9  N   UNL     1     108.689 110.803 110.202  1.00  0.00    -0.340 N 
ATOM     10  H   UNL     1     107.708 111.139 110.323  1.00  0.00     0.168 HD
ENDROOT
BRANCH   7  11
ATOM     11  N   UNL     1     108.078 112.285 107.631  1.00  0.00    -0.382 N 
ATOM     12  H   UNL     1     107.571 112.040 106.752  1.00  0.00     0.158 HD
ATOM     13  H   UNL     1     107.665 113.008 108.260  1.00  0.00     0.158 HD
ENDBRANCH   7  11
TORSDOF 1
ENDMDL
