MODEL 1
REMARK VINA RESULT:    -4.243      0.000      0.000
REMARK INTER + INTRA:          -6.740
REMARK INTER:                  -6.475
REMARK INTRA:                  -0.265
REMARK UNBOUND:                -0.265
REMARK SMILES CC1=CCC[C@@H](C)C(=O)C[C@@H](C(C)C)C(=O)C1
REMARK SMILES IDX 8 1 9 2 6 3 7 4 5 5 4 6 3 7 2 8 1 9 10 11 11 12 15 13 16 14
REMARK SMILES IDX 17 15 12 17 13 18 14 19
REMARK H PARENT
REMARK Flexibility Score: 70.00
ROOT
ATOM      1  C   UNL     1      -6.581 -28.025 -19.361  1.00  0.00     0.136 C 
ATOM      2  O   UNL     1      -6.106 -28.997 -19.929  1.00  0.00    -0.299 OA
ENDROOT
BRANCH   1   3
ATOM      3  C   UNL     1      -5.979 -26.657 -19.630  1.00  0.00     0.053 C 
ATOM      4  C   UNL     1      -4.640 -26.780 -20.369  1.00  0.00     0.016 C 
BRANCH   3   5
ATOM      5  C   UNL     1      -5.825 -25.844 -18.332  1.00  0.00     0.015 C 
BRANCH   5   6
ATOM      6  C   UNL     1      -6.718 -24.588 -18.332  1.00  0.00     0.028 C 
BRANCH   6   7
ATOM      7  C   UNL     1      -7.617 -24.560 -17.125  1.00  0.00    -0.028 C 
ATOM      8  C   UNL     1      -8.894 -25.011 -17.107  1.00  0.00    -0.070 CG0
ATOM      9  C   UNL     1      -9.648 -24.952 -15.803  1.00  0.00     0.039 C 
ATOM     10  G   UNL     1      -9.595 -25.563 -18.338  1.00  0.00     0.000 G0
ENDBRANCH   6   7
ENDBRANCH   5   6
ENDBRANCH   3   5
ENDBRANCH   1   3
BRANCH   1  11
ATOM     11  C   UNL     1      -7.726 -28.237 -18.394  1.00  0.00     0.087 C 
BRANCH  11  12
ATOM     12  C   UNL     1      -9.111 -28.057 -19.073  1.00  0.00     0.066 C 
BRANCH  12  13
ATOM     13  C   UNL     1      -9.927 -27.043 -18.286  1.00  0.00     0.140 C 
ATOM     14  O   UNL     1     -10.906 -27.419 -17.655  1.00  0.00    -0.299 OA
BRANCH  13  15
ATOM     15  C   UNL     1      -9.616 -25.569 -18.364  1.00  0.00     0.106 CG0
ATOM     16  G   UNL     1      -8.906 -25.062 -17.118  1.00  0.00     0.000 G0
ENDBRANCH  13  15
ENDBRANCH  12  13
BRANCH  12  17
ATOM     17  C   UNL     1      -9.894 -29.406 -19.205  1.00  0.00    -0.006 C 
ATOM     18  C   UNL     1      -9.985 -29.862 -20.675  1.00  0.00     0.008 C 
ATOM     19  C   UNL     1      -9.249 -30.539 -18.383  1.00  0.00     0.008 C 
ENDBRANCH  12  17
ENDBRANCH  11  12
ENDBRANCH   1  11
TORSDOF 1
ENDMDL
MODEL 2
REMARK VINA RESULT:    -4.130      1.816      3.908
REMARK INTER + INTRA:          -6.569
REMARK INTER:                  -6.133
REMARK INTRA:                  -0.435
REMARK UNBOUND:                -0.265
REMARK SMILES CC1=CCC[C@@H](C)C(=O)C[C@@H](C(C)C)C(=O)C1
REMARK SMILES IDX 8 1 9 2 6 3 7 4 5 5 4 6 3 7 2 8 1 9 10 11 11 12 15 13 16 14
REMARK SMILES IDX 17 15 12 17 13 18 14 19
REMARK H PARENT
REMARK Flexibility Score: 70.00
ROOT
ATOM      1  C   UNL     1      -7.941 -28.971 -19.695  1.00  0.00     0.136 C 
ATOM      2  O   UNL     1      -8.397 -29.430 -20.732  1.00  0.00    -0.299 OA
ENDROOT
BRANCH   1   3
ATOM      3  C   UNL     1      -8.737 -29.134 -18.413  1.00  0.00     0.053 C 
ATOM      4  C   UNL     1      -8.824 -30.610 -18.003  1.00  0.00     0.016 C 
BRANCH   3   5
ATOM      5  C   UNL     1     -10.138 -28.508 -18.535  1.00  0.00     0.015 C 
BRANCH   5   6
ATOM      6  C   UNL     1     -10.068 -27.001 -18.848  1.00  0.00     0.028 C 
BRANCH   6   7
ATOM      7  C   UNL     1      -9.648 -26.213 -17.635  1.00  0.00    -0.028 C 
ATOM      8  C   UNL     1      -8.483 -25.533 -17.526  1.00  0.00    -0.070 CG0
ATOM      9  C   UNL     1      -8.232 -24.756 -16.258  1.00  0.00     0.039 C 
ATOM     10  G   UNL     1      -7.423 -25.524 -18.617  1.00  0.00     0.000 G0
ENDBRANCH   6   7
ENDBRANCH   5   6
ENDBRANCH   3   5
ENDBRANCH   1   3
BRANCH   1  11
ATOM     11  C   UNL     1      -6.620 -28.235 -19.747  1.00  0.00     0.087 C 
BRANCH  11  12
ATOM     12  C   UNL     1      -6.137 -27.789 -18.340  1.00  0.00     0.066 C 
BRANCH  12  13
ATOM     13  C   UNL     1      -6.178 -26.271 -18.254  1.00  0.00     0.140 C 
ATOM     14  O   UNL     1      -5.219 -25.670 -17.788  1.00  0.00    -0.299 OA
BRANCH  13  15
ATOM     15  C   UNL     1      -7.423 -25.505 -18.627  1.00  0.00     0.106 CG0
ATOM     16  G   UNL     1      -8.473 -25.541 -17.527  1.00  0.00     0.000 G0
ENDBRANCH  13  15
ENDBRANCH  12  13
BRANCH  12  17
ATOM     17  C   UNL     1      -4.705 -28.319 -18.001  1.00  0.00    -0.006 C 
ATOM     18  C   UNL     1      -4.750 -29.402 -16.904  1.00  0.00     0.008 C 
ATOM     19  C   UNL     1      -3.992 -28.907 -19.235  1.00  0.00     0.008 C 
ENDBRANCH  12  17
ENDBRANCH  11  12
ENDBRANCH   1  11
TORSDOF 1
ENDMDL
MODEL 3
REMARK VINA RESULT:    -3.756      2.654      4.132
REMARK INTER + INTRA:          -5.997
REMARK INTER:                  -5.620
REMARK INTRA:                  -0.377
REMARK UNBOUND:                -0.265
REMARK SMILES CC1=CCC[C@@H](C)C(=O)C[C@@H](C(C)C)C(=O)C1
REMARK SMILES IDX 8 1 9 2 6 3 7 4 5 5 4 6 3 7 2 8 1 9 10 11 11 12 15 13 16 14
REMARK SMILES IDX 17 15 12 17 13 18 14 19
REMARK H PARENT
REMARK Flexibility Score: 70.00
ROOT
ATOM      1  C   UNL     1      -5.121 -24.416 -16.230  1.00  0.00     0.136 C 
ATOM      2  O   UNL     1      -4.876 -24.576 -15.043  1.00  0.00    -0.299 OA
ENDROOT
BRANCH   1   3
ATOM      3  C   UNL     1      -5.186 -23.001 -16.777  1.00  0.00     0.053 C 
ATOM      4  C   UNL     1      -3.802 -22.340 -16.760  1.00  0.00     0.016 C 
BRANCH   3   5
ATOM      5  C   UNL     1      -6.219 -22.150 -16.017  1.00  0.00     0.015 C 
BRANCH   5   6
ATOM      6  C   UNL     1      -7.580 -22.120 -16.737  1.00  0.00     0.028 C 
BRANCH   6   7
ATOM      7  C   UNL     1      -8.552 -23.079 -16.101  1.00  0.00    -0.028 C 
ATOM      8  C   UNL     1      -9.034 -24.194 -16.700  1.00  0.00    -0.070 CG0
ATOM      9  C   UNL     1      -9.969 -25.074 -15.910  1.00  0.00     0.039 C 
ATOM     10  G   UNL     1      -8.679 -24.588 -18.125  1.00  0.00     0.000 G0
ENDBRANCH   6   7
ENDBRANCH   5   6
ENDBRANCH   3   5
ENDBRANCH   1   3
BRANCH   1  11
ATOM     11  C   UNL     1      -5.378 -25.636 -17.087  1.00  0.00     0.087 C 
BRANCH  11  12
ATOM     12  C   UNL     1      -6.161 -25.291 -18.383  1.00  0.00     0.066 C 
BRANCH  12  13
ATOM     13  C   UNL     1      -7.625 -25.660 -18.198  1.00  0.00     0.140 C 
ATOM     14  O   UNL     1      -7.952 -26.839 -18.196  1.00  0.00    -0.299 OA
BRANCH  13  15
ATOM     15  C   UNL     1      -8.692 -24.595 -18.133  1.00  0.00     0.106 CG0
ATOM     16  G   UNL     1      -9.024 -24.198 -16.703  1.00  0.00     0.000 G0
ENDBRANCH  13  15
ENDBRANCH  12  13
BRANCH  12  17
ATOM     17  C   UNL     1      -5.573 -26.002 -19.647  1.00  0.00    -0.006 C 
ATOM     18  C   UNL     1      -4.607 -25.077 -20.415  1.00  0.00     0.008 C 
ATOM     19  C   UNL     1      -4.822 -27.301 -19.291  1.00  0.00     0.008 C 
ENDBRANCH  12  17
ENDBRANCH  11  12
ENDBRANCH   1  11
TORSDOF 1
ENDMDL
MODEL 4
REMARK VINA RESULT:    -3.686      1.512      3.764
REMARK INTER + INTRA:          -5.890
REMARK INTER:                  -5.848
REMARK INTRA:                  -0.042
REMARK UNBOUND:                -0.265
REMARK SMILES CC1=CCC[C@@H](C)C(=O)C[C@@H](C(C)C)C(=O)C1
REMARK SMILES IDX 8 1 9 2 6 3 7 4 5 5 4 6 3 7 2 8 1 9 10 11 11 12 15 13 16 14
REMARK SMILES IDX 17 15 12 17 13 18 14 19
REMARK H PARENT
REMARK Flexibility Score: 70.00
ROOT
ATOM      1  C   UNL     1      -9.937 -26.327 -17.740  1.00  0.00     0.136 C 
ATOM      2  O   UNL     1     -10.879 -26.961 -17.286  1.00  0.00    -0.299 OA
ENDROOT
BRANCH   1   3
ATOM      3  C   UNL     1      -9.630 -24.959 -17.155  1.00  0.00     0.053 C 
ATOM      4  C   UNL     1      -9.563 -23.892 -18.256  1.00  0.00     0.016 C 
BRANCH   3   5
ATOM      5  C   UNL     1      -8.336 -24.981 -16.321  1.00  0.00     0.015 C 
BRANCH   5   6
ATOM      6  C   UNL     1      -7.185 -24.239 -17.027  1.00  0.00     0.028 C 
BRANCH   6   7
ATOM      7  C   UNL     1      -5.893 -25.004 -16.910  1.00  0.00    -0.028 C 
ATOM      8  C   UNL     1      -5.488 -25.965 -17.775  1.00  0.00    -0.070 CG0
ATOM      9  C   UNL     1      -4.144 -26.607 -17.541  1.00  0.00     0.039 C 
ATOM     10  G   UNL     1      -6.327 -26.422 -18.958  1.00  0.00     0.000 G0
ENDBRANCH   6   7
ENDBRANCH   5   6
ENDBRANCH   3   5
ENDBRANCH   1   3
BRANCH   1  11
ATOM     11  C   UNL     1      -9.144 -26.923 -18.882  1.00  0.00     0.087 C 
BRANCH  11  12
ATOM     12  C   UNL     1      -8.272 -28.126 -18.429  1.00  0.00     0.066 C 
BRANCH  12  13
ATOM     13  C   UNL     1      -6.818 -27.851 -18.779  1.00  0.00     0.140 C 
ATOM     14  O   UNL     1      -6.025 -28.782 -18.825  1.00  0.00    -0.299 OA
BRANCH  13  15
ATOM     15  C   UNL     1      -6.315 -26.439 -18.956  1.00  0.00     0.106 CG0
ATOM     16  G   UNL     1      -5.495 -25.966 -17.766  1.00  0.00     0.000 G0
ENDBRANCH  13  15
ENDBRANCH  12  13
BRANCH  12  17
ATOM     17  C   UNL     1      -8.741 -29.479 -19.061  1.00  0.00    -0.006 C 
ATOM     18  C   UNL     1      -9.300 -30.437 -17.989  1.00  0.00     0.008 C 
ATOM     19  C   UNL     1      -9.822 -29.275 -20.142  1.00  0.00     0.008 C 
ENDBRANCH  12  17
ENDBRANCH  11  12
ENDBRANCH   1  11
TORSDOF 1
ENDMDL
MODEL 5
REMARK VINA RESULT:    -3.618      3.819      6.026
REMARK INTER + INTRA:          -5.787
REMARK INTER:                  -5.384
REMARK INTRA:                  -0.402
REMARK UNBOUND:                -0.265
REMARK SMILES CC1=CCC[C@@H](C)C(=O)C[C@@H](C(C)C)C(=O)C1
REMARK SMILES IDX 8 1 9 2 6 3 7 4 5 5 4 6 3 7 2 8 1 9 10 11 11 12 15 13 16 14
REMARK SMILES IDX 17 15 12 17 13 18 14 19
REMARK H PARENT
REMARK Flexibility Score: 70.00
ROOT
ATOM      1  C   UNL     1      -6.435 -22.200 -19.309  1.00  0.00     0.136 C 
ATOM      2  O   UNL     1      -6.075 -22.148 -20.476  1.00  0.00    -0.299 OA
ENDROOT
BRANCH   1   3
ATOM      3  C   UNL     1      -6.244 -20.976 -18.432  1.00  0.00     0.053 C 
ATOM      4  C   UNL     1      -7.224 -19.861 -18.820  1.00  0.00     0.016 C 
BRANCH   3   5
ATOM      5  C   UNL     1      -4.788 -20.476 -18.471  1.00  0.00     0.015 C 
BRANCH   5   6
ATOM      6  C   UNL     1      -3.924 -21.138 -17.381  1.00  0.00     0.028 C 
BRANCH   6   7
ATOM      7  C   UNL     1      -3.122 -22.281 -17.944  1.00  0.00    -0.028 C 
ATOM      8  C   UNL     1      -3.273 -23.578 -17.583  1.00  0.00    -0.070 CG0
ATOM      9  C   UNL     1      -2.419 -24.610 -18.274  1.00  0.00     0.039 C 
ATOM     10  G   UNL     1      -4.256 -24.031 -16.515  1.00  0.00     0.000 G0
ENDBRANCH   6   7
ENDBRANCH   5   6
ENDBRANCH   3   5
ENDBRANCH   1   3
BRANCH   1  11
ATOM     11  C   UNL     1      -7.026 -23.493 -18.790  1.00  0.00     0.087 C 
BRANCH  11  12
ATOM     12  C   UNL     1      -6.749 -23.701 -17.276  1.00  0.00     0.066 C 
BRANCH  12  13
ATOM     13  C   UNL     1      -5.532 -24.596 -17.107  1.00  0.00     0.140 C 
ATOM     14  O   UNL     1      -5.623 -25.789 -17.364  1.00  0.00    -0.299 OA
BRANCH  13  15
ATOM     15  C   UNL     1      -4.249 -24.061 -16.519  1.00  0.00     0.106 CG0
ATOM     16  G   UNL     1      -3.275 -23.594 -17.589  1.00  0.00     0.000 G0
ENDBRANCH  13  15
ENDBRANCH  12  13
BRANCH  12  17
ATOM     17  C   UNL     1      -7.980 -24.300 -16.517  1.00  0.00    -0.006 C 
ATOM     18  C   UNL     1      -8.763 -23.207 -15.763  1.00  0.00     0.008 C 
ATOM     19  C   UNL     1      -8.953 -25.028 -17.466  1.00  0.00     0.008 C 
ENDBRANCH  12  17
ENDBRANCH  11  12
ENDBRANCH   1  11
TORSDOF 1
ENDMDL
MODEL 6
REMARK VINA RESULT:    -3.562      2.918      5.137
REMARK INTER + INTRA:          -5.700
REMARK INTER:                  -5.374
REMARK INTRA:                  -0.326
REMARK UNBOUND:                -0.265
REMARK SMILES CC1=CCC[C@@H](C)C(=O)C[C@@H](C(C)C)C(=O)C1
REMARK SMILES IDX 8 1 9 2 6 3 7 4 5 5 4 6 3 7 2 8 1 9 10 11 11 12 15 13 16 14
REMARK SMILES IDX 17 15 12 17 13 18 14 19
REMARK H PARENT
REMARK Flexibility Score: 70.00
ROOT
ATOM      1  C   UNL     1      -8.459 -24.301 -17.935  1.00  0.00     0.136 C 
ATOM      2  O   UNL     1      -9.119 -23.474 -18.547  1.00  0.00    -0.299 OA
ENDROOT
BRANCH   1   3
ATOM      3  C   UNL     1      -8.447 -24.246 -16.418  1.00  0.00     0.053 C 
ATOM      4  C   UNL     1      -9.667 -24.968 -15.831  1.00  0.00     0.016 C 
BRANCH   3   5
ATOM      5  C   UNL     1      -8.359 -22.797 -15.907  1.00  0.00     0.015 C 
BRANCH   5   6
ATOM      6  C   UNL     1      -6.901 -22.310 -15.808  1.00  0.00     0.028 C 
BRANCH   6   7
ATOM      7  C   UNL     1      -6.482 -21.590 -17.062  1.00  0.00    -0.028 C 
ATOM      8  C   UNL     1      -5.569 -22.055 -17.947  1.00  0.00    -0.070 CG0
ATOM      9  C   UNL     1      -5.292 -21.231 -19.179  1.00  0.00     0.039 C 
ATOM     10  G   UNL     1      -4.813 -23.360 -17.749  1.00  0.00     0.000 G0
ENDBRANCH   6   7
ENDBRANCH   5   6
ENDBRANCH   3   5
ENDBRANCH   1   3
BRANCH   1  11
ATOM     11  C   UNL     1      -7.663 -25.320 -18.722  1.00  0.00     0.087 C 
BRANCH  11  12
ATOM     12  C   UNL     1      -6.244 -25.543 -18.130  1.00  0.00     0.066 C 
BRANCH  12  13
ATOM     13  C   UNL     1      -5.307 -24.468 -18.656  1.00  0.00     0.140 C 
ATOM     14  O   UNL     1      -4.877 -24.552 -19.799  1.00  0.00    -0.299 OA
BRANCH  13  15
ATOM     15  C   UNL     1      -4.808 -23.363 -17.757  1.00  0.00     0.106 CG0
ATOM     16  G   UNL     1      -5.574 -22.065 -17.960  1.00  0.00     0.000 G0
ENDBRANCH  13  15
ENDBRANCH  12  13
BRANCH  12  17
ATOM     17  C   UNL     1      -5.679 -26.967 -18.448  1.00  0.00    -0.006 C 
ATOM     18  C   UNL     1      -4.565 -27.365 -17.459  1.00  0.00     0.008 C 
ATOM     19  C   UNL     1      -6.773 -28.052 -18.410  1.00  0.00     0.008 C 
ENDBRANCH  12  17
ENDBRANCH  11  12
ENDBRANCH   1  11
TORSDOF 1
ENDMDL
MODEL 7
REMARK VINA RESULT:    -3.455      4.453      6.204
REMARK INTER + INTRA:          -5.538
REMARK INTER:                  -5.419
REMARK INTRA:                  -0.119
REMARK UNBOUND:                -0.265
REMARK SMILES CC1=CCC[C@@H](C)C(=O)C[C@@H](C(C)C)C(=O)C1
REMARK SMILES IDX 8 1 9 2 6 3 7 4 5 5 4 6 3 7 2 8 1 9 10 11 11 12 15 13 16 14
REMARK SMILES IDX 17 15 12 17 13 18 14 19
REMARK H PARENT
REMARK Flexibility Score: 70.00
ROOT
ATOM      1  C   UNL     1      -5.056 -23.906 -16.361  1.00  0.00     0.136 C 
ATOM      2  O   UNL     1      -5.190 -24.821 -15.562  1.00  0.00    -0.299 OA
ENDROOT
BRANCH   1   3
ATOM      3  C   UNL     1      -3.925 -23.980 -17.371  1.00  0.00     0.053 C 
ATOM      4  C   UNL     1      -3.598 -25.436 -17.727  1.00  0.00     0.016 C 
BRANCH   3   5
ATOM      5  C   UNL     1      -2.673 -23.235 -16.871  1.00  0.00     0.015 C 
BRANCH   5   6
ATOM      6  C   UNL     1      -2.654 -21.767 -17.337  1.00  0.00     0.028 C 
BRANCH   6   7
ATOM      7  C   UNL     1      -3.152 -21.639 -18.752  1.00  0.00    -0.028 C 
ATOM      8  C   UNL     1      -4.334 -21.080 -19.104  1.00  0.00    -0.070 CG0
ATOM      9  C   UNL     1      -4.665 -20.990 -20.572  1.00  0.00     0.039 C 
ATOM     10  G   UNL     1      -5.334 -20.549 -18.089  1.00  0.00     0.000 G0
ENDBRANCH   6   7
ENDBRANCH   5   6
ENDBRANCH   3   5
ENDBRANCH   1   3
BRANCH   1  11
ATOM     11  C   UNL     1      -6.005 -22.729 -16.282  1.00  0.00     0.087 C 
BRANCH  11  12
ATOM     12  C   UNL     1      -6.881 -22.593 -17.556  1.00  0.00     0.066 C 
BRANCH  12  13
ATOM     13  C   UNL     1      -6.675 -21.213 -18.161  1.00  0.00     0.140 C 
ATOM     14  O   UNL     1      -7.585 -20.691 -18.790  1.00  0.00    -0.299 OA
BRANCH  13  15
ATOM     15  C   UNL     1      -5.331 -20.530 -18.097  1.00  0.00     0.106 CG0
ATOM     16  G   UNL     1      -4.349 -21.091 -19.114  1.00  0.00     0.000 G0
ENDBRANCH  13  15
ENDBRANCH  12  13
BRANCH  12  17
ATOM     17  C   UNL     1      -8.399 -22.845 -17.271  1.00  0.00    -0.006 C 
ATOM     18  C   UNL     1      -8.891 -24.144 -17.941  1.00  0.00     0.008 C 
ATOM     19  C   UNL     1      -8.703 -22.931 -15.762  1.00  0.00     0.008 C 
ENDBRANCH  12  17
ENDBRANCH  11  12
ENDBRANCH   1  11
TORSDOF 1
ENDMDL
MODEL 8
REMARK VINA RESULT:    -3.453      3.690      5.674
REMARK INTER + INTRA:          -5.535
REMARK INTER:                  -5.559
REMARK INTRA:                   0.023
REMARK UNBOUND:                -0.265
REMARK SMILES CC1=CCC[C@@H](C)C(=O)C[C@@H](C(C)C)C(=O)C1
REMARK SMILES IDX 8 1 9 2 6 3 7 4 5 5 4 6 3 7 2 8 1 9 10 11 11 12 15 13 16 14
REMARK SMILES IDX 17 15 12 17 13 18 14 19
REMARK H PARENT
REMARK Flexibility Score: 70.00
ROOT
ATOM      1  C   UNL     1      -8.726 -22.126 -18.893  1.00  0.00     0.136 C 
ATOM      2  O   UNL     1      -9.928 -22.324 -18.788  1.00  0.00    -0.299 OA
ENDROOT
BRANCH   1   3
ATOM      3  C   UNL     1      -8.250 -20.764 -19.367  1.00  0.00     0.053 C 
ATOM      4  C   UNL     1      -9.066 -20.285 -20.575  1.00  0.00     0.016 C 
BRANCH   3   5
ATOM      5  C   UNL     1      -6.743 -20.771 -19.680  1.00  0.00     0.015 C 
BRANCH   5   6
ATOM      6  C   UNL     1      -5.907 -20.255 -18.494  1.00  0.00     0.028 C 
BRANCH   6   7
ATOM      7  C   UNL     1      -4.755 -21.178 -18.198  1.00  0.00    -0.028 C 
ATOM      8  C   UNL     1      -4.750 -22.109 -17.215  1.00  0.00    -0.070 CG0
ATOM      9  C   UNL     1      -3.531 -22.986 -17.076  1.00  0.00     0.039 C 
ATOM     10  G   UNL     1      -5.909 -22.302 -16.249  1.00  0.00     0.000 G0
ENDBRANCH   6   7
ENDBRANCH   5   6
ENDBRANCH   3   5
ENDBRANCH   1   3
BRANCH   1  11
ATOM     11  C   UNL     1      -7.774 -23.259 -18.575  1.00  0.00     0.087 C 
BRANCH  11  12
ATOM     12  C   UNL     1      -7.929 -23.767 -17.116  1.00  0.00     0.066 C 
BRANCH  12  13
ATOM     13  C   UNL     1      -6.595 -23.644 -16.397  1.00  0.00     0.140 C 
ATOM     14  O   UNL     1      -6.110 -24.629 -15.857  1.00  0.00    -0.299 OA
BRANCH  13  15
ATOM     15  C   UNL     1      -5.916 -22.305 -16.241  1.00  0.00     0.106 CG0
ATOM     16  G   UNL     1      -4.758 -22.129 -17.211  1.00  0.00     0.000 G0
ENDBRANCH  13  15
ENDBRANCH  12  13
BRANCH  12  17
ATOM     17  C   UNL     1      -8.456 -25.239 -17.046  1.00  0.00    -0.006 C 
ATOM     18  C   UNL     1      -9.992 -25.282 -16.914  1.00  0.00     0.008 C 
ATOM     19  C   UNL     1      -8.051 -26.064 -18.284  1.00  0.00     0.008 C 
ENDBRANCH  12  17
ENDBRANCH  11  12
ENDBRANCH   1  11
TORSDOF 1
ENDMDL
MODEL 9
REMARK VINA RESULT:    -3.416      4.022      6.838
REMARK INTER + INTRA:          -5.478
REMARK INTER:                  -5.255
REMARK INTRA:                  -0.223
REMARK UNBOUND:                -0.265
REMARK SMILES CC1=CCC[C@@H](C)C(=O)C[C@@H](C(C)C)C(=O)C1
REMARK SMILES IDX 8 1 9 2 6 3 7 4 5 5 4 6 3 7 2 8 1 9 10 11 11 12 15 13 16 14
REMARK SMILES IDX 17 15 12 17 13 18 14 19
REMARK H PARENT
REMARK Flexibility Score: 70.00
ROOT
ATOM      1  C   UNL     1      -8.455 -22.704 -18.070  1.00  0.00     0.136 C 
ATOM      2  O   UNL     1      -9.246 -22.266 -18.893  1.00  0.00    -0.299 OA
ENDROOT
BRANCH   1   3
ATOM      3  C   UNL     1      -8.534 -24.173 -17.694  1.00  0.00     0.053 C 
ATOM      4  C   UNL     1      -8.580 -24.349 -16.170  1.00  0.00     0.016 C 
BRANCH   3   5
ATOM      5  C   UNL     1      -7.374 -24.976 -18.312  1.00  0.00     0.015 C 
BRANCH   5   6
ATOM      6  C   UNL     1      -6.431 -25.544 -17.235  1.00  0.00     0.028 C 
BRANCH   6   7
ATOM      7  C   UNL     1      -4.988 -25.344 -17.616  1.00  0.00    -0.028 C 
ATOM      8  C   UNL     1      -4.255 -24.249 -17.302  1.00  0.00    -0.070 CG0
ATOM      9  C   UNL     1      -2.807 -24.222 -17.721  1.00  0.00     0.039 C 
ATOM     10  G   UNL     1      -4.828 -23.054 -16.556  1.00  0.00     0.000 G0
ENDBRANCH   6   7
ENDBRANCH   5   6
ENDBRANCH   3   5
ENDBRANCH   1   3
BRANCH   1  11
ATOM     11  C   UNL     1      -7.458 -21.752 -17.445  1.00  0.00     0.087 C 
BRANCH  11  12
ATOM     12  C   UNL     1      -6.172 -21.600 -18.301  1.00  0.00     0.066 C 
BRANCH  12  13
ATOM     13  C   UNL     1      -4.953 -21.811 -17.417  1.00  0.00     0.140 C 
ATOM     14  O   UNL     1      -4.020 -21.022 -17.482  1.00  0.00    -0.299 OA
BRANCH  13  15
ATOM     15  C   UNL     1      -4.827 -23.037 -16.546  1.00  0.00     0.106 CG0
ATOM     16  G   UNL     1      -4.253 -24.225 -17.303  1.00  0.00     0.000 G0
ENDBRANCH  13  15
ENDBRANCH  12  13
BRANCH  12  17
ATOM     17  C   UNL     1      -6.092 -20.214 -19.023  1.00  0.00    -0.006 C 
ATOM     18  C   UNL     1      -5.906 -20.381 -20.545  1.00  0.00     0.008 C 
ATOM     19  C   UNL     1      -7.349 -19.355 -18.779  1.00  0.00     0.008 C 
ENDBRANCH  12  17
ENDBRANCH  11  12
ENDBRANCH   1  11
TORSDOF 1
ENDMDL
