MODEL 1
REMARK VINA RESULT:    -4.862      0.000      0.000
REMARK INTER + INTRA:         -11.334
REMARK INTER:                  -9.125
REMARK INTRA:                  -2.209
REMARK UNBOUND:                -2.209
REMARK SMILES O=C([O-])CCCCCCCCCCCCCCC(=O)[O-]
REMARK SMILES IDX 10 1 9 2 8 3 7 4 6 5 5 6 4 7 2 8 1 9 3 10 11 11 12 12 13 13
REMARK SMILES IDX 14 14 15 15 16 16 17 17 18 18 19 19 20 20
REMARK H PARENT
REMARK Flexibility Score: inf
ROOT
ATOM      1  C   UNL     1       5.472   2.859  12.949  1.00  0.00     0.000 C 
ENDROOT
BRANCH   1   2
ATOM      2  C   UNL     1       5.327   1.329  12.967  1.00  0.00     0.000 C 
BRANCH   2   3
ATOM      3  C   UNL     1       6.157   0.671  14.084  1.00  0.00     0.000 C 
BRANCH   3   4
ATOM      4  C   UNL     1       6.371  -0.834  13.854  1.00  0.00     0.000 C 
BRANCH   4   5
ATOM      5  C   UNL     1       6.102  -1.670  15.117  1.00  0.00     0.000 C 
BRANCH   5   6
ATOM      6  C   UNL     1       6.145  -0.827  16.402  1.00  0.00     0.006 C 
BRANCH   6   7
ATOM      7  C   UNL     1       5.527  -1.549  17.606  1.00  0.00     0.053 C 
BRANCH   7   8
ATOM      8  C   UNL     1       5.659  -0.714  18.839  1.00  0.00     0.041 C 
ATOM      9  O   UNL     1       6.616  -0.904  19.635  1.00  0.00    -0.550 OA
ATOM     10  O   UNL     1       4.753   0.310  19.087  1.00  0.00    -0.550 OA
ENDBRANCH   7   8
ENDBRANCH   6   7
ENDBRANCH   5   6
ENDBRANCH   4   5
ENDBRANCH   3   4
ENDBRANCH   2   3
ENDBRANCH   1   2
BRANCH   1  11
ATOM     11  C   UNL     1       4.113   3.580  12.946  1.00  0.00     0.000 C 
BRANCH  11  12
ATOM     12  C   UNL     1       3.549   3.797  14.362  1.00  0.00     0.000 C 
BRANCH  12  13
ATOM     13  C   UNL     1       4.591   3.736  15.497  1.00  0.00     0.000 C 
BRANCH  13  14
ATOM     14  C   UNL     1       4.381   2.599  16.517  1.00  0.00     0.000 C 
BRANCH  14  15
ATOM     15  C   UNL     1       3.020   1.879  16.419  1.00  0.00     0.000 C 
BRANCH  15  16
ATOM     16  C   UNL     1       3.079   0.455  15.839  1.00  0.00     0.006 C 
BRANCH  16  17
ATOM     17  C   UNL     1       2.337   0.323  14.503  1.00  0.00     0.053 C 
BRANCH  17  18
ATOM     18  C   UNL     1       1.093  -0.489  14.674  1.00  0.00     0.041 C 
ATOM     19  O   UNL     1       1.126  -1.739  14.518  1.00  0.00    -0.550 OA
ATOM     20  O   UNL     1      -0.093   0.125  15.054  1.00  0.00    -0.550 OA
ENDBRANCH  17  18
ENDBRANCH  16  17
ENDBRANCH  15  16
ENDBRANCH  14  15
ENDBRANCH  13  14
ENDBRANCH  12  13
ENDBRANCH  11  12
ENDBRANCH   1  11
TORSDOF 15
ENDMDL
MODEL 2
REMARK VINA RESULT:    -4.855      1.331      3.218
REMARK INTER + INTRA:         -11.321
REMARK INTER:                  -9.499
REMARK INTRA:                  -1.823
REMARK UNBOUND:                -2.209
REMARK SMILES O=C([O-])CCCCCCCCCCCCCCC(=O)[O-]
REMARK SMILES IDX 10 1 9 2 8 3 7 4 6 5 5 6 4 7 2 8 1 9 3 10 11 11 12 12 13 13
REMARK SMILES IDX 14 14 15 15 16 16 17 17 18 18 19 19 20 20
REMARK H PARENT
REMARK Flexibility Score: inf
ROOT
ATOM      1  C   UNL     1       4.642   2.160  13.316  1.00  0.00     0.000 C 
ENDROOT
BRANCH   1   2
ATOM      2  C   UNL     1       4.751   3.511  14.041  1.00  0.00     0.000 C 
BRANCH   2   3
ATOM      3  C   UNL     1       4.109   3.482  15.440  1.00  0.00     0.000 C 
BRANCH   3   4
ATOM      4  C   UNL     1       4.599   2.300  16.292  1.00  0.00     0.000 C 
BRANCH   4   5
ATOM      5  C   UNL     1       3.730   2.069  17.540  1.00  0.00     0.000 C 
BRANCH   5   6
ATOM      6  C   UNL     1       4.440   1.215  18.603  1.00  0.00     0.006 C 
BRANCH   6   7
ATOM      7  C   UNL     1       5.610   0.405  18.028  1.00  0.00     0.053 C 
BRANCH   7   8
ATOM      8  C   UNL     1       5.581  -0.996  18.550  1.00  0.00     0.041 C 
ATOM      9  O   UNL     1       4.551  -1.705  18.407  1.00  0.00    -0.550 OA
ATOM     10  O   UNL     1       6.710  -1.537  19.153  1.00  0.00    -0.550 OA
ENDBRANCH   7   8
ENDBRANCH   6   7
ENDBRANCH   5   6
ENDBRANCH   4   5
ENDBRANCH   3   4
ENDBRANCH   2   3
ENDBRANCH   1   2
BRANCH   1  11
ATOM     11  C   UNL     1       6.011   1.615  12.875  1.00  0.00     0.000 C 
BRANCH  11  12
ATOM     12  C   UNL     1       6.149   0.097  13.092  1.00  0.00     0.000 C 
BRANCH  12  13
ATOM     13  C   UNL     1       6.441  -0.331  14.545  1.00  0.00     0.000 C 
BRANCH  13  14
ATOM     14  C   UNL     1       5.705  -1.603  15.011  1.00  0.00     0.000 C 
BRANCH  14  15
ATOM     15  C   UNL     1       4.624  -2.123  14.042  1.00  0.00     0.000 C 
BRANCH  15  16
ATOM     16  C   UNL     1       3.354  -1.258  13.960  1.00  0.00     0.006 C 
BRANCH  16  17
ATOM     17  C   UNL     1       2.823  -0.846  15.339  1.00  0.00     0.053 C 
BRANCH  17  18
ATOM     18  C   UNL     1       1.542  -0.088  15.200  1.00  0.00     0.041 C 
ATOM     19  O   UNL     1       0.795  -0.281  14.204  1.00  0.00    -0.550 OA
ATOM     20  O   UNL     1       1.146   0.798  16.195  1.00  0.00    -0.550 OA
ENDBRANCH  17  18
ENDBRANCH  16  17
ENDBRANCH  15  16
ENDBRANCH  14  15
ENDBRANCH  13  14
ENDBRANCH  12  13
ENDBRANCH  11  12
ENDBRANCH   1  11
TORSDOF 15
ENDMDL
MODEL 3
REMARK VINA RESULT:    -4.552      2.212      5.379
REMARK INTER + INTRA:         -10.752
REMARK INTER:                  -8.817
REMARK INTRA:                  -1.935
REMARK UNBOUND:                -2.209
REMARK SMILES O=C([O-])CCCCCCCCCCCCCCC(=O)[O-]
REMARK SMILES IDX 10 1 9 2 8 3 7 4 6 5 5 6 4 7 2 8 1 9 3 10 11 11 12 12 13 13
REMARK SMILES IDX 14 14 15 15 16 16 17 17 18 18 19 19 20 20
REMARK H PARENT
REMARK Flexibility Score: inf
ROOT
ATOM      1  C   UNL     1       5.747  -1.583  17.958  1.00  0.00     0.000 C 
ENDROOT
BRANCH   1   2
ATOM      2  C   UNL     1       5.875  -0.072  18.212  1.00  0.00     0.000 C 
BRANCH   2   3
ATOM      3  C   UNL     1       4.834   0.446  19.221  1.00  0.00     0.000 C 
BRANCH   3   4
ATOM      4  C   UNL     1       4.014   1.625  18.672  1.00  0.00     0.000 C 
BRANCH   4   5
ATOM      5  C   UNL     1       4.031   1.694  17.135  1.00  0.00     0.000 C 
BRANCH   5   6
ATOM      6  C   UNL     1       2.688   1.280  16.512  1.00  0.00     0.006 C 
BRANCH   6   7
ATOM      7  C   UNL     1       2.767  -0.060  15.769  1.00  0.00     0.053 C 
BRANCH   7   8
ATOM      8  C   UNL     1       1.464  -0.364  15.101  1.00  0.00     0.041 C 
ATOM      9  O   UNL     1       0.520   0.467  15.146  1.00  0.00    -0.550 OA
ATOM     10  O   UNL     1       1.308  -1.544  14.385  1.00  0.00    -0.550 OA
ENDBRANCH   7   8
ENDBRANCH   6   7
ENDBRANCH   5   6
ENDBRANCH   4   5
ENDBRANCH   3   4
ENDBRANCH   2   3
ENDBRANCH   1   2
BRANCH   1  11
ATOM     11  C   UNL     1       5.905  -1.947  16.471  1.00  0.00     0.000 C 
BRANCH  11  12
ATOM     12  C   UNL     1       6.169  -0.718  15.581  1.00  0.00     0.000 C 
BRANCH  12  13
ATOM     13  C   UNL     1       6.544  -1.039  14.120  1.00  0.00     0.000 C 
BRANCH  13  14
ATOM     14  C   UNL     1       5.871  -0.142  13.061  1.00  0.00     0.000 C 
BRANCH  14  15
ATOM     15  C   UNL     1       5.709   1.337  13.467  1.00  0.00     0.000 C 
BRANCH  15  16
ATOM     16  C   UNL     1       4.322   1.940  13.185  1.00  0.00     0.006 C 
BRANCH  16  17
ATOM     17  C   UNL     1       4.321   3.473  13.212  1.00  0.00     0.053 C 
BRANCH  17  18
ATOM     18  C   UNL     1       3.610   3.974  14.428  1.00  0.00     0.041 C 
ATOM     19  O   UNL     1       4.259   4.506  15.368  1.00  0.00    -0.550 OA
ATOM     20  O   UNL     1       2.225   3.899  14.505  1.00  0.00    -0.550 OA
ENDBRANCH  17  18
ENDBRANCH  16  17
ENDBRANCH  15  16
ENDBRANCH  14  15
ENDBRANCH  13  14
ENDBRANCH  12  13
ENDBRANCH  11  12
ENDBRANCH   1  11
TORSDOF 15
ENDMDL
MODEL 4
REMARK VINA RESULT:    -4.464      2.148      4.733
REMARK INTER + INTRA:         -10.587
REMARK INTER:                  -8.667
REMARK INTRA:                  -1.920
REMARK UNBOUND:                -2.209
REMARK SMILES O=C([O-])CCCCCCCCCCCCCCC(=O)[O-]
REMARK SMILES IDX 10 1 9 2 8 3 7 4 6 5 5 6 4 7 2 8 1 9 3 10 11 11 12 12 13 13
REMARK SMILES IDX 14 14 15 15 16 16 17 17 18 18 19 19 20 20
REMARK H PARENT
REMARK Flexibility Score: inf
ROOT
ATOM      1  C   UNL     1       6.242  -1.917  16.832  1.00  0.00     0.000 C 
ENDROOT
BRANCH   1   2
ATOM      2  C   UNL     1       5.907  -2.088  15.341  1.00  0.00     0.000 C 
BRANCH   2   3
ATOM      3  C   UNL     1       6.800  -1.223  14.433  1.00  0.00     0.000 C 
BRANCH   3   4
ATOM      4  C   UNL     1       5.994  -0.442  13.382  1.00  0.00     0.000 C 
BRANCH   4   5
ATOM      5  C   UNL     1       4.575  -1.003  13.187  1.00  0.00     0.000 C 
BRANCH   5   6
ATOM      6  C   UNL     1       3.496  -0.108  13.819  1.00  0.00     0.006 C 
BRANCH   6   7
ATOM      7  C   UNL     1       2.597  -0.870  14.803  1.00  0.00     0.053 C 
BRANCH   7   8
ATOM      8  C   UNL     1       1.412  -0.037  15.177  1.00  0.00     0.041 C 
ATOM      9  O   UNL     1       1.523   0.875  16.036  1.00  0.00    -0.550 OA
ATOM     10  O   UNL     1       0.194  -0.237  14.540  1.00  0.00    -0.550 OA
ENDBRANCH   7   8
ENDBRANCH   6   7
ENDBRANCH   5   6
ENDBRANCH   4   5
ENDBRANCH   3   4
ENDBRANCH   2   3
ENDBRANCH   1   2
BRANCH   1  11
ATOM     11  C   UNL     1       5.027  -1.467  17.661  1.00  0.00     0.000 C 
BRANCH  11  12
ATOM     12  C   UNL     1       5.409  -0.521  18.815  1.00  0.00     0.000 C 
BRANCH  12  13
ATOM     13  C   UNL     1       4.784   0.887  18.739  1.00  0.00     0.000 C 
BRANCH  13  14
ATOM     14  C   UNL     1       4.379   1.346  17.324  1.00  0.00     0.000 C 
BRANCH  14  15
ATOM     15  C   UNL     1       5.554   1.724  16.400  1.00  0.00     0.000 C 
BRANCH  15  16
ATOM     16  C   UNL     1       5.163   2.529  15.148  1.00  0.00     0.006 C 
BRANCH  16  17
ATOM     17  C   UNL     1       4.302   3.756  15.473  1.00  0.00     0.053 C 
BRANCH  17  18
ATOM     18  C   UNL     1       3.235   3.933  14.440  1.00  0.00     0.041 C 
ATOM     19  O   UNL     1       2.020   3.868  14.766  1.00  0.00    -0.550 OA
ATOM     20  O   UNL     1       3.580   4.220  13.125  1.00  0.00    -0.550 OA
ENDBRANCH  17  18
ENDBRANCH  16  17
ENDBRANCH  15  16
ENDBRANCH  14  15
ENDBRANCH  13  14
ENDBRANCH  12  13
ENDBRANCH  11  12
ENDBRANCH   1  11
TORSDOF 15
ENDMDL
MODEL 5
REMARK VINA RESULT:    -4.413      1.213      4.006
REMARK INTER + INTRA:         -10.492
REMARK INTER:                  -9.159
REMARK INTRA:                  -1.334
REMARK UNBOUND:                -2.209
REMARK SMILES O=C([O-])CCCCCCCCCCCCCCC(=O)[O-]
REMARK SMILES IDX 10 1 9 2 8 3 7 4 6 5 5 6 4 7 2 8 1 9 3 10 11 11 12 12 13 13
REMARK SMILES IDX 14 14 15 15 16 16 17 17 18 18 19 19 20 20
REMARK H PARENT
REMARK Flexibility Score: inf
ROOT
ATOM      1  C   UNL     1       4.813   3.038  13.039  1.00  0.00     0.000 C 
ENDROOT
BRANCH   1   2
ATOM      2  C   UNL     1       4.732   1.511  12.886  1.00  0.00     0.000 C 
BRANCH   2   3
ATOM      3  C   UNL     1       6.117   0.840  12.921  1.00  0.00     0.000 C 
BRANCH   3   4
ATOM      4  C   UNL     1       6.037  -0.667  13.216  1.00  0.00     0.000 C 
BRANCH   4   5
ATOM      5  C   UNL     1       4.661  -1.265  12.876  1.00  0.00     0.000 C 
BRANCH   5   6
ATOM      6  C   UNL     1       3.941  -1.828  14.113  1.00  0.00     0.006 C 
BRANCH   6   7
ATOM      7  C   UNL     1       2.418  -1.881  13.938  1.00  0.00     0.053 C 
BRANCH   7   8
ATOM      8  C   UNL     1       1.761  -0.828  14.774  1.00  0.00     0.041 C 
ATOM      9  O   UNL     1       2.296  -0.444  15.846  1.00  0.00    -0.550 OA
ATOM     10  O   UNL     1       0.581  -0.235  14.343  1.00  0.00    -0.550 OA
ENDBRANCH   7   8
ENDBRANCH   6   7
ENDBRANCH   5   6
ENDBRANCH   4   5
ENDBRANCH   3   4
ENDBRANCH   2   3
ENDBRANCH   1   2
BRANCH   1  11
ATOM     11  C   UNL     1       3.463   3.665  13.429  1.00  0.00     0.000 C 
BRANCH  11  12
ATOM     12  C   UNL     1       3.219   3.658  14.949  1.00  0.00     0.000 C 
BRANCH  12  13
ATOM     13  C   UNL     1       4.452   3.310  15.808  1.00  0.00     0.000 C 
BRANCH  13  14
ATOM     14  C   UNL     1       4.279   2.091  16.736  1.00  0.00     0.000 C 
BRANCH  14  15
ATOM     15  C   UNL     1       5.582   1.341  17.077  1.00  0.00     0.000 C 
BRANCH  15  16
ATOM     16  C   UNL     1       5.657  -0.103  16.553  1.00  0.00     0.006 C 
BRANCH  16  17
ATOM     17  C   UNL     1       5.164  -1.135  17.576  1.00  0.00     0.053 C 
BRANCH  17  18
ATOM     18  C   UNL     1       5.465  -0.677  18.967  1.00  0.00     0.041 C 
ATOM     19  O   UNL     1       6.578  -0.943  19.495  1.00  0.00    -0.550 OA
ATOM     20  O   UNL     1       4.538   0.086  19.664  1.00  0.00    -0.550 OA
ENDBRANCH  17  18
ENDBRANCH  16  17
ENDBRANCH  15  16
ENDBRANCH  14  15
ENDBRANCH  13  14
ENDBRANCH  12  13
ENDBRANCH  11  12
ENDBRANCH   1  11
TORSDOF 15
ENDMDL
MODEL 6
REMARK VINA RESULT:    -4.305      0.863      1.737
REMARK INTER + INTRA:         -10.290
REMARK INTER:                  -8.663
REMARK INTRA:                  -1.627
REMARK UNBOUND:                -2.209
REMARK SMILES O=C([O-])CCCCCCCCCCCCCCC(=O)[O-]
REMARK SMILES IDX 10 1 9 2 8 3 7 4 6 5 5 6 4 7 2 8 1 9 3 10 11 11 12 12 13 13
REMARK SMILES IDX 14 14 15 15 16 16 17 17 18 18 19 19 20 20
REMARK H PARENT
REMARK Flexibility Score: inf
ROOT
ATOM      1  C   UNL     1       5.976   0.894  13.940  1.00  0.00     0.000 C 
ENDROOT
BRANCH   1   2
ATOM      2  C   UNL     1       6.577  -0.378  13.320  1.00  0.00     0.000 C 
BRANCH   2   3
ATOM      3  C   UNL     1       5.529  -1.487  13.118  1.00  0.00     0.000 C 
BRANCH   3   4
ATOM      4  C   UNL     1       4.805  -1.861  14.421  1.00  0.00     0.000 C 
BRANCH   4   5
ATOM      5  C   UNL     1       5.758  -1.942  15.626  1.00  0.00     0.000 C 
BRANCH   5   6
ATOM      6  C   UNL     1       5.121  -1.405  16.919  1.00  0.00     0.006 C 
BRANCH   6   7
ATOM      7  C   UNL     1       6.026  -0.408  17.655  1.00  0.00     0.053 C 
BRANCH   7   8
ATOM      8  C   UNL     1       5.727  -0.419  19.121  1.00  0.00     0.041 C 
ATOM      9  O   UNL     1       6.588  -0.832  19.940  1.00  0.00    -0.550 OA
ATOM     10  O   UNL     1       4.516   0.076  19.587  1.00  0.00    -0.550 OA
ENDBRANCH   7   8
ENDBRANCH   6   7
ENDBRANCH   5   6
ENDBRANCH   4   5
ENDBRANCH   3   4
ENDBRANCH   2   3
ENDBRANCH   1   2
BRANCH   1  11
ATOM     11  C   UNL     1       5.514   1.906  12.877  1.00  0.00     0.000 C 
BRANCH  11  12
ATOM     12  C   UNL     1       5.276   3.313  13.455  1.00  0.00     0.000 C 
BRANCH  12  13
ATOM     13  C   UNL     1       3.836   3.845  13.308  1.00  0.00     0.000 C 
BRANCH  13  14
ATOM     14  C   UNL     1       2.935   3.640  14.542  1.00  0.00     0.000 C 
BRANCH  14  15
ATOM     15  C   UNL     1       3.622   2.965  15.745  1.00  0.00     0.000 C 
BRANCH  15  16
ATOM     16  C   UNL     1       3.297   1.472  15.925  1.00  0.00     0.006 C 
BRANCH  16  17
ATOM     17  C   UNL     1       2.507   0.887  14.748  1.00  0.00     0.053 C 
BRANCH  17  18
ATOM     18  C   UNL     1       1.324   0.118  15.244  1.00  0.00     0.041 C 
ATOM     19  O   UNL     1       0.639   0.558  16.205  1.00  0.00    -0.550 OA
ATOM     20  O   UNL     1       0.947  -1.062  14.614  1.00  0.00    -0.550 OA
ENDBRANCH  17  18
ENDBRANCH  16  17
ENDBRANCH  15  16
ENDBRANCH  14  15
ENDBRANCH  13  14
ENDBRANCH  12  13
ENDBRANCH  11  12
ENDBRANCH   1  11
TORSDOF 15
ENDMDL
MODEL 7
REMARK VINA RESULT:    -4.057      2.004      5.134
REMARK INTER + INTRA:          -9.823
REMARK INTER:                  -8.209
REMARK INTRA:                  -1.614
REMARK UNBOUND:                -2.209
REMARK SMILES O=C([O-])CCCCCCCCCCCCCCC(=O)[O-]
REMARK SMILES IDX 10 1 9 2 8 3 7 4 6 5 5 6 4 7 2 8 1 9 3 10 11 11 12 12 13 13
REMARK SMILES IDX 14 14 15 15 16 16 17 17 18 18 19 19 20 20
REMARK H PARENT
REMARK Flexibility Score: inf
ROOT
ATOM      1  C   UNL     1       4.691  -2.125  15.024  1.00  0.00     0.000 C 
ENDROOT
BRANCH   1   2
ATOM      2  C   UNL     1       6.116  -1.854  14.514  1.00  0.00     0.000 C 
BRANCH   2   3
ATOM      3  C   UNL     1       6.144  -0.851  13.347  1.00  0.00     0.000 C 
BRANCH   3   4
ATOM      4  C   UNL     1       6.716   0.517  13.757  1.00  0.00     0.000 C 
BRANCH   4   5
ATOM      5  C   UNL     1       6.194   1.664  12.875  1.00  0.00     0.000 C 
BRANCH   5   6
ATOM      6  C   UNL     1       4.718   1.995  13.151  1.00  0.00     0.006 C 
BRANCH   6   7
ATOM      7  C   UNL     1       4.418   3.496  13.047  1.00  0.00     0.053 C 
BRANCH   7   8
ATOM      8  C   UNL     1       3.747   3.981  14.294  1.00  0.00     0.041 C 
ATOM      9  O   UNL     1       2.521   4.265  14.285  1.00  0.00    -0.550 OA
ATOM     10  O   UNL     1       4.466   4.072  15.479  1.00  0.00    -0.550 OA
ENDBRANCH   7   8
ENDBRANCH   6   7
ENDBRANCH   5   6
ENDBRANCH   4   5
ENDBRANCH   3   4
ENDBRANCH   2   3
ENDBRANCH   1   2
BRANCH   1  11
ATOM     11  C   UNL     1       3.611  -1.639  14.042  1.00  0.00     0.000 C 
BRANCH  11  12
ATOM     12  C   UNL     1       2.204  -1.614  14.666  1.00  0.00     0.000 C 
BRANCH  12  13
ATOM     13  C   UNL     1       1.639  -0.207  14.948  1.00  0.00     0.000 C 
BRANCH  13  14
ATOM     14  C   UNL     1       2.694   0.860  15.305  1.00  0.00     0.000 C 
BRANCH  14  15
ATOM     15  C   UNL     1       2.800   1.194  16.806  1.00  0.00     0.000 C 
BRANCH  15  16
ATOM     16  C   UNL     1       4.228   1.460  17.313  1.00  0.00     0.006 C 
BRANCH  16  17
ATOM     17  C   UNL     1       5.097   0.196  17.341  1.00  0.00     0.053 C 
BRANCH  17  18
ATOM     18  C   UNL     1       5.361  -0.225  18.751  1.00  0.00     0.041 C 
ATOM     19  O   UNL     1       4.590   0.142  19.678  1.00  0.00    -0.550 OA
ATOM     20  O   UNL     1       6.431  -1.063  19.039  1.00  0.00    -0.550 OA
ENDBRANCH  17  18
ENDBRANCH  16  17
ENDBRANCH  15  16
ENDBRANCH  14  15
ENDBRANCH  13  14
ENDBRANCH  12  13
ENDBRANCH  11  12
ENDBRANCH   1  11
TORSDOF 15
ENDMDL
MODEL 8
REMARK VINA RESULT:    -4.049      1.355      2.916
REMARK INTER + INTRA:          -9.809
REMARK INTER:                  -7.728
REMARK INTRA:                  -2.081
REMARK UNBOUND:                -2.209
REMARK SMILES O=C([O-])CCCCCCCCCCCCCCC(=O)[O-]
REMARK SMILES IDX 10 1 9 2 8 3 7 4 6 5 5 6 4 7 2 8 1 9 3 10 11 11 12 12 13 13
REMARK SMILES IDX 14 14 15 15 16 16 17 17 18 18 19 19 20 20
REMARK H PARENT
REMARK Flexibility Score: inf
ROOT
ATOM      1  C   UNL     1       2.905   2.901  14.731  1.00  0.00     0.000 C 
ENDROOT
BRANCH   1   2
ATOM      2  C   UNL     1       3.011   1.635  15.597  1.00  0.00     0.000 C 
BRANCH   2   3
ATOM      3  C   UNL     1       3.219   1.956  17.088  1.00  0.00     0.000 C 
BRANCH   3   4
ATOM      4  C   UNL     1       4.532   1.377  17.640  1.00  0.00     0.000 C 
BRANCH   4   5
ATOM      5  C   UNL     1       5.412   0.753  16.543  1.00  0.00     0.000 C 
BRANCH   5   6
ATOM      6  C   UNL     1       5.832  -0.689  16.874  1.00  0.00     0.006 C 
BRANCH   6   7
ATOM      7  C   UNL     1       5.171  -1.219  18.153  1.00  0.00     0.053 C 
BRANCH   7   8
ATOM      8  C   UNL     1       6.137  -1.176  19.295  1.00  0.00     0.041 C 
ATOM      9  O   UNL     1       7.144  -1.930  19.302  1.00  0.00    -0.550 OA
ATOM     10  O   UNL     1       5.951  -0.266  20.328  1.00  0.00    -0.550 OA
ENDBRANCH   7   8
ENDBRANCH   6   7
ENDBRANCH   5   6
ENDBRANCH   4   5
ENDBRANCH   3   4
ENDBRANCH   2   3
ENDBRANCH   1   2
BRANCH   1  11
ATOM     11  C   UNL     1       4.225   3.688  14.674  1.00  0.00     0.000 C 
BRANCH  11  12
ATOM     12  C   UNL     1       5.071   3.348  13.433  1.00  0.00     0.000 C 
BRANCH  12  13
ATOM     13  C   UNL     1       4.869   1.924  12.875  1.00  0.00     0.000 C 
BRANCH  13  14
ATOM     14  C   UNL     1       6.059   0.967  13.082  1.00  0.00     0.000 C 
BRANCH  14  15
ATOM     15  C   UNL     1       5.689  -0.529  13.147  1.00  0.00     0.000 C 
BRANCH  15  16
ATOM     16  C   UNL     1       4.183  -0.821  13.263  1.00  0.00     0.006 C 
BRANCH  16  17
ATOM     17  C   UNL     1       3.881  -2.087  14.075  1.00  0.00     0.053 C 
BRANCH  17  18
ATOM     18  C   UNL     1       2.590  -1.938  14.814  1.00  0.00     0.041 C 
ATOM     19  O   UNL     1       2.585  -1.835  16.070  1.00  0.00    -0.550 OA
ATOM     20  O   UNL     1       1.392  -1.864  14.114  1.00  0.00    -0.550 OA
ENDBRANCH  17  18
ENDBRANCH  16  17
ENDBRANCH  15  16
ENDBRANCH  14  15
ENDBRANCH  13  14
ENDBRANCH  12  13
ENDBRANCH  11  12
ENDBRANCH   1  11
TORSDOF 15
ENDMDL
