MODEL 1
REMARK VINA RESULT:    -3.500      0.000      0.000
REMARK INTER + INTRA:          -8.153
REMARK INTER:                  -6.364
REMARK INTRA:                  -1.789
REMARK UNBOUND:                -1.789
REMARK SMILES CCCCCCCCCCCCCCCC(=O)[O-]
REMARK SMILES IDX 9 1 10 2 11 3 12 4 13 5 14 6 15 7 16 8 17 9 18 10 8 11 7 12
REMARK SMILES IDX 6 13 5 14 4 15 3 16 2 17 1 18
REMARK H PARENT
REMARK Flexibility Score: inf
ROOT
ATOM      1  C   UNL     1      10.358 -17.222  -2.499  1.00  0.00     0.000 C 
ENDROOT
BRANCH   1   2
ATOM      2  C   UNL     1      10.551 -18.687  -2.916  1.00  0.00     0.000 C 
BRANCH   2   3
ATOM      3  C   UNL     1      11.598 -18.859  -4.032  1.00  0.00     0.000 C 
BRANCH   3   4
ATOM      4  C   UNL     1      11.027 -19.244  -5.412  1.00  0.00     0.000 C 
BRANCH   4   5
ATOM      5  C   UNL     1      11.161 -18.163  -6.500  1.00  0.00     0.000 C 
BRANCH   5   6
ATOM      6  C   UNL     1       9.804 -17.718  -7.070  1.00  0.00     0.006 C 
BRANCH   6   7
ATOM      7  C   UNL     1       9.206 -18.763  -8.023  1.00  0.00     0.053 C 
BRANCH   7   8
ATOM      8  C   UNL     1       7.844 -18.365  -8.502  1.00  0.00     0.041 C 
ATOM      9  O   UNL     1       7.607 -18.280  -9.736  1.00  0.00    -0.550 OA
ATOM     10  O   UNL     1       6.828 -18.118  -7.587  1.00  0.00    -0.550 OA
ENDBRANCH   7   8
ENDBRANCH   6   7
ENDBRANCH   5   6
ENDBRANCH   4   5
ENDBRANCH   3   4
ENDBRANCH   2   3
ENDBRANCH   1   2
BRANCH   1  11
ATOM     11  C   UNL     1       9.748 -16.402  -3.641  1.00  0.00     0.000 C 
BRANCH  11  12
ATOM     12  C   UNL     1      10.235 -14.947  -3.595  1.00  0.00    -0.000 C 
BRANCH  12  13
ATOM     13  C   UNL     1      11.036 -14.548  -4.845  1.00  0.00    -0.000 C 
BRANCH  13  14
ATOM     14  C   UNL     1      12.453 -15.147  -4.854  1.00  0.00    -0.000 C 
BRANCH  14  15
ATOM     15  C   UNL     1      13.152 -15.033  -3.489  1.00  0.00    -0.000 C 
BRANCH  15  16
ATOM     16  C   UNL     1      14.151 -16.172  -3.236  1.00  0.00    -0.000 C 
BRANCH  16  17
ATOM     17  C   UNL     1      14.062 -17.233  -4.340  1.00  0.00    -0.003 C 
ATOM     18  C   UNL     1      15.282 -18.150  -4.324  1.00  0.00     0.004 C 
ENDBRANCH  16  17
ENDBRANCH  15  16
ENDBRANCH  14  15
ENDBRANCH  13  14
ENDBRANCH  12  13
ENDBRANCH  11  12
ENDBRANCH   1  11
TORSDOF 14
ENDMDL
MODEL 2
REMARK VINA RESULT:    -3.481      4.876      7.104
REMARK INTER + INTRA:          -8.119
REMARK INTER:                  -6.302
REMARK INTRA:                  -1.817
REMARK UNBOUND:                -1.789
REMARK SMILES CCCCCCCCCCCCCCCC(=O)[O-]
REMARK SMILES IDX 9 1 10 2 11 3 12 4 13 5 14 6 15 7 16 8 17 9 18 10 8 11 7 12
REMARK SMILES IDX 6 13 5 14 4 15 3 16 2 17 1 18
REMARK H PARENT
REMARK Flexibility Score: inf
ROOT
ATOM      1  C   UNL     1      12.455 -18.558  -5.496  1.00  0.00     0.000 C 
ENDROOT
BRANCH   1   2
ATOM      2  C   UNL     1      13.488 -18.797  -4.384  1.00  0.00     0.000 C 
BRANCH   2   3
ATOM      3  C   UNL     1      14.928 -18.483  -4.828  1.00  0.00     0.000 C 
BRANCH   3   4
ATOM      4  C   UNL     1      15.948 -18.326  -3.681  1.00  0.00     0.000 C 
BRANCH   4   5
ATOM      5  C   UNL     1      17.361 -18.856  -3.985  1.00  0.00     0.000 C 
BRANCH   5   6
ATOM      6  C   UNL     1      17.905 -19.773  -2.877  1.00  0.00     0.006 C 
BRANCH   6   7
ATOM      7  C   UNL     1      17.087 -21.065  -2.739  1.00  0.00     0.053 C 
BRANCH   7   8
ATOM      8  C   UNL     1      17.539 -21.890  -1.574  1.00  0.00     0.041 C 
ATOM      9  O   UNL     1      17.415 -23.143  -1.600  1.00  0.00    -0.550 OA
ATOM     10  O   UNL     1      18.125 -21.279  -0.473  1.00  0.00    -0.550 OA
ENDBRANCH   7   8
ENDBRANCH   6   7
ENDBRANCH   5   6
ENDBRANCH   4   5
ENDBRANCH   3   4
ENDBRANCH   2   3
ENDBRANCH   1   2
BRANCH   1  11
ATOM     11  C   UNL     1      11.037 -18.475  -4.919  1.00  0.00     0.000 C 
BRANCH  11  12
ATOM     12  C   UNL     1      11.050 -18.681  -3.397  1.00  0.00    -0.000 C 
BRANCH  12  13
ATOM     13  C   UNL     1      10.240 -17.612  -2.646  1.00  0.00    -0.000 C 
BRANCH  13  14
ATOM     14  C   UNL     1       9.783 -16.465  -3.563  1.00  0.00    -0.000 C 
BRANCH  14  15
ATOM     15  C   UNL     1      10.627 -15.192  -3.383  1.00  0.00    -0.000 C 
BRANCH  15  16
ATOM     16  C   UNL     1      11.331 -14.758  -4.677  1.00  0.00    -0.000 C 
BRANCH  16  17
ATOM     17  C   UNL     1      12.835 -15.048  -4.606  1.00  0.00    -0.003 C 
ATOM     18  C   UNL     1      13.276 -15.334  -3.174  1.00  0.00     0.004 C 
ENDBRANCH  16  17
ENDBRANCH  15  16
ENDBRANCH  14  15
ENDBRANCH  13  14
ENDBRANCH  12  13
ENDBRANCH  11  12
ENDBRANCH   1  11
TORSDOF 14
ENDMDL
MODEL 3
REMARK VINA RESULT:    -3.328      3.211      6.013
REMARK INTER + INTRA:          -7.841
REMARK INTER:                  -6.285
REMARK INTRA:                  -1.556
REMARK UNBOUND:                -1.789
REMARK SMILES CCCCCCCCCCCCCCCC(=O)[O-]
REMARK SMILES IDX 9 1 10 2 11 3 12 4 13 5 14 6 15 7 16 8 17 9 18 10 8 11 7 12
REMARK SMILES IDX 6 13 5 14 4 15 3 16 2 17 1 18
REMARK H PARENT
REMARK Flexibility Score: inf
ROOT
ATOM      1  C   UNL     1       9.603 -16.585  -3.502  1.00  0.00     0.000 C 
ENDROOT
BRANCH   1   2
ATOM      2  C   UNL     1      10.089 -15.132  -3.392  1.00  0.00     0.000 C 
BRANCH   2   3
ATOM      3  C   UNL     1      10.681 -14.598  -4.709  1.00  0.00     0.000 C 
BRANCH   3   4
ATOM      4  C   UNL     1      12.196 -14.309  -4.676  1.00  0.00     0.000 C 
BRANCH   4   5
ATOM      5  C   UNL     1      12.998 -15.135  -3.654  1.00  0.00     0.000 C 
BRANCH   5   6
ATOM      6  C   UNL     1      13.567 -16.433  -4.251  1.00  0.00     0.006 C 
BRANCH   6   7
ATOM      7  C   UNL     1      14.868 -16.866  -3.559  1.00  0.00     0.053 C 
BRANCH   7   8
ATOM      8  C   UNL     1      15.429 -18.118  -4.161  1.00  0.00     0.041 C 
ATOM      9  O   UNL     1      14.779 -18.746  -5.037  1.00  0.00    -0.550 OA
ATOM     10  O   UNL     1      16.683 -18.574  -3.775  1.00  0.00    -0.550 OA
ENDBRANCH   7   8
ENDBRANCH   6   7
ENDBRANCH   5   6
ENDBRANCH   4   5
ENDBRANCH   3   4
ENDBRANCH   2   3
ENDBRANCH   1   2
BRANCH   1  11
ATOM     11  C   UNL     1      10.318 -17.481  -2.483  1.00  0.00     0.000 C 
BRANCH  11  12
ATOM     12  C   UNL     1      10.593 -18.872  -3.073  1.00  0.00    -0.000 C 
BRANCH  12  13
ATOM     13  C   UNL     1      11.684 -18.853  -4.156  1.00  0.00    -0.000 C 
BRANCH  13  14
ATOM     14  C   UNL     1      11.130 -19.162  -5.557  1.00  0.00    -0.000 C 
BRANCH  14  15
ATOM     15  C   UNL     1      11.009 -17.906  -6.436  1.00  0.00    -0.000 C 
BRANCH  15  16
ATOM     16  C   UNL     1       9.583 -17.684  -6.962  1.00  0.00    -0.000 C 
BRANCH  16  17
ATOM     17  C   UNL     1       9.240 -18.699  -8.059  1.00  0.00    -0.003 C 
ATOM     18  C   UNL     1       7.910 -18.362  -8.727  1.00  0.00     0.004 C 
ENDBRANCH  16  17
ENDBRANCH  15  16
ENDBRANCH  14  15
ENDBRANCH  13  14
ENDBRANCH  12  13
ENDBRANCH  11  12
ENDBRANCH   1  11
TORSDOF 14
ENDMDL
MODEL 4
REMARK VINA RESULT:    -3.250      3.465      5.786
REMARK INTER + INTRA:          -7.698
REMARK INTER:                  -6.517
REMARK INTRA:                  -1.182
REMARK UNBOUND:                -1.789
REMARK SMILES CCCCCCCCCCCCCCCC(=O)[O-]
REMARK SMILES IDX 9 1 10 2 11 3 12 4 13 5 14 6 15 7 16 8 17 9 18 10 8 11 7 12
REMARK SMILES IDX 6 13 5 14 4 15 3 16 2 17 1 18
REMARK H PARENT
REMARK Flexibility Score: inf
ROOT
ATOM      1  C   UNL     1      13.834 -17.336  -4.387  1.00  0.00     0.000 C 
ENDROOT
BRANCH   1   2
ATOM      2  C   UNL     1      13.181 -18.678  -4.750  1.00  0.00     0.000 C 
BRANCH   2   3
ATOM      3  C   UNL     1      11.645 -18.641  -4.658  1.00  0.00     0.000 C 
BRANCH   3   4
ATOM      4  C   UNL     1      11.072 -18.725  -3.228  1.00  0.00     0.000 C 
BRANCH   4   5
ATOM      5  C   UNL     1      10.292 -17.482  -2.762  1.00  0.00     0.000 C 
BRANCH   5   6
ATOM      6  C   UNL     1      10.031 -16.480  -3.898  1.00  0.00     0.006 C 
BRANCH   6   7
ATOM      7  C   UNL     1      10.712 -15.128  -3.646  1.00  0.00     0.053 C 
BRANCH   7   8
ATOM      8  C   UNL     1      11.290 -14.551  -4.902  1.00  0.00     0.041 C 
ATOM      9  O   UNL     1      11.756 -13.382  -4.906  1.00  0.00    -0.550 OA
ATOM     10  O   UNL     1      11.341 -15.316  -6.060  1.00  0.00    -0.550 OA
ENDBRANCH   7   8
ENDBRANCH   6   7
ENDBRANCH   5   6
ENDBRANCH   4   5
ENDBRANCH   3   4
ENDBRANCH   2   3
ENDBRANCH   1   2
BRANCH   1  11
ATOM     11  C   UNL     1      15.224 -17.549  -3.776  1.00  0.00     0.000 C 
BRANCH  11  12
ATOM     12  C   UNL     1      15.912 -18.776  -4.392  1.00  0.00    -0.000 C 
BRANCH  12  13
ATOM     13  C   UNL     1      17.418 -18.828  -4.087  1.00  0.00    -0.000 C 
BRANCH  13  14
ATOM     14  C   UNL     1      17.734 -19.623  -2.809  1.00  0.00    -0.000 C 
BRANCH  14  15
ATOM     15  C   UNL     1      17.105 -21.026  -2.814  1.00  0.00    -0.000 C 
BRANCH  15  16
ATOM     16  C   UNL     1      17.528 -21.872  -1.604  1.00  0.00    -0.000 C 
BRANCH  16  17
ATOM     17  C   UNL     1      17.017 -23.311  -1.735  1.00  0.00    -0.003 C 
ATOM     18  C   UNL     1      16.696 -23.653  -3.187  1.00  0.00     0.004 C 
ENDBRANCH  16  17
ENDBRANCH  15  16
ENDBRANCH  14  15
ENDBRANCH  13  14
ENDBRANCH  12  13
ENDBRANCH  11  12
ENDBRANCH   1  11
TORSDOF 14
ENDMDL
MODEL 5
REMARK VINA RESULT:    -3.226      3.034      6.048
REMARK INTER + INTRA:          -7.656
REMARK INTER:                  -6.083
REMARK INTRA:                  -1.572
REMARK UNBOUND:                -1.789
REMARK SMILES CCCCCCCCCCCCCCCC(=O)[O-]
REMARK SMILES IDX 9 1 10 2 11 3 12 4 13 5 14 6 15 7 16 8 17 9 18 10 8 11 7 12
REMARK SMILES IDX 6 13 5 14 4 15 3 16 2 17 1 18
REMARK H PARENT
REMARK Flexibility Score: inf
ROOT
ATOM      1  C   UNL     1       9.855 -18.358  -2.265  1.00  0.00     0.000 C 
ENDROOT
BRANCH   1   2
ATOM      2  C   UNL     1      10.392 -16.943  -2.527  1.00  0.00     0.000 C 
BRANCH   2   3
ATOM      3  C   UNL     1       9.539 -16.157  -3.539  1.00  0.00     0.000 C 
BRANCH   3   4
ATOM      4  C   UNL     1      10.075 -14.757  -3.900  1.00  0.00     0.000 C 
BRANCH   4   5
ATOM      5  C   UNL     1      10.785 -14.659  -5.262  1.00  0.00     0.000 C 
BRANCH   5   6
ATOM      6  C   UNL     1      12.308 -14.842  -5.155  1.00  0.00     0.006 C 
BRANCH   6   7
ATOM      7  C   UNL     1      12.832 -14.532  -3.746  1.00  0.00     0.053 C 
BRANCH   7   8
ATOM      8  C   UNL     1      13.715 -15.624  -3.226  1.00  0.00     0.041 C 
ATOM      9  O   UNL     1      13.972 -16.626  -3.944  1.00  0.00    -0.550 OA
ATOM     10  O   UNL     1      14.278 -15.521  -1.960  1.00  0.00    -0.550 OA
ENDBRANCH   7   8
ENDBRANCH   6   7
ENDBRANCH   5   6
ENDBRANCH   4   5
ENDBRANCH   3   4
ENDBRANCH   2   3
ENDBRANCH   1   2
BRANCH   1  11
ATOM     11  C   UNL     1      10.770 -19.417  -2.890  1.00  0.00     0.000 C 
BRANCH  11  12
ATOM     12  C   UNL     1      11.612 -18.815  -4.024  1.00  0.00    -0.000 C 
BRANCH  12  13
ATOM     13  C   UNL     1      11.122 -19.241  -5.418  1.00  0.00    -0.000 C 
BRANCH  13  14
ATOM     14  C   UNL     1      11.108 -18.075  -6.421  1.00  0.00    -0.000 C 
BRANCH  14  15
ATOM     15  C   UNL     1       9.688 -17.714  -6.888  1.00  0.00    -0.000 C 
BRANCH  15  16
ATOM     16  C   UNL     1       9.211 -18.580  -8.063  1.00  0.00    -0.000 C 
BRANCH  16  17
ATOM     17  C   UNL     1       7.691 -18.483  -8.235  1.00  0.00    -0.003 C 
ATOM     18  C   UNL     1       7.318 -18.125  -9.670  1.00  0.00     0.004 C 
ENDBRANCH  16  17
ENDBRANCH  15  16
ENDBRANCH  14  15
ENDBRANCH  13  14
ENDBRANCH  12  13
ENDBRANCH  11  12
ENDBRANCH   1  11
TORSDOF 14
ENDMDL
MODEL 6
REMARK VINA RESULT:    -3.137      4.861      7.232
REMARK INTER + INTRA:          -7.493
REMARK INTER:                  -6.534
REMARK INTRA:                  -0.959
REMARK UNBOUND:                -1.789
REMARK SMILES CCCCCCCCCCCCCCCC(=O)[O-]
REMARK SMILES IDX 9 1 10 2 11 3 12 4 13 5 14 6 15 7 16 8 17 9 18 10 8 11 7 12
REMARK SMILES IDX 6 13 5 14 4 15 3 16 2 17 1 18
REMARK H PARENT
REMARK Flexibility Score: inf
ROOT
ATOM      1  C   UNL     1      14.294 -16.325  -3.706  1.00  0.00     0.000 C 
ENDROOT
BRANCH   1   2
ATOM      2  C   UNL     1      13.907 -17.674  -4.330  1.00  0.00     0.000 C 
BRANCH   2   3
ATOM      3  C   UNL     1      15.129 -18.534  -4.699  1.00  0.00     0.000 C 
BRANCH   3   4
ATOM      4  C   UNL     1      16.431 -18.177  -3.954  1.00  0.00     0.000 C 
BRANCH   4   5
ATOM      5  C   UNL     1      17.524 -19.261  -3.988  1.00  0.00     0.000 C 
BRANCH   5   6
ATOM      6  C   UNL     1      17.715 -19.959  -2.631  1.00  0.00     0.006 C 
BRANCH   6   7
ATOM      7  C   UNL     1      17.792 -21.486  -2.771  1.00  0.00     0.053 C 
BRANCH   7   8
ATOM      8  C   UNL     1      17.550 -22.179  -1.465  1.00  0.00     0.041 C 
ATOM      9  O   UNL     1      18.033 -21.710  -0.401  1.00  0.00    -0.550 OA
ATOM     10  O   UNL     1      16.767 -23.325  -1.420  1.00  0.00    -0.550 OA
ENDBRANCH   7   8
ENDBRANCH   6   7
ENDBRANCH   5   6
ENDBRANCH   4   5
ENDBRANCH   3   4
ENDBRANCH   2   3
ENDBRANCH   1   2
BRANCH   1  11
ATOM     11  C   UNL     1      13.058 -15.441  -3.501  1.00  0.00     0.000 C 
BRANCH  11  12
ATOM     12  C   UNL     1      12.509 -14.942  -4.845  1.00  0.00    -0.000 C 
BRANCH  12  13
ATOM     13  C   UNL     1      10.981 -14.775  -4.838  1.00  0.00    -0.000 C 
BRANCH  13  14
ATOM     14  C   UNL     1      10.340 -15.259  -3.526  1.00  0.00    -0.000 C 
BRANCH  14  15
ATOM     15  C   UNL     1       9.798 -16.695  -3.628  1.00  0.00    -0.000 C 
BRANCH  15  16
ATOM     16  C   UNL     1      10.344 -17.615  -2.526  1.00  0.00    -0.000 C 
BRANCH  16  17
ATOM     17  C   UNL     1      10.672 -19.004  -3.084  1.00  0.00    -0.003 C 
ATOM     18  C   UNL     1      11.144 -18.920  -4.533  1.00  0.00     0.004 C 
ENDBRANCH  16  17
ENDBRANCH  15  16
ENDBRANCH  14  15
ENDBRANCH  13  14
ENDBRANCH  12  13
ENDBRANCH  11  12
ENDBRANCH   1  11
TORSDOF 14
ENDMDL
MODEL 7
REMARK VINA RESULT:    -3.134      4.004      6.599
REMARK INTER + INTRA:          -7.487
REMARK INTER:                  -6.316
REMARK INTRA:                  -1.171
REMARK UNBOUND:                -1.789
REMARK SMILES CCCCCCCCCCCCCCCC(=O)[O-]
REMARK SMILES IDX 9 1 10 2 11 3 12 4 13 5 14 6 15 7 16 8 17 9 18 10 8 11 7 12
REMARK SMILES IDX 6 13 5 14 4 15 3 16 2 17 1 18
REMARK H PARENT
REMARK Flexibility Score: inf
ROOT
ATOM      1  C   UNL     1      10.987 -16.362  -3.114  1.00  0.00     0.000 C 
ENDROOT
BRANCH   1   2
ATOM      2  C   UNL     1       9.981 -15.331  -3.647  1.00  0.00     0.000 C 
BRANCH   2   3
ATOM      3  C   UNL     1      10.392 -14.742  -5.008  1.00  0.00     0.000 C 
BRANCH   3   4
ATOM      4  C   UNL     1      11.883 -14.372  -5.138  1.00  0.00     0.000 C 
BRANCH   4   5
ATOM      5  C   UNL     1      12.227 -12.910  -4.801  1.00  0.00     0.000 C 
BRANCH   5   6
ATOM      6  C   UNL     1      11.564 -11.905  -5.757  1.00  0.00     0.006 C 
BRANCH   6   7
ATOM      7  C   UNL     1      12.528 -10.788  -6.183  1.00  0.00     0.053 C 
BRANCH   7   8
ATOM      8  C   UNL     1      11.842  -9.459  -6.259  1.00  0.00     0.041 C 
ATOM      9  O   UNL     1      10.829  -9.310  -6.992  1.00  0.00    -0.550 OA
ATOM     10  O   UNL     1      12.303  -8.392  -5.497  1.00  0.00    -0.550 OA
ENDBRANCH   7   8
ENDBRANCH   6   7
ENDBRANCH   5   6
ENDBRANCH   4   5
ENDBRANCH   3   4
ENDBRANCH   2   3
ENDBRANCH   1   2
BRANCH   1  11
ATOM     11  C   UNL     1      10.281 -17.664  -2.717  1.00  0.00     0.000 C 
BRANCH  11  12
ATOM     12  C   UNL     1      10.984 -18.881  -3.335  1.00  0.00    -0.000 C 
BRANCH  12  13
ATOM     13  C   UNL     1      11.913 -18.502  -4.501  1.00  0.00    -0.000 C 
BRANCH  13  14
ATOM     14  C   UNL     1      11.369 -18.967  -5.862  1.00  0.00    -0.000 C 
BRANCH  14  15
ATOM     15  C   UNL     1      10.422 -17.938  -6.503  1.00  0.00    -0.000 C 
BRANCH  15  16
ATOM     16  C   UNL     1       9.776 -18.452  -7.798  1.00  0.00    -0.000 C 
BRANCH  16  17
ATOM     17  C   UNL     1       8.252 -18.283  -7.755  1.00  0.00    -0.003 C 
ATOM     18  C   UNL     1       7.642 -18.416  -9.147  1.00  0.00     0.004 C 
ENDBRANCH  16  17
ENDBRANCH  15  16
ENDBRANCH  14  15
ENDBRANCH  13  14
ENDBRANCH  12  13
ENDBRANCH  11  12
ENDBRANCH   1  11
TORSDOF 14
ENDMDL
MODEL 8
REMARK VINA RESULT:    -3.117      1.712      3.553
REMARK INTER + INTRA:          -7.456
REMARK INTER:                  -6.305
REMARK INTRA:                  -1.151
REMARK UNBOUND:                -1.789
REMARK SMILES CCCCCCCCCCCCCCCC(=O)[O-]
REMARK SMILES IDX 9 1 10 2 11 3 12 4 13 5 14 6 15 7 16 8 17 9 18 10 8 11 7 12
REMARK SMILES IDX 6 13 5 14 4 15 3 16 2 17 1 18
REMARK H PARENT
REMARK Flexibility Score: inf
ROOT
ATOM      1  C   UNL     1      11.348 -14.537  -4.427  1.00  0.00     0.000 C 
ENDROOT
BRANCH   1   2
ATOM      2  C   UNL     1      10.701 -15.105  -3.155  1.00  0.00     0.000 C 
BRANCH   2   3
ATOM      3  C   UNL     1       9.905 -16.397  -3.413  1.00  0.00     0.000 C 
BRANCH   3   4
ATOM      4  C   UNL     1      10.281 -17.590  -2.512  1.00  0.00     0.000 C 
BRANCH   4   5
ATOM      5  C   UNL     1      10.701 -18.868  -3.260  1.00  0.00     0.000 C 
BRANCH   5   6
ATOM      6  C   UNL     1      11.614 -18.582  -4.464  1.00  0.00     0.006 C 
BRANCH   6   7
ATOM      7  C   UNL     1      11.081 -19.215  -5.757  1.00  0.00     0.053 C 
BRANCH   7   8
ATOM      8  C   UNL     1      10.564 -18.183  -6.711  1.00  0.00     0.041 C 
ATOM      9  O   UNL     1      10.959 -16.991  -6.629  1.00  0.00    -0.550 OA
ATOM     10  O   UNL     1       9.668 -18.544  -7.710  1.00  0.00    -0.550 OA
ENDBRANCH   7   8
ENDBRANCH   6   7
ENDBRANCH   5   6
ENDBRANCH   4   5
ENDBRANCH   3   4
ENDBRANCH   2   3
ENDBRANCH   1   2
BRANCH   1  11
ATOM     11  C   UNL     1      12.776 -15.066  -4.599  1.00  0.00     0.000 C 
BRANCH  11  12
ATOM     12  C   UNL     1      13.379 -15.472  -3.247  1.00  0.00    -0.000 C 
BRANCH  12  13
ATOM     13  C   UNL     1      14.529 -16.483  -3.387  1.00  0.00    -0.000 C 
BRANCH  13  14
ATOM     14  C   UNL     1      14.281 -17.507  -4.508  1.00  0.00    -0.000 C 
BRANCH  14  15
ATOM     15  C   UNL     1      15.336 -18.625  -4.532  1.00  0.00    -0.000 C 
BRANCH  15  16
ATOM     16  C   UNL     1      16.595 -18.271  -3.728  1.00  0.00    -0.000 C 
BRANCH  16  17
ATOM     17  C   UNL     1      17.640 -19.388  -3.825  1.00  0.00    -0.003 C 
ATOM     18  C   UNL     1      17.536 -20.347  -2.643  1.00  0.00     0.004 C 
ENDBRANCH  16  17
ENDBRANCH  15  16
ENDBRANCH  14  15
ENDBRANCH  13  14
ENDBRANCH  12  13
ENDBRANCH  11  12
ENDBRANCH   1  11
TORSDOF 14
ENDMDL
MODEL 9
REMARK VINA RESULT:    -2.873      4.808      7.355
REMARK INTER + INTRA:          -7.014
REMARK INTER:                  -5.811
REMARK INTRA:                  -1.203
REMARK UNBOUND:                -1.789
REMARK SMILES CCCCCCCCCCCCCCCC(=O)[O-]
REMARK SMILES IDX 9 1 10 2 11 3 12 4 13 5 14 6 15 7 16 8 17 9 18 10 8 11 7 12
REMARK SMILES IDX 6 13 5 14 4 15 3 16 2 17 1 18
REMARK H PARENT
REMARK Flexibility Score: inf
ROOT
ATOM      1  C   UNL     1      14.149 -17.769  -4.376  1.00  0.00     0.000 C 
ENDROOT
BRANCH   1   2
ATOM      2  C   UNL     1      15.326 -18.681  -4.754  1.00  0.00     0.000 C 
BRANCH   2   3
ATOM      3  C   UNL     1      16.535 -18.519  -3.815  1.00  0.00     0.000 C 
BRANCH   3   4
ATOM      4  C   UNL     1      17.374 -19.795  -3.603  1.00  0.00     0.000 C 
BRANCH   4   5
ATOM      5  C   UNL     1      18.067 -19.902  -2.232  1.00  0.00     0.000 C 
BRANCH   5   6
ATOM      6  C   UNL     1      17.770 -21.230  -1.515  1.00  0.00     0.006 C 
BRANCH   6   7
ATOM      7  C   UNL     1      18.123 -22.447  -2.382  1.00  0.00     0.053 C 
BRANCH   7   8
ATOM      8  C   UNL     1      16.928 -23.311  -2.642  1.00  0.00     0.041 C 
ATOM      9  O   UNL     1      16.699 -23.742  -3.803  1.00  0.00    -0.550 OA
ATOM     10  O   UNL     1      16.084 -23.666  -1.598  1.00  0.00    -0.550 OA
ENDBRANCH   7   8
ENDBRANCH   6   7
ENDBRANCH   5   6
ENDBRANCH   4   5
ENDBRANCH   3   4
ENDBRANCH   2   3
ENDBRANCH   1   2
BRANCH   1  11
ATOM     11  C   UNL     1      12.829 -18.548  -4.372  1.00  0.00     0.000 C 
BRANCH  11  12
ATOM     12  C   UNL     1      12.108 -18.413  -5.720  1.00  0.00    -0.000 C 
BRANCH  12  13
ATOM     13  C   UNL     1      10.651 -17.943  -5.571  1.00  0.00    -0.000 C 
BRANCH  13  14
ATOM     14  C   UNL     1      10.318 -17.505  -4.135  1.00  0.00    -0.000 C 
BRANCH  14  15
ATOM     15  C   UNL     1       9.881 -16.032  -4.053  1.00  0.00    -0.000 C 
BRANCH  15  16
ATOM     16  C   UNL     1      10.867 -15.164  -3.257  1.00  0.00    -0.000 C 
BRANCH  16  17
ATOM     17  C   UNL     1      12.111 -14.841  -4.094  1.00  0.00    -0.003 C 
ATOM     18  C   UNL     1      11.729 -14.377  -5.496  1.00  0.00     0.004 C 
ENDBRANCH  16  17
ENDBRANCH  15  16
ENDBRANCH  14  15
ENDBRANCH  13  14
ENDBRANCH  12  13
ENDBRANCH  11  12
ENDBRANCH   1  11
TORSDOF 14
ENDMDL
