MODEL 1
REMARK VINA RESULT:    -4.734      0.000      0.000
REMARK INTER + INTRA:         -10.307
REMARK INTER:                  -8.609
REMARK INTRA:                  -1.698
REMARK UNBOUND:                -1.698
REMARK SMILES CCCCCCCCCCCCCCCC(=O)[O-]
REMARK SMILES IDX 9 1 10 2 11 3 12 4 13 5 14 6 15 7 16 8 17 9 18 10 8 11 7 12
REMARK SMILES IDX 6 13 5 14 4 15 3 16 2 17 1 18
REMARK H PARENT
REMARK Flexibility Score: inf
ROOT
ATOM      1  C   UNL     1      43.192  21.814   9.966  1.00  0.00     0.000 C 
ENDROOT
BRANCH   1   2
ATOM      2  C   UNL     1      42.436  22.780  10.897  1.00  0.00     0.000 C 
BRANCH   2   3
ATOM      3  C   UNL     1      43.170  23.071  12.219  1.00  0.00     0.000 C 
BRANCH   3   4
ATOM      4  C   UNL     1      42.803  22.066  13.325  1.00  0.00     0.000 C 
BRANCH   4   5
ATOM      5  C   UNL     1      43.764  20.863  13.384  1.00  0.00     0.000 C 
BRANCH   5   6
ATOM      6  C   UNL     1      43.152  19.520  12.946  1.00  0.00     0.006 C 
BRANCH   6   7
ATOM      7  C   UNL     1      44.191  18.550  12.369  1.00  0.00     0.053 C 
BRANCH   7   8
ATOM      8  C   UNL     1      43.667  17.148  12.394  1.00  0.00     0.041 C 
ATOM      9  O   UNL     1      44.463  16.174  12.368  1.00  0.00    -0.550 OA
ATOM     10  O   UNL     1      42.300  16.919  12.495  1.00  0.00    -0.550 OA
ENDBRANCH   7   8
ENDBRANCH   6   7
ENDBRANCH   5   6
ENDBRANCH   4   5
ENDBRANCH   3   4
ENDBRANCH   2   3
ENDBRANCH   1   2
BRANCH   1  11
ATOM     11  C   UNL     1      42.566  21.746   8.562  1.00  0.00     0.000 C 
BRANCH  11  12
ATOM     12  C   UNL     1      41.316  20.847   8.507  1.00  0.00    -0.000 C 
BRANCH  12  13
ATOM     13  C   UNL     1      41.602  19.334   8.477  1.00  0.00    -0.000 C 
BRANCH  13  14
ATOM     14  C   UNL     1      41.144  18.612   9.752  1.00  0.00    -0.000 C 
BRANCH  14  15
ATOM     15  C   UNL     1      40.352  19.558  10.667  1.00  0.00    -0.000 C 
BRANCH  15  16
ATOM     16  C   UNL     1      39.259  18.818  11.467  1.00  0.00    -0.000 C 
BRANCH  16  17
ATOM     17  C   UNL     1      37.883  18.826  10.781  1.00  0.00    -0.003 C 
ATOM     18  C   UNL     1      36.723  18.682  11.764  1.00  0.00     0.004 C 
ENDBRANCH  16  17
ENDBRANCH  15  16
ENDBRANCH  14  15
ENDBRANCH  13  14
ENDBRANCH  12  13
ENDBRANCH  11  12
ENDBRANCH   1  11
TORSDOF 14
ENDMDL
MODEL 2
REMARK VINA RESULT:    -4.730      2.191      5.178
REMARK INTER + INTRA:         -10.299
REMARK INTER:                  -8.668
REMARK INTRA:                  -1.632
REMARK UNBOUND:                -1.698
REMARK SMILES CCCCCCCCCCCCCCCC(=O)[O-]
REMARK SMILES IDX 9 1 10 2 11 3 12 4 13 5 14 6 15 7 16 8 17 9 18 10 8 11 7 12
REMARK SMILES IDX 6 13 5 14 4 15 3 16 2 17 1 18
REMARK H PARENT
REMARK Flexibility Score: inf
ROOT
ATOM      1  C   UNL     1      41.609  18.438   9.241  1.00  0.00     0.000 C 
ENDROOT
BRANCH   1   2
ATOM      2  C   UNL     1      41.690  19.587   8.218  1.00  0.00     0.000 C 
BRANCH   2   3
ATOM      3  C   UNL     1      40.787  20.787   8.558  1.00  0.00     0.000 C 
BRANCH   3   4
ATOM      4  C   UNL     1      41.589  21.997   9.067  1.00  0.00     0.000 C 
BRANCH   4   5
ATOM      5  C   UNL     1      43.020  21.629   9.502  1.00  0.00     0.000 C 
BRANCH   5   6
ATOM      6  C   UNL     1      43.174  21.273  10.992  1.00  0.00     0.006 C 
BRANCH   6   7
ATOM      7  C   UNL     1      42.850  22.448  11.924  1.00  0.00     0.053 C 
BRANCH   7   8
ATOM      8  C   UNL     1      43.010  22.039  13.355  1.00  0.00     0.041 C 
ATOM      9  O   UNL     1      42.269  22.535  14.242  1.00  0.00    -0.550 OA
ATOM     10  O   UNL     1      43.947  21.073  13.701  1.00  0.00    -0.550 OA
ENDBRANCH   7   8
ENDBRANCH   6   7
ENDBRANCH   5   6
ENDBRANCH   4   5
ENDBRANCH   3   4
ENDBRANCH   2   3
ENDBRANCH   1   2
BRANCH   1  11
ATOM     11  C   UNL     1      40.354  18.530  10.125  1.00  0.00     0.000 C 
BRANCH  11  12
ATOM     12  C   UNL     1      40.499  17.762  11.453  1.00  0.00    -0.000 C 
BRANCH  12  13
ATOM     13  C   UNL     1      41.472  18.391  12.466  1.00  0.00    -0.000 C 
BRANCH  13  14
ATOM     14  C   UNL     1      42.621  17.450  12.858  1.00  0.00    -0.000 C 
BRANCH  14  15
ATOM     15  C   UNL     1      43.957  17.945  12.285  1.00  0.00    -0.000 C 
BRANCH  15  16
ATOM     16  C   UNL     1      44.877  16.780  11.860  1.00  0.00    -0.000 C 
BRANCH  16  17
ATOM     17  C   UNL     1      44.319  15.393  12.215  1.00  0.00    -0.003 C 
ATOM     18  C   UNL     1      45.407  14.337  12.393  1.00  0.00     0.004 C 
ENDBRANCH  16  17
ENDBRANCH  15  16
ENDBRANCH  14  15
ENDBRANCH  13  14
ENDBRANCH  12  13
ENDBRANCH  11  12
ENDBRANCH   1  11
TORSDOF 14
ENDMDL
MODEL 3
REMARK VINA RESULT:    -4.725      2.302      4.968
REMARK INTER + INTRA:         -10.291
REMARK INTER:                  -8.185
REMARK INTRA:                  -2.105
REMARK UNBOUND:                -1.698
REMARK SMILES CCCCCCCCCCCCCCCC(=O)[O-]
REMARK SMILES IDX 9 1 10 2 11 3 12 4 13 5 14 6 15 7 16 8 17 9 18 10 8 11 7 12
REMARK SMILES IDX 6 13 5 14 4 15 3 16 2 17 1 18
REMARK H PARENT
REMARK Flexibility Score: inf
ROOT
ATOM      1  C   UNL     1      43.922  20.503  13.393  1.00  0.00     0.000 C 
ENDROOT
BRANCH   1   2
ATOM      2  C   UNL     1      43.903  19.540  12.190  1.00  0.00     0.000 C 
BRANCH   2   3
ATOM      3  C   UNL     1      44.019  18.055  12.581  1.00  0.00     0.000 C 
BRANCH   3   4
ATOM      4  C   UNL     1      42.752  17.256  12.228  1.00  0.00     0.000 C 
BRANCH   4   5
ATOM      5  C   UNL     1      41.782  18.039  11.324  1.00  0.00     0.000 C 
BRANCH   5   6
ATOM      6  C   UNL     1      40.290  17.726  11.546  1.00  0.00     0.006 C 
BRANCH   6   7
ATOM      7  C   UNL     1      39.436  18.987  11.734  1.00  0.00     0.053 C 
BRANCH   7   8
ATOM      8  C   UNL     1      38.155  18.867  10.971  1.00  0.00     0.041 C 
ATOM      9  O   UNL     1      38.171  18.596   9.742  1.00  0.00    -0.550 OA
ATOM     10  O   UNL     1      36.938  19.007  11.629  1.00  0.00    -0.550 OA
ENDBRANCH   7   8
ENDBRANCH   6   7
ENDBRANCH   5   6
ENDBRANCH   4   5
ENDBRANCH   3   4
ENDBRANCH   2   3
ENDBRANCH   1   2
BRANCH   1  11
ATOM     11  C   UNL     1      42.659  21.379  13.460  1.00  0.00     0.000 C 
BRANCH  11  12
ATOM     12  C   UNL     1      42.902  22.817  12.963  1.00  0.00    -0.000 C 
BRANCH  12  13
ATOM     13  C   UNL     1      42.342  23.125  11.562  1.00  0.00    -0.000 C 
BRANCH  13  14
ATOM     14  C   UNL     1      43.385  22.952  10.448  1.00  0.00    -0.000 C 
BRANCH  14  15
ATOM     15  C   UNL     1      42.920  21.916   9.414  1.00  0.00    -0.000 C 
BRANCH  15  16
ATOM     16  C   UNL     1      41.489  21.409   9.697  1.00  0.00    -0.000 C 
BRANCH  16  17
ATOM     17  C   UNL     1      40.940  20.475   8.606  1.00  0.00    -0.003 C 
ATOM     18  C   UNL     1      42.009  20.014   7.618  1.00  0.00     0.004 C 
ENDBRANCH  16  17
ENDBRANCH  15  16
ENDBRANCH  14  15
ENDBRANCH  13  14
ENDBRANCH  12  13
ENDBRANCH  11  12
ENDBRANCH   1  11
TORSDOF 14
ENDMDL
MODEL 4
REMARK VINA RESULT:    -4.677      2.844      5.679
REMARK INTER + INTRA:         -10.203
REMARK INTER:                  -8.232
REMARK INTRA:                  -1.971
REMARK UNBOUND:                -1.698
REMARK SMILES CCCCCCCCCCCCCCCC(=O)[O-]
REMARK SMILES IDX 9 1 10 2 11 3 12 4 13 5 14 6 15 7 16 8 17 9 18 10 8 11 7 12
REMARK SMILES IDX 6 13 5 14 4 15 3 16 2 17 1 18
REMARK H PARENT
REMARK Flexibility Score: inf
ROOT
ATOM      1  C   UNL     1      40.513  18.266  11.016  1.00  0.00     0.000 C 
ENDROOT
BRANCH   1   2
ATOM      2  C   UNL     1      40.201  18.967   9.680  1.00  0.00     0.000 C 
BRANCH   2   3
ATOM      3  C   UNL     1      39.802  20.446   9.832  1.00  0.00     0.000 C 
BRANCH   3   4
ATOM      4  C   UNL     1      40.559  21.360   8.853  1.00  0.00     0.000 C 
BRANCH   4   5
ATOM      5  C   UNL     1      41.753  22.080   9.507  1.00  0.00     0.000 C 
BRANCH   5   6
ATOM      6  C   UNL     1      43.138  21.544   9.100  1.00  0.00     0.006 C 
BRANCH   6   7
ATOM      7  C   UNL     1      43.674  22.187   7.814  1.00  0.00     0.053 C 
BRANCH   7   8
ATOM      8  C   UNL     1      43.886  21.148   6.759  1.00  0.00     0.041 C 
ATOM      9  O   UNL     1      42.967  20.335   6.477  1.00  0.00    -0.550 OA
ATOM     10  O   UNL     1      45.082  21.107   6.053  1.00  0.00    -0.550 OA
ENDBRANCH   7   8
ENDBRANCH   6   7
ENDBRANCH   5   6
ENDBRANCH   4   5
ENDBRANCH   3   4
ENDBRANCH   2   3
ENDBRANCH   1   2
BRANCH   1  11
ATOM     11  C   UNL     1      39.897  19.001  12.219  1.00  0.00     0.000 C 
BRANCH  11  12
ATOM     12  C   UNL     1      40.938  19.370  13.293  1.00  0.00    -0.000 C 
BRANCH  12  13
ATOM     13  C   UNL     1      41.918  20.488  12.893  1.00  0.00    -0.000 C 
BRANCH  13  14
ATOM     14  C   UNL     1      43.390  20.080  13.050  1.00  0.00    -0.000 C 
BRANCH  14  15
ATOM     15  C   UNL     1      43.856  19.228  11.861  1.00  0.00    -0.000 C 
BRANCH  15  16
ATOM     16  C   UNL     1      44.554  17.927  12.311  1.00  0.00    -0.000 C 
BRANCH  16  17
ATOM     17  C   UNL     1      43.668  16.677  12.185  1.00  0.00    -0.003 C 
ATOM     18  C   UNL     1      44.461  15.373  12.241  1.00  0.00     0.004 C 
ENDBRANCH  16  17
ENDBRANCH  15  16
ENDBRANCH  14  15
ENDBRANCH  13  14
ENDBRANCH  12  13
ENDBRANCH  11  12
ENDBRANCH   1  11
TORSDOF 14
ENDMDL
MODEL 5
REMARK VINA RESULT:    -4.676      3.587      5.477
REMARK INTER + INTRA:         -10.201
REMARK INTER:                  -8.233
REMARK INTRA:                  -1.968
REMARK UNBOUND:                -1.698
REMARK SMILES CCCCCCCCCCCCCCCC(=O)[O-]
REMARK SMILES IDX 9 1 10 2 11 3 12 4 13 5 14 6 15 7 16 8 17 9 18 10 8 11 7 12
REMARK SMILES IDX 6 13 5 14 4 15 3 16 2 17 1 18
REMARK H PARENT
REMARK Flexibility Score: inf
ROOT
ATOM      1  C   UNL     1      42.790  21.500  10.444  1.00  0.00     0.000 C 
ENDROOT
BRANCH   1   2
ATOM      2  C   UNL     1      41.575  22.021   9.654  1.00  0.00     0.000 C 
BRANCH   2   3
ATOM      3  C   UNL     1      41.021  21.014   8.629  1.00  0.00     0.000 C 
BRANCH   3   4
ATOM      4  C   UNL     1      42.086  20.003   8.169  1.00  0.00     0.000 C 
BRANCH   4   5
ATOM      5  C   UNL     1      42.702  20.360   6.803  1.00  0.00     0.000 C 
BRANCH   5   6
ATOM      6  C   UNL     1      43.890  21.338   6.860  1.00  0.00     0.006 C 
BRANCH   6   7
ATOM      7  C   UNL     1      44.230  21.945   5.493  1.00  0.00     0.053 C 
BRANCH   7   8
ATOM      8  C   UNL     1      45.162  21.048   4.741  1.00  0.00     0.041 C 
ATOM      9  O   UNL     1      44.707  20.189   3.942  1.00  0.00    -0.550 OA
ATOM     10  O   UNL     1      46.537  21.194   4.885  1.00  0.00    -0.550 OA
ENDBRANCH   7   8
ENDBRANCH   6   7
ENDBRANCH   5   6
ENDBRANCH   4   5
ENDBRANCH   3   4
ENDBRANCH   2   3
ENDBRANCH   1   2
BRANCH   1  11
ATOM     11  C   UNL     1      42.856  22.084  11.866  1.00  0.00     0.000 C 
BRANCH  11  12
ATOM     12  C   UNL     1      43.209  21.029  12.931  1.00  0.00    -0.000 C 
BRANCH  12  13
ATOM     13  C   UNL     1      43.606  19.649  12.375  1.00  0.00    -0.000 C 
BRANCH  13  14
ATOM     14  C   UNL     1      42.537  18.574  12.620  1.00  0.00    -0.000 C 
BRANCH  14  15
ATOM     15  C   UNL     1      42.101  17.921  11.300  1.00  0.00    -0.000 C 
BRANCH  15  16
ATOM     16  C   UNL     1      40.565  17.859  11.157  1.00  0.00    -0.000 C 
BRANCH  16  17
ATOM     17  C   UNL     1      39.856  19.163  11.560  1.00  0.00    -0.003 C 
ATOM     18  C   UNL     1      38.522  19.365  10.845  1.00  0.00     0.004 C 
ENDBRANCH  16  17
ENDBRANCH  15  16
ENDBRANCH  14  15
ENDBRANCH  13  14
ENDBRANCH  12  13
ENDBRANCH  11  12
ENDBRANCH   1  11
TORSDOF 14
ENDMDL
MODEL 6
REMARK VINA RESULT:    -4.664      1.099      2.050
REMARK INTER + INTRA:         -10.180
REMARK INTER:                  -8.118
REMARK INTRA:                  -2.062
REMARK UNBOUND:                -1.698
REMARK SMILES CCCCCCCCCCCCCCCC(=O)[O-]
REMARK SMILES IDX 9 1 10 2 11 3 12 4 13 5 14 6 15 7 16 8 17 9 18 10 8 11 7 12
REMARK SMILES IDX 6 13 5 14 4 15 3 16 2 17 1 18
REMARK H PARENT
REMARK Flexibility Score: inf
ROOT
ATOM      1  C   UNL     1      42.357  22.466  11.182  1.00  0.00     0.000 C 
ENDROOT
BRANCH   1   2
ATOM      2  C   UNL     1      43.124  22.501  12.518  1.00  0.00     0.000 C 
BRANCH   2   3
ATOM      3  C   UNL     1      43.361  21.111  13.135  1.00  0.00     0.000 C 
BRANCH   3   4
ATOM      4  C   UNL     1      42.925  19.972  12.197  1.00  0.00     0.000 C 
BRANCH   4   5
ATOM      5  C   UNL     1      41.834  19.074  12.810  1.00  0.00     0.000 C 
BRANCH   5   6
ATOM      6  C   UNL     1      41.814  17.626  12.288  1.00  0.00     0.006 C 
BRANCH   6   7
ATOM      7  C   UNL     1      43.098  17.242  11.542  1.00  0.00     0.053 C 
BRANCH   7   8
ATOM      8  C   UNL     1      43.982  16.410  12.417  1.00  0.00     0.041 C 
ATOM      9  O   UNL     1      44.208  16.760  13.604  1.00  0.00    -0.550 OA
ATOM     10  O   UNL     1      44.517  15.220  11.936  1.00  0.00    -0.550 OA
ENDBRANCH   7   8
ENDBRANCH   6   7
ENDBRANCH   5   6
ENDBRANCH   4   5
ENDBRANCH   3   4
ENDBRANCH   2   3
ENDBRANCH   1   2
BRANCH   1  11
ATOM     11  C   UNL     1      43.201  22.997  10.010  1.00  0.00     0.000 C 
BRANCH  11  12
ATOM     12  C   UNL     1      43.169  22.069   8.781  1.00  0.00    -0.000 C 
BRANCH  12  13
ATOM     13  C   UNL     1      41.808  21.406   8.500  1.00  0.00    -0.000 C 
BRANCH  13  14
ATOM     14  C   UNL     1      41.939  19.975   7.960  1.00  0.00    -0.000 C 
BRANCH  14  15
ATOM     15  C   UNL     1      41.233  18.971   8.884  1.00  0.00    -0.000 C 
BRANCH  15  16
ATOM     16  C   UNL     1      40.148  19.640   9.754  1.00  0.00    -0.000 C 
BRANCH  16  17
ATOM     17  C   UNL     1      38.924  18.744  10.009  1.00  0.00    -0.003 C 
ATOM     18  C   UNL     1      38.249  19.020  11.351  1.00  0.00     0.004 C 
ENDBRANCH  16  17
ENDBRANCH  15  16
ENDBRANCH  14  15
ENDBRANCH  13  14
ENDBRANCH  12  13
ENDBRANCH  11  12
ENDBRANCH   1  11
TORSDOF 14
ENDMDL
MODEL 7
REMARK VINA RESULT:    -4.650      3.635      5.768
REMARK INTER + INTRA:         -10.153
REMARK INTER:                  -8.319
REMARK INTRA:                  -1.834
REMARK UNBOUND:                -1.698
REMARK SMILES CCCCCCCCCCCCCCCC(=O)[O-]
REMARK SMILES IDX 9 1 10 2 11 3 12 4 13 5 14 6 15 7 16 8 17 9 18 10 8 11 7 12
REMARK SMILES IDX 6 13 5 14 4 15 3 16 2 17 1 18
REMARK H PARENT
REMARK Flexibility Score: inf
ROOT
ATOM      1  C   UNL     1      41.616  19.556   8.780  1.00  0.00     0.000 C 
ENDROOT
BRANCH   1   2
ATOM      2  C   UNL     1      40.759  20.754   9.227  1.00  0.00     0.000 C 
BRANCH   2   3
ATOM      3  C   UNL     1      41.579  22.007   9.584  1.00  0.00     0.000 C 
BRANCH   3   4
ATOM      4  C   UNL     1      43.078  21.830   9.284  1.00  0.00     0.000 C 
BRANCH   4   5
ATOM      5  C   UNL     1      43.523  22.558   8.001  1.00  0.00     0.000 C 
BRANCH   5   6
ATOM      6  C   UNL     1      44.577  21.813   7.163  1.00  0.00     0.006 C 
BRANCH   6   7
ATOM      7  C   UNL     1      43.959  20.947   6.057  1.00  0.00     0.053 C 
BRANCH   7   8
ATOM      8  C   UNL     1      44.701  21.134   4.772  1.00  0.00     0.041 C 
ATOM      9  O   UNL     1      44.733  20.210   3.918  1.00  0.00    -0.550 OA
ATOM     10  O   UNL     1      45.318  22.348   4.495  1.00  0.00    -0.550 OA
ENDBRANCH   7   8
ENDBRANCH   6   7
ENDBRANCH   5   6
ENDBRANCH   4   5
ENDBRANCH   3   4
ENDBRANCH   2   3
ENDBRANCH   1   2
BRANCH   1  11
ATOM     11  C   UNL     1      41.261  18.266   9.540  1.00  0.00     0.000 C 
BRANCH  11  12
ATOM     12  C   UNL     1      40.259  18.504  10.686  1.00  0.00    -0.000 C 
BRANCH  12  13
ATOM     13  C   UNL     1      40.878  18.545  12.095  1.00  0.00    -0.000 C 
BRANCH  13  14
ATOM     14  C   UNL     1      42.022  17.538  12.277  1.00  0.00    -0.000 C 
BRANCH  14  15
ATOM     15  C   UNL     1      43.303  18.240  12.751  1.00  0.00    -0.000 C 
BRANCH  15  16
ATOM     16  C   UNL     1      43.407  19.686  12.221  1.00  0.00    -0.000 C 
BRANCH  16  17
ATOM     17  C   UNL     1      43.669  20.727  13.322  1.00  0.00    -0.003 C 
ATOM     18  C   UNL     1      42.401  21.441  13.786  1.00  0.00     0.004 C 
ENDBRANCH  16  17
ENDBRANCH  15  16
ENDBRANCH  14  15
ENDBRANCH  13  14
ENDBRANCH  12  13
ENDBRANCH  11  12
ENDBRANCH   1  11
TORSDOF 14
ENDMDL
MODEL 8
REMARK VINA RESULT:    -4.642      2.035      5.306
REMARK INTER + INTRA:         -10.139
REMARK INTER:                  -8.672
REMARK INTRA:                  -1.467
REMARK UNBOUND:                -1.698
REMARK SMILES CCCCCCCCCCCCCCCC(=O)[O-]
REMARK SMILES IDX 9 1 10 2 11 3 12 4 13 5 14 6 15 7 16 8 17 9 18 10 8 11 7 12
REMARK SMILES IDX 6 13 5 14 4 15 3 16 2 17 1 18
REMARK H PARENT
REMARK Flexibility Score: inf
ROOT
ATOM      1  C   UNL     1      43.081  22.367  11.524  1.00  0.00     0.000 C 
ENDROOT
BRANCH   1   2
ATOM      2  C   UNL     1      42.806  22.829  10.081  1.00  0.00     0.000 C 
BRANCH   2   3
ATOM      3  C   UNL     1      42.842  21.690   9.045  1.00  0.00     0.000 C 
BRANCH   3   4
ATOM      4  C   UNL     1      41.441  21.332   8.521  1.00  0.00     0.000 C 
BRANCH   4   5
ATOM      5  C   UNL     1      41.248  19.819   8.306  1.00  0.00     0.000 C 
BRANCH   5   6
ATOM      6  C   UNL     1      40.646  19.063   9.504  1.00  0.00     0.006 C 
BRANCH   6   7
ATOM      7  C   UNL     1      39.408  19.758  10.088  1.00  0.00     0.053 C 
BRANCH   7   8
ATOM      8  C   UNL     1      38.653  18.819  10.975  1.00  0.00     0.041 C 
ATOM      9  O   UNL     1      37.492  19.111  11.363  1.00  0.00    -0.550 OA
ATOM     10  O   UNL     1      39.213  17.599  11.334  1.00  0.00    -0.550 OA
ENDBRANCH   7   8
ENDBRANCH   6   7
ENDBRANCH   5   6
ENDBRANCH   4   5
ENDBRANCH   3   4
ENDBRANCH   2   3
ENDBRANCH   1   2
BRANCH   1  11
ATOM     11  C   UNL     1      43.101  20.834  11.653  1.00  0.00     0.000 C 
BRANCH  11  12
ATOM     12  C   UNL     1      42.657  20.344  13.044  1.00  0.00    -0.000 C 
BRANCH  12  13
ATOM     13  C   UNL     1      41.865  19.024  13.048  1.00  0.00    -0.000 C 
BRANCH  13  14
ATOM     14  C   UNL     1      42.550  17.911  12.242  1.00  0.00    -0.000 C 
BRANCH  14  15
ATOM     15  C   UNL     1      43.713  17.294  13.033  1.00  0.00    -0.000 C 
BRANCH  15  16
ATOM     16  C   UNL     1      44.685  16.509  12.126  1.00  0.00    -0.000 C 
BRANCH  16  17
ATOM     17  C   UNL     1      44.535  14.983  12.238  1.00  0.00    -0.003 C 
ATOM     18  C   UNL     1      45.873  14.247  12.224  1.00  0.00     0.004 C 
ENDBRANCH  16  17
ENDBRANCH  15  16
ENDBRANCH  14  15
ENDBRANCH  13  14
ENDBRANCH  12  13
ENDBRANCH  11  12
ENDBRANCH   1  11
TORSDOF 14
ENDMDL
MODEL 9
REMARK VINA RESULT:    -4.621      2.835      4.691
REMARK INTER + INTRA:         -10.101
REMARK INTER:                  -8.318
REMARK INTRA:                  -1.783
REMARK UNBOUND:                -1.698
REMARK SMILES CCCCCCCCCCCCCCCC(=O)[O-]
REMARK SMILES IDX 9 1 10 2 11 3 12 4 13 5 14 6 15 7 16 8 17 9 18 10 8 11 7 12
REMARK SMILES IDX 6 13 5 14 4 15 3 16 2 17 1 18
REMARK H PARENT
REMARK Flexibility Score: inf
ROOT
ATOM      1  C   UNL     1      43.817  20.361  13.377  1.00  0.00     0.000 C 
ENDROOT
BRANCH   1   2
ATOM      2  C   UNL     1      43.069  21.643  12.965  1.00  0.00     0.000 C 
BRANCH   2   3
ATOM      3  C   UNL     1      42.756  21.723  11.459  1.00  0.00     0.000 C 
BRANCH   3   4
ATOM      4  C   UNL     1      43.116  23.094  10.860  1.00  0.00     0.000 C 
BRANCH   4   5
ATOM      5  C   UNL     1      43.052  23.112   9.321  1.00  0.00     0.000 C 
BRANCH   5   6
ATOM      6  C   UNL     1      43.450  21.790   8.638  1.00  0.00     0.006 C 
BRANCH   6   7
ATOM      7  C   UNL     1      44.022  21.994   7.229  1.00  0.00     0.053 C 
BRANCH   7   8
ATOM      8  C   UNL     1      43.646  20.848   6.343  1.00  0.00     0.041 C 
ATOM      9  O   UNL     1      42.700  20.083   6.664  1.00  0.00    -0.550 OA
ATOM     10  O   UNL     1      44.310  20.655   5.137  1.00  0.00    -0.550 OA
ENDBRANCH   7   8
ENDBRANCH   6   7
ENDBRANCH   5   6
ENDBRANCH   4   5
ENDBRANCH   3   4
ENDBRANCH   2   3
ENDBRANCH   1   2
BRANCH   1  11
ATOM     11  C   UNL     1      43.987  19.380  12.204  1.00  0.00     0.000 C 
BRANCH  11  12
ATOM     12  C   UNL     1      43.835  17.907  12.628  1.00  0.00    -0.000 C 
BRANCH  12  13
ATOM     13  C   UNL     1      42.501  17.249  12.230  1.00  0.00    -0.000 C 
BRANCH  13  14
ATOM     14  C   UNL     1      41.740  18.037  11.155  1.00  0.00    -0.000 C 
BRANCH  14  15
ATOM     15  C   UNL     1      40.227  18.005  11.415  1.00  0.00    -0.000 C 
BRANCH  15  16
ATOM     16  C   UNL     1      39.506  19.235  10.824  1.00  0.00    -0.000 C 
BRANCH  16  17
ATOM     17  C   UNL     1      40.169  19.784   9.551  1.00  0.00    -0.003 C 
ATOM     18  C   UNL     1      39.888  21.268   9.321  1.00  0.00     0.004 C 
ENDBRANCH  16  17
ENDBRANCH  15  16
ENDBRANCH  14  15
ENDBRANCH  13  14
ENDBRANCH  12  13
ENDBRANCH  11  12
ENDBRANCH   1  11
TORSDOF 14
ENDMDL
