MODEL 1
REMARK VINA RESULT:    -4.376      0.000      0.000
REMARK INTER + INTRA:          -6.536
REMARK INTER:                  -6.678
REMARK INTRA:                   0.142
REMARK UNBOUND:                 0.142
REMARK SMILES CC1=CCC[C@H](C)C(=O)C[C@@H](C(C)C)C(=O)C1
REMARK SMILES IDX 8 1 9 2 6 3 7 4 5 5 4 6 3 7 2 8 1 9 10 11 11 12 15 13 16 14
REMARK SMILES IDX 17 15 12 17 13 18 14 19
REMARK H PARENT
REMARK Flexibility Score: 70.00
ROOT
ATOM      1  C   UNL     1     -41.020  16.798  16.635  1.00  0.00     0.136 C 
ATOM      2  O   UNL     1     -40.181  17.139  17.452  1.00  0.00    -0.299 OA
ENDROOT
BRANCH   1   3
ATOM      3  C   UNL     1     -42.327  17.578  16.583  1.00  0.00     0.053 C 
ATOM      4  C   UNL     1     -42.200  18.961  17.238  1.00  0.00     0.016 C 
BRANCH   3   5
ATOM      5  C   UNL     1     -42.863  17.687  15.143  1.00  0.00     0.015 C 
BRANCH   5   6
ATOM      6  C   UNL     1     -42.133  18.782  14.336  1.00  0.00     0.028 C 
BRANCH   6   7
ATOM      7  C   UNL     1     -41.933  18.392  12.893  1.00  0.00    -0.028 C 
ATOM      8  C   UNL     1     -40.792  17.867  12.389  1.00  0.00    -0.070 CG0
ATOM      9  C   UNL     1     -40.758  17.509  10.926  1.00  0.00     0.039 C 
ATOM     10  G   UNL     1     -39.537  17.659  13.221  1.00  0.00     0.000 G0
ENDBRANCH   6   7
ENDBRANCH   5   6
ENDBRANCH   3   5
ENDBRANCH   1   3
BRANCH   1  11
ATOM     11  C   UNL     1     -40.697  15.672  15.666  1.00  0.00     0.087 C 
BRANCH  11  12
ATOM     12  C   UNL     1     -39.292  15.697  14.995  1.00  0.00     0.066 C 
BRANCH  12  13
ATOM     13  C   UNL     1     -39.301  16.212  13.563  1.00  0.00     0.140 C 
ATOM     14  O   UNL     1     -39.173  15.401  12.654  1.00  0.00    -0.299 OA
BRANCH  13  15
ATOM     15  C   UNL     1     -39.534  17.664  13.216  1.00  0.00     0.106 CG0
ATOM     16  G   UNL     1     -40.807  17.860  12.409  1.00  0.00     0.000 G0
ENDBRANCH  13  15
ENDBRANCH  12  13
BRANCH  12  17
ATOM     17  C   UNL     1     -38.373  14.444  15.217  1.00  0.00    -0.006 C 
ATOM     18  C   UNL     1     -39.087  13.181  15.719  1.00  0.00     0.008 C 
ATOM     19  C   UNL     1     -37.208  14.770  16.169  1.00  0.00     0.008 C 
ENDBRANCH  12  17
ENDBRANCH  11  12
ENDBRANCH   1  11
TORSDOF 1
ENDMDL
MODEL 2
REMARK VINA RESULT:    -4.250      1.575      4.237
REMARK INTER + INTRA:          -6.344
REMARK INTER:                  -6.487
REMARK INTRA:                   0.143
REMARK UNBOUND:                 0.142
REMARK SMILES CC1=CCC[C@H](C)C(=O)C[C@@H](C(C)C)C(=O)C1
REMARK SMILES IDX 8 1 9 2 6 3 7 4 5 5 4 6 3 7 2 8 1 9 10 11 11 12 15 13 16 14
REMARK SMILES IDX 17 15 12 17 13 18 14 19
REMARK H PARENT
REMARK Flexibility Score: 70.00
ROOT
ATOM      1  C   UNL     1     -40.106  15.813  16.200  1.00  0.00     0.136 C 
ATOM      2  O   UNL     1     -40.882  14.877  16.090  1.00  0.00    -0.299 OA
ENDROOT
BRANCH   1   3
ATOM      3  C   UNL     1     -38.719  15.669  15.589  1.00  0.00     0.053 C 
ATOM      4  C   UNL     1     -38.364  14.202  15.302  1.00  0.00     0.016 C 
BRANCH   3   5
ATOM      5  C   UNL     1     -38.565  16.539  14.327  1.00  0.00     0.015 C 
BRANCH   5   6
ATOM      6  C   UNL     1     -39.695  16.285  13.307  1.00  0.00     0.028 C 
BRANCH   6   7
ATOM      7  C   UNL     1     -40.137  17.549  12.615  1.00  0.00    -0.028 C 
ATOM      8  C   UNL     1     -41.278  18.221  12.892  1.00  0.00    -0.070 CG0
ATOM      9  C   UNL     1     -41.567  19.484  12.124  1.00  0.00     0.039 C 
ATOM     10  G   UNL     1     -42.297  17.738  13.913  1.00  0.00     0.000 G0
ENDBRANCH   6   7
ENDBRANCH   5   6
ENDBRANCH   3   5
ENDBRANCH   1   3
BRANCH   1  11
ATOM     11  C   UNL     1     -40.580  17.094  16.868  1.00  0.00     0.087 C 
BRANCH  11  12
ATOM     12  C   UNL     1     -42.027  17.567  16.546  1.00  0.00     0.066 C 
BRANCH  12  13
ATOM     13  C   UNL     1     -42.139  18.383  15.266  1.00  0.00     0.140 C 
ATOM     14  O   UNL     1     -42.011  19.598  15.340  1.00  0.00    -0.299 OA
BRANCH  13  15
ATOM     15  C   UNL     1     -42.326  17.752  13.906  1.00  0.00     0.106 CG0
ATOM     16  G   UNL     1     -41.274  18.218  12.911  1.00  0.00     0.000 G0
ENDBRANCH  13  15
ENDBRANCH  12  13
BRANCH  12  17
ATOM     17  C   UNL     1     -42.876  18.132  17.739  1.00  0.00    -0.006 C 
ATOM     18  C   UNL     1     -42.522  17.574  19.125  1.00  0.00     0.008 C 
ATOM     19  C   UNL     1     -44.384  17.937  17.493  1.00  0.00     0.008 C 
ENDBRANCH  12  17
ENDBRANCH  11  12
ENDBRANCH   1  11
TORSDOF 1
ENDMDL
MODEL 3
REMARK VINA RESULT:    -4.060      1.479      3.792
REMARK INTER + INTRA:          -6.054
REMARK INTER:                  -5.809
REMARK INTRA:                  -0.245
REMARK UNBOUND:                 0.142
REMARK SMILES CC1=CCC[C@H](C)C(=O)C[C@@H](C(C)C)C(=O)C1
REMARK SMILES IDX 8 1 9 2 6 3 7 4 5 5 4 6 3 7 2 8 1 9 10 11 11 12 15 13 16 14
REMARK SMILES IDX 17 15 12 17 13 18 14 19
REMARK H PARENT
REMARK Flexibility Score: 70.00
ROOT
ATOM      1  C   UNL     1     -38.821  17.039  13.083  1.00  0.00     0.136 C 
ATOM      2  O   UNL     1     -38.450  16.149  12.335  1.00  0.00    -0.299 OA
ENDROOT
BRANCH   1   3
ATOM      3  C   UNL     1     -39.352  18.322  12.460  1.00  0.00     0.053 C 
ATOM      4  C   UNL     1     -38.263  19.083  11.689  1.00  0.00     0.016 C 
BRANCH   3   5
ATOM      5  C   UNL     1     -40.582  18.053  11.573  1.00  0.00     0.015 C 
BRANCH   5   6
ATOM      6  C   UNL     1     -41.845  17.758  12.410  1.00  0.00     0.028 C 
BRANCH   6   7
ATOM      7  C   UNL     1     -42.084  18.801  13.472  1.00  0.00    -0.028 C 
ATOM      8  C   UNL     1     -42.272  18.534  14.785  1.00  0.00    -0.070 CG0
ATOM      9  C   UNL     1     -42.478  19.693  15.726  1.00  0.00     0.039 C 
ATOM     10  G   UNL     1     -42.322  17.121  15.344  1.00  0.00     0.000 G0
ENDBRANCH   6   7
ENDBRANCH   5   6
ENDBRANCH   3   5
ENDBRANCH   1   3
BRANCH   1  11
ATOM     11  C   UNL     1     -38.808  16.799  14.584  1.00  0.00     0.087 C 
BRANCH  11  12
ATOM     12  C   UNL     1     -39.952  15.921  15.171  1.00  0.00     0.066 C 
BRANCH  12  13
ATOM     13  C   UNL     1     -40.989  16.707  15.960  1.00  0.00     0.140 C 
ATOM     14  O   UNL     1     -40.706  17.062  17.097  1.00  0.00    -0.299 OA
BRANCH  13  15
ATOM     15  C   UNL     1     -42.318  17.127  15.376  1.00  0.00     0.106 CG0
ATOM     16  G   UNL     1     -42.261  18.523  14.777  1.00  0.00     0.000 G0
ENDBRANCH  13  15
ENDBRANCH  12  13
BRANCH  12  17
ATOM     17  C   UNL     1     -39.538  14.561  15.837  1.00  0.00    -0.006 C 
ATOM     18  C   UNL     1     -38.063  14.168  15.676  1.00  0.00     0.008 C 
ATOM     19  C   UNL     1     -40.420  13.403  15.335  1.00  0.00     0.008 C 
ENDBRANCH  12  17
ENDBRANCH  11  12
ENDBRANCH   1  11
TORSDOF 1
ENDMDL
MODEL 4
REMARK VINA RESULT:    -3.957      3.564      5.876
REMARK INTER + INTRA:          -5.897
REMARK INTER:                  -5.942
REMARK INTRA:                   0.045
REMARK UNBOUND:                 0.142
REMARK SMILES CC1=CCC[C@H](C)C(=O)C[C@@H](C(C)C)C(=O)C1
REMARK SMILES IDX 8 1 9 2 6 3 7 4 5 5 4 6 3 7 2 8 1 9 10 11 11 12 15 13 16 14
REMARK SMILES IDX 17 15 12 17 13 18 14 19
REMARK H PARENT
REMARK Flexibility Score: 70.00
ROOT
ATOM      1  C   UNL     1     -36.306  18.855  10.830  1.00  0.00     0.136 C 
ATOM      2  O   UNL     1     -35.769  19.744  10.189  1.00  0.00    -0.299 OA
ENDROOT
BRANCH   1   3
ATOM      3  C   UNL     1     -37.084  19.243  12.080  1.00  0.00     0.053 C 
ATOM      4  C   UNL     1     -36.210  19.995  13.094  1.00  0.00     0.016 C 
BRANCH   3   5
ATOM      5  C   UNL     1     -38.352  20.045  11.729  1.00  0.00     0.015 C 
BRANCH   5   6
ATOM      6  C   UNL     1     -39.602  19.145  11.652  1.00  0.00     0.028 C 
BRANCH   6   7
ATOM      7  C   UNL     1     -39.563  18.022  12.658  1.00  0.00    -0.028 C 
ATOM      8  C   UNL     1     -39.556  16.706  12.343  1.00  0.00    -0.070 CG0
ATOM      9  C   UNL     1     -39.493  15.704  13.466  1.00  0.00     0.039 C 
ATOM     10  G   UNL     1     -39.649  16.196  10.913  1.00  0.00     0.000 G0
ENDBRANCH   6   7
ENDBRANCH   5   6
ENDBRANCH   3   5
ENDBRANCH   1   3
BRANCH   1  11
ATOM     11  C   UNL     1     -36.238  17.426  10.315  1.00  0.00     0.087 C 
BRANCH  11  12
ATOM     12  C   UNL     1     -37.476  16.895   9.535  1.00  0.00     0.066 C 
BRANCH  12  13
ATOM     13  C   UNL     1     -38.292  15.864  10.301  1.00  0.00     0.140 C 
ATOM     14  O   UNL     1     -37.799  14.758  10.489  1.00  0.00    -0.299 OA
BRANCH  13  15
ATOM     15  C   UNL     1     -39.645  16.169  10.899  1.00  0.00     0.106 CG0
ATOM     16  G   UNL     1     -39.535  16.696  12.321  1.00  0.00     0.000 G0
ENDBRANCH  13  15
ENDBRANCH  12  13
BRANCH  12  17
ATOM     17  C   UNL     1     -37.268  16.547   8.018  1.00  0.00    -0.006 C 
ATOM     18  C   UNL     1     -36.694  15.152   7.733  1.00  0.00     0.008 C 
ATOM     19  C   UNL     1     -36.389  17.601   7.320  1.00  0.00     0.008 C 
ENDBRANCH  12  17
ENDBRANCH  11  12
ENDBRANCH   1  11
TORSDOF 1
ENDMDL
MODEL 5
REMARK VINA RESULT:    -3.821      6.153      8.278
REMARK INTER + INTRA:          -5.690
REMARK INTER:                  -5.773
REMARK INTRA:                   0.083
REMARK UNBOUND:                 0.142
REMARK SMILES CC1=CCC[C@H](C)C(=O)C[C@@H](C(C)C)C(=O)C1
REMARK SMILES IDX 8 1 9 2 6 3 7 4 5 5 4 6 3 7 2 8 1 9 10 11 11 12 15 13 16 14
REMARK SMILES IDX 17 15 12 17 13 18 14 19
REMARK H PARENT
REMARK Flexibility Score: 70.00
ROOT
ATOM      1  C   UNL     1     -36.856  15.289   8.322  1.00  0.00     0.136 C 
ATOM      2  O   UNL     1     -36.893  14.075   8.440  1.00  0.00    -0.299 OA
ENDROOT
BRANCH   1   3
ATOM      3  C   UNL     1     -37.418  16.136   9.455  1.00  0.00     0.053 C 
ATOM      4  C   UNL     1     -38.528  15.407  10.226  1.00  0.00     0.016 C 
BRANCH   3   5
ATOM      5  C   UNL     1     -36.305  16.622  10.403  1.00  0.00     0.015 C 
BRANCH   5   6
ATOM      6  C   UNL     1     -36.415  18.132  10.698  1.00  0.00     0.028 C 
BRANCH   6   7
ATOM      7  C   UNL     1     -37.354  18.834   9.749  1.00  0.00    -0.028 C 
ATOM      8  C   UNL     1     -36.988  19.378   8.566  1.00  0.00    -0.070 CG0
ATOM      9  C   UNL     1     -38.053  20.027   7.720  1.00  0.00     0.039 C 
ATOM     10  G   UNL     1     -35.550  19.398   8.072  1.00  0.00     0.000 G0
ENDBRANCH   6   7
ENDBRANCH   5   6
ENDBRANCH   3   5
ENDBRANCH   1   3
BRANCH   1  11
ATOM     11  C   UNL     1     -36.188  15.894   7.097  1.00  0.00     0.087 C 
BRANCH  11  12
ATOM     12  C   UNL     1     -35.007  16.877   7.348  1.00  0.00     0.066 C 
BRANCH  12  13
ATOM     13  C   UNL     1     -35.325  18.324   6.999  1.00  0.00     0.140 C 
ATOM     14  O   UNL     1     -35.454  18.620   5.818  1.00  0.00    -0.299 OA
BRANCH  13  15
ATOM     15  C   UNL     1     -35.557  19.387   8.047  1.00  0.00     0.106 CG0
ATOM     16  G   UNL     1     -36.987  19.374   8.565  1.00  0.00     0.000 G0
ENDBRANCH  13  15
ENDBRANCH  12  13
BRANCH  12  17
ATOM     17  C   UNL     1     -33.579  16.409   6.894  1.00  0.00    -0.006 C 
ATOM     18  C   UNL     1     -33.438  16.074   5.402  1.00  0.00     0.008 C 
ATOM     19  C   UNL     1     -33.097  15.205   7.724  1.00  0.00     0.008 C 
ENDBRANCH  12  17
ENDBRANCH  11  12
ENDBRANCH   1  11
TORSDOF 1
ENDMDL
MODEL 6
REMARK VINA RESULT:    -3.741      2.251      3.833
REMARK INTER + INTRA:          -5.567
REMARK INTER:                  -5.865
REMARK INTRA:                   0.298
REMARK UNBOUND:                 0.142
REMARK SMILES CC1=CCC[C@H](C)C(=O)C[C@@H](C(C)C)C(=O)C1
REMARK SMILES IDX 8 1 9 2 6 3 7 4 5 5 4 6 3 7 2 8 1 9 10 11 11 12 15 13 16 14
REMARK SMILES IDX 17 15 12 17 13 18 14 19
REMARK H PARENT
REMARK Flexibility Score: 70.00
ROOT
ATOM      1  C   UNL     1     -39.085  16.073  13.885  1.00  0.00     0.136 C 
ATOM      2  O   UNL     1     -38.934  14.871  13.743  1.00  0.00    -0.299 OA
ENDROOT
BRANCH   1   3
ATOM      3  C   UNL     1     -40.434  16.570  14.387  1.00  0.00     0.053 C 
ATOM      4  C   UNL     1     -40.447  16.763  15.911  1.00  0.00     0.016 C 
BRANCH   3   5
ATOM      5  C   UNL     1     -40.870  17.855  13.657  1.00  0.00     0.015 C 
BRANCH   5   6
ATOM      6  C   UNL     1     -41.651  17.547  12.363  1.00  0.00     0.028 C 
BRANCH   6   7
ATOM      7  C   UNL     1     -41.105  18.295  11.173  1.00  0.00    -0.028 C 
ATOM      8  C   UNL     1     -40.164  17.814  10.327  1.00  0.00    -0.070 CG0
ATOM      9  C   UNL     1     -39.737  18.679   9.169  1.00  0.00     0.039 C 
ATOM     10  G   UNL     1     -39.494  16.462  10.515  1.00  0.00     0.000 G0
ENDBRANCH   6   7
ENDBRANCH   5   6
ENDBRANCH   3   5
ENDBRANCH   1   3
BRANCH   1  11
ATOM     11  C   UNL     1     -37.911  17.004  13.629  1.00  0.00     0.087 C 
BRANCH  11  12
ATOM     12  C   UNL     1     -37.750  17.561  12.185  1.00  0.00     0.066 C 
BRANCH  12  13
ATOM     13  C   UNL     1     -38.111  16.563  11.094  1.00  0.00     0.140 C 
ATOM     14  O   UNL     1     -37.252  15.772  10.725  1.00  0.00    -0.299 OA
BRANCH  13  15
ATOM     15  C   UNL     1     -39.498  16.460  10.504  1.00  0.00     0.106 CG0
ATOM     16  G   UNL     1     -40.145  17.825  10.327  1.00  0.00     0.000 G0
ENDBRANCH  13  15
ENDBRANCH  12  13
BRANCH  12  17
ATOM     17  C   UNL     1     -36.456  18.398  11.882  1.00  0.00    -0.006 C 
ATOM     18  C   UNL     1     -36.054  19.407  12.966  1.00  0.00     0.008 C 
ATOM     19  C   UNL     1     -36.570  19.132  10.534  1.00  0.00     0.008 C 
ENDBRANCH  12  17
ENDBRANCH  11  12
ENDBRANCH   1  11
TORSDOF 1
ENDMDL
MODEL 7
REMARK VINA RESULT:    -3.678      3.793      6.042
REMARK INTER + INTRA:          -5.471
REMARK INTER:                  -5.810
REMARK INTRA:                   0.339
REMARK UNBOUND:                 0.142
REMARK SMILES CC1=CCC[C@H](C)C(=O)C[C@@H](C(C)C)C(=O)C1
REMARK SMILES IDX 8 1 9 2 6 3 7 4 5 5 4 6 3 7 2 8 1 9 10 11 11 12 15 13 16 14
REMARK SMILES IDX 17 15 12 17 13 18 14 19
REMARK H PARENT
REMARK Flexibility Score: 70.00
ROOT
ATOM      1  C   UNL     1     -36.829  17.874  12.033  1.00  0.00     0.136 C 
ATOM      2  O   UNL     1     -35.883  17.183  11.692  1.00  0.00    -0.299 OA
ENDROOT
BRANCH   1   3
ATOM      3  C   UNL     1     -36.723  19.381  11.837  1.00  0.00     0.053 C 
ATOM      4  C   UNL     1     -35.946  20.057  12.977  1.00  0.00     0.016 C 
BRANCH   3   5
ATOM      5  C   UNL     1     -36.120  19.731  10.463  1.00  0.00     0.015 C 
BRANCH   5   6
ATOM      6  C   UNL     1     -37.050  19.320   9.303  1.00  0.00     0.028 C 
BRANCH   6   7
ATOM      7  C   UNL     1     -36.502  18.157   8.515  1.00  0.00    -0.028 C 
ATOM      8  C   UNL     1     -37.157  16.991   8.307  1.00  0.00    -0.070 CG0
ATOM      9  C   UNL     1     -36.479  15.931   7.477  1.00  0.00     0.039 C 
ATOM     10  G   UNL     1     -38.523  16.690   8.902  1.00  0.00     0.000 G0
ENDBRANCH   6   7
ENDBRANCH   5   6
ENDBRANCH   3   5
ENDBRANCH   1   3
BRANCH   1  11
ATOM     11  C   UNL     1     -38.087  17.202  12.559  1.00  0.00     0.087 C 
BRANCH  11  12
ATOM     12  C   UNL     1     -39.102  16.673  11.504  1.00  0.00     0.066 C 
BRANCH  12  13
ATOM     13  C   UNL     1     -38.450  16.056  10.275  1.00  0.00     0.140 C 
ATOM     14  O   UNL     1     -37.875  14.982  10.403  1.00  0.00    -0.299 OA
BRANCH  13  15
ATOM     15  C   UNL     1     -38.545  16.672   8.899  1.00  0.00     0.106 CG0
ATOM     16  G   UNL     1     -37.175  17.000   8.326  1.00  0.00     0.000 G0
ENDBRANCH  13  15
ENDBRANCH  12  13
BRANCH  12  17
ATOM     17  C   UNL     1     -40.336  17.588  11.180  1.00  0.00    -0.006 C 
ATOM     18  C   UNL     1     -40.002  19.035  10.792  1.00  0.00     0.008 C 
ATOM     19  C   UNL     1     -41.340  17.604  12.347  1.00  0.00     0.008 C 
ENDBRANCH  12  17
ENDBRANCH  11  12
ENDBRANCH   1  11
TORSDOF 1
ENDMDL
MODEL 8
REMARK VINA RESULT:    -3.543      7.165      9.712
REMARK INTER + INTRA:          -5.266
REMARK INTER:                  -5.482
REMARK INTRA:                   0.216
REMARK UNBOUND:                 0.142
REMARK SMILES CC1=CCC[C@H](C)C(=O)C[C@@H](C(C)C)C(=O)C1
REMARK SMILES IDX 8 1 9 2 6 3 7 4 5 5 4 6 3 7 2 8 1 9 10 11 11 12 15 13 16 14
REMARK SMILES IDX 17 15 12 17 13 18 14 19
REMARK H PARENT
REMARK Flexibility Score: 70.00
ROOT
ATOM      1  C   UNL     1     -34.589  15.780   8.327  1.00  0.00     0.136 C 
ATOM      2  O   UNL     1     -34.520  15.775   9.545  1.00  0.00    -0.299 OA
ENDROOT
BRANCH   1   3
ATOM      3  C   UNL     1     -33.294  15.654   7.536  1.00  0.00     0.053 C 
ATOM      4  C   UNL     1     -32.371  14.568   8.110  1.00  0.00     0.016 C 
BRANCH   3   5
ATOM      5  C   UNL     1     -33.567  15.422   6.038  1.00  0.00     0.015 C 
BRANCH   5   6
ATOM      6  C   UNL     1     -33.841  16.743   5.289  1.00  0.00     0.028 C 
BRANCH   6   7
ATOM      7  C   UNL     1     -33.194  17.927   5.963  1.00  0.00    -0.028 C 
ATOM      8  C   UNL     1     -33.868  18.925   6.580  1.00  0.00    -0.070 CG0
ATOM      9  C   UNL     1     -33.073  20.030   7.226  1.00  0.00     0.039 C 
ATOM     10  G   UNL     1     -35.387  19.001   6.616  1.00  0.00     0.000 G0
ENDBRANCH   6   7
ENDBRANCH   5   6
ENDBRANCH   3   5
ENDBRANCH   1   3
BRANCH   1  11
ATOM     11  C   UNL     1     -35.955  15.833   7.661  1.00  0.00     0.087 C 
BRANCH  11  12
ATOM     12  C   UNL     1     -36.795  17.127   7.872  1.00  0.00     0.066 C 
BRANCH  12  13
ATOM     13  C   UNL     1     -35.970  18.405   7.873  1.00  0.00     0.140 C 
ATOM     14  O   UNL     1     -35.712  18.928   8.951  1.00  0.00    -0.299 OA
BRANCH  13  15
ATOM     15  C   UNL     1     -35.397  19.012   6.614  1.00  0.00     0.106 CG0
ATOM     16  G   UNL     1     -33.879  18.931   6.580  1.00  0.00     0.000 G0
ENDBRANCH  13  15
ENDBRANCH  12  13
BRANCH  12  17
ATOM     17  C   UNL     1     -37.907  17.083   8.980  1.00  0.00    -0.006 C 
ATOM     18  C   UNL     1     -38.071  15.737   9.699  1.00  0.00     0.008 C 
ATOM     19  C   UNL     1     -39.272  17.518   8.416  1.00  0.00     0.008 C 
ENDBRANCH  12  17
ENDBRANCH  11  12
ENDBRANCH   1  11
TORSDOF 1
ENDMDL
MODEL 9
REMARK VINA RESULT:    -3.430      3.809      6.585
REMARK INTER + INTRA:          -5.093
REMARK INTER:                  -5.022
REMARK INTRA:                  -0.070
REMARK UNBOUND:                 0.142
REMARK SMILES CC1=CCC[C@H](C)C(=O)C[C@@H](C(C)C)C(=O)C1
REMARK SMILES IDX 8 1 9 2 6 3 7 4 5 5 4 6 3 7 2 8 1 9 10 11 11 12 15 13 16 14
REMARK SMILES IDX 17 15 12 17 13 18 14 19
REMARK H PARENT
REMARK Flexibility Score: 70.00
ROOT
ATOM      1  C   UNL     1     -38.289  19.330   8.249  1.00  0.00     0.136 C 
ATOM      2  O   UNL     1     -37.911  19.513   7.104  1.00  0.00    -0.299 OA
ENDROOT
BRANCH   1   3
ATOM      3  C   UNL     1     -39.708  19.746   8.611  1.00  0.00     0.053 C 
ATOM      4  C   UNL     1     -40.761  18.864   7.924  1.00  0.00     0.016 C 
BRANCH   3   5
ATOM      5  C   UNL     1     -39.916  19.780  10.137  1.00  0.00     0.015 C 
BRANCH   5   6
ATOM      6  C   UNL     1     -40.605  18.500  10.655  1.00  0.00     0.028 C 
BRANCH   6   7
ATOM      7  C   UNL     1     -40.045  18.045  11.979  1.00  0.00    -0.028 C 
ATOM      8  C   UNL     1     -39.241  16.970  12.147  1.00  0.00    -0.070 CG0
ATOM      9  C   UNL     1     -38.746  16.658  13.536  1.00  0.00     0.039 C 
ATOM     10  G   UNL     1     -38.848  16.043  11.007  1.00  0.00     0.000 G0
ENDBRANCH   6   7
ENDBRANCH   5   6
ENDBRANCH   3   5
ENDBRANCH   1   3
BRANCH   1  11
ATOM     11  C   UNL     1     -37.363  18.632   9.232  1.00  0.00     0.087 C 
BRANCH  11  12
ATOM     12  C   UNL     1     -37.256  17.082   9.127  1.00  0.00     0.066 C 
BRANCH  12  13
ATOM     13  C   UNL     1     -37.471  16.358  10.448  1.00  0.00     0.140 C 
ATOM     14  O   UNL     1     -36.487  16.077  11.122  1.00  0.00    -0.299 OA
BRANCH  13  15
ATOM     15  C   UNL     1     -38.843  16.038  10.993  1.00  0.00     0.106 CG0
ATOM     16  G   UNL     1     -39.238  16.970  12.127  1.00  0.00     0.000 G0
ENDBRANCH  13  15
ENDBRANCH  12  13
BRANCH  12  17
ATOM     17  C   UNL     1     -36.077  16.505   8.266  1.00  0.00    -0.006 C 
ATOM     18  C   UNL     1     -35.134  17.550   7.652  1.00  0.00     0.008 C 
ATOM     19  C   UNL     1     -36.601  15.587   7.147  1.00  0.00     0.008 C 
ENDBRANCH  12  17
ENDBRANCH  11  12
ENDBRANCH   1  11
TORSDOF 1
ENDMDL
