MODEL 1
REMARK VINA RESULT:    -5.313      0.000      0.000
REMARK INTER + INTRA:         -10.824
REMARK INTER:                  -9.972
REMARK INTRA:                  -0.852
REMARK UNBOUND:                -0.852
REMARK SMILES O=C([O-])CCCCCCCCCCCCCCC(=O)[O-]
REMARK SMILES IDX 10 1 9 2 8 3 7 4 6 5 5 6 4 7 2 8 1 9 3 10 11 11 12 12 13 13
REMARK SMILES IDX 14 14 15 15 16 16 17 17 18 18 19 19 20 20
REMARK H PARENT
REMARK Flexibility Score: inf
ROOT
ATOM      1  C   UNL     1      57.298 144.356 -28.550  1.00  0.00     0.000 C 
ENDROOT
BRANCH   1   2
ATOM      2  C   UNL     1      55.894 144.319 -27.910  1.00  0.00     0.000 C 
BRANCH   2   3
ATOM      3  C   UNL     1      55.162 142.988 -28.159  1.00  0.00     0.000 C 
BRANCH   3   4
ATOM      4  C   UNL     1      54.696 142.308 -26.860  1.00  0.00     0.000 C 
BRANCH   4   5
ATOM      5  C   UNL     1      55.831 141.801 -25.949  1.00  0.00     0.000 C 
BRANCH   5   6
ATOM      6  C   UNL     1      55.680 142.232 -24.474  1.00  0.00     0.006 C 
BRANCH   6   7
ATOM      7  C   UNL     1      55.766 143.756 -24.308  1.00  0.00     0.053 C 
BRANCH   7   8
ATOM      8  C   UNL     1      54.408 144.335 -24.055  1.00  0.00     0.041 C 
ATOM      9  O   UNL     1      54.123 145.489 -24.475  1.00  0.00    -0.550 OA
ATOM     10  O   UNL     1      53.436 143.577 -23.412  1.00  0.00    -0.550 OA
ENDBRANCH   7   8
ENDBRANCH   6   7
ENDBRANCH   5   6
ENDBRANCH   4   5
ENDBRANCH   3   4
ENDBRANCH   2   3
ENDBRANCH   1   2
BRANCH   1  11
ATOM     11  C   UNL     1      57.342 143.847 -30.004  1.00  0.00     0.000 C 
BRANCH  11  12
ATOM     12  C   UNL     1      58.735 143.846 -30.665  1.00  0.00     0.000 C 
BRANCH  12  13
ATOM     13  C   UNL     1      58.786 144.437 -32.088  1.00  0.00     0.000 C 
BRANCH  13  14
ATOM     14  C   UNL     1      59.991 143.943 -32.900  1.00  0.00     0.000 C 
BRANCH  14  15
ATOM     15  C   UNL     1      60.151 144.760 -34.190  1.00  0.00     0.000 C 
BRANCH  15  16
ATOM     16  C   UNL     1      61.379 145.682 -34.111  1.00  0.00     0.006 C 
BRANCH  16  17
ATOM     17  C   UNL     1      61.070 147.105 -34.601  1.00  0.00     0.053 C 
BRANCH  17  18
ATOM     18  C   UNL     1      59.781 147.623 -34.035  1.00  0.00     0.041 C 
ATOM     19  O   UNL     1      59.721 147.996 -32.834  1.00  0.00    -0.550 OA
ATOM     20  O   UNL     1      58.634 147.645 -34.821  1.00  0.00    -0.550 OA
ENDBRANCH  17  18
ENDBRANCH  16  17
ENDBRANCH  15  16
ENDBRANCH  14  15
ENDBRANCH  13  14
ENDBRANCH  12  13
ENDBRANCH  11  12
ENDBRANCH   1  11
TORSDOF 15
ENDMDL
MODEL 2
REMARK VINA RESULT:    -4.946      2.739      3.304
REMARK INTER + INTRA:         -10.136
REMARK INTER:                  -9.482
REMARK INTRA:                  -0.655
REMARK UNBOUND:                -0.852
REMARK SMILES O=C([O-])CCCCCCCCCCCCCCC(=O)[O-]
REMARK SMILES IDX 10 1 9 2 8 3 7 4 6 5 5 6 4 7 2 8 1 9 3 10 11 11 12 12 13 13
REMARK SMILES IDX 14 14 15 15 16 16 17 17 18 18 19 19 20 20
REMARK H PARENT
REMARK Flexibility Score: inf
ROOT
ATOM      1  C   UNL     1      56.725 144.210 -27.435  1.00  0.00     0.000 C 
ENDROOT
BRANCH   1   2
ATOM      2  C   UNL     1      55.905 143.989 -26.147  1.00  0.00     0.000 C 
BRANCH   2   3
ATOM      3  C   UNL     1      55.508 142.516 -25.940  1.00  0.00     0.000 C 
BRANCH   3   4
ATOM      4  C   UNL     1      56.014 141.941 -24.605  1.00  0.00     0.000 C 
BRANCH   4   5
ATOM      5  C   UNL     1      56.605 142.981 -23.632  1.00  0.00     0.000 C 
BRANCH   5   6
ATOM      6  C   UNL     1      57.974 142.573 -23.048  1.00  0.00     0.006 C 
BRANCH   6   7
ATOM      7  C   UNL     1      58.196 143.151 -21.643  1.00  0.00     0.053 C 
BRANCH   7   8
ATOM      8  C   UNL     1      59.314 144.147 -21.654  1.00  0.00     0.041 C 
ATOM      9  O   UNL     1      60.250 144.039 -22.492  1.00  0.00    -0.550 OA
ATOM     10  O   UNL     1      59.291 145.231 -20.784  1.00  0.00    -0.550 OA
ENDBRANCH   7   8
ENDBRANCH   6   7
ENDBRANCH   5   6
ENDBRANCH   4   5
ENDBRANCH   3   4
ENDBRANCH   2   3
ENDBRANCH   1   2
BRANCH   1  11
ATOM     11  C   UNL     1      55.901 144.106 -28.734  1.00  0.00     0.000 C 
BRANCH  11  12
ATOM     12  C   UNL     1      56.685 143.656 -29.982  1.00  0.00     0.000 C 
BRANCH  12  13
ATOM     13  C   UNL     1      58.148 144.138 -30.047  1.00  0.00     0.000 C 
BRANCH  13  14
ATOM     14  C   UNL     1      58.905 143.598 -31.268  1.00  0.00     0.000 C 
BRANCH  14  15
ATOM     15  C   UNL     1      59.177 144.719 -32.281  1.00  0.00     0.000 C 
BRANCH  15  16
ATOM     16  C   UNL     1      60.024 144.207 -33.458  1.00  0.00     0.006 C 
BRANCH  16  17
ATOM     17  C   UNL     1      60.235 145.283 -34.534  1.00  0.00     0.053 C 
BRANCH  17  18
ATOM     18  C   UNL     1      61.166 146.363 -34.068  1.00  0.00     0.041 C 
ATOM     19  O   UNL     1      60.913 147.571 -34.319  1.00  0.00    -0.550 OA
ATOM     20  O   UNL     1      62.340 146.031 -33.401  1.00  0.00    -0.550 OA
ENDBRANCH  17  18
ENDBRANCH  16  17
ENDBRANCH  15  16
ENDBRANCH  14  15
ENDBRANCH  13  14
ENDBRANCH  12  13
ENDBRANCH  11  12
ENDBRANCH   1  11
TORSDOF 15
ENDMDL
MODEL 3
REMARK VINA RESULT:    -4.750     12.755     14.249
REMARK INTER + INTRA:          -9.768
REMARK INTER:                  -9.025
REMARK INTRA:                  -0.744
REMARK UNBOUND:                -0.852
REMARK SMILES O=C([O-])CCCCCCCCCCCCCCC(=O)[O-]
REMARK SMILES IDX 10 1 9 2 8 3 7 4 6 5 5 6 4 7 2 8 1 9 3 10 11 11 12 12 13 13
REMARK SMILES IDX 14 14 15 15 16 16 17 17 18 18 19 19 20 20
REMARK H PARENT
REMARK Flexibility Score: inf
ROOT
ATOM      1  C   UNL     1      49.672 152.794 -22.265  1.00  0.00     0.000 C 
ENDROOT
BRANCH   1   2
ATOM      2  C   UNL     1      49.054 152.799 -20.851  1.00  0.00     0.000 C 
BRANCH   2   3
ATOM      3  C   UNL     1      49.793 153.741 -19.883  1.00  0.00     0.000 C 
BRANCH   3   4
ATOM      4  C   UNL     1      49.555 153.386 -18.404  1.00  0.00     0.000 C 
BRANCH   4   5
ATOM      5  C   UNL     1      49.499 154.593 -17.447  1.00  0.00     0.000 C 
BRANCH   5   6
ATOM      6  C   UNL     1      48.936 154.251 -16.051  1.00  0.00     0.006 C 
BRANCH   6   7
ATOM      7  C   UNL     1      50.022 153.713 -15.109  1.00  0.00     0.053 C 
BRANCH   7   8
ATOM      8  C   UNL     1      50.106 152.221 -15.199  1.00  0.00     0.041 C 
ATOM      9  O   UNL     1      49.062 151.538 -15.387  1.00  0.00    -0.550 OA
ATOM     10  O   UNL     1      51.342 151.587 -15.140  1.00  0.00    -0.550 OA
ENDBRANCH   7   8
ENDBRANCH   6   7
ENDBRANCH   5   6
ENDBRANCH   4   5
ENDBRANCH   3   4
ENDBRANCH   2   3
ENDBRANCH   1   2
BRANCH   1  11
ATOM     11  C   UNL     1      51.073 153.432 -22.343  1.00  0.00     0.000 C 
BRANCH  11  12
ATOM     12  C   UNL     1      51.488 153.952 -23.734  1.00  0.00     0.000 C 
BRANCH  12  13
ATOM     13  C   UNL     1      50.355 154.595 -24.558  1.00  0.00     0.000 C 
BRANCH  13  14
ATOM     14  C   UNL     1      50.822 155.805 -25.380  1.00  0.00     0.000 C 
BRANCH  14  15
ATOM     15  C   UNL     1      52.215 155.556 -25.974  1.00  0.00     0.000 C 
BRANCH  15  16
ATOM     16  C   UNL     1      53.161 156.731 -25.676  1.00  0.00     0.006 C 
BRANCH  16  17
ATOM     17  C   UNL     1      54.414 156.289 -24.906  1.00  0.00     0.053 C 
BRANCH  17  18
ATOM     18  C   UNL     1      55.659 156.449 -25.726  1.00  0.00     0.041 C 
ATOM     19  O   UNL     1      55.656 157.190 -26.745  1.00  0.00    -0.550 OA
ATOM     20  O   UNL     1      56.808 155.739 -25.395  1.00  0.00    -0.550 OA
ENDBRANCH  17  18
ENDBRANCH  16  17
ENDBRANCH  15  16
ENDBRANCH  14  15
ENDBRANCH  13  14
ENDBRANCH  12  13
ENDBRANCH  11  12
ENDBRANCH   1  11
TORSDOF 15
ENDMDL
MODEL 4
REMARK VINA RESULT:    -4.724      1.533      2.086
REMARK INTER + INTRA:          -9.719
REMARK INTER:                  -9.073
REMARK INTRA:                  -0.646
REMARK UNBOUND:                -0.852
REMARK SMILES O=C([O-])CCCCCCCCCCCCCCC(=O)[O-]
REMARK SMILES IDX 10 1 9 2 8 3 7 4 6 5 5 6 4 7 2 8 1 9 3 10 11 11 12 12 13 13
REMARK SMILES IDX 14 14 15 15 16 16 17 17 18 18 19 19 20 20
REMARK H PARENT
REMARK Flexibility Score: inf
ROOT
ATOM      1  C   UNL     1      56.416 143.749 -29.951  1.00  0.00     0.000 C 
ENDROOT
BRANCH   1   2
ATOM      2  C   UNL     1      55.419 143.694 -28.774  1.00  0.00     0.000 C 
BRANCH   2   3
ATOM      3  C   UNL     1      56.077 144.021 -27.422  1.00  0.00     0.000 C 
BRANCH   3   4
ATOM      4  C   UNL     1      55.526 143.168 -26.266  1.00  0.00     0.000 C 
BRANCH   4   5
ATOM      5  C   UNL     1      55.572 143.843 -24.880  1.00  0.00     0.000 C 
BRANCH   5   6
ATOM      6  C   UNL     1      55.246 142.886 -23.714  1.00  0.00     0.006 C 
BRANCH   6   7
ATOM      7  C   UNL     1      55.212 141.419 -24.165  1.00  0.00     0.053 C 
BRANCH   7   8
ATOM      8  C   UNL     1      53.804 140.911 -24.201  1.00  0.00     0.041 C 
ATOM      9  O   UNL     1      52.871 141.595 -23.698  1.00  0.00    -0.550 OA
ATOM     10  O   UNL     1      53.511 139.713 -24.844  1.00  0.00    -0.550 OA
ENDBRANCH   7   8
ENDBRANCH   6   7
ENDBRANCH   5   6
ENDBRANCH   4   5
ENDBRANCH   3   4
ENDBRANCH   2   3
ENDBRANCH   1   2
BRANCH   1  11
ATOM     11  C   UNL     1      57.815 144.270 -29.568  1.00  0.00     0.000 C 
BRANCH  11  12
ATOM     12  C   UNL     1      58.942 143.941 -30.568  1.00  0.00     0.000 C 
BRANCH  12  13
ATOM     13  C   UNL     1      58.557 144.068 -32.055  1.00  0.00     0.000 C 
BRANCH  13  14
ATOM     14  C   UNL     1      59.398 145.108 -32.808  1.00  0.00     0.000 C 
BRANCH  14  15
ATOM     15  C   UNL     1      60.295 144.430 -33.853  1.00  0.00     0.000 C 
BRANCH  15  16
ATOM     16  C   UNL     1      60.973 145.472 -34.758  1.00  0.00     0.006 C 
BRANCH  16  17
ATOM     17  C   UNL     1      61.181 146.816 -34.043  1.00  0.00     0.053 C 
BRANCH  17  18
ATOM     18  C   UNL     1      60.524 147.946 -34.778  1.00  0.00     0.041 C 
ATOM     19  O   UNL     1      59.316 147.860 -35.124  1.00  0.00    -0.550 OA
ATOM     20  O   UNL     1      61.260 149.073 -35.125  1.00  0.00    -0.550 OA
ENDBRANCH  17  18
ENDBRANCH  16  17
ENDBRANCH  15  16
ENDBRANCH  14  15
ENDBRANCH  13  14
ENDBRANCH  12  13
ENDBRANCH  11  12
ENDBRANCH   1  11
TORSDOF 15
ENDMDL
MODEL 5
REMARK VINA RESULT:    -4.585     10.916     12.181
REMARK INTER + INTRA:          -9.458
REMARK INTER:                  -8.415
REMARK INTRA:                  -1.044
REMARK UNBOUND:                -0.852
REMARK SMILES O=C([O-])CCCCCCCCCCCCCCC(=O)[O-]
REMARK SMILES IDX 10 1 9 2 8 3 7 4 6 5 5 6 4 7 2 8 1 9 3 10 11 11 12 12 13 13
REMARK SMILES IDX 14 14 15 15 16 16 17 17 18 18 19 19 20 20
REMARK H PARENT
REMARK Flexibility Score: inf
ROOT
ATOM      1  C   UNL     1      49.457 153.838 -29.539  1.00  0.00     0.000 C 
ENDROOT
BRANCH   1   2
ATOM      2  C   UNL     1      48.568 155.013 -29.079  1.00  0.00     0.000 C 
BRANCH   2   3
ATOM      3  C   UNL     1      49.271 155.924 -28.056  1.00  0.00     0.000 C 
BRANCH   3   4
ATOM      4  C   UNL     1      48.837 155.643 -26.606  1.00  0.00     0.000 C 
BRANCH   4   5
ATOM      5  C   UNL     1      49.945 155.078 -25.695  1.00  0.00     0.000 C 
BRANCH   5   6
ATOM      6  C   UNL     1      51.293 154.867 -26.417  1.00  0.00     0.006 C 
BRANCH   6   7
ATOM      7  C   UNL     1      52.039 153.632 -25.893  1.00  0.00     0.053 C 
BRANCH   7   8
ATOM      8  C   UNL     1      51.560 153.270 -24.522  1.00  0.00     0.041 C 
ATOM      9  O   UNL     1      50.730 152.333 -24.367  1.00  0.00    -0.550 OA
ATOM     10  O   UNL     1      52.077 153.923 -23.408  1.00  0.00    -0.550 OA
ENDBRANCH   7   8
ENDBRANCH   6   7
ENDBRANCH   5   6
ENDBRANCH   4   5
ENDBRANCH   3   4
ENDBRANCH   2   3
ENDBRANCH   1   2
BRANCH   1  11
ATOM     11  C   UNL     1      48.832 152.973 -30.652  1.00  0.00     0.000 C 
BRANCH  11  12
ATOM     12  C   UNL     1      47.755 153.669 -31.507  1.00  0.00     0.000 C 
BRANCH  12  13
ATOM     13  C   UNL     1      48.250 154.239 -32.851  1.00  0.00     0.000 C 
BRANCH  13  14
ATOM     14  C   UNL     1      49.228 153.304 -33.576  1.00  0.00     0.000 C 
BRANCH  14  15
ATOM     15  C   UNL     1      50.460 154.077 -34.066  1.00  0.00     0.000 C 
BRANCH  15  16
ATOM     16  C   UNL     1      51.488 154.251 -32.936  1.00  0.00     0.006 C 
BRANCH  16  17
ATOM     17  C   UNL     1      52.764 154.960 -33.414  1.00  0.00     0.053 C 
BRANCH  17  18
ATOM     18  C   UNL     1      53.935 154.024 -33.469  1.00  0.00     0.041 C 
ATOM     19  O   UNL     1      54.193 153.393 -34.529  1.00  0.00    -0.550 OA
ATOM     20  O   UNL     1      54.710 153.810 -32.335  1.00  0.00    -0.550 OA
ENDBRANCH  17  18
ENDBRANCH  16  17
ENDBRANCH  15  16
ENDBRANCH  14  15
ENDBRANCH  13  14
ENDBRANCH  12  13
ENDBRANCH  11  12
ENDBRANCH   1  11
TORSDOF 15
ENDMDL
MODEL 6
REMARK VINA RESULT:    -4.558      5.584     12.639
REMARK INTER + INTRA:          -9.407
REMARK INTER:                  -8.273
REMARK INTRA:                  -1.134
REMARK UNBOUND:                -0.852
REMARK SMILES O=C([O-])CCCCCCCCCCCCCCC(=O)[O-]
REMARK SMILES IDX 10 1 9 2 8 3 7 4 6 5 5 6 4 7 2 8 1 9 3 10 11 11 12 12 13 13
REMARK SMILES IDX 14 14 15 15 16 16 17 17 18 18 19 19 20 20
REMARK H PARENT
REMARK Flexibility Score: inf
ROOT
ATOM      1  C   UNL     1      52.190 140.565 -23.908  1.00  0.00     0.000 C 
ENDROOT
BRANCH   1   2
ATOM      2  C   UNL     1      53.247 139.616 -23.303  1.00  0.00     0.000 C 
BRANCH   2   3
ATOM      3  C   UNL     1      54.687 140.027 -23.660  1.00  0.00     0.000 C 
BRANCH   3   4
ATOM      4  C   UNL     1      54.754 141.334 -24.472  1.00  0.00     0.000 C 
BRANCH   4   5
ATOM      5  C   UNL     1      55.506 142.489 -23.782  1.00  0.00     0.000 C 
BRANCH   5   6
ATOM      6  C   UNL     1      55.835 143.664 -24.728  1.00  0.00     0.006 C 
BRANCH   6   7
ATOM      7  C   UNL     1      55.704 143.269 -26.205  1.00  0.00     0.053 C 
BRANCH   7   8
ATOM      8  C   UNL     1      55.265 144.441 -27.027  1.00  0.00     0.041 C 
ATOM      9  O   UNL     1      55.900 144.757 -28.069  1.00  0.00    -0.550 OA
ATOM     10  O   UNL     1      54.118 145.146 -26.679  1.00  0.00    -0.550 OA
ENDBRANCH   7   8
ENDBRANCH   6   7
ENDBRANCH   5   6
ENDBRANCH   4   5
ENDBRANCH   3   4
ENDBRANCH   2   3
ENDBRANCH   1   2
BRANCH   1  11
ATOM     11  C   UNL     1      51.489 141.469 -22.874  1.00  0.00     0.000 C 
BRANCH  11  12
ATOM     12  C   UNL     1      49.950 141.494 -22.951  1.00  0.00     0.000 C 
BRANCH  12  13
ATOM     13  C   UNL     1      49.253 140.171 -22.573  1.00  0.00     0.000 C 
BRANCH  13  14
ATOM     14  C   UNL     1      49.721 139.610 -21.223  1.00  0.00     0.000 C 
BRANCH  14  15
ATOM     15  C   UNL     1      49.044 140.348 -20.061  1.00  0.00     0.000 C 
BRANCH  15  16
ATOM     16  C   UNL     1      50.084 141.026 -19.155  1.00  0.00     0.006 C 
BRANCH  16  17
ATOM     17  C   UNL     1      50.988 140.008 -18.443  1.00  0.00     0.053 C 
BRANCH  17  18
ATOM     18  C   UNL     1      51.747 140.632 -17.310  1.00  0.00     0.041 C 
ATOM     19  O   UNL     1      51.416 141.767 -16.874  1.00  0.00    -0.550 OA
ATOM     20  O   UNL     1      52.850 139.982 -16.769  1.00  0.00    -0.550 OA
ENDBRANCH  17  18
ENDBRANCH  16  17
ENDBRANCH  15  16
ENDBRANCH  14  15
ENDBRANCH  13  14
ENDBRANCH  12  13
ENDBRANCH  11  12
ENDBRANCH   1  11
TORSDOF 15
ENDMDL
MODEL 7
REMARK VINA RESULT:    -4.530     11.485     14.281
REMARK INTER + INTRA:          -9.355
REMARK INTER:                  -7.539
REMARK INTRA:                  -1.817
REMARK UNBOUND:                -0.852
REMARK SMILES O=C([O-])CCCCCCCCCCCCCCC(=O)[O-]
REMARK SMILES IDX 10 1 9 2 8 3 7 4 6 5 5 6 4 7 2 8 1 9 3 10 11 11 12 12 13 13
REMARK SMILES IDX 14 14 15 15 16 16 17 17 18 18 19 19 20 20
REMARK H PARENT
REMARK Flexibility Score: inf
ROOT
ATOM      1  C   UNL     1      56.639 156.929 -26.572  1.00  0.00     0.000 C 
ENDROOT
BRANCH   1   2
ATOM      2  C   UNL     1      57.885 156.698 -27.453  1.00  0.00     0.000 C 
BRANCH   2   3
ATOM      3  C   UNL     1      58.952 157.793 -27.272  1.00  0.00     0.000 C 
BRANCH   3   4
ATOM      4  C   UNL     1      60.367 157.222 -27.068  1.00  0.00     0.000 C 
BRANCH   4   5
ATOM      5  C   UNL     1      60.422 155.710 -26.774  1.00  0.00     0.000 C 
BRANCH   5   6
ATOM      6  C   UNL     1      61.655 155.006 -27.378  1.00  0.00     0.006 C 
BRANCH   6   7
ATOM      7  C   UNL     1      61.812 153.571 -26.857  1.00  0.00     0.053 C 
BRANCH   7   8
ATOM      8  C   UNL     1      62.312 152.669 -27.942  1.00  0.00     0.041 C 
ATOM      9  O   UNL     1      61.498 152.088 -28.710  1.00  0.00    -0.550 OA
ATOM     10  O   UNL     1      63.679 152.518 -28.148  1.00  0.00    -0.550 OA
ENDBRANCH   7   8
ENDBRANCH   6   7
ENDBRANCH   5   6
ENDBRANCH   4   5
ENDBRANCH   3   4
ENDBRANCH   2   3
ENDBRANCH   1   2
BRANCH   1  11
ATOM     11  C   UNL     1      56.577 158.325 -25.920  1.00  0.00     0.000 C 
BRANCH  11  12
ATOM     12  C   UNL     1      56.727 158.347 -24.386  1.00  0.00     0.000 C 
BRANCH  12  13
ATOM     13  C   UNL     1      56.353 157.033 -23.671  1.00  0.00     0.000 C 
BRANCH  13  14
ATOM     14  C   UNL     1      57.558 156.340 -23.019  1.00  0.00     0.000 C 
BRANCH  14  15
ATOM     15  C   UNL     1      58.874 156.865 -23.608  1.00  0.00     0.000 C 
BRANCH  15  16
ATOM     16  C   UNL     1      60.066 156.505 -22.707  1.00  0.00     0.006 C 
BRANCH  16  17
ATOM     17  C   UNL     1      60.687 155.149 -23.076  1.00  0.00     0.053 C 
BRANCH  17  18
ATOM     18  C   UNL     1      60.441 154.116 -22.017  1.00  0.00     0.041 C 
ATOM     19  O   UNL     1      61.315 153.887 -21.140  1.00  0.00    -0.550 OA
ATOM     20  O   UNL     1      59.268 153.370 -22.031  1.00  0.00    -0.550 OA
ENDBRANCH  17  18
ENDBRANCH  16  17
ENDBRANCH  15  16
ENDBRANCH  14  15
ENDBRANCH  13  14
ENDBRANCH  12  13
ENDBRANCH  11  12
ENDBRANCH   1  11
TORSDOF 15
ENDMDL
MODEL 8
REMARK VINA RESULT:    -4.442      7.001     10.524
REMARK INTER + INTRA:          -9.190
REMARK INTER:                  -8.366
REMARK INTRA:                  -0.823
REMARK UNBOUND:                -0.852
REMARK SMILES O=C([O-])CCCCCCCCCCCCCCC(=O)[O-]
REMARK SMILES IDX 10 1 9 2 8 3 7 4 6 5 5 6 4 7 2 8 1 9 3 10 11 11 12 12 13 13
REMARK SMILES IDX 14 14 15 15 16 16 17 17 18 18 19 19 20 20
REMARK H PARENT
REMARK Flexibility Score: inf
ROOT
ATOM      1  C   UNL     1      58.874 143.342 -19.277  1.00  0.00     0.000 C 
ENDROOT
BRANCH   1   2
ATOM      2  C   UNL     1      59.135 144.141 -17.982  1.00  0.00     0.000 C 
BRANCH   2   3
ATOM      3  C   UNL     1      60.591 144.628 -17.868  1.00  0.00     0.000 C 
BRANCH   3   4
ATOM      4  C   UNL     1      60.699 146.148 -17.656  1.00  0.00     0.000 C 
BRANCH   4   5
ATOM      5  C   UNL     1      61.880 146.823 -18.381  1.00  0.00     0.000 C 
BRANCH   5   6
ATOM      6  C   UNL     1      61.446 147.857 -19.442  1.00  0.00     0.006 C 
BRANCH   6   7
ATOM      7  C   UNL     1      62.324 147.795 -20.700  1.00  0.00     0.053 C 
BRANCH   7   8
ATOM      8  C   UNL     1      62.276 149.096 -21.440  1.00  0.00     0.041 C 
ATOM      9  O   UNL     1      63.315 149.800 -21.552  1.00  0.00    -0.550 OA
ATOM     10  O   UNL     1      61.099 149.501 -22.061  1.00  0.00    -0.550 OA
ENDBRANCH   7   8
ENDBRANCH   6   7
ENDBRANCH   5   6
ENDBRANCH   4   5
ENDBRANCH   3   4
ENDBRANCH   2   3
ENDBRANCH   1   2
BRANCH   1  11
ATOM     11  C   UNL     1      59.258 144.090 -20.569  1.00  0.00     0.000 C 
BRANCH  11  12
ATOM     12  C   UNL     1      58.637 143.535 -21.866  1.00  0.00     0.000 C 
BRANCH  12  13
ATOM     13  C   UNL     1      58.078 142.103 -21.764  1.00  0.00     0.000 C 
BRANCH  13  14
ATOM     14  C   UNL     1      57.639 141.531 -23.120  1.00  0.00     0.000 C 
BRANCH  14  15
ATOM     15  C   UNL     1      56.118 141.332 -23.161  1.00  0.00     0.000 C 
BRANCH  15  16
ATOM     16  C   UNL     1      55.477 142.192 -24.262  1.00  0.00     0.006 C 
BRANCH  16  17
ATOM     17  C   UNL     1      55.576 143.695 -23.959  1.00  0.00     0.053 C 
BRANCH  17  18
ATOM     18  C   UNL     1      54.787 144.514 -24.936  1.00  0.00     0.041 C 
ATOM     19  O   UNL     1      54.072 145.469 -24.531  1.00  0.00    -0.550 OA
ATOM     20  O   UNL     1      54.800 144.191 -26.288  1.00  0.00    -0.550 OA
ENDBRANCH  17  18
ENDBRANCH  16  17
ENDBRANCH  15  16
ENDBRANCH  14  15
ENDBRANCH  13  14
ENDBRANCH  12  13
ENDBRANCH  11  12
ENDBRANCH   1  11
TORSDOF 15
ENDMDL
MODEL 9
REMARK VINA RESULT:    -4.401     10.302     12.278
REMARK INTER + INTRA:          -9.113
REMARK INTER:                  -6.904
REMARK INTRA:                  -2.209
REMARK UNBOUND:                -0.852
REMARK SMILES O=C([O-])CCCCCCCCCCCCCCC(=O)[O-]
REMARK SMILES IDX 10 1 9 2 8 3 7 4 6 5 5 6 4 7 2 8 1 9 3 10 11 11 12 12 13 13
REMARK SMILES IDX 14 14 15 15 16 16 17 17 18 18 19 19 20 20
REMARK H PARENT
REMARK Flexibility Score: inf
ROOT
ATOM      1  C   UNL     1      60.704 143.021 -16.735  1.00  0.00     0.000 C 
ENDROOT
BRANCH   1   2
ATOM      2  C   UNL     1      61.733 143.927 -16.026  1.00  0.00     0.000 C 
BRANCH   2   3
ATOM      3  C   UNL     1      62.599 144.729 -17.014  1.00  0.00     0.000 C 
BRANCH   3   4
ATOM      4  C   UNL     1      62.677 146.225 -16.664  1.00  0.00     0.000 C 
BRANCH   4   5
ATOM      5  C   UNL     1      61.824 146.655 -15.454  1.00  0.00     0.000 C 
BRANCH   5   6
ATOM      6  C   UNL     1      60.818 147.781 -15.774  1.00  0.00     0.006 C 
BRANCH   6   7
ATOM      7  C   UNL     1      60.026 147.498 -17.058  1.00  0.00     0.053 C 
BRANCH   7   8
ATOM      8  C   UNL     1      59.697 148.775 -17.766  1.00  0.00     0.041 C 
ATOM      9  O   UNL     1      60.140 148.987 -18.928  1.00  0.00    -0.550 OA
ATOM     10  O   UNL     1      58.852 149.705 -17.172  1.00  0.00    -0.550 OA
ENDBRANCH   7   8
ENDBRANCH   6   7
ENDBRANCH   5   6
ENDBRANCH   4   5
ENDBRANCH   3   4
ENDBRANCH   2   3
ENDBRANCH   1   2
BRANCH   1  11
ATOM     11  C   UNL     1      59.414 143.748 -17.164  1.00  0.00     0.000 C 
BRANCH  11  12
ATOM     12  C   UNL     1      59.396 144.265 -18.617  1.00  0.00     0.000 C 
BRANCH  12  13
ATOM     13  C   UNL     1      60.117 143.366 -19.641  1.00  0.00     0.000 C 
BRANCH  13  14
ATOM     14  C   UNL     1      61.284 144.074 -20.344  1.00  0.00     0.000 C 
BRANCH  14  15
ATOM     15  C   UNL     1      61.166 145.597 -20.200  1.00  0.00     0.000 C 
BRANCH  15  16
ATOM     16  C   UNL     1      61.934 146.320 -21.317  1.00  0.00     0.006 C 
BRANCH  16  17
ATOM     17  C   UNL     1      62.645 147.584 -20.811  1.00  0.00     0.053 C 
BRANCH  17  18
ATOM     18  C   UNL     1      62.269 148.795 -21.612  1.00  0.00     0.041 C 
ATOM     19  O   UNL     1      61.236 148.782 -22.334  1.00  0.00    -0.550 OA
ATOM     20  O   UNL     1      63.087 149.919 -21.602  1.00  0.00    -0.550 OA
ENDBRANCH  17  18
ENDBRANCH  16  17
ENDBRANCH  15  16
ENDBRANCH  14  15
ENDBRANCH  13  14
ENDBRANCH  12  13
ENDBRANCH  11  12
ENDBRANCH   1  11
TORSDOF 15
ENDMDL
