MODEL 1
REMARK VINA RESULT:    -3.599      0.000      0.000
REMARK INTER + INTRA:          -5.914
REMARK INTER:                  -5.493
REMARK INTRA:                  -0.421
REMARK UNBOUND:                -0.421
REMARK SMILES CCCCCCCCCCC(=O)[O-]
REMARK SMILES IDX 7 1 8 2 9 3 10 4 11 5 12 6 13 7 6 8 5 9 4 10 3 11 2 12 1 13
REMARK H PARENT
REMARK Flexibility Score: inf
ROOT
ATOM      1  C   UNL     1      16.268   2.744  -1.348  1.00  0.00     0.000 C 
ENDROOT
BRANCH   1   2
ATOM      2  C   UNL     1      16.556   1.467  -2.155  1.00  0.00     0.000 C 
BRANCH   2   3
ATOM      3  C   UNL     1      17.769   1.614  -3.088  1.00  0.00     0.006 C 
BRANCH   3   4
ATOM      4  C   UNL     1      18.785   0.495  -2.844  1.00  0.00     0.053 C 
BRANCH   4   5
ATOM      5  C   UNL     1      20.137   1.067  -2.559  1.00  0.00     0.041 C 
ATOM      6  O   UNL     1      20.299   2.314  -2.502  1.00  0.00    -0.550 OA
ATOM      7  O   UNL     1      21.231   0.224  -2.404  1.00  0.00    -0.550 OA
ENDBRANCH   4   5
ENDBRANCH   3   4
ENDBRANCH   2   3
ENDBRANCH   1   2
BRANCH   1   8
ATOM      8  C   UNL     1      14.762   3.004  -1.173  1.00  0.00     0.000 C 
BRANCH   8   9
ATOM      9  C   UNL     1      14.068   3.366  -2.496  1.00  0.00    -0.000 C 
BRANCH   9  10
ATOM     10  C   UNL     1      12.842   4.271  -2.297  1.00  0.00    -0.000 C 
BRANCH  10  11
ATOM     11  C   UNL     1      12.687   4.668  -0.822  1.00  0.00    -0.000 C 
BRANCH  11  12
ATOM     12  C   UNL     1      11.319   5.299  -0.520  1.00  0.00    -0.003 C 
ATOM     13  C   UNL     1      10.265   4.958  -1.572  1.00  0.00     0.004 C 
ENDBRANCH  11  12
ENDBRANCH  10  11
ENDBRANCH   9  10
ENDBRANCH   8   9
ENDBRANCH   1   8
TORSDOF 9
ENDMDL
MODEL 2
REMARK VINA RESULT:    -3.498      2.243      3.864
REMARK INTER + INTRA:          -5.760
REMARK INTER:                  -4.921
REMARK INTRA:                  -0.839
REMARK UNBOUND:                -0.421
REMARK SMILES CCCCCCCCCCC(=O)[O-]
REMARK SMILES IDX 7 1 8 2 9 3 10 4 11 5 12 6 13 7 6 8 5 9 4 10 3 11 2 12 1 13
REMARK H PARENT
REMARK Flexibility Score: inf
ROOT
ATOM      1  C   UNL     1      13.242   4.445  -1.094  1.00  0.00     0.000 C 
ENDROOT
BRANCH   1   2
ATOM      2  C   UNL     1      12.998   3.785  -2.462  1.00  0.00     0.000 C 
BRANCH   2   3
ATOM      3  C   UNL     1      14.207   2.975  -2.955  1.00  0.00     0.006 C 
BRANCH   3   4
ATOM      4  C   UNL     1      15.204   2.733  -1.817  1.00  0.00     0.053 C 
BRANCH   4   5
ATOM      5  C   UNL     1      16.229   1.723  -2.225  1.00  0.00     0.041 C 
ATOM      6  O   UNL     1      17.455   1.967  -2.074  1.00  0.00    -0.550 OA
ATOM      7  O   UNL     1      15.833   0.531  -2.818  1.00  0.00    -0.550 OA
ENDBRANCH   4   5
ENDBRANCH   3   4
ENDBRANCH   2   3
ENDBRANCH   1   2
BRANCH   1   8
ATOM      8  C   UNL     1      11.954   5.016  -0.477  1.00  0.00     0.000 C 
BRANCH   8   9
ATOM      9  C   UNL     1      10.712   4.735  -1.339  1.00  0.00    -0.000 C 
BRANCH   9  10
ATOM     10  C   UNL     1      10.103   6.012  -1.938  1.00  0.00    -0.000 C 
BRANCH  10  11
ATOM     11  C   UNL     1      10.805   7.263  -1.391  1.00  0.00    -0.000 C 
BRANCH  11  12
ATOM     12  C   UNL     1      11.441   8.116  -2.501  1.00  0.00    -0.003 C 
ATOM     13  C   UNL     1      12.939   7.859  -2.660  1.00  0.00     0.004 C 
ENDBRANCH  11  12
ENDBRANCH  10  11
ENDBRANCH   9  10
ENDBRANCH   8   9
ENDBRANCH   1   8
TORSDOF 9
ENDMDL
MODEL 3
REMARK VINA RESULT:    -3.456      5.987      8.864
REMARK INTER + INTRA:          -5.695
REMARK INTER:                  -5.207
REMARK INTRA:                  -0.488
REMARK UNBOUND:                -0.421
REMARK SMILES CCCCCCCCCCC(=O)[O-]
REMARK SMILES IDX 7 1 8 2 9 3 10 4 11 5 12 6 13 7 6 8 5 9 4 10 3 11 2 12 1 13
REMARK H PARENT
REMARK Flexibility Score: inf
ROOT
ATOM      1  C   UNL     1      11.595   5.136  -0.532  1.00  0.00     0.000 C 
ENDROOT
BRANCH   1   2
ATOM      2  C   UNL     1      10.385   4.845  -1.435  1.00  0.00     0.000 C 
BRANCH   2   3
ATOM      3  C   UNL     1       9.897   6.089  -2.193  1.00  0.00     0.006 C 
BRANCH   3   4
ATOM      4  C   UNL     1       9.650   7.254  -1.232  1.00  0.00     0.053 C 
BRANCH   4   5
ATOM      5  C   UNL     1       8.404   7.991  -1.609  1.00  0.00     0.041 C 
ATOM      6  O   UNL     1       8.431   9.238  -1.780  1.00  0.00    -0.550 OA
ATOM      7  O   UNL     1       7.200   7.307  -1.725  1.00  0.00    -0.550 OA
ENDBRANCH   4   5
ENDBRANCH   3   4
ENDBRANCH   2   3
ENDBRANCH   1   2
BRANCH   1   8
ATOM      8  C   UNL     1      12.936   4.897  -1.248  1.00  0.00     0.000 C 
BRANCH   8   9
ATOM      9  C   UNL     1      12.835   3.826  -2.346  1.00  0.00    -0.000 C 
BRANCH   9  10
ATOM     10  C   UNL     1      14.183   3.152  -2.645  1.00  0.00    -0.000 C 
BRANCH  10  11
ATOM     11  C   UNL     1      15.064   3.106  -1.388  1.00  0.00    -0.000 C 
BRANCH  11  12
ATOM     12  C   UNL     1      16.299   2.209  -1.564  1.00  0.00    -0.003 C 
ATOM     13  C   UNL     1      15.997   0.932  -2.347  1.00  0.00     0.004 C 
ENDBRANCH  11  12
ENDBRANCH  10  11
ENDBRANCH   9  10
ENDBRANCH   8   9
ENDBRANCH   1   8
TORSDOF 9
ENDMDL
MODEL 4
REMARK VINA RESULT:    -3.451      4.305      7.608
REMARK INTER + INTRA:          -5.688
REMARK INTER:                  -5.238
REMARK INTRA:                  -0.449
REMARK UNBOUND:                -0.421
REMARK SMILES CCCCCCCCCCC(=O)[O-]
REMARK SMILES IDX 7 1 8 2 9 3 10 4 11 5 12 6 13 7 6 8 5 9 4 10 3 11 2 12 1 13
REMARK H PARENT
REMARK Flexibility Score: inf
ROOT
ATOM      1  C   UNL     1      14.985   3.021  -1.427  1.00  0.00     0.000 C 
ENDROOT
BRANCH   1   2
ATOM      2  C   UNL     1      14.145   3.074  -2.714  1.00  0.00     0.000 C 
BRANCH   2   3
ATOM      3  C   UNL     1      12.827   3.842  -2.533  1.00  0.00     0.006 C 
BRANCH   3   4
ATOM      4  C   UNL     1      12.863   4.699  -1.264  1.00  0.00     0.053 C 
BRANCH   4   5
ATOM      5  C   UNL     1      11.608   5.503  -1.138  1.00  0.00     0.041 C 
ATOM      6  O   UNL     1      10.561   4.978  -0.680  1.00  0.00    -0.550 OA
ATOM      7  O   UNL     1      11.582   6.822  -1.575  1.00  0.00    -0.550 OA
ENDBRANCH   4   5
ENDBRANCH   3   4
ENDBRANCH   2   3
ENDBRANCH   1   2
BRANCH   1   8
ATOM      8  C   UNL     1      16.326   2.296  -1.626  1.00  0.00     0.000 C 
BRANCH   8   9
ATOM      9  C   UNL     1      16.174   0.977  -2.402  1.00  0.00    -0.000 C 
BRANCH   9  10
ATOM     10  C   UNL     1      17.464   0.559  -3.125  1.00  0.00    -0.000 C 
BRANCH  10  11
ATOM     11  C   UNL     1      18.540   1.647  -2.997  1.00  0.00    -0.000 C 
BRANCH  11  12
ATOM     12  C   UNL     1      19.965   1.069  -2.983  1.00  0.00    -0.003 C 
ATOM     13  C   UNL     1      20.988   2.033  -2.383  1.00  0.00     0.004 C 
ENDBRANCH  11  12
ENDBRANCH  10  11
ENDBRANCH   9  10
ENDBRANCH   8   9
ENDBRANCH   1   8
TORSDOF 9
ENDMDL
MODEL 5
REMARK VINA RESULT:    -3.403      1.871      3.225
REMARK INTER + INTRA:          -5.615
REMARK INTER:                  -5.259
REMARK INTRA:                  -0.355
REMARK UNBOUND:                -0.421
REMARK SMILES CCCCCCCCCCC(=O)[O-]
REMARK SMILES IDX 7 1 8 2 9 3 10 4 11 5 12 6 13 7 6 8 5 9 4 10 3 11 2 12 1 13
REMARK H PARENT
REMARK Flexibility Score: inf
ROOT
ATOM      1  C   UNL     1      13.384   3.995  -2.764  1.00  0.00     0.000 C 
ENDROOT
BRANCH   1   2
ATOM      2  C   UNL     1      14.280   3.479  -1.625  1.00  0.00     0.000 C 
BRANCH   2   3
ATOM      3  C   UNL     1      15.034   2.193  -1.999  1.00  0.00     0.006 C 
BRANCH   3   4
ATOM      4  C   UNL     1      16.509   2.287  -1.597  1.00  0.00     0.053 C 
BRANCH   4   5
ATOM      5  C   UNL     1      17.347   1.408  -2.469  1.00  0.00     0.041 C 
ATOM      6  O   UNL     1      16.877   0.334  -2.926  1.00  0.00    -0.550 OA
ATOM      7  O   UNL     1      18.666   1.751  -2.739  1.00  0.00    -0.550 OA
ENDBRANCH   4   5
ENDBRANCH   3   4
ENDBRANCH   2   3
ENDBRANCH   1   2
BRANCH   1   8
ATOM      8  C   UNL     1      12.064   4.596  -2.250  1.00  0.00     0.000 C 
BRANCH   8   9
ATOM      9  C   UNL     1      12.129   4.977  -0.762  1.00  0.00    -0.000 C 
BRANCH   9  10
ATOM     10  C   UNL     1      10.946   5.853  -0.321  1.00  0.00    -0.000 C 
BRANCH  10  11
ATOM     11  C   UNL     1      10.040   6.192  -1.513  1.00  0.00    -0.000 C 
BRANCH  11  12
ATOM     12  C   UNL     1       9.335   7.549  -1.352  1.00  0.00    -0.003 C 
ATOM     13  C   UNL     1       7.857   7.497  -1.734  1.00  0.00     0.004 C 
ENDBRANCH  11  12
ENDBRANCH  10  11
ENDBRANCH   9  10
ENDBRANCH   8   9
ENDBRANCH   1   8
TORSDOF 9
ENDMDL
MODEL 6
REMARK VINA RESULT:    -3.399      4.918      8.310
REMARK INTER + INTRA:          -5.608
REMARK INTER:                  -5.044
REMARK INTRA:                  -0.564
REMARK UNBOUND:                -0.421
REMARK SMILES CCCCCCCCCCC(=O)[O-]
REMARK SMILES IDX 7 1 8 2 9 3 10 4 11 5 12 6 13 7 6 8 5 9 4 10 3 11 2 12 1 13
REMARK H PARENT
REMARK Flexibility Score: inf
ROOT
ATOM      1  C   UNL     1      11.590   5.300  -0.533  1.00  0.00     0.000 C 
ENDROOT
BRANCH   1   2
ATOM      2  C   UNL     1      10.406   4.904  -1.432  1.00  0.00     0.000 C 
BRANCH   2   3
ATOM      3  C   UNL     1       9.848   6.088  -2.236  1.00  0.00     0.006 C 
BRANCH   3   4
ATOM      4  C   UNL     1       9.542   7.276  -1.319  1.00  0.00     0.053 C 
BRANCH   4   5
ATOM      5  C   UNL     1      10.221   8.512  -1.817  1.00  0.00     0.041 C 
ATOM      6  O   UNL     1      11.407   8.459  -2.236  1.00  0.00    -0.550 OA
ATOM      7  O   UNL     1       9.562   9.734  -1.774  1.00  0.00    -0.550 OA
ENDBRANCH   4   5
ENDBRANCH   3   4
ENDBRANCH   2   3
ENDBRANCH   1   2
BRANCH   1   8
ATOM      8  C   UNL     1      12.898   4.599  -0.936  1.00  0.00     0.000 C 
BRANCH   8   9
ATOM      9  C   UNL     1      12.771   3.833  -2.264  1.00  0.00    -0.000 C 
BRANCH   9  10
ATOM     10  C   UNL     1      14.005   2.970  -2.573  1.00  0.00    -0.000 C 
BRANCH  10  11
ATOM     11  C   UNL     1      15.033   3.056  -1.435  1.00  0.00    -0.000 C 
BRANCH  11  12
ATOM     12  C   UNL     1      16.092   1.945  -1.511  1.00  0.00    -0.003 C 
ATOM     13  C   UNL     1      15.880   1.004  -2.696  1.00  0.00     0.004 C 
ENDBRANCH  11  12
ENDBRANCH  10  11
ENDBRANCH   9  10
ENDBRANCH   8   9
ENDBRANCH   1   8
TORSDOF 9
ENDMDL
MODEL 7
REMARK VINA RESULT:    -3.390      2.454      4.552
REMARK INTER + INTRA:          -5.595
REMARK INTER:                  -5.096
REMARK INTRA:                  -0.498
REMARK UNBOUND:                -0.421
REMARK SMILES CCCCCCCCCCC(=O)[O-]
REMARK SMILES IDX 7 1 8 2 9 3 10 4 11 5 12 6 13 7 6 8 5 9 4 10 3 11 2 12 1 13
REMARK H PARENT
REMARK Flexibility Score: inf
ROOT
ATOM      1  C   UNL     1      12.513   4.725  -0.810  1.00  0.00     0.000 C 
ENDROOT
BRANCH   1   2
ATOM      2  C   UNL     1      12.837   4.547  -2.303  1.00  0.00     0.000 C 
BRANCH   2   3
ATOM      3  C   UNL     1      13.709   3.311  -2.578  1.00  0.00     0.006 C 
BRANCH   3   4
ATOM      4  C   UNL     1      14.831   3.192  -1.543  1.00  0.00     0.053 C 
BRANCH   4   5
ATOM      5  C   UNL     1      15.755   2.071  -1.898  1.00  0.00     0.041 C 
ATOM      6  O   UNL     1      15.293   0.950  -2.236  1.00  0.00    -0.550 OA
ATOM      7  O   UNL     1      17.130   2.249  -1.810  1.00  0.00    -0.550 OA
ENDBRANCH   4   5
ENDBRANCH   3   4
ENDBRANCH   2   3
ENDBRANCH   1   2
BRANCH   1   8
ATOM      8  C   UNL     1      11.038   5.087  -0.567  1.00  0.00     0.000 C 
BRANCH   8   9
ATOM      9  C   UNL     1      10.802   6.606  -0.529  1.00  0.00    -0.000 C 
BRANCH   9  10
ATOM     10  C   UNL     1      10.111   7.133  -1.796  1.00  0.00    -0.000 C 
BRANCH  10  11
ATOM     11  C   UNL     1       8.969   6.199  -2.226  1.00  0.00    -0.000 C 
BRANCH  11  12
ATOM     12  C   UNL     1       7.623   6.930  -2.349  1.00  0.00    -0.003 C 
ATOM     13  C   UNL     1       7.409   7.967  -1.247  1.00  0.00     0.004 C 
ENDBRANCH  11  12
ENDBRANCH  10  11
ENDBRANCH   9  10
ENDBRANCH   8   9
ENDBRANCH   1   8
TORSDOF 9
ENDMDL
MODEL 8
REMARK VINA RESULT:    -3.193      4.985      8.164
REMARK INTER + INTRA:          -5.294
REMARK INTER:                  -4.566
REMARK INTRA:                  -0.729
REMARK UNBOUND:                -0.421
REMARK SMILES CCCCCCCCCCC(=O)[O-]
REMARK SMILES IDX 7 1 8 2 9 3 10 4 11 5 12 6 13 7 6 8 5 9 4 10 3 11 2 12 1 13
REMARK H PARENT
REMARK Flexibility Score: inf
ROOT
ATOM      1  C   UNL     1      10.934   6.511  -0.487  1.00  0.00     0.000 C 
ENDROOT
BRANCH   1   2
ATOM      2  C   UNL     1       9.782   7.163  -1.270  1.00  0.00     0.000 C 
BRANCH   2   3
ATOM      3  C   UNL     1      10.229   8.400  -2.064  1.00  0.00     0.006 C 
BRANCH   3   4
ATOM      4  C   UNL     1      11.754   8.446  -2.193  1.00  0.00     0.053 C 
BRANCH   4   5
ATOM      5  C   UNL     1      12.271   9.799  -1.822  1.00  0.00     0.041 C 
ATOM      6  O   UNL     1      11.506  10.649  -1.295  1.00  0.00    -0.550 OA
ATOM      7  O   UNL     1      13.589  10.141  -2.102  1.00  0.00    -0.550 OA
ENDBRANCH   4   5
ENDBRANCH   3   4
ENDBRANCH   2   3
ENDBRANCH   1   2
BRANCH   1   8
ATOM      8  C   UNL     1      10.992   4.986  -0.684  1.00  0.00     0.000 C 
BRANCH   8   9
ATOM      9  C   UNL     1      11.057   4.586  -2.167  1.00  0.00    -0.000 C 
BRANCH   9  10
ATOM     10  C   UNL     1      12.494   4.530  -2.706  1.00  0.00    -0.000 C 
BRANCH  10  11
ATOM     11  C   UNL     1      13.464   4.016  -1.632  1.00  0.00    -0.000 C 
BRANCH  11  12
ATOM     12  C   UNL     1      14.514   3.047  -2.199  1.00  0.00    -0.003 C 
ATOM     13  C   UNL     1      15.691   2.829  -1.250  1.00  0.00     0.004 C 
ENDBRANCH  11  12
ENDBRANCH  10  11
ENDBRANCH   9  10
ENDBRANCH   8   9
ENDBRANCH   1   8
TORSDOF 9
ENDMDL
