MODEL 1
REMARK VINA RESULT:    -6.344      0.000      0.000
REMARK INTER + INTRA:          -8.431
REMARK INTER:                  -8.013
REMARK INTRA:                  -0.418
REMARK UNBOUND:                -0.418
REMARK SMILES Oc1ccc(CCc2cc(O)cc(O)c2)cc1
REMARK SMILES IDX 6 1 5 2 4 3 3 4 2 5 16 6 17 7 1 8 7 10 8 11 15 12 9 13 13 14
REMARK SMILES IDX 10 15 12 16 14 17 11 19
REMARK H PARENT 1 9 14 18 11 20
REMARK Flexibility Score: inf
ROOT
ATOM      1  C   UNL     1       8.428   8.356  -1.530  1.00  0.00     0.040 C 
ENDROOT
BRANCH   1   2
ATOM      2  C   UNL     1       7.112   9.085  -1.483  1.00  0.00    -0.047 A 
ATOM      3  C   UNL     1       6.146   8.868  -2.479  1.00  0.00     0.007 A 
ATOM      4  C   UNL     1       4.912   9.520  -2.418  1.00  0.00     0.046 A 
ATOM      5  C   UNL     1       4.625  10.387  -1.359  1.00  0.00     0.115 A 
ATOM      6  C   UNL     1       6.816   9.946  -0.413  1.00  0.00     0.007 A 
ATOM      7  C   UNL     1       5.581  10.597  -0.354  1.00  0.00     0.046 A 
BRANCH   5   8
ATOM      8  O   UNL     1       3.391  11.031  -1.310  1.00  0.00    -0.508 OA
ATOM      9  H   UNL     1       3.123  11.603  -0.518  1.00  0.00     0.293 HD
ENDBRANCH   5   8
ENDBRANCH   1   2
BRANCH   1  10
ATOM     10  C   UNL     1       8.242   6.884  -1.149  1.00  0.00     0.040 C 
BRANCH  10  11
ATOM     11  C   UNL     1       9.177   6.011  -1.942  1.00  0.00    -0.040 A 
ATOM     12  C   UNL     1       8.666   5.027  -2.805  1.00  0.00     0.050 A 
ATOM     13  C   UNL     1      10.565   6.210  -1.868  1.00  0.00     0.050 A 
ATOM     14  C   UNL     1       9.531   4.237  -3.567  1.00  0.00     0.119 A 
ATOM     15  C   UNL     1      11.434   5.419  -2.632  1.00  0.00     0.119 A 
ATOM     16  C   UNL     1      10.916   4.432  -3.477  1.00  0.00     0.092 A 
BRANCH  14  17
ATOM     17  O   UNL     1       9.006   3.262  -4.413  1.00  0.00    -0.508 OA
ATOM     18  H   UNL     1       9.524   2.420  -4.636  1.00  0.00     0.293 HD
ENDBRANCH  14  17
BRANCH  15  19
ATOM     19  O   UNL     1      12.813   5.606  -2.558  1.00  0.00    -0.508 OA
ATOM     20  H   UNL     1      13.431   4.868  -2.244  1.00  0.00     0.293 HD
ENDBRANCH  15  19
ENDBRANCH  10  11
ENDBRANCH   1  10
TORSDOF 6
ENDMDL
MODEL 2
REMARK VINA RESULT:    -6.312      0.067      2.036
REMARK INTER + INTRA:          -8.390
REMARK INTER:                  -7.964
REMARK INTRA:                  -0.426
REMARK UNBOUND:                -0.418
REMARK SMILES Oc1ccc(CCc2cc(O)cc(O)c2)cc1
REMARK SMILES IDX 6 1 5 2 4 3 3 4 2 5 16 6 17 7 1 8 7 10 8 11 15 12 9 13 13 14
REMARK SMILES IDX 10 15 12 16 14 17 11 19
REMARK H PARENT 1 9 14 18 11 20
REMARK Flexibility Score: inf
ROOT
ATOM      1  C   UNL     1       8.437   8.378  -1.471  1.00  0.00     0.040 C 
ENDROOT
BRANCH   1   2
ATOM      2  C   UNL     1       7.107   9.083  -1.458  1.00  0.00    -0.047 A 
ATOM      3  C   UNL     1       6.167   8.839  -2.473  1.00  0.00     0.007 A 
ATOM      4  C   UNL     1       4.920   9.470  -2.443  1.00  0.00     0.046 A 
ATOM      5  C   UNL     1       4.595  10.341  -1.399  1.00  0.00     0.115 A 
ATOM      6  C   UNL     1       6.774   9.948  -0.403  1.00  0.00     0.007 A 
ATOM      7  C   UNL     1       5.526  10.577  -0.376  1.00  0.00     0.046 A 
BRANCH   5   8
ATOM      8  O   UNL     1       3.349  10.963  -1.382  1.00  0.00    -0.508 OA
ATOM      9  H   UNL     1       2.642  10.751  -2.076  1.00  0.00     0.293 HD
ENDBRANCH   5   8
ENDBRANCH   1   2
BRANCH   1  10
ATOM     10  C   UNL     1       8.259   6.889  -1.159  1.00  0.00     0.040 C 
BRANCH  10  11
ATOM     11  C   UNL     1       9.176   6.056  -2.015  1.00  0.00    -0.040 A 
ATOM     12  C   UNL     1      10.568   6.226  -1.934  1.00  0.00     0.050 A 
ATOM     13  C   UNL     1       8.649   5.065  -2.859  1.00  0.00     0.050 A 
ATOM     14  C   UNL     1      11.423   5.431  -2.703  1.00  0.00     0.119 A 
ATOM     15  C   UNL     1       9.505   4.268  -3.631  1.00  0.00     0.119 A 
ATOM     16  C   UNL     1      10.889   4.454  -3.555  1.00  0.00     0.092 A 
BRANCH  14  17
ATOM     17  O   UNL     1      12.800   5.619  -2.615  1.00  0.00    -0.508 OA
ATOM     18  H   UNL     1      13.307   5.427  -1.758  1.00  0.00     0.293 HD
ENDBRANCH  14  17
BRANCH  15  19
ATOM     19  O   UNL     1       8.989   3.287  -4.477  1.00  0.00    -0.508 OA
ATOM     20  H   UNL     1       9.591   2.615  -4.935  1.00  0.00     0.293 HD
ENDBRANCH  15  19
ENDBRANCH  10  11
ENDBRANCH   1  10
TORSDOF 6
ENDMDL
MODEL 3
REMARK VINA RESULT:    -6.245      1.493      1.967
REMARK INTER + INTRA:          -8.306
REMARK INTER:                  -7.660
REMARK INTRA:                  -0.645
REMARK UNBOUND:                -0.418
REMARK SMILES Oc1ccc(CCc2cc(O)cc(O)c2)cc1
REMARK SMILES IDX 6 1 5 2 4 3 3 4 2 5 16 6 17 7 1 8 7 10 8 11 15 12 9 13 13 14
REMARK SMILES IDX 10 15 12 16 14 17 11 19
REMARK H PARENT 1 9 14 18 11 20
REMARK Flexibility Score: inf
ROOT
ATOM      1  C   UNL     1       8.403   8.330  -1.388  1.00  0.00     0.040 C 
ENDROOT
BRANCH   1   2
ATOM      2  C   UNL     1       7.495   8.898  -2.445  1.00  0.00    -0.047 A 
ATOM      3  C   UNL     1       6.126   9.070  -2.184  1.00  0.00     0.007 A 
ATOM      4  C   UNL     1       5.289   9.628  -3.155  1.00  0.00     0.046 A 
ATOM      5  C   UNL     1       5.810  10.029  -4.389  1.00  0.00     0.115 A 
ATOM      6  C   UNL     1       8.019   9.314  -3.680  1.00  0.00     0.007 A 
ATOM      7  C   UNL     1       7.179   9.872  -4.649  1.00  0.00     0.046 A 
BRANCH   5   8
ATOM      8  O   UNL     1       4.965  10.583  -5.347  1.00  0.00    -0.508 OA
ATOM      9  H   UNL     1       4.340  11.349  -5.123  1.00  0.00     0.293 HD
ENDBRANCH   5   8
ENDBRANCH   1   2
BRANCH   1  10
ATOM     10  C   UNL     1       8.121   6.838  -1.182  1.00  0.00     0.040 C 
BRANCH  10  11
ATOM     11  C   UNL     1       9.101   6.002  -1.961  1.00  0.00    -0.040 A 
ATOM     12  C   UNL     1       8.640   5.022  -2.855  1.00  0.00     0.050 A 
ATOM     13  C   UNL     1      10.481   6.233  -1.842  1.00  0.00     0.050 A 
ATOM     14  C   UNL     1       9.547   4.266  -3.604  1.00  0.00     0.119 A 
ATOM     15  C   UNL     1      11.391   5.477  -2.592  1.00  0.00     0.119 A 
ATOM     16  C   UNL     1      10.923   4.493  -3.469  1.00  0.00     0.092 A 
BRANCH  14  17
ATOM     17  O   UNL     1       9.071   3.294  -4.481  1.00  0.00    -0.508 OA
ATOM     18  H   UNL     1       8.264   2.724  -4.253  1.00  0.00     0.293 HD
ENDBRANCH  14  17
BRANCH  15  19
ATOM     19  O   UNL     1      12.763   5.696  -2.474  1.00  0.00    -0.508 OA
ATOM     20  H   UNL     1      13.184   5.941  -1.586  1.00  0.00     0.293 HD
ENDBRANCH  15  19
ENDBRANCH  10  11
ENDBRANCH   1  10
TORSDOF 6
ENDMDL
MODEL 4
REMARK VINA RESULT:    -6.235      1.453      2.805
REMARK INTER + INTRA:          -8.293
REMARK INTER:                  -7.648
REMARK INTRA:                  -0.644
REMARK UNBOUND:                -0.418
REMARK SMILES Oc1ccc(CCc2cc(O)cc(O)c2)cc1
REMARK SMILES IDX 6 1 5 2 4 3 3 4 2 5 16 6 17 7 1 8 7 10 8 11 15 12 9 13 13 14
REMARK SMILES IDX 10 15 12 16 14 17 11 19
REMARK H PARENT 1 9 14 18 11 20
REMARK Flexibility Score: inf
ROOT
ATOM      1  C   UNL     1       8.418   8.352  -1.396  1.00  0.00     0.040 C 
ENDROOT
BRANCH   1   2
ATOM      2  C   UNL     1       7.476   8.910  -2.427  1.00  0.00    -0.047 A 
ATOM      3  C   UNL     1       6.112   9.065  -2.132  1.00  0.00     0.007 A 
ATOM      4  C   UNL     1       5.244   9.614  -3.079  1.00  0.00     0.046 A 
ATOM      5  C   UNL     1       5.728  10.022  -4.326  1.00  0.00     0.115 A 
ATOM      6  C   UNL     1       7.963   9.334  -3.675  1.00  0.00     0.007 A 
ATOM      7  C   UNL     1       7.092   9.883  -4.621  1.00  0.00     0.046 A 
BRANCH   5   8
ATOM      8  O   UNL     1       4.852  10.568  -5.261  1.00  0.00    -0.508 OA
ATOM      9  H   UNL     1       4.995  11.495  -5.644  1.00  0.00     0.293 HD
ENDBRANCH   5   8
ENDBRANCH   1   2
BRANCH   1  10
ATOM     10  C   UNL     1       8.175   6.852  -1.200  1.00  0.00     0.040 C 
BRANCH  10  11
ATOM     11  C   UNL     1       9.125   6.048  -2.048  1.00  0.00    -0.040 A 
ATOM     12  C   UNL     1      10.512   6.233  -1.925  1.00  0.00     0.050 A 
ATOM     13  C   UNL     1       8.635   5.067  -2.925  1.00  0.00     0.050 A 
ATOM     14  C   UNL     1      11.397   5.464  -2.687  1.00  0.00     0.119 A 
ATOM     15  C   UNL     1       9.520   4.296  -3.689  1.00  0.00     0.119 A 
ATOM     16  C   UNL     1      10.900   4.497  -3.571  1.00  0.00     0.092 A 
BRANCH  14  17
ATOM     17  O   UNL     1      12.770   5.666  -2.557  1.00  0.00    -0.508 OA
ATOM     18  H   UNL     1      13.152   6.580  -2.339  1.00  0.00     0.293 HD
ENDBRANCH  14  17
BRANCH  15  19
ATOM     19  O   UNL     1       9.040   3.326  -4.567  1.00  0.00    -0.508 OA
ATOM     20  H   UNL     1       9.555   2.473  -4.746  1.00  0.00     0.293 HD
ENDBRANCH  15  19
ENDBRANCH  10  11
ENDBRANCH   1  10
TORSDOF 6
ENDMDL
MODEL 5
REMARK VINA RESULT:    -6.175      2.411      6.558
REMARK INTER + INTRA:          -8.217
REMARK INTER:                  -7.576
REMARK INTRA:                  -0.641
REMARK UNBOUND:                -0.418
REMARK SMILES Oc1ccc(CCc2cc(O)cc(O)c2)cc1
REMARK SMILES IDX 6 1 5 2 4 3 3 4 2 5 16 6 17 7 1 8 7 10 8 11 15 12 9 13 13 14
REMARK SMILES IDX 10 15 12 16 14 17 11 19
REMARK H PARENT 1 9 14 18 11 20
REMARK Flexibility Score: inf
ROOT
ATOM      1  C   UNL     1       9.929   7.273  -5.500  1.00  0.00     0.040 C 
ENDROOT
BRANCH   1   2
ATOM      2  C   UNL     1      10.173   5.996  -4.743  1.00  0.00    -0.047 A 
ATOM      3  C   UNL     1      11.415   5.761  -4.131  1.00  0.00     0.007 A 
ATOM      4  C   UNL     1      11.631   4.589  -3.402  1.00  0.00     0.046 A 
ATOM      5  C   UNL     1      10.609   3.644  -3.267  1.00  0.00     0.115 A 
ATOM      6  C   UNL     1       9.144   5.052  -4.596  1.00  0.00     0.007 A 
ATOM      7  C   UNL     1       9.362   3.880  -3.865  1.00  0.00     0.046 A 
BRANCH   5   8
ATOM      8  O   UNL     1      10.837   2.480  -2.538  1.00  0.00    -0.508 OA
ATOM      9  H   UNL     1      11.608   1.860  -2.757  1.00  0.00     0.293 HD
ENDBRANCH   5   8
ENDBRANCH   1   2
BRANCH   1  10
ATOM     10  C   UNL     1      10.134   8.486  -4.587  1.00  0.00     0.040 C 
BRANCH  10  11
ATOM     11  C   UNL     1       8.987   8.622  -3.622  1.00  0.00    -0.040 A 
ATOM     12  C   UNL     1       7.810   9.283  -4.011  1.00  0.00     0.050 A 
ATOM     13  C   UNL     1       9.063   8.042  -2.346  1.00  0.00     0.050 A 
ATOM     14  C   UNL     1       6.730   9.381  -3.127  1.00  0.00     0.119 A 
ATOM     15  C   UNL     1       7.982   8.140  -1.459  1.00  0.00     0.119 A 
ATOM     16  C   UNL     1       6.819   8.812  -1.850  1.00  0.00     0.092 A 
BRANCH  14  17
ATOM     17  O   UNL     1       5.573  10.046  -3.528  1.00  0.00    -0.508 OA
ATOM     18  H   UNL     1       5.280  10.061  -4.499  1.00  0.00     0.293 HD
ENDBRANCH  14  17
BRANCH  15  19
ATOM     19  O   UNL     1       8.054   7.572  -0.188  1.00  0.00    -0.508 OA
ATOM     20  H   UNL     1       7.888   6.584  -0.040  1.00  0.00     0.293 HD
ENDBRANCH  15  19
ENDBRANCH  10  11
ENDBRANCH   1  10
TORSDOF 6
ENDMDL
MODEL 6
REMARK VINA RESULT:    -6.164      2.437      6.722
REMARK INTER + INTRA:          -8.203
REMARK INTER:                  -7.531
REMARK INTRA:                  -0.672
REMARK UNBOUND:                -0.418
REMARK SMILES Oc1ccc(CCc2cc(O)cc(O)c2)cc1
REMARK SMILES IDX 6 1 5 2 4 3 3 4 2 5 16 6 17 7 1 8 7 10 8 11 15 12 9 13 13 14
REMARK SMILES IDX 10 15 12 16 14 17 11 19
REMARK H PARENT 1 9 14 18 11 20
REMARK Flexibility Score: inf
ROOT
ATOM      1  C   UNL     1       9.942   7.334  -5.535  1.00  0.00     0.040 C 
ENDROOT
BRANCH   1   2
ATOM      2  C   UNL     1      10.193   6.057  -4.779  1.00  0.00    -0.047 A 
ATOM      3  C   UNL     1      11.423   5.844  -4.136  1.00  0.00     0.007 A 
ATOM      4  C   UNL     1      11.643   4.671  -3.408  1.00  0.00     0.046 A 
ATOM      5  C   UNL     1      10.637   3.706  -3.305  1.00  0.00     0.115 A 
ATOM      6  C   UNL     1       9.179   5.091  -4.664  1.00  0.00     0.007 A 
ATOM      7  C   UNL     1       9.402   3.920  -3.935  1.00  0.00     0.046 A 
BRANCH   5   8
ATOM      8  O   UNL     1      10.870   2.542  -2.576  1.00  0.00    -0.508 OA
ATOM      9  H   UNL     1      11.139   2.573  -1.600  1.00  0.00     0.293 HD
ENDBRANCH   5   8
ENDBRANCH   1   2
BRANCH   1  10
ATOM     10  C   UNL     1      10.086   8.545  -4.608  1.00  0.00     0.040 C 
BRANCH  10  11
ATOM     11  C   UNL     1       8.904   8.643  -3.679  1.00  0.00    -0.040 A 
ATOM     12  C   UNL     1       8.986   8.134  -2.373  1.00  0.00     0.050 A 
ATOM     13  C   UNL     1       7.731   9.295  -4.093  1.00  0.00     0.050 A 
ATOM     14  C   UNL     1       7.902   8.254  -1.498  1.00  0.00     0.119 A 
ATOM     15  C   UNL     1       6.644   9.416  -3.218  1.00  0.00     0.119 A 
ATOM     16  C   UNL     1       6.730   8.893  -1.924  1.00  0.00     0.092 A 
BRANCH  14  17
ATOM     17  O   UNL     1       8.000   7.736  -0.209  1.00  0.00    -0.508 OA
ATOM     18  H   UNL     1       8.026   6.737  -0.039  1.00  0.00     0.293 HD
ENDBRANCH  14  17
BRANCH  15  19
ATOM     19  O   UNL     1       5.474  10.055  -3.624  1.00  0.00    -0.508 OA
ATOM     20  H   UNL     1       4.650   9.531  -3.891  1.00  0.00     0.293 HD
ENDBRANCH  15  19
ENDBRANCH  10  11
ENDBRANCH   1  10
TORSDOF 6
ENDMDL
MODEL 7
REMARK VINA RESULT:    -5.993      1.843      2.410
REMARK INTER + INTRA:          -7.987
REMARK INTER:                  -7.452
REMARK INTRA:                  -0.535
REMARK UNBOUND:                -0.418
REMARK SMILES Oc1ccc(CCc2cc(O)cc(O)c2)cc1
REMARK SMILES IDX 6 1 5 2 4 3 3 4 2 5 16 6 17 7 1 8 7 10 8 11 15 12 9 13 13 14
REMARK SMILES IDX 10 15 12 16 14 17 11 19
REMARK H PARENT 1 9 14 18 11 20
REMARK Flexibility Score: inf
ROOT
ATOM      1  C   UNL     1       9.263   8.292  -2.860  1.00  0.00     0.040 C 
ENDROOT
BRANCH   1   2
ATOM      2  C   UNL     1       8.007   8.871  -2.267  1.00  0.00    -0.047 A 
ATOM      3  C   UNL     1       8.024   9.427  -0.977  1.00  0.00     0.007 A 
ATOM      4  C   UNL     1       6.866   9.994  -0.439  1.00  0.00     0.046 A 
ATOM      5  C   UNL     1       5.683  10.022  -1.185  1.00  0.00     0.115 A 
ATOM      6  C   UNL     1       6.822   8.913  -3.019  1.00  0.00     0.007 A 
ATOM      7  C   UNL     1       5.665   9.481  -2.478  1.00  0.00     0.046 A 
BRANCH   5   8
ATOM      8  O   UNL     1       4.536  10.591  -0.637  1.00  0.00    -0.508 OA
ATOM      9  H   UNL     1       3.611  10.341  -0.967  1.00  0.00     0.293 HD
ENDBRANCH   5   8
ENDBRANCH   1   2
BRANCH   1  10
ATOM     10  C   UNL     1       8.947   7.014  -3.644  1.00  0.00     0.040 C 
BRANCH  10  11
ATOM     11  C   UNL     1       9.315   5.795  -2.841  1.00  0.00    -0.040 A 
ATOM     12  C   UNL     1       8.673   5.533  -1.619  1.00  0.00     0.050 A 
ATOM     13  C   UNL     1      10.262   4.883  -3.332  1.00  0.00     0.050 A 
ATOM     14  C   UNL     1       8.989   4.385  -0.887  1.00  0.00     0.119 A 
ATOM     15  C   UNL     1      10.580   3.731  -2.600  1.00  0.00     0.119 A 
ATOM     16  C   UNL     1       9.946   3.486  -1.378  1.00  0.00     0.092 A 
BRANCH  14  17
ATOM     17  O   UNL     1       8.346   4.145   0.325  1.00  0.00    -0.508 OA
ATOM     18  H   UNL     1       8.706   4.515   1.198  1.00  0.00     0.293 HD
ENDBRANCH  14  17
BRANCH  15  19
ATOM     19  O   UNL     1      11.525   2.824  -3.078  1.00  0.00    -0.508 OA
ATOM     20  H   UNL     1      12.267   3.114  -3.703  1.00  0.00     0.293 HD
ENDBRANCH  15  19
ENDBRANCH  10  11
ENDBRANCH   1  10
TORSDOF 6
ENDMDL
MODEL 8
REMARK VINA RESULT:    -5.981      1.839      2.491
REMARK INTER + INTRA:          -7.973
REMARK INTER:                  -7.438
REMARK INTRA:                  -0.535
REMARK UNBOUND:                -0.418
REMARK SMILES Oc1ccc(CCc2cc(O)cc(O)c2)cc1
REMARK SMILES IDX 6 1 5 2 4 3 3 4 2 5 16 6 17 7 1 8 7 10 8 11 15 12 9 13 13 14
REMARK SMILES IDX 10 15 12 16 14 17 11 19
REMARK H PARENT 1 9 14 18 11 20
REMARK Flexibility Score: inf
ROOT
ATOM      1  C   UNL     1       9.211   8.267  -2.792  1.00  0.00     0.040 C 
ENDROOT
BRANCH   1   2
ATOM      2  C   UNL     1       7.960   8.865  -2.207  1.00  0.00    -0.047 A 
ATOM      3  C   UNL     1       7.977   9.424  -0.919  1.00  0.00     0.007 A 
ATOM      4  C   UNL     1       6.823  10.008  -0.389  1.00  0.00     0.046 A 
ATOM      5  C   UNL     1       5.645  10.048  -1.141  1.00  0.00     0.115 A 
ATOM      6  C   UNL     1       6.779   8.918  -2.966  1.00  0.00     0.007 A 
ATOM      7  C   UNL     1       5.626   9.502  -2.433  1.00  0.00     0.046 A 
BRANCH   5   8
ATOM      8  O   UNL     1       4.502  10.632  -0.601  1.00  0.00    -0.508 OA
ATOM      9  H   UNL     1       3.666  10.090  -0.415  1.00  0.00     0.293 HD
ENDBRANCH   5   8
ENDBRANCH   1   2
BRANCH   1  10
ATOM     10  C   UNL     1       8.879   7.015  -3.609  1.00  0.00     0.040 C 
BRANCH  10  11
ATOM     11  C   UNL     1       9.231   5.771  -2.837  1.00  0.00    -0.040 A 
ATOM     12  C   UNL     1      10.206   4.887  -3.327  1.00  0.00     0.050 A 
ATOM     13  C   UNL     1       8.629   5.515  -1.595  1.00  0.00     0.050 A 
ATOM     14  C   UNL     1      10.559   3.748  -2.596  1.00  0.00     0.119 A 
ATOM     15  C   UNL     1       8.981   4.374  -0.861  1.00  0.00     0.119 A 
ATOM     16  C   UNL     1       9.943   3.492  -1.364  1.00  0.00     0.092 A 
BRANCH  14  17
ATOM     17  O   UNL     1      11.524   2.879  -3.102  1.00  0.00    -0.508 OA
ATOM     18  H   UNL     1      11.270   1.989  -3.516  1.00  0.00     0.293 HD
ENDBRANCH  14  17
BRANCH  15  19
ATOM     19  O   UNL     1       8.383   4.109   0.370  1.00  0.00    -0.508 OA
ATOM     20  H   UNL     1       8.901   4.181   1.236  1.00  0.00     0.293 HD
ENDBRANCH  15  19
ENDBRANCH  10  11
ENDBRANCH   1  10
TORSDOF 6
ENDMDL
MODEL 9
REMARK VINA RESULT:    -5.961      1.704      1.862
REMARK INTER + INTRA:          -7.946
REMARK INTER:                  -7.497
REMARK INTRA:                  -0.450
REMARK UNBOUND:                -0.418
REMARK SMILES Oc1ccc(CCc2cc(O)cc(O)c2)cc1
REMARK SMILES IDX 6 1 5 2 4 3 3 4 2 5 16 6 17 7 1 8 7 10 8 11 15 12 9 13 13 14
REMARK SMILES IDX 10 15 12 16 14 17 11 19
REMARK H PARENT 1 9 14 18 11 20
REMARK Flexibility Score: inf
ROOT
ATOM      1  C   UNL     1       7.673   9.172  -1.435  1.00  0.00     0.040 C 
ENDROOT
BRANCH   1   2
ATOM      2  C   UNL     1       6.244   9.640  -1.481  1.00  0.00    -0.047 A 
ATOM      3  C   UNL     1       5.412   9.270  -2.550  1.00  0.00     0.007 A 
ATOM      4  C   UNL     1       4.075   9.677  -2.577  1.00  0.00     0.046 A 
ATOM      5  C   UNL     1       3.553  10.448  -1.533  1.00  0.00     0.115 A 
ATOM      6  C   UNL     1       5.713  10.403  -0.428  1.00  0.00     0.007 A 
ATOM      7  C   UNL     1       4.376  10.809  -0.457  1.00  0.00     0.046 A 
BRANCH   5   8
ATOM      8  O   UNL     1       2.219  10.848  -1.572  1.00  0.00    -0.508 OA
ATOM      9  H   UNL     1       1.527  10.444  -0.952  1.00  0.00     0.293 HD
ENDBRANCH   5   8
ENDBRANCH   1   2
BRANCH   1  10
ATOM     10  C   UNL     1       7.922   8.096  -2.495  1.00  0.00     0.040 C 
BRANCH  10  11
ATOM     11  C   UNL     1       8.801   7.004  -1.945  1.00  0.00    -0.040 A 
ATOM     12  C   UNL     1       8.261   6.020  -1.100  1.00  0.00     0.050 A 
ATOM     13  C   UNL     1      10.153   6.929  -2.316  1.00  0.00     0.050 A 
ATOM     14  C   UNL     1       9.067   4.986  -0.614  1.00  0.00     0.119 A 
ATOM     15  C   UNL     1      10.962   5.893  -1.830  1.00  0.00     0.119 A 
ATOM     16  C   UNL     1      10.419   4.926  -0.978  1.00  0.00     0.092 A 
BRANCH  14  17
ATOM     17  O   UNL     1       8.516   4.023   0.228  1.00  0.00    -0.508 OA
ATOM     18  H   UNL     1       8.694   4.027   1.226  1.00  0.00     0.293 HD
ENDBRANCH  14  17
BRANCH  15  19
ATOM     19  O   UNL     1      12.307   5.816  -2.188  1.00  0.00    -0.508 OA
ATOM     20  H   UNL     1      12.642   6.189  -3.068  1.00  0.00     0.293 HD
ENDBRANCH  15  19
ENDBRANCH  10  11
ENDBRANCH   1  10
TORSDOF 6
ENDMDL
