MODEL 1
REMARK VINA RESULT:    -5.251      0.000      0.000
REMARK INTER + INTRA:          -8.651
REMARK INTER:                  -8.320
REMARK INTRA:                  -0.330
REMARK UNBOUND:                -0.330
REMARK SMILES CCCCCCCCCCCC(=O)[O-]
REMARK SMILES IDX 7 1 8 2 9 3 10 4 11 5 12 6 13 7 14 8 6 9 5 10 4 11 3 12 2 13
REMARK SMILES IDX 1 14
REMARK H PARENT
REMARK Flexibility Score: inf
ROOT
ATOM      1  C   UNL     1       0.658 -26.763  -0.709  1.00  0.00     0.000 C 
ENDROOT
BRANCH   1   2
ATOM      2  C   UNL     1       1.350 -27.557   0.414  1.00  0.00     0.000 C 
BRANCH   2   3
ATOM      3  C   UNL     1       2.709 -28.141  -0.016  1.00  0.00     0.000 C 
BRANCH   3   4
ATOM      4  C   UNL     1       3.472 -28.905   1.085  1.00  0.00     0.006 C 
BRANCH   4   5
ATOM      5  C   UNL     1       2.852 -28.794   2.486  1.00  0.00     0.053 C 
BRANCH   5   6
ATOM      6  C   UNL     1       3.731 -29.396   3.539  1.00  0.00     0.041 C 
ATOM      7  O   UNL     1       3.328 -29.475   4.730  1.00  0.00    -0.550 OA
ATOM      8  O   UNL     1       5.007 -29.837   3.212  1.00  0.00    -0.550 OA
ENDBRANCH   5   6
ENDBRANCH   4   5
ENDBRANCH   3   4
ENDBRANCH   2   3
ENDBRANCH   1   2
BRANCH   1   9
ATOM      9  C   UNL     1      -0.718 -26.225  -0.285  1.00  0.00     0.000 C 
BRANCH   9  10
ATOM     10  C   UNL     1      -1.115 -24.953  -1.054  1.00  0.00    -0.000 C 
BRANCH  10  11
ATOM     11  C   UNL     1      -2.361 -24.265  -0.467  1.00  0.00    -0.000 C 
BRANCH  11  12
ATOM     12  C   UNL     1      -3.227 -25.149   0.454  1.00  0.00    -0.000 C 
BRANCH  12  13
ATOM     13  C   UNL     1      -4.531 -24.497   0.942  1.00  0.00    -0.003 C 
ATOM     14  C   UNL     1      -4.319 -23.092   1.508  1.00  0.00     0.004 C 
ENDBRANCH  12  13
ENDBRANCH  11  12
ENDBRANCH  10  11
ENDBRANCH   9  10
ENDBRANCH   1   9
TORSDOF 10
ENDMDL
MODEL 2
REMARK VINA RESULT:    -5.249      4.072      7.617
REMARK INTER + INTRA:          -8.648
REMARK INTER:                  -7.934
REMARK INTRA:                  -0.714
REMARK UNBOUND:                -0.330
REMARK SMILES CCCCCCCCCCCC(=O)[O-]
REMARK SMILES IDX 7 1 8 2 9 3 10 4 11 5 12 6 13 7 14 8 6 9 5 10 4 11 3 12 2 13
REMARK SMILES IDX 1 14
REMARK H PARENT
REMARK Flexibility Score: inf
ROOT
ATOM      1  C   UNL     1      -1.021 -25.274  -1.453  1.00  0.00     0.000 C 
ENDROOT
BRANCH   1   2
ATOM      2  C   UNL     1      -2.259 -24.472  -1.893  1.00  0.00     0.000 C 
BRANCH   2   3
ATOM      3  C   UNL     1      -3.572 -25.258  -1.726  1.00  0.00     0.000 C 
BRANCH   3   4
ATOM      4  C   UNL     1      -4.697 -24.507  -0.986  1.00  0.00     0.006 C 
BRANCH   4   5
ATOM      5  C   UNL     1      -4.835 -24.868   0.501  1.00  0.00     0.053 C 
BRANCH   5   6
ATOM      6  C   UNL     1      -4.457 -23.727   1.394  1.00  0.00     0.041 C 
ATOM      7  O   UNL     1      -5.208 -23.394   2.348  1.00  0.00    -0.550 OA
ATOM      8  O   UNL     1      -3.292 -23.009   1.151  1.00  0.00    -0.550 OA
ENDBRANCH   5   6
ENDBRANCH   4   5
ENDBRANCH   3   4
ENDBRANCH   2   3
ENDBRANCH   1   2
BRANCH   1   9
ATOM      9  C   UNL     1      -1.249 -26.027  -0.132  1.00  0.00     0.000 C 
BRANCH   9  10
ATOM     10  C   UNL     1      -0.194 -27.121   0.110  1.00  0.00    -0.000 C 
BRANCH  10  11
ATOM     11  C   UNL     1       1.066 -26.936  -0.754  1.00  0.00    -0.000 C 
BRANCH  11  12
ATOM     12  C   UNL     1       2.295 -27.753  -0.306  1.00  0.00    -0.000 C 
BRANCH  12  13
ATOM     13  C   UNL     1       2.256 -28.240   1.152  1.00  0.00    -0.003 C 
ATOM     14  C   UNL     1       3.539 -28.958   1.575  1.00  0.00     0.004 C 
ENDBRANCH  12  13
ENDBRANCH  11  12
ENDBRANCH  10  11
ENDBRANCH   9  10
ENDBRANCH   1   9
TORSDOF 10
ENDMDL
MODEL 3
REMARK VINA RESULT:    -5.196      2.014      3.539
REMARK INTER + INTRA:          -8.564
REMARK INTER:                  -8.216
REMARK INTRA:                  -0.348
REMARK UNBOUND:                -0.330
REMARK SMILES CCCCCCCCCCCC(=O)[O-]
REMARK SMILES IDX 7 1 8 2 9 3 10 4 11 5 12 6 13 7 14 8 6 9 5 10 4 11 3 12 2 13
REMARK SMILES IDX 1 14
REMARK H PARENT
REMARK Flexibility Score: inf
ROOT
ATOM      1  C   UNL     1       2.493 -29.297   1.293  1.00  0.00     0.000 C 
ENDROOT
BRANCH   1   2
ATOM      2  C   UNL     1       3.068 -28.903   2.666  1.00  0.00     0.000 C 
BRANCH   2   3
ATOM      3  C   UNL     1       4.226 -29.814   3.113  1.00  0.00     0.000 C 
BRANCH   3   4
ATOM      4  C   UNL     1       4.322 -30.054   4.634  1.00  0.00     0.006 C 
BRANCH   4   5
ATOM      5  C   UNL     1       3.098 -29.581   5.433  1.00  0.00     0.053 C 
BRANCH   5   6
ATOM      6  C   UNL     1       2.312 -30.728   5.988  1.00  0.00     0.041 C 
ATOM      7  O   UNL     1       2.818 -31.880   6.033  1.00  0.00    -0.550 OA
ATOM      8  O   UNL     1       1.006 -30.533   6.421  1.00  0.00    -0.550 OA
ENDBRANCH   5   6
ENDBRANCH   4   5
ENDBRANCH   3   4
ENDBRANCH   2   3
ENDBRANCH   1   2
BRANCH   1   9
ATOM      9  C   UNL     1       2.248 -28.079   0.388  1.00  0.00     0.000 C 
BRANCH   9  10
ATOM     10  C   UNL     1       0.962 -27.320   0.759  1.00  0.00    -0.000 C 
BRANCH  10  11
ATOM     11  C   UNL     1       0.358 -26.552  -0.431  1.00  0.00    -0.000 C 
BRANCH  11  12
ATOM     12  C   UNL     1      -1.138 -26.205  -0.298  1.00  0.00    -0.000 C 
BRANCH  12  13
ATOM     13  C   UNL     1      -1.566 -24.898  -0.987  1.00  0.00    -0.003 C 
ATOM     14  C   UNL     1      -1.415 -23.672  -0.086  1.00  0.00     0.004 C 
ENDBRANCH  12  13
ENDBRANCH  11  12
ENDBRANCH  10  11
ENDBRANCH   9  10
ENDBRANCH   1   9
TORSDOF 10
ENDMDL
MODEL 4
REMARK VINA RESULT:    -5.189      1.440      1.950
REMARK INTER + INTRA:          -8.553
REMARK INTER:                  -8.166
REMARK INTRA:                  -0.386
REMARK UNBOUND:                -0.330
REMARK SMILES CCCCCCCCCCCC(=O)[O-]
REMARK SMILES IDX 7 1 8 2 9 3 10 4 11 5 12 6 13 7 14 8 6 9 5 10 4 11 3 12 2 13
REMARK SMILES IDX 1 14
REMARK H PARENT
REMARK Flexibility Score: inf
ROOT
ATOM      1  C   UNL     1       1.079 -27.385   0.763  1.00  0.00     0.000 C 
ENDROOT
BRANCH   1   2
ATOM      2  C   UNL     1       2.297 -28.112   0.164  1.00  0.00     0.000 C 
BRANCH   2   3
ATOM      3  C   UNL     1       2.823 -29.242   1.067  1.00  0.00     0.000 C 
BRANCH   3   4
ATOM      4  C   UNL     1       3.090 -28.841   2.532  1.00  0.00     0.006 C 
BRANCH   4   5
ATOM      5  C   UNL     1       4.231 -29.616   3.209  1.00  0.00     0.053 C 
BRANCH   5   6
ATOM      6  C   UNL     1       3.856 -30.086   4.580  1.00  0.00     0.041 C 
ATOM      7  O   UNL     1       3.122 -29.373   5.315  1.00  0.00    -0.550 OA
ATOM      8  O   UNL     1       4.346 -31.294   5.061  1.00  0.00    -0.550 OA
ENDBRANCH   5   6
ENDBRANCH   4   5
ENDBRANCH   3   4
ENDBRANCH   2   3
ENDBRANCH   1   2
BRANCH   1   9
ATOM      9  C   UNL     1       0.261 -26.634  -0.300  1.00  0.00     0.000 C 
BRANCH   9  10
ATOM     10  C   UNL     1      -1.224 -26.508   0.081  1.00  0.00    -0.000 C 
BRANCH  10  11
ATOM     11  C   UNL     1      -2.011 -25.598  -0.880  1.00  0.00    -0.000 C 
BRANCH  11  12
ATOM     12  C   UNL     1      -1.589 -24.115  -0.875  1.00  0.00    -0.000 C 
BRANCH  12  13
ATOM     13  C   UNL     1      -1.949 -23.341   0.404  1.00  0.00    -0.003 C 
ATOM     14  C   UNL     1      -0.914 -22.276   0.768  1.00  0.00     0.004 C 
ENDBRANCH  12  13
ENDBRANCH  11  12
ENDBRANCH  10  11
ENDBRANCH   9  10
ENDBRANCH   1   9
TORSDOF 10
ENDMDL
MODEL 5
REMARK VINA RESULT:    -5.122      4.099      7.638
REMARK INTER + INTRA:          -8.447
REMARK INTER:                  -8.026
REMARK INTRA:                  -0.421
REMARK UNBOUND:                -0.330
REMARK SMILES CCCCCCCCCCCC(=O)[O-]
REMARK SMILES IDX 7 1 8 2 9 3 10 4 11 5 12 6 13 7 14 8 6 9 5 10 4 11 3 12 2 13
REMARK SMILES IDX 1 14
REMARK H PARENT
REMARK Flexibility Score: inf
ROOT
ATOM      1  C   UNL     1       1.780 -26.764  -1.231  1.00  0.00     0.000 C 
ENDROOT
BRANCH   1   2
ATOM      2  C   UNL     1       0.655 -26.238  -0.322  1.00  0.00     0.000 C 
BRANCH   2   3
ATOM      3  C   UNL     1      -0.592 -25.792  -1.109  1.00  0.00     0.000 C 
BRANCH   3   4
ATOM      4  C   UNL     1      -1.872 -25.620  -0.267  1.00  0.00     0.006 C 
BRANCH   4   5
ATOM      5  C   UNL     1      -2.341 -24.165  -0.110  1.00  0.00     0.053 C 
BRANCH   5   6
ATOM      6  C   UNL     1      -3.660 -24.073   0.595  1.00  0.00     0.041 C 
ATOM      7  O   UNL     1      -4.545 -24.946   0.399  1.00  0.00    -0.550 OA
ATOM      8  O   UNL     1      -3.924 -23.002   1.441  1.00  0.00    -0.550 OA
ENDBRANCH   5   6
ENDBRANCH   4   5
ENDBRANCH   3   4
ENDBRANCH   2   3
ENDBRANCH   1   2
BRANCH   1   9
ATOM      9  C   UNL     1       2.535 -27.948  -0.604  1.00  0.00     0.000 C 
BRANCH   9  10
ATOM     10  C   UNL     1       1.768 -28.580   0.571  1.00  0.00    -0.000 C 
BRANCH  10  11
ATOM     11  C   UNL     1       2.552 -28.526   1.894  1.00  0.00    -0.000 C 
BRANCH  11  12
ATOM     12  C   UNL     1       3.865 -29.334   1.912  1.00  0.00    -0.000 C 
BRANCH  12  13
ATOM     13  C   UNL     1       4.353 -29.750   3.311  1.00  0.00    -0.003 C 
ATOM     14  C   UNL     1       3.274 -29.606   4.385  1.00  0.00     0.004 C 
ENDBRANCH  12  13
ENDBRANCH  11  12
ENDBRANCH  10  11
ENDBRANCH   9  10
ENDBRANCH   1   9
TORSDOF 10
ENDMDL
MODEL 6
REMARK VINA RESULT:    -5.048      3.809      7.362
REMARK INTER + INTRA:          -8.330
REMARK INTER:                  -7.811
REMARK INTRA:                  -0.519
REMARK UNBOUND:                -0.330
REMARK SMILES CCCCCCCCCCCC(=O)[O-]
REMARK SMILES IDX 7 1 8 2 9 3 10 4 11 5 12 6 13 7 14 8 6 9 5 10 4 11 3 12 2 13
REMARK SMILES IDX 1 14
REMARK H PARENT
REMARK Flexibility Score: inf
ROOT
ATOM      1  C   UNL     1       2.450 -29.127   0.853  1.00  0.00     0.000 C 
ENDROOT
BRANCH   1   2
ATOM      2  C   UNL     1       2.847 -28.145  -0.263  1.00  0.00     0.000 C 
BRANCH   2   3
ATOM      3  C   UNL     1       1.633 -27.465  -0.922  1.00  0.00     0.000 C 
BRANCH   3   4
ATOM      4  C   UNL     1       0.836 -26.514  -0.005  1.00  0.00     0.006 C 
BRANCH   4   5
ATOM      5  C   UNL     1      -0.684 -26.737  -0.021  1.00  0.00     0.053 C 
BRANCH   5   6
ATOM      6  C   UNL     1      -1.417 -25.568  -0.601  1.00  0.00     0.041 C 
ATOM      7  O   UNL     1      -1.143 -25.160  -1.761  1.00  0.00    -0.550 OA
ATOM      8  O   UNL     1      -2.379 -24.905   0.152  1.00  0.00    -0.550 OA
ENDBRANCH   5   6
ENDBRANCH   4   5
ENDBRANCH   3   4
ENDBRANCH   2   3
ENDBRANCH   1   2
BRANCH   1   9
ATOM      9  C   UNL     1       2.879 -28.637   2.246  1.00  0.00     0.000 C 
BRANCH   9  10
ATOM     10  C   UNL     1       3.947 -29.542   2.885  1.00  0.00    -0.000 C 
BRANCH  10  11
ATOM     11  C   UNL     1       3.773 -29.687   4.408  1.00  0.00    -0.000 C 
BRANCH  11  12
ATOM     12  C   UNL     1       2.688 -30.689   4.853  1.00  0.00    -0.000 C 
BRANCH  12  13
ATOM     13  C   UNL     1       2.132 -30.459   6.268  1.00  0.00    -0.003 C 
ATOM     14  C   UNL     1       2.305 -29.018   6.750  1.00  0.00     0.004 C 
ENDBRANCH  12  13
ENDBRANCH  11  12
ENDBRANCH  10  11
ENDBRANCH   9  10
ENDBRANCH   1   9
TORSDOF 10
ENDMDL
MODEL 7
REMARK VINA RESULT:    -4.981      4.028      7.649
REMARK INTER + INTRA:          -8.224
REMARK INTER:                  -7.779
REMARK INTRA:                  -0.445
REMARK UNBOUND:                -0.330
REMARK SMILES CCCCCCCCCCCC(=O)[O-]
REMARK SMILES IDX 7 1 8 2 9 3 10 4 11 5 12 6 13 7 14 8 6 9 5 10 4 11 3 12 2 13
REMARK SMILES IDX 1 14
REMARK H PARENT
REMARK Flexibility Score: inf
ROOT
ATOM      1  C   UNL     1       2.565 -28.106  -0.374  1.00  0.00     0.000 C 
ENDROOT
BRANCH   1   2
ATOM      2  C   UNL     1       1.766 -27.031  -1.133  1.00  0.00     0.000 C 
BRANCH   2   3
ATOM      3  C   UNL     1       0.516 -26.562  -0.367  1.00  0.00     0.000 C 
BRANCH   3   4
ATOM      4  C   UNL     1      -0.485 -25.729  -1.193  1.00  0.00     0.006 C 
BRANCH   4   5
ATOM      5  C   UNL     1      -1.278 -24.693  -0.380  1.00  0.00     0.053 C 
BRANCH   5   6
ATOM      6  C   UNL     1      -2.749 -24.777  -0.645  1.00  0.00     0.041 C 
ATOM      7  O   UNL     1      -3.170 -25.038  -1.803  1.00  0.00    -0.550 OA
ATOM      8  O   UNL     1      -3.657 -24.533   0.379  1.00  0.00    -0.550 OA
ENDBRANCH   5   6
ENDBRANCH   4   5
ENDBRANCH   3   4
ENDBRANCH   2   3
ENDBRANCH   1   2
BRANCH   1   9
ATOM      9  C   UNL     1       1.838 -28.594   0.890  1.00  0.00     0.000 C 
BRANCH   9  10
ATOM     10  C   UNL     1       2.705 -28.464   2.155  1.00  0.00    -0.000 C 
BRANCH  10  11
ATOM     11  C   UNL     1       3.959 -29.355   2.111  1.00  0.00    -0.000 C 
BRANCH  11  12
ATOM     12  C   UNL     1       4.405 -29.930   3.470  1.00  0.00    -0.000 C 
BRANCH  12  13
ATOM     13  C   UNL     1       3.260 -30.395   4.386  1.00  0.00    -0.003 C 
ATOM     14  C   UNL     1       3.084 -29.507   5.618  1.00  0.00     0.004 C 
ENDBRANCH  12  13
ENDBRANCH  11  12
ENDBRANCH  10  11
ENDBRANCH   9  10
ENDBRANCH   1   9
TORSDOF 10
ENDMDL
MODEL 8
REMARK VINA RESULT:    -4.981      4.047      7.775
REMARK INTER + INTRA:          -8.224
REMARK INTER:                  -7.628
REMARK INTRA:                  -0.596
REMARK UNBOUND:                -0.330
REMARK SMILES CCCCCCCCCCCC(=O)[O-]
REMARK SMILES IDX 7 1 8 2 9 3 10 4 11 5 12 6 13 7 14 8 6 9 5 10 4 11 3 12 2 13
REMARK SMILES IDX 1 14
REMARK H PARENT
REMARK Flexibility Score: inf
ROOT
ATOM      1  C   UNL     1       0.711 -26.284   0.122  1.00  0.00     0.000 C 
ENDROOT
BRANCH   1   2
ATOM      2  C   UNL     1      -0.762 -26.292  -0.325  1.00  0.00     0.000 C 
BRANCH   2   3
ATOM      3  C   UNL     1      -1.053 -25.277  -1.445  1.00  0.00     0.000 C 
BRANCH   3   4
ATOM      4  C   UNL     1      -2.286 -24.379  -1.214  1.00  0.00     0.006 C 
BRANCH   4   5
ATOM      5  C   UNL     1      -2.303 -23.656   0.142  1.00  0.00     0.053 C 
BRANCH   5   6
ATOM      6  C   UNL     1      -3.551 -23.945   0.917  1.00  0.00     0.041 C 
ATOM      7  O   UNL     1      -4.281 -23.000   1.317  1.00  0.00    -0.550 OA
ATOM      8  O   UNL     1      -3.889 -25.256   1.230  1.00  0.00    -0.550 OA
ENDBRANCH   5   6
ENDBRANCH   4   5
ENDBRANCH   3   4
ENDBRANCH   2   3
ENDBRANCH   1   2
BRANCH   1   9
ATOM      9  C   UNL     1       1.205 -27.679   0.540  1.00  0.00     0.000 C 
BRANCH   9  10
ATOM     10  C   UNL     1       2.438 -28.131  -0.261  1.00  0.00    -0.000 C 
BRANCH  10  11
ATOM     11  C   UNL     1       2.755 -27.198  -1.444  1.00  0.00    -0.000 C 
BRANCH  11  12
ATOM     12  C   UNL     1       4.141 -27.401  -2.089  1.00  0.00    -0.000 C 
BRANCH  12  13
ATOM     13  C   UNL     1       4.977 -28.543  -1.485  1.00  0.00    -0.003 C 
ATOM     14  C   UNL     1       6.418 -28.128  -1.179  1.00  0.00     0.004 C 
ENDBRANCH  12  13
ENDBRANCH  11  12
ENDBRANCH  10  11
ENDBRANCH   9  10
ENDBRANCH   1   9
TORSDOF 10
ENDMDL
MODEL 9
REMARK VINA RESULT:    -4.978      1.952      2.810
REMARK INTER + INTRA:          -8.219
REMARK INTER:                  -7.591
REMARK INTRA:                  -0.628
REMARK UNBOUND:                -0.330
REMARK SMILES CCCCCCCCCCCC(=O)[O-]
REMARK SMILES IDX 7 1 8 2 9 3 10 4 11 5 12 6 13 7 14 8 6 9 5 10 4 11 3 12 2 13
REMARK SMILES IDX 1 14
REMARK H PARENT
REMARK Flexibility Score: inf
ROOT
ATOM      1  C   UNL     1      -0.656 -25.988  -0.374  1.00  0.00     0.000 C 
ENDROOT
BRANCH   1   2
ATOM      2  C   UNL     1       0.725 -26.648  -0.540  1.00  0.00     0.000 C 
BRANCH   2   3
ATOM      3  C   UNL     1       1.200 -27.371   0.734  1.00  0.00     0.000 C 
BRANCH   3   4
ATOM      4  C   UNL     1       2.359 -28.367   0.530  1.00  0.00     0.006 C 
BRANCH   4   5
ATOM      5  C   UNL     1       3.158 -28.159  -0.766  1.00  0.00     0.053 C 
BRANCH   5   6
ATOM      6  C   UNL     1       4.549 -28.705  -0.662  1.00  0.00     0.041 C 
ATOM      7  O   UNL     1       4.953 -29.208   0.420  1.00  0.00    -0.550 OA
ATOM      8  O   UNL     1       5.411 -28.627  -1.749  1.00  0.00    -0.550 OA
ENDBRANCH   5   6
ENDBRANCH   4   5
ENDBRANCH   3   4
ENDBRANCH   2   3
ENDBRANCH   1   2
BRANCH   1   9
ATOM      9  C   UNL     1      -1.088 -25.208  -1.627  1.00  0.00     0.000 C 
BRANCH   9  10
ATOM     10  C   UNL     1      -2.352 -24.364  -1.387  1.00  0.00    -0.000 C 
BRANCH  10  11
ATOM     11  C   UNL     1      -2.481 -23.884   0.070  1.00  0.00    -0.000 C 
BRANCH  11  12
ATOM     12  C   UNL     1      -3.709 -24.422   0.832  1.00  0.00    -0.000 C 
BRANCH  12  13
ATOM     13  C   UNL     1      -4.554 -25.451   0.062  1.00  0.00    -0.003 C 
ATOM     14  C   UNL     1      -4.344 -26.883   0.555  1.00  0.00     0.004 C 
ENDBRANCH  12  13
ENDBRANCH  11  12
ENDBRANCH  10  11
ENDBRANCH   9  10
ENDBRANCH   1   9
TORSDOF 10
ENDMDL
