MODEL 1
REMARK VINA RESULT:    -7.768      0.000      0.000
REMARK INTER + INTRA:         -21.295
REMARK INTER:                 -19.575
REMARK INTRA:                  -1.720
REMARK UNBOUND:                -1.720
REMARK SMILES CCCCCCCCCCCCCCCCCCCCCCCCCCCC(=O)[O-]
REMARK SMILES IDX 15 1 16 2 17 3 18 4 19 5 20 6 21 7 22 8 23 9 24 10 25 11
REMARK SMILES IDX 26 12 27 13 28 14 29 15 30 16 14 17 13 18 12 19 11 20 10 21
REMARK SMILES IDX 9 22 8 23 7 24 6 25 5 26 4 27 3 28 2 29 1 30
REMARK H PARENT
REMARK Flexibility Score: inf
ROOT
ATOM      1  C   UNL     1      -2.676  -1.375 -18.248  1.00  0.00     0.000 C 
ENDROOT
BRANCH   1   2
ATOM      2  C   UNL     1      -2.393   0.036 -18.796  1.00  0.00     0.000 C 
BRANCH   2   3
ATOM      3  C   UNL     1      -2.023   1.036 -17.678  1.00  0.00     0.000 C 
BRANCH   3   4
ATOM      4  C   UNL     1      -3.025   2.192 -17.519  1.00  0.00     0.000 C 
BRANCH   4   5
ATOM      5  C   UNL     1      -2.359   3.578 -17.553  1.00  0.00     0.000 C 
BRANCH   5   6
ATOM      6  C   UNL     1      -3.345   4.717 -17.246  1.00  0.00     0.000 C 
BRANCH   6   7
ATOM      7  C   UNL     1      -2.903   6.059 -17.853  1.00  0.00     0.000 C 
BRANCH   7   8
ATOM      8  C   UNL     1      -3.105   7.241 -16.889  1.00  0.00     0.000 C 
BRANCH   8   9
ATOM      9  C   UNL     1      -3.469   6.847 -15.445  1.00  0.00     0.000 C 
BRANCH   9  10
ATOM     10  C   UNL     1      -4.915   7.210 -15.044  1.00  0.00     0.000 C 
BRANCH  10  11
ATOM     11  C   UNL     1      -5.766   5.964 -14.732  1.00  0.00     0.000 C 
BRANCH  11  12
ATOM     12  C   UNL     1      -7.017   6.291 -13.897  1.00  0.00     0.006 C 
BRANCH  12  13
ATOM     13  C   UNL     1      -6.726   7.097 -12.620  1.00  0.00     0.053 C 
BRANCH  13  14
ATOM     14  C   UNL     1      -7.720   6.816 -11.535  1.00  0.00     0.041 C 
ATOM     15  O   UNL     1      -8.332   5.715 -11.504  1.00  0.00    -0.550 OA
ATOM     16  O   UNL     1      -7.957   7.761 -10.544  1.00  0.00    -0.550 OA
ENDBRANCH  13  14
ENDBRANCH  12  13
ENDBRANCH  11  12
ENDBRANCH  10  11
ENDBRANCH   9  10
ENDBRANCH   8   9
ENDBRANCH   7   8
ENDBRANCH   6   7
ENDBRANCH   5   6
ENDBRANCH   4   5
ENDBRANCH   3   4
ENDBRANCH   2   3
ENDBRANCH   1   2
BRANCH   1  17
ATOM     17  C   UNL     1      -4.181  -1.662 -18.116  1.00  0.00     0.000 C 
BRANCH  17  18
ATOM     18  C   UNL     1      -5.002  -0.985 -19.228  1.00  0.00     0.000 C 
BRANCH  18  19
ATOM     19  C   UNL     1      -6.450  -0.699 -18.805  1.00  0.00     0.000 C 
BRANCH  19  20
ATOM     20  C   UNL     1      -7.486  -1.207 -19.824  1.00  0.00     0.000 C 
BRANCH  20  21
ATOM     21  C   UNL     1      -6.843  -2.010 -20.974  1.00  0.00     0.000 C 
BRANCH  21  22
ATOM     22  C   UNL     1      -7.462  -3.405 -21.200  1.00  0.00    -0.000 C 
BRANCH  22  23
ATOM     23  C   UNL     1      -6.711  -4.576 -20.545  1.00  0.00    -0.000 C 
BRANCH  23  24
ATOM     24  C   UNL     1      -7.105  -4.800 -19.075  1.00  0.00    -0.000 C 
BRANCH  24  25
ATOM     25  C   UNL     1      -8.594  -5.154 -18.953  1.00  0.00    -0.000 C 
BRANCH  25  26
ATOM     26  C   UNL     1      -8.983  -6.367 -19.827  1.00  0.00    -0.000 C 
BRANCH  26  27
ATOM     27  C   UNL     1      -7.956  -7.512 -19.785  1.00  0.00    -0.000 C 
BRANCH  27  28
ATOM     28  C   UNL     1      -8.598  -8.880 -19.508  1.00  0.00    -0.000 C 
BRANCH  28  29
ATOM     29  C   UNL     1      -7.877 -10.033 -20.222  1.00  0.00    -0.003 C 
ATOM     30  C   UNL     1      -8.195 -10.083 -21.717  1.00  0.00     0.004 C 
ENDBRANCH  28  29
ENDBRANCH  27  28
ENDBRANCH  26  27
ENDBRANCH  25  26
ENDBRANCH  24  25
ENDBRANCH  23  24
ENDBRANCH  22  23
ENDBRANCH  21  22
ENDBRANCH  20  21
ENDBRANCH  19  20
ENDBRANCH  18  19
ENDBRANCH  17  18
ENDBRANCH   1  17
TORSDOF 26
ENDMDL
MODEL 2
REMARK VINA RESULT:    -7.564      5.096     12.593
REMARK INTER + INTRA:         -20.781
REMARK INTER:                 -19.035
REMARK INTRA:                  -1.746
REMARK UNBOUND:                -1.720
REMARK SMILES CCCCCCCCCCCCCCCCCCCCCCCCCCCC(=O)[O-]
REMARK SMILES IDX 15 1 16 2 17 3 18 4 19 5 20 6 21 7 22 8 23 9 24 10 25 11
REMARK SMILES IDX 26 12 27 13 28 14 29 15 30 16 14 17 13 18 12 19 11 20 10 21
REMARK SMILES IDX 9 22 8 23 7 24 6 25 5 26 4 27 3 28 2 29 1 30
REMARK H PARENT
REMARK Flexibility Score: inf
ROOT
ATOM      1  C   UNL     1      -2.037  -1.066 -17.984  1.00  0.00     0.000 C 
ENDROOT
BRANCH   1   2
ATOM      2  C   UNL     1      -3.312  -1.864 -18.315  1.00  0.00     0.000 C 
BRANCH   2   3
ATOM      3  C   UNL     1      -4.597  -1.040 -18.081  1.00  0.00     0.000 C 
BRANCH   3   4
ATOM      4  C   UNL     1      -5.367  -0.703 -19.370  1.00  0.00     0.000 C 
BRANCH   4   5
ATOM      5  C   UNL     1      -6.893  -0.757 -19.193  1.00  0.00     0.000 C 
BRANCH   5   6
ATOM      6  C   UNL     1      -7.563  -1.769 -20.137  1.00  0.00     0.000 C 
BRANCH   6   7
ATOM      7  C   UNL     1      -6.544  -2.543 -20.991  1.00  0.00     0.000 C 
BRANCH   7   8
ATOM      8  C   UNL     1      -6.782  -4.063 -20.965  1.00  0.00     0.000 C 
BRANCH   8   9
ATOM      9  C   UNL     1      -6.451  -4.750 -19.626  1.00  0.00     0.000 C 
BRANCH   9  10
ATOM     10  C   UNL     1      -7.678  -4.970 -18.716  1.00  0.00     0.000 C 
BRANCH  10  11
ATOM     11  C   UNL     1      -8.619  -6.064 -19.256  1.00  0.00     0.000 C 
BRANCH  11  12
ATOM     12  C   UNL     1      -7.857  -7.268 -19.842  1.00  0.00     0.006 C 
BRANCH  12  13
ATOM     13  C   UNL     1      -8.568  -8.617 -19.642  1.00  0.00     0.053 C 
BRANCH  13  14
ATOM     14  C   UNL     1      -8.136  -9.638 -20.649  1.00  0.00     0.041 C 
ATOM     15  O   UNL     1      -8.378  -9.465 -21.873  1.00  0.00    -0.550 OA
ATOM     16  O   UNL     1      -7.447 -10.773 -20.240  1.00  0.00    -0.550 OA
ENDBRANCH  13  14
ENDBRANCH  12  13
ENDBRANCH  11  12
ENDBRANCH  10  11
ENDBRANCH   9  10
ENDBRANCH   8   9
ENDBRANCH   7   8
ENDBRANCH   6   7
ENDBRANCH   5   6
ENDBRANCH   4   5
ENDBRANCH   3   4
ENDBRANCH   2   3
ENDBRANCH   1   2
BRANCH   1  17
ATOM     17  C   UNL     1      -2.117   0.393 -18.466  1.00  0.00     0.000 C 
BRANCH  17  18
ATOM     18  C   UNL     1      -2.107   1.394 -17.297  1.00  0.00     0.000 C 
BRANCH  18  19
ATOM     19  C   UNL     1      -3.007   2.611 -17.551  1.00  0.00     0.000 C 
BRANCH  19  20
ATOM     20  C   UNL     1      -2.233   3.942 -17.556  1.00  0.00     0.000 C 
BRANCH  20  21
ATOM     21  C   UNL     1      -3.163   5.169 -17.660  1.00  0.00     0.000 C 
BRANCH  21  22
ATOM     22  C   UNL     1      -2.740   6.365 -16.783  1.00  0.00    -0.000 C 
BRANCH  22  23
ATOM     23  C   UNL     1      -3.765   6.803 -15.724  1.00  0.00    -0.000 C 
BRANCH  23  24
ATOM     24  C   UNL     1      -4.876   5.765 -15.494  1.00  0.00    -0.000 C 
BRANCH  24  25
ATOM     25  C   UNL     1      -5.543   5.966 -14.125  1.00  0.00    -0.000 C 
BRANCH  25  26
ATOM     26  C   UNL     1      -7.081   6.065 -14.231  1.00  0.00    -0.000 C 
BRANCH  26  27
ATOM     27  C   UNL     1      -7.777   6.322 -12.882  1.00  0.00    -0.000 C 
BRANCH  27  28
ATOM     28  C   UNL     1      -6.784   6.466 -11.717  1.00  0.00    -0.000 C 
BRANCH  28  29
ATOM     29  C   UNL     1      -7.253   5.748 -10.443  1.00  0.00    -0.003 C 
ATOM     30  C   UNL     1      -8.714   5.305 -10.527  1.00  0.00     0.004 C 
ENDBRANCH  28  29
ENDBRANCH  27  28
ENDBRANCH  26  27
ENDBRANCH  25  26
ENDBRANCH  24  25
ENDBRANCH  23  24
ENDBRANCH  22  23
ENDBRANCH  21  22
ENDBRANCH  20  21
ENDBRANCH  19  20
ENDBRANCH  18  19
ENDBRANCH  17  18
ENDBRANCH   1  17
TORSDOF 26
ENDMDL
MODEL 3
REMARK VINA RESULT:    -7.512      4.960     13.075
REMARK INTER + INTRA:         -20.651
REMARK INTER:                 -18.847
REMARK INTRA:                  -1.804
REMARK UNBOUND:                -1.720
REMARK SMILES CCCCCCCCCCCCCCCCCCCCCCCCCCCC(=O)[O-]
REMARK SMILES IDX 15 1 16 2 17 3 18 4 19 5 20 6 21 7 22 8 23 9 24 10 25 11
REMARK SMILES IDX 26 12 27 13 28 14 29 15 30 16 14 17 13 18 12 19 11 20 10 21
REMARK SMILES IDX 9 22 8 23 7 24 6 25 5 26 4 27 3 28 2 29 1 30
REMARK H PARENT
REMARK Flexibility Score: inf
ROOT
ATOM      1  C   UNL     1      -2.861   2.072 -17.386  1.00  0.00     0.000 C 
ENDROOT
BRANCH   1   2
ATOM      2  C   UNL     1      -2.398   1.041 -18.433  1.00  0.00     0.000 C 
BRANCH   2   3
ATOM      3  C   UNL     1      -2.731  -0.408 -18.015  1.00  0.00     0.000 C 
BRANCH   3   4
ATOM      4  C   UNL     1      -3.721  -1.117 -18.956  1.00  0.00     0.000 C 
BRANCH   4   5
ATOM      5  C   UNL     1      -5.178  -0.672 -18.747  1.00  0.00     0.000 C 
BRANCH   5   6
ATOM      6  C   UNL     1      -6.189  -1.778 -19.088  1.00  0.00     0.000 C 
BRANCH   6   7
ATOM      7  C   UNL     1      -5.509  -3.111 -19.440  1.00  0.00     0.000 C 
BRANCH   7   8
ATOM      8  C   UNL     1      -6.513  -4.268 -19.590  1.00  0.00     0.000 C 
BRANCH   8   9
ATOM      9  C   UNL     1      -7.428  -4.495 -18.371  1.00  0.00     0.000 C 
BRANCH   9  10
ATOM     10  C   UNL     1      -8.890  -4.827 -18.742  1.00  0.00     0.000 C 
BRANCH  10  11
ATOM     11  C   UNL     1      -8.985  -5.838 -19.901  1.00  0.00     0.000 C 
BRANCH  11  12
ATOM     12  C   UNL     1      -8.770  -7.292 -19.442  1.00  0.00     0.006 C 
BRANCH  12  13
ATOM     13  C   UNL     1      -7.810  -8.095 -20.335  1.00  0.00     0.053 C 
BRANCH  13  14
ATOM     14  C   UNL     1      -8.080  -9.568 -20.273  1.00  0.00     0.041 C 
ATOM     15  O   UNL     1      -8.475 -10.097 -19.201  1.00  0.00    -0.550 OA
ATOM     16  O   UNL     1      -7.915 -10.355 -21.407  1.00  0.00    -0.550 OA
ENDBRANCH  13  14
ENDBRANCH  12  13
ENDBRANCH  11  12
ENDBRANCH  10  11
ENDBRANCH   9  10
ENDBRANCH   8   9
ENDBRANCH   7   8
ENDBRANCH   6   7
ENDBRANCH   5   6
ENDBRANCH   4   5
ENDBRANCH   3   4
ENDBRANCH   2   3
ENDBRANCH   1   2
BRANCH   1  17
ATOM     17  C   UNL     1      -2.159   3.431 -17.553  1.00  0.00     0.000 C 
BRANCH  17  18
ATOM     18  C   UNL     1      -3.160   4.598 -17.623  1.00  0.00     0.000 C 
BRANCH  18  19
ATOM     19  C   UNL     1      -2.705   5.818 -16.810  1.00  0.00     0.000 C 
BRANCH  19  20
ATOM     20  C   UNL     1      -3.874   6.572 -16.150  1.00  0.00     0.000 C 
BRANCH  20  21
ATOM     21  C   UNL     1      -5.016   5.630 -15.714  1.00  0.00     0.000 C 
BRANCH  21  22
ATOM     22  C   UNL     1      -6.001   6.251 -14.702  1.00  0.00    -0.000 C 
BRANCH  22  23
ATOM     23  C   UNL     1      -5.355   6.982 -13.513  1.00  0.00    -0.000 C 
BRANCH  23  24
ATOM     24  C   UNL     1      -4.703   6.025 -12.500  1.00  0.00    -0.000 C 
BRANCH  24  25
ATOM     25  C   UNL     1      -4.310   6.769 -11.215  1.00  0.00    -0.000 C 
BRANCH  25  26
ATOM     26  C   UNL     1      -5.392   6.659 -10.118  1.00  0.00    -0.000 C 
BRANCH  26  27
ATOM     27  C   UNL     1      -6.453   7.772 -10.184  1.00  0.00    -0.000 C 
BRANCH  27  28
ATOM     28  C   UNL     1      -7.817   7.267 -10.680  1.00  0.00    -0.000 C 
BRANCH  28  29
ATOM     29  C   UNL     1      -7.880   5.736 -10.793  1.00  0.00    -0.003 C 
ATOM     30  C   UNL     1      -9.205   5.167 -10.285  1.00  0.00     0.004 C 
ENDBRANCH  28  29
ENDBRANCH  27  28
ENDBRANCH  26  27
ENDBRANCH  25  26
ENDBRANCH  24  25
ENDBRANCH  23  24
ENDBRANCH  22  23
ENDBRANCH  21  22
ENDBRANCH  20  21
ENDBRANCH  19  20
ENDBRANCH  18  19
ENDBRANCH  17  18
ENDBRANCH   1  17
TORSDOF 26
ENDMDL
MODEL 4
REMARK VINA RESULT:    -7.406      1.369      2.940
REMARK INTER + INTRA:         -20.384
REMARK INTER:                 -18.752
REMARK INTRA:                  -1.631
REMARK UNBOUND:                -1.720
REMARK SMILES CCCCCCCCCCCCCCCCCCCCCCCCCCCC(=O)[O-]
REMARK SMILES IDX 15 1 16 2 17 3 18 4 19 5 20 6 21 7 22 8 23 9 24 10 25 11
REMARK SMILES IDX 26 12 27 13 28 14 29 15 30 16 14 17 13 18 12 19 11 20 10 21
REMARK SMILES IDX 9 22 8 23 7 24 6 25 5 26 4 27 3 28 2 29 1 30
REMARK H PARENT
REMARK Flexibility Score: inf
ROOT
ATOM      1  C   UNL     1      -2.775   1.829 -17.719  1.00  0.00     0.000 C 
ENDROOT
BRANCH   1   2
ATOM      2  C   UNL     1      -1.879   3.071 -17.881  1.00  0.00     0.000 C 
BRANCH   2   3
ATOM      3  C   UNL     1      -2.380   4.268 -17.043  1.00  0.00     0.000 C 
BRANCH   3   4
ATOM      4  C   UNL     1      -3.219   5.281 -17.840  1.00  0.00     0.000 C 
BRANCH   4   5
ATOM      5  C   UNL     1      -3.584   6.536 -17.028  1.00  0.00     0.000 C 
BRANCH   5   6
ATOM      6  C   UNL     1      -4.758   6.298 -16.066  1.00  0.00     0.000 C 
BRANCH   6   7
ATOM      7  C   UNL     1      -4.871   7.391 -14.990  1.00  0.00     0.000 C 
BRANCH   7   8
ATOM      8  C   UNL     1      -5.069   6.816 -13.577  1.00  0.00     0.000 C 
BRANCH   8   9
ATOM      9  C   UNL     1      -3.790   6.737 -12.722  1.00  0.00     0.000 C 
BRANCH   9  10
ATOM     10  C   UNL     1      -3.999   6.073 -11.344  1.00  0.00     0.000 C 
BRANCH  10  11
ATOM     11  C   UNL     1      -4.965   6.874 -10.450  1.00  0.00     0.000 C 
BRANCH  11  12
ATOM     12  C   UNL     1      -6.248   6.094 -10.110  1.00  0.00     0.006 C 
BRANCH  12  13
ATOM     13  C   UNL     1      -7.525   6.686 -10.729  1.00  0.00     0.053 C 
BRANCH  13  14
ATOM     14  C   UNL     1      -8.576   5.644 -10.960  1.00  0.00     0.041 C 
ATOM     15  O   UNL     1      -9.378   5.336 -10.039  1.00  0.00    -0.550 OA
ATOM     16  O   UNL     1      -8.686   5.026 -12.200  1.00  0.00    -0.550 OA
ENDBRANCH  13  14
ENDBRANCH  12  13
ENDBRANCH  11  12
ENDBRANCH  10  11
ENDBRANCH   9  10
ENDBRANCH   8   9
ENDBRANCH   7   8
ENDBRANCH   6   7
ENDBRANCH   5   6
ENDBRANCH   4   5
ENDBRANCH   3   4
ENDBRANCH   2   3
ENDBRANCH   1   2
BRANCH   1  17
ATOM     17  C   UNL     1      -2.258   0.625 -18.525  1.00  0.00     0.000 C 
BRANCH  17  18
ATOM     18  C   UNL     1      -2.444  -0.704 -17.773  1.00  0.00     0.000 C 
BRANCH  18  19
ATOM     19  C   UNL     1      -3.827  -1.328 -18.005  1.00  0.00     0.000 C 
BRANCH  19  20
ATOM     20  C   UNL     1      -3.800  -2.497 -19.007  1.00  0.00     0.000 C 
BRANCH  20  21
ATOM     21  C   UNL     1      -4.576  -2.185 -20.304  1.00  0.00     0.000 C 
BRANCH  21  22
ATOM     22  C   UNL     1      -5.873  -1.378 -20.090  1.00  0.00    -0.000 C 
BRANCH  22  23
ATOM     23  C   UNL     1      -7.175  -2.111 -20.456  1.00  0.00    -0.000 C 
BRANCH  23  24
ATOM     24  C   UNL     1      -6.952  -3.298 -21.408  1.00  0.00    -0.000 C 
BRANCH  24  25
ATOM     25  C   UNL     1      -7.137  -4.634 -20.674  1.00  0.00    -0.000 C 
BRANCH  25  26
ATOM     26  C   UNL     1      -7.986  -4.488 -19.392  1.00  0.00    -0.000 C 
BRANCH  26  27
ATOM     27  C   UNL     1      -8.298  -5.828 -18.702  1.00  0.00    -0.000 C 
BRANCH  27  28
ATOM     28  C   UNL     1      -8.832  -6.890 -19.676  1.00  0.00    -0.000 C 
BRANCH  28  29
ATOM     29  C   UNL     1      -8.302  -8.299 -19.370  1.00  0.00    -0.003 C 
ATOM     30  C   UNL     1      -8.094  -9.131 -20.636  1.00  0.00     0.004 C 
ENDBRANCH  28  29
ENDBRANCH  27  28
ENDBRANCH  26  27
ENDBRANCH  25  26
ENDBRANCH  24  25
ENDBRANCH  23  24
ENDBRANCH  22  23
ENDBRANCH  21  22
ENDBRANCH  20  21
ENDBRANCH  19  20
ENDBRANCH  18  19
ENDBRANCH  17  18
ENDBRANCH   1  17
TORSDOF 26
ENDMDL
MODEL 5
REMARK VINA RESULT:    -7.402      1.673      3.112
REMARK INTER + INTRA:         -20.374
REMARK INTER:                 -19.030
REMARK INTRA:                  -1.344
REMARK UNBOUND:                -1.720
REMARK SMILES CCCCCCCCCCCCCCCCCCCCCCCCCCCC(=O)[O-]
REMARK SMILES IDX 15 1 16 2 17 3 18 4 19 5 20 6 21 7 22 8 23 9 24 10 25 11
REMARK SMILES IDX 26 12 27 13 28 14 29 15 30 16 14 17 13 18 12 19 11 20 10 21
REMARK SMILES IDX 9 22 8 23 7 24 6 25 5 26 4 27 3 28 2 29 1 30
REMARK H PARENT
REMARK Flexibility Score: inf
ROOT
ATOM      1  C   UNL     1      -1.875   2.147 -17.438  1.00  0.00     0.000 C 
ENDROOT
BRANCH   1   2
ATOM      2  C   UNL     1      -1.959   3.634 -17.828  1.00  0.00     0.000 C 
BRANCH   2   3
ATOM      3  C   UNL     1      -3.118   4.364 -17.114  1.00  0.00     0.000 C 
BRANCH   3   4
ATOM      4  C   UNL     1      -3.472   5.727 -17.731  1.00  0.00     0.000 C 
BRANCH   4   5
ATOM      5  C   UNL     1      -3.472   6.873 -16.705  1.00  0.00     0.000 C 
BRANCH   5   6
ATOM      6  C   UNL     1      -4.144   6.482 -15.379  1.00  0.00     0.000 C 
BRANCH   6   7
ATOM      7  C   UNL     1      -5.611   6.059 -15.564  1.00  0.00     0.000 C 
BRANCH   7   8
ATOM      8  C   UNL     1      -6.259   5.578 -14.254  1.00  0.00     0.000 C 
BRANCH   8   9
ATOM      9  C   UNL     1      -7.081   6.645 -13.506  1.00  0.00     0.000 C 
BRANCH   9  10
ATOM     10  C   UNL     1      -7.453   6.247 -12.061  1.00  0.00     0.000 C 
BRANCH  10  11
ATOM     11  C   UNL     1      -7.673   7.473 -11.155  1.00  0.00     0.000 C 
BRANCH  11  12
ATOM     12  C   UNL     1      -6.461   7.770 -10.251  1.00  0.00     0.006 C 
BRANCH  12  13
ATOM     13  C   UNL     1      -5.559   6.552  -9.992  1.00  0.00     0.053 C 
BRANCH  13  14
ATOM     14  C   UNL     1      -4.175   6.749 -10.529  1.00  0.00     0.041 C 
ATOM     15  O   UNL     1      -3.946   6.615 -11.760  1.00  0.00    -0.550 OA
ATOM     16  O   UNL     1      -3.138   7.102  -9.673  1.00  0.00    -0.550 OA
ENDBRANCH  13  14
ENDBRANCH  12  13
ENDBRANCH  11  12
ENDBRANCH  10  11
ENDBRANCH   9  10
ENDBRANCH   8   9
ENDBRANCH   7   8
ENDBRANCH   6   7
ENDBRANCH   5   6
ENDBRANCH   4   5
ENDBRANCH   3   4
ENDBRANCH   2   3
ENDBRANCH   1   2
BRANCH   1  17
ATOM     17  C   UNL     1      -2.938   1.293 -18.151  1.00  0.00     0.000 C 
BRANCH  17  18
ATOM     18  C   UNL     1      -2.526  -0.186 -18.251  1.00  0.00     0.000 C 
BRANCH  18  19
ATOM     19  C   UNL     1      -3.727  -1.125 -18.426  1.00  0.00     0.000 C 
BRANCH  19  20
ATOM     20  C   UNL     1      -4.968  -0.416 -18.997  1.00  0.00     0.000 C 
BRANCH  20  21
ATOM     21  C   UNL     1      -6.191  -1.353 -19.102  1.00  0.00     0.000 C 
BRANCH  21  22
ATOM     22  C   UNL     1      -5.914  -2.679 -19.840  1.00  0.00    -0.000 C 
BRANCH  22  23
ATOM     23  C   UNL     1      -5.892  -3.936 -18.955  1.00  0.00    -0.000 C 
BRANCH  23  24
ATOM     24  C   UNL     1      -6.790  -5.065 -19.489  1.00  0.00    -0.000 C 
BRANCH  24  25
ATOM     25  C   UNL     1      -8.265  -4.799 -19.157  1.00  0.00    -0.000 C 
BRANCH  25  26
ATOM     26  C   UNL     1      -9.199  -5.896 -19.715  1.00  0.00    -0.000 C 
BRANCH  26  27
ATOM     27  C   UNL     1      -8.830  -7.316 -19.248  1.00  0.00    -0.000 C 
BRANCH  27  28
ATOM     28  C   UNL     1      -8.483  -8.255 -20.414  1.00  0.00    -0.000 C 
BRANCH  28  29
ATOM     29  C   UNL     1      -8.196  -9.692 -19.955  1.00  0.00    -0.003 C 
ATOM     30  C   UNL     1      -7.516 -10.527 -21.041  1.00  0.00     0.004 C 
ENDBRANCH  28  29
ENDBRANCH  27  28
ENDBRANCH  26  27
ENDBRANCH  25  26
ENDBRANCH  24  25
ENDBRANCH  23  24
ENDBRANCH  22  23
ENDBRANCH  21  22
ENDBRANCH  20  21
ENDBRANCH  19  20
ENDBRANCH  18  19
ENDBRANCH  17  18
ENDBRANCH   1  17
TORSDOF 26
ENDMDL
MODEL 6
REMARK VINA RESULT:    -7.327      5.104     13.033
REMARK INTER + INTRA:         -20.184
REMARK INTER:                 -18.324
REMARK INTRA:                  -1.859
REMARK UNBOUND:                -1.720
REMARK SMILES CCCCCCCCCCCCCCCCCCCCCCCCCCCC(=O)[O-]
REMARK SMILES IDX 15 1 16 2 17 3 18 4 19 5 20 6 21 7 22 8 23 9 24 10 25 11
REMARK SMILES IDX 26 12 27 13 28 14 29 15 30 16 14 17 13 18 12 19 11 20 10 21
REMARK SMILES IDX 9 22 8 23 7 24 6 25 5 26 4 27 3 28 2 29 1 30
REMARK H PARENT
REMARK Flexibility Score: inf
ROOT
ATOM      1  C   UNL     1      -1.934   0.867 -17.578  1.00  0.00     0.000 C 
ENDROOT
BRANCH   1   2
ATOM      2  C   UNL     1      -2.594  -0.491 -17.880  1.00  0.00     0.000 C 
BRANCH   2   3
ATOM      3  C   UNL     1      -3.755  -0.366 -18.892  1.00  0.00     0.000 C 
BRANCH   3   4
ATOM      4  C   UNL     1      -4.529  -1.676 -19.117  1.00  0.00     0.000 C 
BRANCH   4   5
ATOM      5  C   UNL     1      -4.600  -2.088 -20.597  1.00  0.00     0.000 C 
BRANCH   5   6
ATOM      6  C   UNL     1      -5.691  -3.137 -20.868  1.00  0.00     0.000 C 
BRANCH   6   7
ATOM      7  C   UNL     1      -7.110  -2.554 -20.756  1.00  0.00     0.000 C 
BRANCH   7   8
ATOM      8  C   UNL     1      -7.884  -3.107 -19.546  1.00  0.00     0.000 C 
BRANCH   8   9
ATOM      9  C   UNL     1      -7.125  -4.159 -18.715  1.00  0.00     0.000 C 
BRANCH   9  10
ATOM     10  C   UNL     1      -7.829  -5.532 -18.651  1.00  0.00     0.000 C 
BRANCH  10  11
ATOM     11  C   UNL     1      -8.294  -6.016 -20.038  1.00  0.00     0.000 C 
BRANCH  11  12
ATOM     12  C   UNL     1      -9.033  -7.365 -19.980  1.00  0.00     0.006 C 
BRANCH  12  13
ATOM     13  C   UNL     1      -8.151  -8.545 -19.540  1.00  0.00     0.053 C 
BRANCH  13  14
ATOM     14  C   UNL     1      -8.095  -9.626 -20.575  1.00  0.00     0.041 C 
ATOM     15  O   UNL     1      -8.271  -9.350 -21.791  1.00  0.00    -0.550 OA
ATOM     16  O   UNL     1      -7.828 -10.938 -20.201  1.00  0.00    -0.550 OA
ENDBRANCH  13  14
ENDBRANCH  12  13
ENDBRANCH  11  12
ENDBRANCH  10  11
ENDBRANCH   9  10
ENDBRANCH   8   9
ENDBRANCH   7   8
ENDBRANCH   6   7
ENDBRANCH   5   6
ENDBRANCH   4   5
ENDBRANCH   3   4
ENDBRANCH   2   3
ENDBRANCH   1   2
BRANCH   1  17
ATOM     17  C   UNL     1      -2.918   2.041 -17.714  1.00  0.00     0.000 C 
BRANCH  17  18
ATOM     18  C   UNL     1      -2.236   3.402 -17.493  1.00  0.00     0.000 C 
BRANCH  18  19
ATOM     19  C   UNL     1      -3.230   4.572 -17.501  1.00  0.00     0.000 C 
BRANCH  19  20
ATOM     20  C   UNL     1      -2.717   5.804 -16.733  1.00  0.00     0.000 C 
BRANCH  20  21
ATOM     21  C   UNL     1      -3.504   7.086 -17.076  1.00  0.00     0.000 C 
BRANCH  21  22
ATOM     22  C   UNL     1      -3.785   8.002 -15.867  1.00  0.00    -0.000 C 
BRANCH  22  23
ATOM     23  C   UNL     1      -3.070   7.613 -14.563  1.00  0.00    -0.000 C 
BRANCH  23  24
ATOM     24  C   UNL     1      -4.020   7.531 -13.356  1.00  0.00    -0.000 C 
BRANCH  24  25
ATOM     25  C   UNL     1      -4.658   6.138 -13.249  1.00  0.00    -0.000 C 
BRANCH  25  26
ATOM     26  C   UNL     1      -5.761   5.915 -14.306  1.00  0.00    -0.000 C 
BRANCH  26  27
ATOM     27  C   UNL     1      -7.166   6.325 -13.828  1.00  0.00    -0.000 C 
BRANCH  27  28
ATOM     28  C   UNL     1      -7.359   6.137 -12.315  1.00  0.00    -0.000 C 
BRANCH  28  29
ATOM     29  C   UNL     1      -7.713   7.445 -11.593  1.00  0.00    -0.003 C 
ATOM     30  C   UNL     1      -6.687   7.816 -10.521  1.00  0.00     0.004 C 
ENDBRANCH  28  29
ENDBRANCH  27  28
ENDBRANCH  26  27
ENDBRANCH  25  26
ENDBRANCH  24  25
ENDBRANCH  23  24
ENDBRANCH  22  23
ENDBRANCH  21  22
ENDBRANCH  20  21
ENDBRANCH  19  20
ENDBRANCH  18  19
ENDBRANCH  17  18
ENDBRANCH   1  17
TORSDOF 26
ENDMDL
MODEL 7
REMARK VINA RESULT:    -7.207      5.139     13.219
REMARK INTER + INTRA:         -19.881
REMARK INTER:                 -18.188
REMARK INTRA:                  -1.693
REMARK UNBOUND:                -1.720
REMARK SMILES CCCCCCCCCCCCCCCCCCCCCCCCCCCC(=O)[O-]
REMARK SMILES IDX 15 1 16 2 17 3 18 4 19 5 20 6 21 7 22 8 23 9 24 10 25 11
REMARK SMILES IDX 26 12 27 13 28 14 29 15 30 16 14 17 13 18 12 19 11 20 10 21
REMARK SMILES IDX 9 22 8 23 7 24 6 25 5 26 4 27 3 28 2 29 1 30
REMARK H PARENT
REMARK Flexibility Score: inf
ROOT
ATOM      1  C   UNL     1      -2.986   1.447 -17.664  1.00  0.00     0.000 C 
ENDROOT
BRANCH   1   2
ATOM      2  C   UNL     1      -2.800   0.279 -18.650  1.00  0.00     0.000 C 
BRANCH   2   3
ATOM      3  C   UNL     1      -3.873  -0.818 -18.469  1.00  0.00     0.000 C 
BRANCH   3   4
ATOM      4  C   UNL     1      -5.260  -0.276 -18.086  1.00  0.00     0.000 C 
BRANCH   4   5
ATOM      5  C   UNL     1      -6.379  -0.764 -19.021  1.00  0.00     0.000 C 
BRANCH   5   6
ATOM      6  C   UNL     1      -5.942  -1.948 -19.899  1.00  0.00     0.000 C 
BRANCH   6   7
ATOM      7  C   UNL     1      -7.083  -2.479 -20.784  1.00  0.00     0.000 C 
BRANCH   7   8
ATOM      8  C   UNL     1      -7.073  -4.013 -20.908  1.00  0.00     0.000 C 
BRANCH   8   9
ATOM      9  C   UNL     1      -6.764  -4.768 -19.602  1.00  0.00     0.000 C 
BRANCH   9  10
ATOM     10  C   UNL     1      -8.020  -5.144 -18.785  1.00  0.00     0.000 C 
BRANCH  10  11
ATOM     11  C   UNL     1      -8.919  -6.152 -19.526  1.00  0.00     0.000 C 
BRANCH  11  12
ATOM     12  C   UNL     1      -8.119  -7.285 -20.193  1.00  0.00     0.006 C 
BRANCH  12  13
ATOM     13  C   UNL     1      -8.381  -8.676 -19.591  1.00  0.00     0.053 C 
BRANCH  13  14
ATOM     14  C   UNL     1      -8.096  -9.777 -20.566  1.00  0.00     0.041 C 
ATOM     15  O   UNL     1      -7.602 -10.865 -20.168  1.00  0.00    -0.550 OA
ATOM     16  O   UNL     1      -8.394  -9.610 -21.913  1.00  0.00    -0.550 OA
ENDBRANCH  13  14
ENDBRANCH  12  13
ENDBRANCH  11  12
ENDBRANCH  10  11
ENDBRANCH   9  10
ENDBRANCH   8   9
ENDBRANCH   7   8
ENDBRANCH   6   7
ENDBRANCH   5   6
ENDBRANCH   4   5
ENDBRANCH   3   4
ENDBRANCH   2   3
ENDBRANCH   1   2
BRANCH   1  17
ATOM     17  C   UNL     1      -1.954   2.567 -17.882  1.00  0.00     0.000 C 
BRANCH  17  18
ATOM     18  C   UNL     1      -2.319   3.853 -17.120  1.00  0.00     0.000 C 
BRANCH  18  19
ATOM     19  C   UNL     1      -3.288   4.750 -17.901  1.00  0.00     0.000 C 
BRANCH  19  20
ATOM     20  C   UNL     1      -3.233   6.224 -17.460  1.00  0.00     0.000 C 
BRANCH  20  21
ATOM     21  C   UNL     1      -2.561   6.406 -16.082  1.00  0.00     0.000 C 
BRANCH  21  22
ATOM     22  C   UNL     1      -3.467   7.050 -15.013  1.00  0.00    -0.000 C 
BRANCH  22  23
ATOM     23  C   UNL     1      -4.978   6.970 -15.291  1.00  0.00    -0.000 C 
BRANCH  23  24
ATOM     24  C   UNL     1      -5.606   5.644 -14.829  1.00  0.00    -0.000 C 
BRANCH  24  25
ATOM     25  C   UNL     1      -6.830   5.895 -13.937  1.00  0.00    -0.000 C 
BRANCH  25  26
ATOM     26  C   UNL     1      -6.441   6.150 -12.464  1.00  0.00    -0.000 C 
BRANCH  26  27
ATOM     27  C   UNL     1      -7.072   7.422 -11.870  1.00  0.00    -0.000 C 
BRANCH  27  28
ATOM     28  C   UNL     1      -6.557   7.740 -10.458  1.00  0.00    -0.000 C 
BRANCH  28  29
ATOM     29  C   UNL     1      -5.116   8.272 -10.456  1.00  0.00    -0.003 C 
ATOM     30  C   UNL     1      -4.225   7.542  -9.449  1.00  0.00     0.004 C 
ENDBRANCH  28  29
ENDBRANCH  27  28
ENDBRANCH  26  27
ENDBRANCH  25  26
ENDBRANCH  24  25
ENDBRANCH  23  24
ENDBRANCH  22  23
ENDBRANCH  21  22
ENDBRANCH  20  21
ENDBRANCH  19  20
ENDBRANCH  18  19
ENDBRANCH  17  18
ENDBRANCH   1  17
TORSDOF 26
ENDMDL
MODEL 8
REMARK VINA RESULT:    -7.200      1.698      4.151
REMARK INTER + INTRA:         -19.864
REMARK INTER:                 -18.186
REMARK INTRA:                  -1.678
REMARK UNBOUND:                -1.720
REMARK SMILES CCCCCCCCCCCCCCCCCCCCCCCCCCCC(=O)[O-]
REMARK SMILES IDX 15 1 16 2 17 3 18 4 19 5 20 6 21 7 22 8 23 9 24 10 25 11
REMARK SMILES IDX 26 12 27 13 28 14 29 15 30 16 14 17 13 18 12 19 11 20 10 21
REMARK SMILES IDX 9 22 8 23 7 24 6 25 5 26 4 27 3 28 2 29 1 30
REMARK H PARENT
REMARK Flexibility Score: inf
ROOT
ATOM      1  C   UNL     1      -3.237   3.990 -17.451  1.00  0.00     0.000 C 
ENDROOT
BRANCH   1   2
ATOM      2  C   UNL     1      -2.977   5.413 -16.923  1.00  0.00     0.000 C 
BRANCH   2   3
ATOM      3  C   UNL     1      -4.245   6.055 -16.316  1.00  0.00     0.000 C 
BRANCH   3   4
ATOM      4  C   UNL     1      -4.027   7.478 -15.777  1.00  0.00     0.000 C 
BRANCH   4   5
ATOM      5  C   UNL     1      -3.955   7.539 -14.242  1.00  0.00     0.000 C 
BRANCH   5   6
ATOM      6  C   UNL     1      -2.516   7.438 -13.712  1.00  0.00     0.000 C 
BRANCH   6   7
ATOM      7  C   UNL     1      -2.446   7.507 -12.177  1.00  0.00     0.000 C 
BRANCH   7   8
ATOM      8  C   UNL     1      -2.872   6.190 -11.504  1.00  0.00     0.000 C 
BRANCH   8   9
ATOM      9  C   UNL     1      -4.252   6.228 -10.819  1.00  0.00     0.000 C 
BRANCH   9  10
ATOM     10  C   UNL     1      -4.468   7.463  -9.918  1.00  0.00     0.000 C 
BRANCH  10  11
ATOM     11  C   UNL     1      -5.923   7.968  -9.956  1.00  0.00     0.000 C 
BRANCH  11  12
ATOM     12  C   UNL     1      -6.636   7.627 -11.277  1.00  0.00     0.006 C 
BRANCH  12  13
ATOM     13  C   UNL     1      -8.112   7.227 -11.108  1.00  0.00     0.053 C 
BRANCH  13  14
ATOM     14  C   UNL     1      -8.284   5.744 -10.984  1.00  0.00     0.041 C 
ATOM     15  O   UNL     1      -7.879   5.142  -9.954  1.00  0.00    -0.550 OA
ATOM     16  O   UNL     1      -8.912   5.027 -11.996  1.00  0.00    -0.550 OA
ENDBRANCH  13  14
ENDBRANCH  12  13
ENDBRANCH  11  12
ENDBRANCH  10  11
ENDBRANCH   9  10
ENDBRANCH   8   9
ENDBRANCH   7   8
ENDBRANCH   6   7
ENDBRANCH   5   6
ENDBRANCH   4   5
ENDBRANCH   3   4
ENDBRANCH   2   3
ENDBRANCH   1   2
BRANCH   1  17
ATOM     17  C   UNL     1      -1.973   3.114 -17.417  1.00  0.00     0.000 C 
BRANCH  17  18
ATOM     18  C   UNL     1      -2.115   1.854 -18.289  1.00  0.00     0.000 C 
BRANCH  18  19
ATOM     19  C   UNL     1      -2.549   0.621 -17.483  1.00  0.00     0.000 C 
BRANCH  19  20
ATOM     20  C   UNL     1      -3.410  -0.360 -18.300  1.00  0.00     0.000 C 
BRANCH  20  21
ATOM     21  C   UNL     1      -4.889  -0.361 -17.857  1.00  0.00     0.000 C 
BRANCH  21  22
ATOM     22  C   UNL     1      -5.893  -0.638 -18.995  1.00  0.00    -0.000 C 
BRANCH  22  23
ATOM     23  C   UNL     1      -5.820  -2.044 -19.613  1.00  0.00    -0.000 C 
BRANCH  23  24
ATOM     24  C   UNL     1      -7.038  -2.381 -20.490  1.00  0.00    -0.000 C 
BRANCH  24  25
ATOM     25  C   UNL     1      -7.399  -3.870 -20.382  1.00  0.00    -0.000 C 
BRANCH  25  26
ATOM     26  C   UNL     1      -7.140  -4.437 -18.969  1.00  0.00    -0.000 C 
BRANCH  26  27
ATOM     27  C   UNL     1      -8.198  -5.456 -18.510  1.00  0.00    -0.000 C 
BRANCH  27  28
ATOM     28  C   UNL     1      -8.885  -6.173 -19.683  1.00  0.00    -0.000 C 
BRANCH  28  29
ATOM     29  C   UNL     1      -8.139  -7.440 -20.125  1.00  0.00    -0.003 C 
ATOM     30  C   UNL     1      -8.544  -8.670 -19.310  1.00  0.00     0.004 C 
ENDBRANCH  28  29
ENDBRANCH  27  28
ENDBRANCH  26  27
ENDBRANCH  25  26
ENDBRANCH  24  25
ENDBRANCH  23  24
ENDBRANCH  22  23
ENDBRANCH  21  22
ENDBRANCH  20  21
ENDBRANCH  19  20
ENDBRANCH  18  19
ENDBRANCH  17  18
ENDBRANCH   1  17
TORSDOF 26
ENDMDL
MODEL 9
REMARK VINA RESULT:    -7.163      4.133     12.321
REMARK INTER + INTRA:         -19.772
REMARK INTER:                 -17.260
REMARK INTRA:                  -2.512
REMARK UNBOUND:                -1.720
REMARK SMILES CCCCCCCCCCCCCCCCCCCCCCCCCCCC(=O)[O-]
REMARK SMILES IDX 15 1 16 2 17 3 18 4 19 5 20 6 21 7 22 8 23 9 24 10 25 11
REMARK SMILES IDX 26 12 27 13 28 14 29 15 30 16 14 17 13 18 12 19 11 20 10 21
REMARK SMILES IDX 9 22 8 23 7 24 6 25 5 26 4 27 3 28 2 29 1 30
REMARK H PARENT
REMARK Flexibility Score: inf
ROOT
ATOM      1  C   UNL     1      -3.370   4.917 -16.776  1.00  0.00     0.000 C 
ENDROOT
BRANCH   1   2
ATOM      2  C   UNL     1      -2.625   3.975 -17.740  1.00  0.00     0.000 C 
BRANCH   2   3
ATOM      3  C   UNL     1      -2.555   2.527 -17.208  1.00  0.00     0.000 C 
BRANCH   3   4
ATOM      4  C   UNL     1      -2.030   1.509 -18.235  1.00  0.00     0.000 C 
BRANCH   4   5
ATOM      5  C   UNL     1      -2.066   0.060 -17.723  1.00  0.00     0.000 C 
BRANCH   5   6
ATOM      6  C   UNL     1      -3.089  -0.808 -18.474  1.00  0.00     0.000 C 
BRANCH   6   7
ATOM      7  C   UNL     1      -4.452  -0.112 -18.629  1.00  0.00     0.000 C 
BRANCH   7   8
ATOM      8  C   UNL     1      -5.627  -1.106 -18.643  1.00  0.00     0.000 C 
BRANCH   8   9
ATOM      9  C   UNL     1      -6.919  -0.574 -19.293  1.00  0.00     0.000 C 
BRANCH   9  10
ATOM     10  C   UNL     1      -7.494  -1.499 -20.388  1.00  0.00     0.000 C 
BRANCH  10  11
ATOM     11  C   UNL     1      -6.526  -2.638 -20.759  1.00  0.00     0.000 C 
BRANCH  11  12
ATOM     12  C   UNL     1      -7.243  -3.986 -20.959  1.00  0.00     0.006 C 
BRANCH  12  13
ATOM     13  C   UNL     1      -6.980  -5.008 -19.840  1.00  0.00     0.053 C 
BRANCH  13  14
ATOM     14  C   UNL     1      -8.147  -5.923 -19.625  1.00  0.00     0.041 C 
ATOM     15  O   UNL     1      -9.283  -5.450 -19.353  1.00  0.00    -0.550 OA
ATOM     16  O   UNL     1      -7.987  -7.298 -19.744  1.00  0.00    -0.550 OA
ENDBRANCH  13  14
ENDBRANCH  12  13
ENDBRANCH  11  12
ENDBRANCH  10  11
ENDBRANCH   9  10
ENDBRANCH   8   9
ENDBRANCH   7   8
ENDBRANCH   6   7
ENDBRANCH   5   6
ENDBRANCH   4   5
ENDBRANCH   3   4
ENDBRANCH   2   3
ENDBRANCH   1   2
BRANCH   1  17
ATOM     17  C   UNL     1      -3.865   6.196 -17.472  1.00  0.00     0.000 C 
BRANCH  17  18
ATOM     18  C   UNL     1      -3.332   7.471 -16.796  1.00  0.00     0.000 C 
BRANCH  18  19
ATOM     19  C   UNL     1      -2.516   7.174 -15.530  1.00  0.00     0.000 C 
BRANCH  19  20
ATOM     20  C   UNL     1      -3.062   7.889 -14.280  1.00  0.00     0.000 C 
BRANCH  20  21
ATOM     21  C   UNL     1      -2.575   7.241 -12.967  1.00  0.00     0.000 C 
BRANCH  21  22
ATOM     22  C   UNL     1      -3.424   7.597 -11.729  1.00  0.00    -0.000 C 
BRANCH  22  23
ATOM     23  C   UNL     1      -3.936   6.399 -10.912  1.00  0.00    -0.000 C 
BRANCH  23  24
ATOM     24  C   UNL     1      -4.998   6.788  -9.871  1.00  0.00    -0.000 C 
BRANCH  24  25
ATOM     25  C   UNL     1      -5.799   8.014 -10.333  1.00  0.00    -0.000 C 
BRANCH  25  26
ATOM     26  C   UNL     1      -7.316   7.732 -10.405  1.00  0.00    -0.000 C 
BRANCH  26  27
ATOM     27  C   UNL     1      -7.856   7.626 -11.842  1.00  0.00    -0.000 C 
BRANCH  27  28
ATOM     28  C   UNL     1      -7.454   6.314 -12.535  1.00  0.00    -0.000 C 
BRANCH  28  29
ATOM     29  C   UNL     1      -6.757   6.543 -13.884  1.00  0.00    -0.003 C 
ATOM     30  C   UNL     1      -5.744   5.445 -14.211  1.00  0.00     0.004 C 
ENDBRANCH  28  29
ENDBRANCH  27  28
ENDBRANCH  26  27
ENDBRANCH  25  26
ENDBRANCH  24  25
ENDBRANCH  23  24
ENDBRANCH  22  23
ENDBRANCH  21  22
ENDBRANCH  20  21
ENDBRANCH  19  20
ENDBRANCH  18  19
ENDBRANCH  17  18
ENDBRANCH   1  17
TORSDOF 26
ENDMDL
