MODEL 1
REMARK VINA RESULT:    -6.968      0.000      0.000
REMARK INTER + INTRA:          -8.684
REMARK INTER:                  -8.393
REMARK INTRA:                  -0.290
REMARK UNBOUND:                -0.290
REMARK SMILES O=c1c(O)c(-c2ccc(O)c(O)c2)oc2cc(O)cc(O)c12
REMARK SMILES IDX 5 1 3 2 2 3 1 4 22 5 20 6 19 7 17 8 16 9 15 10 14 11 6 12
REMARK SMILES IDX 7 13 8 14 9 15 13 16 11 17 10 18 12 20 4 22 21 24 18 26
REMARK H PARENT 10 19 12 21 4 23 21 25 18 27
REMARK Flexibility Score: inf
ROOT
ATOM      1  C   UNL     1      12.886   9.957  12.811  1.00  0.00     0.180 A 
ATOM      2  C   UNL     1      12.676  10.328  14.151  1.00  0.00     0.208 A 
ATOM      3  C   UNL     1      11.378  10.267  14.680  1.00  0.00     0.238 A 
ATOM      4  O   UNL     1      11.206  10.548  15.895  1.00  0.00    -0.285 OA
ATOM      5  C   UNL     1      10.301   9.850  13.859  1.00  0.00     0.111 A 
ATOM      6  C   UNL     1       8.939   9.789  14.280  1.00  0.00     0.134 A 
ATOM      7  C   UNL     1       7.977   9.238  13.423  1.00  0.00     0.093 A 
ATOM      8  C   UNL     1       8.316   8.807  12.142  1.00  0.00     0.123 A 
ATOM      9  C   UNL     1       9.634   8.918  11.699  1.00  0.00     0.094 A 
ATOM     10  C   UNL     1      10.623   9.429  12.543  1.00  0.00     0.146 A 
ATOM     11  O   UNL     1      11.868   9.508  12.087  1.00  0.00    -0.452 OA
ENDROOT
BRANCH   1  12
ATOM     12  C   UNL     1      14.222  10.019  12.176  1.00  0.00     0.025 A 
ATOM     13  C   UNL     1      14.723  11.257  11.744  1.00  0.00     0.016 A 
ATOM     14  C   UNL     1      15.990  11.343  11.162  1.00  0.00     0.051 A 
ATOM     15  C   UNL     1      16.781  10.197  11.018  1.00  0.00     0.157 A 
ATOM     16  C   UNL     1      15.027   8.873  12.049  1.00  0.00     0.062 A 
ATOM     17  C   UNL     1      16.298   8.956  11.468  1.00  0.00     0.158 A 
BRANCH  15  18
ATOM     18  O   UNL     1      18.045  10.285  10.434  1.00  0.00    -0.504 OA
ATOM     19  H   UNL     1      18.870   9.923  10.897  1.00  0.00     0.293 HD
ENDBRANCH  15  18
BRANCH  17  20
ATOM     20  O   UNL     1      17.066   7.799  11.352  1.00  0.00    -0.504 OA
ATOM     21  H   UNL     1      16.650   6.875  11.345  1.00  0.00     0.293 HD
ENDBRANCH  17  20
ENDBRANCH   1  12
BRANCH   2  22
ATOM     22  O   UNL     1      13.757  10.715  14.949  1.00  0.00    -0.502 OA
ATOM     23  H   UNL     1      14.709  10.436  14.747  1.00  0.00     0.293 HD
ENDBRANCH   2  22
BRANCH   6  24
ATOM     24  O   UNL     1       8.477  10.276  15.505  1.00  0.00    -0.507 OA
ATOM     25  H   UNL     1       7.513  10.488  15.713  1.00  0.00     0.293 HD
ENDBRANCH   6  24
BRANCH   8  26
ATOM     26  O   UNL     1       7.329   8.278  11.312  1.00  0.00    -0.508 OA
ATOM     27  H   UNL     1       6.391   8.099  11.651  1.00  0.00     0.293 HD
ENDBRANCH   8  26
TORSDOF 6
ENDMDL
MODEL 2
REMARK VINA RESULT:    -6.877      1.549      6.973
REMARK INTER + INTRA:          -8.574
REMARK INTER:                  -8.351
REMARK INTRA:                  -0.223
REMARK UNBOUND:                -0.290
REMARK SMILES O=c1c(O)c(-c2ccc(O)c(O)c2)oc2cc(O)cc(O)c12
REMARK SMILES IDX 5 1 3 2 2 3 1 4 22 5 20 6 19 7 17 8 16 9 15 10 14 11 6 12
REMARK SMILES IDX 7 13 8 14 9 15 13 16 11 17 10 18 12 20 4 22 21 24 18 26
REMARK H PARENT 10 19 12 21 4 23 21 25 18 27
REMARK Flexibility Score: inf
ROOT
ATOM      1  C   UNL     1      12.266  10.437  12.558  1.00  0.00     0.180 A 
ATOM      2  C   UNL     1      12.709  11.674  12.058  1.00  0.00     0.208 A 
ATOM      3  C   UNL     1      13.993  11.761  11.498  1.00  0.00     0.238 A 
ATOM      4  O   UNL     1      14.364  12.857  11.003  1.00  0.00    -0.285 OA
ATOM      5  C   UNL     1      14.825  10.615  11.460  1.00  0.00     0.111 A 
ATOM      6  C   UNL     1      16.159  10.599  10.952  1.00  0.00     0.134 A 
ATOM      7  C   UNL     1      16.840   9.380  10.844  1.00  0.00     0.093 A 
ATOM      8  C   UNL     1      16.263   8.190  11.284  1.00  0.00     0.123 A 
ATOM      9  C   UNL     1      14.983   8.204  11.837  1.00  0.00     0.094 A 
ATOM     10  C   UNL     1      14.262   9.398  11.925  1.00  0.00     0.146 A 
ATOM     11  O   UNL     1      13.043   9.367  12.448  1.00  0.00    -0.452 OA
ENDROOT
BRANCH   1  12
ATOM     12  C   UNL     1      10.935  10.273  13.185  1.00  0.00     0.025 A 
ATOM     13  C   UNL     1       9.977   9.453  12.568  1.00  0.00     0.016 A 
ATOM     14  C   UNL     1       8.722   9.267  13.152  1.00  0.00     0.051 A 
ATOM     15  C   UNL     1       8.411   9.885  14.371  1.00  0.00     0.157 A 
ATOM     16  C   UNL     1      10.626  10.875  14.418  1.00  0.00     0.062 A 
ATOM     17  C   UNL     1       9.370  10.690  15.008  1.00  0.00     0.158 A 
BRANCH  15  18
ATOM     18  O   UNL     1       7.156   9.699  14.951  1.00  0.00    -0.504 OA
ATOM     19  H   UNL     1       6.430  10.402  14.880  1.00  0.00     0.293 HD
ENDBRANCH  15  18
BRANCH  17  20
ATOM     20  O   UNL     1       9.097  11.307  16.228  1.00  0.00    -0.504 OA
ATOM     21  H   UNL     1       8.556  10.850  16.953  1.00  0.00     0.293 HD
ENDBRANCH  17  20
ENDBRANCH   1  12
BRANCH   2  22
ATOM     22  O   UNL     1      11.864  12.787  12.086  1.00  0.00    -0.502 OA
ATOM     23  H   UNL     1      10.855  12.702  12.101  1.00  0.00     0.293 HD
ENDBRANCH   2  22
BRANCH   6  24
ATOM     24  O   UNL     1      16.863  11.744  10.570  1.00  0.00    -0.507 OA
ATOM     25  H   UNL     1      17.865  11.846  10.620  1.00  0.00     0.293 HD
ENDBRANCH   6  24
BRANCH   8  26
ATOM     26  O   UNL     1      16.978   6.998  11.175  1.00  0.00    -0.508 OA
ATOM     27  H   UNL     1      16.719   6.175  11.706  1.00  0.00     0.293 HD
ENDBRANCH   8  26
TORSDOF 6
ENDMDL
MODEL 3
REMARK VINA RESULT:    -6.426      2.179      6.965
REMARK INTER + INTRA:          -8.031
REMARK INTER:                  -7.794
REMARK INTRA:                  -0.237
REMARK UNBOUND:                -0.290
REMARK SMILES O=c1c(O)c(-c2ccc(O)c(O)c2)oc2cc(O)cc(O)c12
REMARK SMILES IDX 5 1 3 2 2 3 1 4 22 5 20 6 19 7 17 8 16 9 15 10 14 11 6 12
REMARK SMILES IDX 7 13 8 14 9 15 13 16 11 17 10 18 12 20 4 22 21 24 18 26
REMARK H PARENT 10 19 12 21 4 23 21 25 18 27
REMARK Flexibility Score: inf
ROOT
ATOM      1  C   UNL     1      13.922   9.533  12.760  1.00  0.00     0.180 A 
ATOM      2  C   UNL     1      14.600  10.291  11.789  1.00  0.00     0.208 A 
ATOM      3  C   UNL     1      15.659   9.700  11.082  1.00  0.00     0.238 A 
ATOM      4  O   UNL     1      16.226  10.365  10.176  1.00  0.00    -0.285 OA
ATOM      5  C   UNL     1      16.037   8.365  11.363  1.00  0.00     0.111 A 
ATOM      6  C   UNL     1      17.120   7.680  10.735  1.00  0.00     0.134 A 
ATOM      7  C   UNL     1      17.320   6.319  10.999  1.00  0.00     0.093 A 
ATOM      8  C   UNL     1      16.519   5.636  11.913  1.00  0.00     0.123 A 
ATOM      9  C   UNL     1      15.495   6.312  12.577  1.00  0.00     0.094 A 
ATOM     10  C   UNL     1      15.247   7.660  12.309  1.00  0.00     0.146 A 
ATOM     11  O   UNL     1      14.256   8.264  12.955  1.00  0.00    -0.452 OA
ENDROOT
BRANCH   1  12
ATOM     12  C   UNL     1      12.813  10.095  13.564  1.00  0.00     0.025 A 
ATOM     13  C   UNL     1      11.513   9.593  13.393  1.00  0.00     0.016 A 
ATOM     14  C   UNL     1      10.455  10.094  14.155  1.00  0.00     0.051 A 
ATOM     15  C   UNL     1      10.683  11.092  15.112  1.00  0.00     0.157 A 
ATOM     16  C   UNL     1      13.041  11.083  14.538  1.00  0.00     0.062 A 
ATOM     17  C   UNL     1      11.984  11.586  15.306  1.00  0.00     0.158 A 
BRANCH  15  18
ATOM     18  O   UNL     1       9.624  11.592  15.870  1.00  0.00    -0.504 OA
ATOM     19  H   UNL     1       9.740  11.834  16.847  1.00  0.00     0.293 HD
ENDBRANCH  15  18
BRANCH  17  20
ATOM     20  O   UNL     1      12.247  12.568  16.259  1.00  0.00    -0.504 OA
ATOM     21  H   UNL     1      11.706  12.649  17.112  1.00  0.00     0.293 HD
ENDBRANCH  17  20
ENDBRANCH   1  12
BRANCH   2  22
ATOM     22  O   UNL     1      14.196  11.600  11.511  1.00  0.00    -0.502 OA
ATOM     23  H   UNL     1      14.282  12.011  10.589  1.00  0.00     0.293 HD
ENDBRANCH   2  22
BRANCH   6  24
ATOM     24  O   UNL     1      18.036   8.290   9.875  1.00  0.00    -0.507 OA
ATOM     25  H   UNL     1      17.847   8.537   8.915  1.00  0.00     0.293 HD
ENDBRANCH   6  24
BRANCH   8  26
ATOM     26  O   UNL     1      16.758   4.286  12.161  1.00  0.00    -0.508 OA
ATOM     27  H   UNL     1      17.254   3.979  12.991  1.00  0.00     0.293 HD
ENDBRANCH   8  26
TORSDOF 6
ENDMDL
MODEL 4
REMARK VINA RESULT:    -5.952      3.462      6.293
REMARK INTER + INTRA:          -7.460
REMARK INTER:                  -7.168
REMARK INTRA:                  -0.292
REMARK UNBOUND:                -0.290
REMARK SMILES O=c1c(O)c(-c2ccc(O)c(O)c2)oc2cc(O)cc(O)c12
REMARK SMILES IDX 5 1 3 2 2 3 1 4 22 5 20 6 19 7 17 8 16 9 15 10 14 11 6 12
REMARK SMILES IDX 7 13 8 14 9 15 13 16 11 17 10 18 12 20 4 22 21 24 18 26
REMARK H PARENT 10 19 12 21 4 23 21 25 18 27
REMARK Flexibility Score: inf
ROOT
ATOM      1  C   UNL     1      15.469   7.091  12.304  1.00  0.00     0.180 A 
ATOM      2  C   UNL     1      16.401   7.641  11.406  1.00  0.00     0.208 A 
ATOM      3  C   UNL     1      16.246   8.973  10.994  1.00  0.00     0.238 A 
ATOM      4  O   UNL     1      17.114   9.476  10.234  1.00  0.00    -0.285 OA
ATOM      5  C   UNL     1      15.152   9.736  11.471  1.00  0.00     0.111 A 
ATOM      6  C   UNL     1      14.875  11.083  11.088  1.00  0.00     0.134 A 
ATOM      7  C   UNL     1      13.840  11.781  11.723  1.00  0.00     0.093 A 
ATOM      8  C   UNL     1      13.034  11.163  12.677  1.00  0.00     0.123 A 
ATOM      9  C   UNL     1      13.258   9.829  13.015  1.00  0.00     0.094 A 
ATOM     10  C   UNL     1      14.306   9.116  12.427  1.00  0.00     0.146 A 
ATOM     11  O   UNL     1      14.492   7.851  12.783  1.00  0.00    -0.452 OA
ENDROOT
BRANCH   1  12
ATOM     12  C   UNL     1      15.552   5.686  12.763  1.00  0.00     0.025 A 
ATOM     13  C   UNL     1      15.107   4.657  11.919  1.00  0.00     0.016 A 
ATOM     14  C   UNL     1      15.195   3.322  12.324  1.00  0.00     0.051 A 
ATOM     15  C   UNL     1      15.746   2.996  13.570  1.00  0.00     0.157 A 
ATOM     16  C   UNL     1      16.123   5.354  14.005  1.00  0.00     0.062 A 
ATOM     17  C   UNL     1      16.215   4.018  14.412  1.00  0.00     0.158 A 
BRANCH  15  18
ATOM     18  O   UNL     1      15.831   1.663  13.972  1.00  0.00    -0.504 OA
ATOM     19  H   UNL     1      15.206   1.279  14.670  1.00  0.00     0.293 HD
ENDBRANCH  15  18
BRANCH  17  20
ATOM     20  O   UNL     1      16.781   3.726  15.652  1.00  0.00    -0.504 OA
ATOM     21  H   UNL     1      16.232   3.362  16.422  1.00  0.00     0.293 HD
ENDBRANCH  17  20
ENDBRANCH   1  12
BRANCH   2  22
ATOM     22  O   UNL     1      17.486   6.877  10.966  1.00  0.00    -0.502 OA
ATOM     23  H   UNL     1      17.387   5.914  10.668  1.00  0.00     0.293 HD
ENDBRANCH   2  22
BRANCH   6  24
ATOM     24  O   UNL     1      15.562  11.765  10.080  1.00  0.00    -0.507 OA
ATOM     25  H   UNL     1      15.184  11.975   9.169  1.00  0.00     0.293 HD
ENDBRANCH   6  24
BRANCH   8  26
ATOM     26  O   UNL     1      12.003  11.885  13.277  1.00  0.00    -0.508 OA
ATOM     27  H   UNL     1      11.504  12.611  12.776  1.00  0.00     0.293 HD
ENDBRANCH   8  26
TORSDOF 6
ENDMDL
MODEL 5
REMARK VINA RESULT:    -5.933      1.637      3.070
REMARK INTER + INTRA:          -7.437
REMARK INTER:                  -7.103
REMARK INTRA:                  -0.334
REMARK UNBOUND:                -0.290
REMARK SMILES O=c1c(O)c(-c2ccc(O)c(O)c2)oc2cc(O)cc(O)c12
REMARK SMILES IDX 5 1 3 2 2 3 1 4 22 5 20 6 19 7 17 8 16 9 15 10 14 11 6 12
REMARK SMILES IDX 7 13 8 14 9 15 13 16 11 17 10 18 12 20 4 22 21 24 18 26
REMARK H PARENT 10 19 12 21 4 23 21 25 18 27
REMARK Flexibility Score: inf
ROOT
ATOM      1  C   UNL     1      12.961  10.795  11.986  1.00  0.00     0.180 A 
ATOM      2  C   UNL     1      12.279   9.884  11.161  1.00  0.00     0.208 A 
ATOM      3  C   UNL     1      11.017   9.416  11.560  1.00  0.00     0.238 A 
ATOM      4  O   UNL     1      10.387   8.644  10.792  1.00  0.00    -0.285 OA
ATOM      5  C   UNL     1      10.460   9.851  12.788  1.00  0.00     0.111 A 
ATOM      6  C   UNL     1       9.207   9.410  13.310  1.00  0.00     0.134 A 
ATOM      7  C   UNL     1       8.696  10.006  14.470  1.00  0.00     0.093 A 
ATOM      8  C   UNL     1       9.419  10.978  15.160  1.00  0.00     0.123 A 
ATOM      9  C   UNL     1      10.671  11.373  14.690  1.00  0.00     0.094 A 
ATOM     10  C   UNL     1      11.193  10.824  13.516  1.00  0.00     0.146 A 
ATOM     11  O   UNL     1      12.384  11.234  13.098  1.00  0.00    -0.452 OA
ENDROOT
BRANCH   1  12
ATOM     12  C   UNL     1      14.305  11.313  11.644  1.00  0.00     0.025 A 
ATOM     13  C   UNL     1      14.420  12.532  10.956  1.00  0.00     0.016 A 
ATOM     14  C   UNL     1      15.679  13.050  10.641  1.00  0.00     0.051 A 
ATOM     15  C   UNL     1      16.840  12.368  11.024  1.00  0.00     0.157 A 
ATOM     16  C   UNL     1      15.474  10.641  12.044  1.00  0.00     0.062 A 
ATOM     17  C   UNL     1      16.736  11.159  11.732  1.00  0.00     0.158 A 
BRANCH  15  18
ATOM     18  O   UNL     1      18.095  12.887  10.706  1.00  0.00    -0.504 OA
ATOM     19  H   UNL     1      18.649  12.509   9.946  1.00  0.00     0.293 HD
ENDBRANCH  15  18
BRANCH  17  20
ATOM     20  O   UNL     1      17.873  10.463  12.139  1.00  0.00    -0.504 OA
ATOM     21  H   UNL     1      18.596  10.895  12.703  1.00  0.00     0.293 HD
ENDBRANCH  17  20
ENDBRANCH   1  12
BRANCH   2  22
ATOM     22  O   UNL     1      12.837   9.485   9.943  1.00  0.00    -0.502 OA
ATOM     23  H   UNL     1      13.200   8.552   9.792  1.00  0.00     0.293 HD
ENDBRANCH   2  22
BRANCH   6  24
ATOM     24  O   UNL     1       8.446   8.381  12.749  1.00  0.00    -0.507 OA
ATOM     25  H   UNL     1       8.651   7.927  11.872  1.00  0.00     0.293 HD
ENDBRANCH   6  24
BRANCH   8  26
ATOM     26  O   UNL     1       8.885  11.538  16.319  1.00  0.00    -0.508 OA
ATOM     27  H   UNL     1       8.637  10.965  17.118  1.00  0.00     0.293 HD
ENDBRANCH   8  26
TORSDOF 6
ENDMDL
MODEL 6
REMARK VINA RESULT:    -5.831      2.852      4.859
REMARK INTER + INTRA:          -7.315
REMARK INTER:                  -7.023
REMARK INTRA:                  -0.291
REMARK UNBOUND:                -0.290
REMARK SMILES O=c1c(O)c(-c2ccc(O)c(O)c2)oc2cc(O)cc(O)c12
REMARK SMILES IDX 5 1 3 2 2 3 1 4 22 5 20 6 19 7 17 8 16 9 15 10 14 11 6 12
REMARK SMILES IDX 7 13 8 14 9 15 13 16 11 17 10 18 12 20 4 22 21 24 18 26
REMARK H PARENT 10 19 12 21 4 23 21 25 18 27
REMARK Flexibility Score: inf
ROOT
ATOM      1  C   UNL     1      14.874   8.251  12.655  1.00  0.00     0.180 A 
ATOM      2  C   UNL     1      15.537   9.282  11.967  1.00  0.00     0.208 A 
ATOM      3  C   UNL     1      14.948  10.555  11.914  1.00  0.00     0.238 A 
ATOM      4  O   UNL     1      15.572  11.487  11.345  1.00  0.00    -0.285 OA
ATOM      5  C   UNL     1      13.694  10.777  12.535  1.00  0.00     0.111 A 
ATOM      6  C   UNL     1      12.986  12.016  12.510  1.00  0.00     0.134 A 
ATOM      7  C   UNL     1      11.817  12.157  13.268  1.00  0.00     0.093 A 
ATOM      8  C   UNL     1      11.297  11.089  13.996  1.00  0.00     0.123 A 
ATOM      9  C   UNL     1      11.949   9.856  13.980  1.00  0.00     0.094 A 
ATOM     10  C   UNL     1      13.137   9.693  13.263  1.00  0.00     0.146 A 
ATOM     11  O   UNL     1      13.733   8.507  13.281  1.00  0.00    -0.452 OA
ENDROOT
BRANCH   1  12
ATOM     12  C   UNL     1      15.421   6.877  12.732  1.00  0.00     0.025 A 
ATOM     13  C   UNL     1      15.989   6.428  13.934  1.00  0.00     0.016 A 
ATOM     14  C   UNL     1      16.493   5.128  14.037  1.00  0.00     0.051 A 
ATOM     15  C   UNL     1      16.421   4.254  12.944  1.00  0.00     0.157 A 
ATOM     16  C   UNL     1      15.333   5.991  11.644  1.00  0.00     0.062 A 
ATOM     17  C   UNL     1      15.834   4.687  11.743  1.00  0.00     0.158 A 
BRANCH  15  18
ATOM     18  O   UNL     1      16.927   2.958  13.049  1.00  0.00    -0.504 OA
ATOM     19  H   UNL     1      16.508   2.274  13.668  1.00  0.00     0.293 HD
ENDBRANCH  15  18
BRANCH  17  20
ATOM     20  O   UNL     1      15.735   3.838  10.643  1.00  0.00    -0.504 OA
ATOM     21  H   UNL     1      16.056   4.110   9.721  1.00  0.00     0.293 HD
ENDBRANCH  17  20
ENDBRANCH   1  12
BRANCH   2  22
ATOM     22  O   UNL     1      16.784   9.047  11.381  1.00  0.00    -0.502 OA
ATOM     23  H   UNL     1      17.141   8.112  11.220  1.00  0.00     0.293 HD
ENDBRANCH   2  22
BRANCH   6  24
ATOM     24  O   UNL     1      13.369  13.119  11.742  1.00  0.00    -0.507 OA
ATOM     25  H   UNL     1      12.793  13.559  11.040  1.00  0.00     0.293 HD
ENDBRANCH   6  24
BRANCH   8  26
ATOM     26  O   UNL     1      10.122  11.262  14.727  1.00  0.00    -0.508 OA
ATOM     27  H   UNL     1      10.110  11.186  15.737  1.00  0.00     0.293 HD
ENDBRANCH   8  26
TORSDOF 6
ENDMDL
MODEL 7
REMARK VINA RESULT:    -5.739      3.583      7.543
REMARK INTER + INTRA:          -7.203
REMARK INTER:                  -7.204
REMARK INTRA:                   0.000
REMARK UNBOUND:                -0.290
REMARK SMILES O=c1c(O)c(-c2ccc(O)c(O)c2)oc2cc(O)cc(O)c12
REMARK SMILES IDX 5 1 3 2 2 3 1 4 22 5 20 6 19 7 17 8 16 9 15 10 14 11 6 12
REMARK SMILES IDX 7 13 8 14 9 15 13 16 11 17 10 18 12 20 4 22 21 24 18 26
REMARK H PARENT 10 19 12 21 4 23 21 25 18 27
REMARK Flexibility Score: inf
ROOT
ATOM      1  C   UNL     1      15.448   7.268  12.217  1.00  0.00     0.180 A 
ATOM      2  C   UNL     1      16.363   7.301  11.151  1.00  0.00     0.208 A 
ATOM      3  C   UNL     1      17.119   6.153  10.865  1.00  0.00     0.238 A 
ATOM      4  O   UNL     1      17.896   6.171   9.875  1.00  0.00    -0.285 OA
ATOM      5  C   UNL     1      16.961   4.991  11.658  1.00  0.00     0.111 A 
ATOM      6  C   UNL     1      17.704   3.784  11.483  1.00  0.00     0.134 A 
ATOM      7  C   UNL     1      17.372   2.655  12.242  1.00  0.00     0.093 A 
ATOM      8  C   UNL     1      16.373   2.706  13.212  1.00  0.00     0.123 A 
ATOM      9  C   UNL     1      15.682   3.898  13.432  1.00  0.00     0.094 A 
ATOM     10  C   UNL     1      15.963   5.031  12.666  1.00  0.00     0.146 A 
ATOM     11  O   UNL     1      15.276   6.143  12.900  1.00  0.00    -0.452 OA
ENDROOT
BRANCH   1  12
ATOM     12  C   UNL     1      14.635   8.446  12.594  1.00  0.00     0.025 A 
ATOM     13  C   UNL     1      13.845   9.079  11.622  1.00  0.00     0.016 A 
ATOM     14  C   UNL     1      13.054  10.180  11.960  1.00  0.00     0.051 A 
ATOM     15  C   UNL     1      13.028  10.654  13.278  1.00  0.00     0.157 A 
ATOM     16  C   UNL     1      14.591   8.912  13.921  1.00  0.00     0.062 A 
ATOM     17  C   UNL     1      13.798  10.013  14.264  1.00  0.00     0.158 A 
BRANCH  15  18
ATOM     18  O   UNL     1      12.239  11.754  13.612  1.00  0.00    -0.504 OA
ATOM     19  H   UNL     1      11.245  11.661  13.787  1.00  0.00     0.293 HD
ENDBRANCH  15  18
BRANCH  17  20
ATOM     20  O   UNL     1      13.783  10.452  15.587  1.00  0.00    -0.504 OA
ATOM     21  H   UNL     1      12.950  10.835  16.017  1.00  0.00     0.293 HD
ENDBRANCH  17  20
ENDBRANCH   1  12
BRANCH   2  22
ATOM     22  O   UNL     1      16.486   8.452  10.367  1.00  0.00    -0.502 OA
ATOM     23  H   UNL     1      15.976   9.304  10.568  1.00  0.00     0.293 HD
ENDBRANCH   2  22
BRANCH   6  24
ATOM     24  O   UNL     1      18.783   3.652  10.606  1.00  0.00    -0.507 OA
ATOM     25  H   UNL     1      19.347   4.418  10.268  1.00  0.00     0.293 HD
ENDBRANCH   6  24
BRANCH   8  26
ATOM     26  O   UNL     1      16.081   1.566  13.960  1.00  0.00    -0.508 OA
ATOM     27  H   UNL     1      15.621   0.764  13.545  1.00  0.00     0.293 HD
ENDBRANCH   8  26
TORSDOF 6
ENDMDL
MODEL 8
REMARK VINA RESULT:    -5.700      3.940      6.490
REMARK INTER + INTRA:          -7.156
REMARK INTER:                  -6.940
REMARK INTRA:                  -0.216
REMARK UNBOUND:                -0.290
REMARK SMILES O=c1c(O)c(-c2ccc(O)c(O)c2)oc2cc(O)cc(O)c12
REMARK SMILES IDX 5 1 3 2 2 3 1 4 22 5 20 6 19 7 17 8 16 9 15 10 14 11 6 12
REMARK SMILES IDX 7 13 8 14 9 15 13 16 11 17 10 18 12 20 4 22 21 24 18 26
REMARK H PARENT 10 19 12 21 4 23 21 25 18 27
REMARK Flexibility Score: inf
ROOT
ATOM      1  C   UNL     1      16.001   6.298  12.662  1.00  0.00     0.180 A 
ATOM      2  C   UNL     1      15.852   6.725  11.331  1.00  0.00     0.208 A 
ATOM      3  C   UNL     1      15.164   7.920  11.071  1.00  0.00     0.238 A 
ATOM      4  O   UNL     1      15.082   8.326   9.883  1.00  0.00    -0.285 OA
ATOM      5  C   UNL     1      14.618   8.666  12.145  1.00  0.00     0.111 A 
ATOM      6  C   UNL     1      13.866   9.870  11.994  1.00  0.00     0.134 A 
ATOM      7  C   UNL     1      13.487  10.593  13.133  1.00  0.00     0.093 A 
ATOM      8  C   UNL     1      13.774  10.123  14.413  1.00  0.00     0.123 A 
ATOM      9  C   UNL     1      14.456   8.916  14.572  1.00  0.00     0.094 A 
ATOM     10  C   UNL     1      14.880   8.191  13.456  1.00  0.00     0.146 A 
ATOM     11  O   UNL     1      15.535   7.052  13.650  1.00  0.00    -0.452 OA
ENDROOT
BRANCH   1  12
ATOM     12  C   UNL     1      16.692   5.037  13.012  1.00  0.00     0.025 A 
ATOM     13  C   UNL     1      18.088   4.958  12.890  1.00  0.00     0.016 A 
ATOM     14  C   UNL     1      18.764   3.785  13.234  1.00  0.00     0.051 A 
ATOM     15  C   UNL     1      18.056   2.678  13.721  1.00  0.00     0.157 A 
ATOM     16  C   UNL     1      15.987   3.931  13.520  1.00  0.00     0.062 A 
ATOM     17  C   UNL     1      16.661   2.754  13.868  1.00  0.00     0.158 A 
BRANCH  15  18
ATOM     18  O   UNL     1      18.733   1.507  14.062  1.00  0.00    -0.504 OA
ATOM     19  H   UNL     1      19.057   1.338  15.006  1.00  0.00     0.293 HD
ENDBRANCH  15  18
BRANCH  17  20
ATOM     20  O   UNL     1      15.929   1.676  14.363  1.00  0.00    -0.504 OA
ATOM     21  H   UNL     1      15.039   1.401  13.964  1.00  0.00     0.293 HD
ENDBRANCH  17  20
ENDBRANCH   1  12
BRANCH   2  22
ATOM     22  O   UNL     1      16.419   5.985  10.289  1.00  0.00    -0.502 OA
ATOM     23  H   UNL     1      15.873   5.361   9.707  1.00  0.00     0.293 HD
ENDBRANCH   2  22
BRANCH   6  24
ATOM     24  O   UNL     1      13.447  10.381  10.763  1.00  0.00    -0.507 OA
ATOM     25  H   UNL     1      13.750  10.035   9.864  1.00  0.00     0.293 HD
ENDBRANCH   6  24
BRANCH   8  26
ATOM     26  O   UNL     1      13.366  10.861  15.523  1.00  0.00    -0.508 OA
ATOM     27  H   UNL     1      13.201  10.420  16.421  1.00  0.00     0.293 HD
ENDBRANCH   8  26
TORSDOF 6
ENDMDL
MODEL 9
REMARK VINA RESULT:    -5.665      2.641      7.169
REMARK INTER + INTRA:          -7.114
REMARK INTER:                  -6.814
REMARK INTRA:                  -0.301
REMARK UNBOUND:                -0.290
REMARK SMILES O=c1c(O)c(-c2ccc(O)c(O)c2)oc2cc(O)cc(O)c12
REMARK SMILES IDX 5 1 3 2 2 3 1 4 22 5 20 6 19 7 17 8 16 9 15 10 14 11 6 12
REMARK SMILES IDX 7 13 8 14 9 15 13 16 11 17 10 18 12 20 4 22 21 24 18 26
REMARK H PARENT 10 19 12 21 4 23 21 25 18 27
REMARK Flexibility Score: inf
ROOT
ATOM      1  C   UNL     1      14.873   8.481  12.001  1.00  0.00     0.180 A 
ATOM      2  C   UNL     1      15.921   9.006  11.225  1.00  0.00     0.208 A 
ATOM      3  C   UNL     1      16.881   8.131  10.695  1.00  0.00     0.238 A 
ATOM      4  O   UNL     1      17.786   8.600   9.957  1.00  0.00    -0.285 OA
ATOM      5  C   UNL     1      16.791   6.742  10.960  1.00  0.00     0.111 A 
ATOM      6  C   UNL     1      17.731   5.768  10.507  1.00  0.00     0.134 A 
ATOM      7  C   UNL     1      17.471   4.408  10.718  1.00  0.00     0.093 A 
ATOM      8  C   UNL     1      16.341   3.991  11.420  1.00  0.00     0.123 A 
ATOM      9  C   UNL     1      15.447   4.938  11.919  1.00  0.00     0.094 A 
ATOM     10  C   UNL     1      15.659   6.301  11.693  1.00  0.00     0.146 A 
ATOM     11  O   UNL     1      14.779   7.169  12.176  1.00  0.00    -0.452 OA
ENDROOT
BRANCH   1  12
ATOM     12  C   UNL     1      13.838   9.345  12.613  1.00  0.00     0.025 A 
ATOM     13  C   UNL     1      12.735   9.751  11.845  1.00  0.00     0.016 A 
ATOM     14  C   UNL     1      11.736  10.549  12.409  1.00  0.00     0.051 A 
ATOM     15  C   UNL     1      11.815  10.938  13.752  1.00  0.00     0.157 A 
ATOM     16  C   UNL     1      13.904   9.720  13.967  1.00  0.00     0.062 A 
ATOM     17  C   UNL     1      12.903  10.517  14.536  1.00  0.00     0.158 A 
BRANCH  15  18
ATOM     18  O   UNL     1      10.818  11.736  14.311  1.00  0.00    -0.504 OA
ATOM     19  H   UNL     1      11.015  12.668  14.656  1.00  0.00     0.293 HD
ENDBRANCH  15  18
BRANCH  17  20
ATOM     20  O   UNL     1      13.005  10.875  15.879  1.00  0.00    -0.504 OA
ATOM     21  H   UNL     1      12.629  11.747  16.234  1.00  0.00     0.293 HD
ENDBRANCH  17  20
ENDBRANCH   1  12
BRANCH   2  22
ATOM     22  O   UNL     1      15.978  10.377  10.958  1.00  0.00    -0.502 OA
ATOM     23  H   UNL     1      16.064  11.071  11.691  1.00  0.00     0.293 HD
ENDBRANCH   2  22
BRANCH   6  24
ATOM     24  O   UNL     1      18.937   6.082   9.875  1.00  0.00    -0.507 OA
ATOM     25  H   UNL     1      19.334   5.565   9.105  1.00  0.00     0.293 HD
ENDBRANCH   6  24
BRANCH   8  26
ATOM     26  O   UNL     1      16.123   2.630  11.625  1.00  0.00    -0.508 OA
ATOM     27  H   UNL     1      16.855   1.947  11.467  1.00  0.00     0.293 HD
ENDBRANCH   8  26
TORSDOF 6
ENDMDL
