MODEL 1
REMARK VINA RESULT:    -6.144      0.000      0.000
REMARK INTER + INTRA:         -10.943
REMARK INTER:                  -9.556
REMARK INTRA:                  -1.386
REMARK UNBOUND:                -1.386
REMARK SMILES COc1cc(CNC(=O)CCCCC=CC(C)C)ccc1O
REMARK SMILES IDX 11 1 12 2 13 3 14 4 15 5 16 6 17 7 18 8 10 9 8 10 9 11 7 12
REMARK SMILES IDX 6 14 5 15 4 16 19 17 3 18 20 19 21 20 2 21 1 22 22 23
REMARK H PARENT 7 13 22 24
REMARK Flexibility Score: inf
ROOT
ATOM      1  C   UNL     1      30.912   9.147  18.077  1.00  0.00     0.010 C 
ENDROOT
BRANCH   1   2
ATOM      2  C   UNL     1      30.069   9.829  19.176  1.00  0.00     0.005 C 
BRANCH   2   3
ATOM      3  C   UNL     1      30.547   9.542  20.609  1.00  0.00     0.027 C 
BRANCH   3   4
ATOM      4  C   UNL     1      30.431   8.086  20.980  1.00  0.00    -0.031 C 
ATOM      5  C   UNL     1      31.517   7.306  21.123  1.00  0.00    -0.028 C 
BRANCH   5   6
ATOM      6  C   UNL     1      31.432   5.844  21.499  1.00  0.00     0.005 C 
ATOM      7  C   UNL     1      32.532   5.023  20.816  1.00  0.00     0.012 C 
ATOM      8  C   UNL     1      30.043   5.270  21.195  1.00  0.00     0.012 C 
ENDBRANCH   5   6
ENDBRANCH   3   4
ENDBRANCH   2   3
ENDBRANCH   1   2
BRANCH   1   9
ATOM      9  C   UNL     1      30.298   7.854  17.522  1.00  0.00     0.100 C 
BRANCH   9  10
ATOM     10  C   UNL     1      31.304   6.739  17.461  1.00  0.00     0.220 C 
ATOM     11  O   UNL     1      32.534   7.013  17.534  1.00  0.00    -0.275 OA
ATOM     12  N   UNL     1      30.872   5.384  17.281  1.00  0.00    -0.352 N 
ATOM     13  H   UNL     1      29.846   5.176  17.277  1.00  0.00     0.163 HD
BRANCH  12  14
ATOM     14  C   UNL     1      31.798   4.255  17.235  1.00  0.00     0.151 C 
BRANCH  14  15
ATOM     15  C   UNL     1      31.071   2.978  17.551  1.00  0.00    -0.025 A 
ATOM     16  C   UNL     1      29.984   2.987  18.440  1.00  0.00     0.056 A 
ATOM     17  C   UNL     1      31.447   1.774  16.939  1.00  0.00     0.009 A 
ATOM     18  C   UNL     1      29.293   1.807  18.739  1.00  0.00     0.160 A 
ATOM     19  C   UNL     1      30.749   0.596  17.214  1.00  0.00     0.050 A 
ATOM     20  C   UNL     1      29.670   0.604  18.108  1.00  0.00     0.157 A 
BRANCH  18  21
ATOM     21  O   UNL     1      28.217   1.882  19.633  1.00  0.00    -0.493 OA
ATOM     22  C   UNL     1      27.004   2.577  19.357  1.00  0.00     0.278 C 
ENDBRANCH  18  21
BRANCH  20  23
ATOM     23  O   UNL     1      28.951  -0.568  18.334  1.00  0.00    -0.504 OA
ATOM     24  H   UNL     1      28.374  -0.692  19.158  1.00  0.00     0.293 HD
ENDBRANCH  20  23
ENDBRANCH  14  15
ENDBRANCH  12  14
ENDBRANCH   9  10
ENDBRANCH   1   9
TORSDOF 10
ENDMDL
MODEL 2
REMARK VINA RESULT:    -6.071      2.207      3.547
REMARK INTER + INTRA:         -10.829
REMARK INTER:                  -9.761
REMARK INTRA:                  -1.068
REMARK UNBOUND:                -1.386
REMARK SMILES COc1cc(CNC(=O)CCCCC=CC(C)C)ccc1O
REMARK SMILES IDX 11 1 12 2 13 3 14 4 15 5 16 6 17 7 18 8 10 9 8 10 9 11 7 12
REMARK SMILES IDX 6 14 5 15 4 16 19 17 3 18 20 19 21 20 2 21 1 22 22 23
REMARK H PARENT 7 13 22 24
REMARK Flexibility Score: inf
ROOT
ATOM      1  C   UNL     1      31.886   5.873  16.737  1.00  0.00     0.010 C 
ENDROOT
BRANCH   1   2
ATOM      2  C   UNL     1      32.591   7.238  16.889  1.00  0.00     0.005 C 
BRANCH   2   3
ATOM      3  C   UNL     1      31.638   8.414  17.166  1.00  0.00     0.027 C 
BRANCH   3   4
ATOM      4  C   UNL     1      31.100   8.408  18.573  1.00  0.00    -0.031 C 
ATOM      5  C   UNL     1      31.786   7.854  19.588  1.00  0.00    -0.028 C 
BRANCH   5   6
ATOM      6  C   UNL     1      31.274   7.838  21.010  1.00  0.00     0.005 C 
ATOM      7  C   UNL     1      31.333   6.429  21.613  1.00  0.00     0.012 C 
ATOM      8  C   UNL     1      29.858   8.419  21.100  1.00  0.00     0.012 C 
ENDBRANCH   5   6
ENDBRANCH   3   4
ENDBRANCH   2   3
ENDBRANCH   1   2
BRANCH   1   9
ATOM      9  C   UNL     1      32.799   4.662  16.978  1.00  0.00     0.100 C 
BRANCH   9  10
ATOM     10  C   UNL     1      32.009   3.414  17.255  1.00  0.00     0.220 C 
ATOM     11  O   UNL     1      32.597   2.298  17.253  1.00  0.00    -0.275 OA
ATOM     12  N   UNL     1      30.595   3.489  17.481  1.00  0.00    -0.352 N 
ATOM     13  H   UNL     1      30.139   4.430  17.532  1.00  0.00     0.163 HD
BRANCH  12  14
ATOM     14  C   UNL     1      29.776   2.317  17.776  1.00  0.00     0.151 C 
BRANCH  14  15
ATOM     15  C   UNL     1      29.437   2.279  19.241  1.00  0.00    -0.025 A 
ATOM     16  C   UNL     1      29.118   1.061  19.859  1.00  0.00     0.056 A 
ATOM     17  C   UNL     1      29.470   3.451  20.010  1.00  0.00     0.009 A 
ATOM     18  C   UNL     1      28.808   1.009  21.224  1.00  0.00     0.160 A 
ATOM     19  C   UNL     1      29.185   3.406  21.376  1.00  0.00     0.050 A 
ATOM     20  C   UNL     1      28.857   2.190  21.990  1.00  0.00     0.157 A 
BRANCH  18  21
ATOM     21  O   UNL     1      28.497  -0.239  21.782  1.00  0.00    -0.493 OA
ATOM     22  C   UNL     1      27.397  -1.043  21.362  1.00  0.00     0.278 C 
ENDBRANCH  18  21
BRANCH  20  23
ATOM     23  O   UNL     1      28.624   2.151  23.364  1.00  0.00    -0.504 OA
ATOM     24  H   UNL     1      29.066   1.463  23.963  1.00  0.00     0.293 HD
ENDBRANCH  20  23
ENDBRANCH  14  15
ENDBRANCH  12  14
ENDBRANCH   9  10
ENDBRANCH   1   9
TORSDOF 10
ENDMDL
MODEL 3
REMARK VINA RESULT:    -6.063      2.121      3.746
REMARK INTER + INTRA:         -10.817
REMARK INTER:                  -8.959
REMARK INTRA:                  -1.858
REMARK UNBOUND:                -1.386
REMARK SMILES COc1cc(CNC(=O)CCCCC=CC(C)C)ccc1O
REMARK SMILES IDX 11 1 12 2 13 3 14 4 15 5 16 6 17 7 18 8 10 9 8 10 9 11 7 12
REMARK SMILES IDX 6 14 5 15 4 16 19 17 3 18 20 19 21 20 2 21 1 22 22 23
REMARK H PARENT 7 13 22 24
REMARK Flexibility Score: inf
ROOT
ATOM      1  C   UNL     1      30.438   9.155  18.460  1.00  0.00     0.010 C 
ENDROOT
BRANCH   1   2
ATOM      2  C   UNL     1      30.628   7.882  17.606  1.00  0.00     0.005 C 
BRANCH   2   3
ATOM      3  C   UNL     1      32.007   7.772  16.934  1.00  0.00     0.027 C 
BRANCH   3   4
ATOM      4  C   UNL     1      32.870   6.701  17.549  1.00  0.00    -0.031 C 
ATOM      5  C   UNL     1      33.021   5.498  16.968  1.00  0.00    -0.028 C 
BRANCH   5   6
ATOM      6  C   UNL     1      33.884   4.406  17.559  1.00  0.00     0.005 C 
ATOM      7  C   UNL     1      33.215   3.031  17.434  1.00  0.00     0.012 C 
ATOM      8  C   UNL     1      34.251   4.712  19.016  1.00  0.00     0.012 C 
ENDBRANCH   5   6
ENDBRANCH   3   4
ENDBRANCH   2   3
ENDBRANCH   1   2
BRANCH   1   9
ATOM      9  C   UNL     1      31.201   9.139  19.793  1.00  0.00     0.100 C 
BRANCH   9  10
ATOM     10  C   UNL     1      30.762   8.003  20.673  1.00  0.00     0.220 C 
ATOM     11  O   UNL     1      29.647   8.072  21.260  1.00  0.00    -0.275 OA
ATOM     12  N   UNL     1      31.620   6.871  20.875  1.00  0.00    -0.352 N 
ATOM     13  H   UNL     1      32.515   6.813  20.336  1.00  0.00     0.163 HD
BRANCH  12  14
ATOM     14  C   UNL     1      31.243   5.727  21.700  1.00  0.00     0.151 C 
BRANCH  14  15
ATOM     15  C   UNL     1      30.368   4.790  20.915  1.00  0.00    -0.025 A 
ATOM     16  C   UNL     1      29.377   4.039  21.566  1.00  0.00     0.056 A 
ATOM     17  C   UNL     1      30.508   4.683  19.524  1.00  0.00     0.009 A 
ATOM     18  C   UNL     1      28.550   3.168  20.847  1.00  0.00     0.160 A 
ATOM     19  C   UNL     1      29.673   3.833  18.795  1.00  0.00     0.050 A 
ATOM     20  C   UNL     1      28.690   3.077  19.447  1.00  0.00     0.157 A 
BRANCH  18  21
ATOM     21  O   UNL     1      27.579   2.446  21.555  1.00  0.00    -0.493 OA
ATOM     22  C   UNL     1      27.852   1.242  22.268  1.00  0.00     0.278 C 
ENDBRANCH  18  21
BRANCH  20  23
ATOM     23  O   UNL     1      27.830   2.273  18.703  1.00  0.00    -0.504 OA
ATOM     24  H   UNL     1      27.626   1.316  18.968  1.00  0.00     0.293 HD
ENDBRANCH  20  23
ENDBRANCH  14  15
ENDBRANCH  12  14
ENDBRANCH   9  10
ENDBRANCH   1   9
TORSDOF 10
ENDMDL
MODEL 4
REMARK VINA RESULT:    -6.058      2.924      5.107
REMARK INTER + INTRA:         -10.809
REMARK INTER:                 -10.113
REMARK INTRA:                  -0.696
REMARK UNBOUND:                -1.386
REMARK SMILES COc1cc(CNC(=O)CCCCC=CC(C)C)ccc1O
REMARK SMILES IDX 11 1 12 2 13 3 14 4 15 5 16 6 17 7 18 8 10 9 8 10 9 11 7 12
REMARK SMILES IDX 6 14 5 15 4 16 19 17 3 18 20 19 21 20 2 21 1 22 22 23
REMARK H PARENT 7 13 22 24
REMARK Flexibility Score: inf
ROOT
ATOM      1  C   UNL     1      31.905   6.531  20.362  1.00  0.00     0.010 C 
ENDROOT
BRANCH   1   2
ATOM      2  C   UNL     1      31.929   8.068  20.503  1.00  0.00     0.005 C 
BRANCH   2   3
ATOM      3  C   UNL     1      30.656   8.665  21.128  1.00  0.00     0.027 C 
BRANCH   3   4
ATOM      4  C   UNL     1      30.271   9.985  20.513  1.00  0.00    -0.031 C 
ATOM      5  C   UNL     1      30.039  10.108  19.194  1.00  0.00    -0.028 C 
BRANCH   5   6
ATOM      6  C   UNL     1      29.646  11.418  18.550  1.00  0.00     0.005 C 
ATOM      7  C   UNL     1      30.551  12.566  19.013  1.00  0.00     0.012 C 
ATOM      8  C   UNL     1      28.169  11.743  18.801  1.00  0.00     0.012 C 
ENDBRANCH   5   6
ENDBRANCH   3   4
ENDBRANCH   2   3
ENDBRANCH   1   2
BRANCH   1   9
ATOM      9  C   UNL     1      30.823   5.837  21.203  1.00  0.00     0.100 C 
BRANCH   9  10
ATOM     10  C   UNL     1      30.260   4.632  20.503  1.00  0.00     0.220 C 
ATOM     11  O   UNL     1      30.063   4.678  19.257  1.00  0.00    -0.275 OA
ATOM     12  N   UNL     1      29.915   3.458  21.250  1.00  0.00    -0.352 N 
ATOM     13  H   UNL     1      30.138   3.424  22.272  1.00  0.00     0.163 HD
BRANCH  12  14
ATOM     14  C   UNL     1      29.385   2.248  20.626  1.00  0.00     0.151 C 
BRANCH  14  15
ATOM     15  C   UNL     1      27.987   1.987  21.114  1.00  0.00    -0.025 A 
ATOM     16  C   UNL     1      27.757   1.025  22.109  1.00  0.00     0.056 A 
ATOM     17  C   UNL     1      26.906   2.722  20.606  1.00  0.00     0.009 A 
ATOM     18  C   UNL     1      26.462   0.776  22.579  1.00  0.00     0.160 A 
ATOM     19  C   UNL     1      25.614   2.495  21.085  1.00  0.00     0.050 A 
ATOM     20  C   UNL     1      25.384   1.529  22.073  1.00  0.00     0.157 A 
BRANCH  18  21
ATOM     21  O   UNL     1      26.298  -0.197  23.575  1.00  0.00    -0.493 OA
ATOM     22  C   UNL     1      25.986  -1.562  23.305  1.00  0.00     0.278 C 
ENDBRANCH  18  21
BRANCH  20  23
ATOM     23  O   UNL     1      24.098   1.349  22.578  1.00  0.00    -0.504 OA
ATOM     24  H   UNL     1      23.490   0.610  22.244  1.00  0.00     0.293 HD
ENDBRANCH  20  23
ENDBRANCH  14  15
ENDBRANCH  12  14
ENDBRANCH   9  10
ENDBRANCH   1   9
TORSDOF 10
ENDMDL
MODEL 5
REMARK VINA RESULT:    -6.052      1.063      2.060
REMARK INTER + INTRA:         -10.800
REMARK INTER:                  -9.412
REMARK INTRA:                  -1.388
REMARK UNBOUND:                -1.386
REMARK SMILES COc1cc(CNC(=O)CCCCC=CC(C)C)ccc1O
REMARK SMILES IDX 11 1 12 2 13 3 14 4 15 5 16 6 17 7 18 8 10 9 8 10 9 11 7 12
REMARK SMILES IDX 6 14 5 15 4 16 19 17 3 18 20 19 21 20 2 21 1 22 22 23
REMARK H PARENT 7 13 22 24
REMARK Flexibility Score: inf
ROOT
ATOM      1  C   UNL     1      30.510   8.461  18.045  1.00  0.00     0.010 C 
ENDROOT
BRANCH   1   2
ATOM      2  C   UNL     1      30.414   9.606  19.077  1.00  0.00     0.005 C 
BRANCH   2   3
ATOM      3  C   UNL     1      29.934   9.163  20.470  1.00  0.00     0.027 C 
BRANCH   3   4
ATOM      4  C   UNL     1      30.128   7.689  20.711  1.00  0.00    -0.031 C 
ATOM      5  C   UNL     1      31.260   7.206  21.253  1.00  0.00    -0.028 C 
BRANCH   5   6
ATOM      6  C   UNL     1      31.481   5.733  21.511  1.00  0.00     0.005 C 
ATOM      7  C   UNL     1      32.635   5.181  20.665  1.00  0.00     0.012 C 
ATOM      8  C   UNL     1      30.196   4.928  21.285  1.00  0.00     0.012 C 
ENDBRANCH   5   6
ENDBRANCH   3   4
ENDBRANCH   2   3
ENDBRANCH   1   2
BRANCH   1   9
ATOM      9  C   UNL     1      31.721   8.558  17.107  1.00  0.00     0.100 C 
BRANCH   9  10
ATOM     10  C   UNL     1      32.353   7.215  16.871  1.00  0.00     0.220 C 
ATOM     11  O   UNL     1      33.461   7.151  16.271  1.00  0.00    -0.275 OA
ATOM     12  N   UNL     1      31.683   6.017  17.289  1.00  0.00    -0.352 N 
ATOM     13  H   UNL     1      30.792   6.099  17.832  1.00  0.00     0.163 HD
BRANCH  12  14
ATOM     14  C   UNL     1      32.254   4.685  17.108  1.00  0.00     0.151 C 
BRANCH  14  15
ATOM     15  C   UNL     1      31.209   3.636  17.373  1.00  0.00    -0.025 A 
ATOM     16  C   UNL     1      31.492   2.284  17.129  1.00  0.00     0.056 A 
ATOM     17  C   UNL     1      29.958   3.993  17.896  1.00  0.00     0.009 A 
ATOM     18  C   UNL     1      30.532   1.295  17.377  1.00  0.00     0.160 A 
ATOM     19  C   UNL     1      29.003   3.012  18.168  1.00  0.00     0.050 A 
ATOM     20  C   UNL     1      29.283   1.662  17.916  1.00  0.00     0.157 A 
BRANCH  18  21
ATOM     21  O   UNL     1      30.875  -0.038  17.114  1.00  0.00    -0.493 OA
ATOM     22  C   UNL     1      31.773  -0.799  17.919  1.00  0.00     0.278 C 
ENDBRANCH  18  21
BRANCH  20  23
ATOM     23  O   UNL     1      28.340   0.689  18.240  1.00  0.00    -0.504 OA
ATOM     24  H   UNL     1      27.398   0.710  17.865  1.00  0.00     0.293 HD
ENDBRANCH  20  23
ENDBRANCH  14  15
ENDBRANCH  12  14
ENDBRANCH   9  10
ENDBRANCH   1   9
TORSDOF 10
ENDMDL
MODEL 6
REMARK VINA RESULT:    -6.033      2.639      4.975
REMARK INTER + INTRA:         -10.770
REMARK INTER:                  -9.943
REMARK INTRA:                  -0.826
REMARK UNBOUND:                -1.386
REMARK SMILES COc1cc(CNC(=O)CCCCC=CC(C)C)ccc1O
REMARK SMILES IDX 11 1 12 2 13 3 14 4 15 5 16 6 17 7 18 8 10 9 8 10 9 11 7 12
REMARK SMILES IDX 6 14 5 15 4 16 19 17 3 18 20 19 21 20 2 21 1 22 22 23
REMARK H PARENT 7 13 22 24
REMARK Flexibility Score: inf
ROOT
ATOM      1  C   UNL     1      32.604   4.021  19.853  1.00  0.00     0.010 C 
ENDROOT
BRANCH   1   2
ATOM      2  C   UNL     1      32.824   4.914  21.094  1.00  0.00     0.005 C 
BRANCH   2   3
ATOM      3  C   UNL     1      31.549   5.602  21.611  1.00  0.00     0.027 C 
BRANCH   3   4
ATOM      4  C   UNL     1      31.096   6.731  20.723  1.00  0.00    -0.031 C 
ATOM      5  C   UNL     1      31.209   8.016  21.103  1.00  0.00    -0.028 C 
BRANCH   5   6
ATOM      6  C   UNL     1      30.768   9.170  20.231  1.00  0.00     0.005 C 
ATOM      7  C   UNL     1      29.515   9.852  20.794  1.00  0.00     0.012 C 
ATOM      8  C   UNL     1      30.551   8.723  18.781  1.00  0.00     0.012 C 
ENDBRANCH   5   6
ENDBRANCH   3   4
ENDBRANCH   2   3
ENDBRANCH   1   2
BRANCH   1   9
ATOM      9  C   UNL     1      31.809   2.738  20.134  1.00  0.00     0.100 C 
BRANCH   9  10
ATOM     10  C   UNL     1      30.503   2.717  19.390  1.00  0.00     0.220 C 
ATOM     11  O   UNL     1      30.181   3.710  18.680  1.00  0.00    -0.275 OA
ATOM     12  N   UNL     1      29.616   1.597  19.518  1.00  0.00    -0.352 N 
ATOM     13  H   UNL     1      29.929   0.764  20.068  1.00  0.00     0.163 HD
BRANCH  12  14
ATOM     14  C   UNL     1      28.345   1.508  18.805  1.00  0.00     0.151 C 
BRANCH  14  15
ATOM     15  C   UNL     1      27.204   1.504  19.785  1.00  0.00    -0.025 A 
ATOM     16  C   UNL     1      26.644   0.289  20.209  1.00  0.00     0.056 A 
ATOM     17  C   UNL     1      26.711   2.707  20.309  1.00  0.00     0.009 A 
ATOM     18  C   UNL     1      25.586   0.269  21.127  1.00  0.00     0.160 A 
ATOM     19  C   UNL     1      25.671   2.696  21.241  1.00  0.00     0.050 A 
ATOM     20  C   UNL     1      25.107   1.483  21.658  1.00  0.00     0.157 A 
BRANCH  18  21
ATOM     21  O   UNL     1      25.071  -0.977  21.511  1.00  0.00    -0.493 OA
ATOM     22  C   UNL     1      24.513  -1.919  20.599  1.00  0.00     0.278 C 
ENDBRANCH  18  21
BRANCH  20  23
ATOM     23  O   UNL     1      24.105   1.483  22.626  1.00  0.00    -0.504 OA
ATOM     24  H   UNL     1      23.655   2.339  22.931  1.00  0.00     0.293 HD
ENDBRANCH  20  23
ENDBRANCH  14  15
ENDBRANCH  12  14
ENDBRANCH   9  10
ENDBRANCH   1   9
TORSDOF 10
ENDMDL
MODEL 7
REMARK VINA RESULT:    -6.009      2.065      4.219
REMARK INTER + INTRA:         -10.733
REMARK INTER:                  -9.089
REMARK INTRA:                  -1.643
REMARK UNBOUND:                -1.386
REMARK SMILES COc1cc(CNC(=O)CCCCC=CC(C)C)ccc1O
REMARK SMILES IDX 11 1 12 2 13 3 14 4 15 5 16 6 17 7 18 8 10 9 8 10 9 11 7 12
REMARK SMILES IDX 6 14 5 15 4 16 19 17 3 18 20 19 21 20 2 21 1 22 22 23
REMARK H PARENT 7 13 22 24
REMARK Flexibility Score: inf
ROOT
ATOM      1  C   UNL     1      33.197   4.205  18.068  1.00  0.00     0.010 C 
ENDROOT
BRANCH   1   2
ATOM      2  C   UNL     1      33.131   3.601  19.487  1.00  0.00     0.005 C 
BRANCH   2   3
ATOM      3  C   UNL     1      32.907   4.634  20.605  1.00  0.00     0.027 C 
BRANCH   3   4
ATOM      4  C   UNL     1      32.445   5.968  20.079  1.00  0.00    -0.031 C 
ATOM      5  C   UNL     1      31.463   6.662  20.680  1.00  0.00    -0.028 C 
BRANCH   5   6
ATOM      6  C   UNL     1      30.983   8.005  20.178  1.00  0.00     0.005 C 
ATOM      7  C   UNL     1      29.778   8.508  20.984  1.00  0.00     0.012 C 
ATOM      8  C   UNL     1      30.666   7.959  18.679  1.00  0.00     0.012 C 
ENDBRANCH   5   6
ENDBRANCH   3   4
ENDBRANCH   2   3
ENDBRANCH   1   2
BRANCH   1   9
ATOM      9  C   UNL     1      32.732   3.254  16.956  1.00  0.00     0.100 C 
BRANCH   9  10
ATOM     10  C   UNL     1      31.405   2.626  17.278  1.00  0.00     0.220 C 
ATOM     11  O   UNL     1      31.320   1.370  17.361  1.00  0.00    -0.275 OA
ATOM     12  N   UNL     1      30.240   3.445  17.450  1.00  0.00    -0.352 N 
ATOM     13  H   UNL     1      30.345   4.486  17.429  1.00  0.00     0.163 HD
BRANCH  12  14
ATOM     14  C   UNL     1      28.928   2.898  17.784  1.00  0.00     0.151 C 
BRANCH  14  15
ATOM     15  C   UNL     1      28.815   2.699  19.270  1.00  0.00    -0.025 A 
ATOM     16  C   UNL     1      28.167   1.565  19.782  1.00  0.00     0.056 A 
ATOM     17  C   UNL     1      29.384   3.624  20.157  1.00  0.00     0.009 A 
ATOM     18  C   UNL     1      28.061   1.362  21.163  1.00  0.00     0.160 A 
ATOM     19  C   UNL     1      29.302   3.419  21.536  1.00  0.00     0.050 A 
ATOM     20  C   UNL     1      28.648   2.290  22.047  1.00  0.00     0.157 A 
BRANCH  18  21
ATOM     21  O   UNL     1      27.402   0.209  21.612  1.00  0.00    -0.493 OA
ATOM     22  C   UNL     1      26.503  -0.553  20.808  1.00  0.00     0.278 C 
ENDBRANCH  18  21
BRANCH  20  23
ATOM     23  O   UNL     1      28.618   2.072  23.422  1.00  0.00    -0.504 OA
ATOM     24  H   UNL     1      29.399   1.656  23.916  1.00  0.00     0.293 HD
ENDBRANCH  20  23
ENDBRANCH  14  15
ENDBRANCH  12  14
ENDBRANCH   9  10
ENDBRANCH   1   9
TORSDOF 10
ENDMDL
MODEL 8
REMARK VINA RESULT:    -5.942      2.082      4.045
REMARK INTER + INTRA:         -10.629
REMARK INTER:                  -9.367
REMARK INTRA:                  -1.262
REMARK UNBOUND:                -1.386
REMARK SMILES COc1cc(CNC(=O)CCCCC=CC(C)C)ccc1O
REMARK SMILES IDX 11 1 12 2 13 3 14 4 15 5 16 6 17 7 18 8 10 9 8 10 9 11 7 12
REMARK SMILES IDX 6 14 5 15 4 16 19 17 3 18 20 19 21 20 2 21 1 22 22 23
REMARK H PARENT 7 13 22 24
REMARK Flexibility Score: inf
ROOT
ATOM      1  C   UNL     1      32.542   5.217  19.068  1.00  0.00     0.010 C 
ENDROOT
BRANCH   1   2
ATOM      2  C   UNL     1      32.436   4.805  20.553  1.00  0.00     0.005 C 
BRANCH   2   3
ATOM      3  C   UNL     1      31.652   5.796  21.430  1.00  0.00     0.027 C 
BRANCH   3   4
ATOM      4  C   UNL     1      31.127   6.973  20.650  1.00  0.00    -0.031 C 
ATOM      5  C   UNL     1      31.273   8.234  21.093  1.00  0.00    -0.028 C 
BRANCH   5   6
ATOM      6  C   UNL     1      30.761   9.435  20.330  1.00  0.00     0.005 C 
ATOM      7  C   UNL     1      29.417   9.923  20.885  1.00  0.00     0.012 C 
ATOM      8  C   UNL     1      30.666   9.142  18.828  1.00  0.00     0.012 C 
ENDBRANCH   5   6
ENDBRANCH   3   4
ENDBRANCH   2   3
ENDBRANCH   1   2
BRANCH   1   9
ATOM      9  C   UNL     1      32.743   4.042  18.101  1.00  0.00     0.100 C 
BRANCH   9  10
ATOM     10  C   UNL     1      31.496   3.215  17.960  1.00  0.00     0.220 C 
ATOM     11  O   UNL     1      31.596   1.995  17.653  1.00  0.00    -0.275 OA
ATOM     12  N   UNL     1      30.206   3.817  18.134  1.00  0.00    -0.352 N 
ATOM     13  H   UNL     1      30.151   4.816  18.440  1.00  0.00     0.163 HD
BRANCH  12  14
ATOM     14  C   UNL     1      28.959   3.064  18.031  1.00  0.00     0.151 C 
BRANCH  14  15
ATOM     15  C   UNL     1      28.565   2.532  19.381  1.00  0.00    -0.025 A 
ATOM     16  C   UNL     1      27.848   1.330  19.482  1.00  0.00     0.056 A 
ATOM     17  C   UNL     1      28.937   3.210  20.550  1.00  0.00     0.009 A 
ATOM     18  C   UNL     1      27.481   0.818  20.732  1.00  0.00     0.160 A 
ATOM     19  C   UNL     1      28.594   2.696  21.802  1.00  0.00     0.050 A 
ATOM     20  C   UNL     1      27.871   1.500  21.902  1.00  0.00     0.157 A 
BRANCH  18  21
ATOM     21  O   UNL     1      26.766  -0.387  20.767  1.00  0.00    -0.493 OA
ATOM     22  C   UNL     1      25.344  -0.463  20.833  1.00  0.00     0.278 C 
ENDBRANCH  18  21
BRANCH  20  23
ATOM     23  O   UNL     1      27.580   0.971  23.158  1.00  0.00    -0.504 OA
ATOM     24  H   UNL     1      28.255   0.421  23.677  1.00  0.00     0.293 HD
ENDBRANCH  20  23
ENDBRANCH  14  15
ENDBRANCH  12  14
ENDBRANCH   9  10
ENDBRANCH   1   9
TORSDOF 10
ENDMDL
MODEL 9
REMARK VINA RESULT:    -5.847      3.796      6.252
REMARK INTER + INTRA:         -10.481
REMARK INTER:                  -8.492
REMARK INTRA:                  -1.989
REMARK UNBOUND:                -1.386
REMARK SMILES COc1cc(CNC(=O)CCCCC=CC(C)C)ccc1O
REMARK SMILES IDX 11 1 12 2 13 3 14 4 15 5 16 6 17 7 18 8 10 9 8 10 9 11 7 12
REMARK SMILES IDX 6 14 5 15 4 16 19 17 3 18 20 19 21 20 2 21 1 22 22 23
REMARK H PARENT 7 13 22 24
REMARK Flexibility Score: inf
ROOT
ATOM      1  C   UNL     1      32.171   3.004  18.425  1.00  0.00     0.010 C 
ENDROOT
BRANCH   1   2
ATOM      2  C   UNL     1      32.184   1.721  17.565  1.00  0.00     0.005 C 
BRANCH   2   3
ATOM      3  C   UNL     1      30.896   1.488  16.758  1.00  0.00     0.027 C 
BRANCH   3   4
ATOM      4  C   UNL     1      29.818   0.813  17.566  1.00  0.00    -0.031 C 
ATOM      5  C   UNL     1      30.076  -0.268  18.323  1.00  0.00    -0.028 C 
BRANCH   5   6
ATOM      6  C   UNL     1      29.017  -0.963  19.147  1.00  0.00     0.005 C 
ATOM      7  C   UNL     1      29.309  -0.850  20.649  1.00  0.00     0.012 C 
ATOM      8  C   UNL     1      28.852  -2.427  18.724  1.00  0.00     0.012 C 
ENDBRANCH   5   6
ENDBRANCH   3   4
ENDBRANCH   2   3
ENDBRANCH   1   2
BRANCH   1   9
ATOM      9  C   UNL     1      31.725   2.784  19.877  1.00  0.00     0.100 C 
BRANCH   9  10
ATOM     10  C   UNL     1      30.321   3.267  20.109  1.00  0.00     0.220 C 
ATOM     11  O   UNL     1      29.820   4.111  19.316  1.00  0.00    -0.275 OA
ATOM     12  N   UNL     1      29.574   2.801  21.241  1.00  0.00    -0.352 N 
ATOM     13  H   UNL     1      29.991   2.062  21.854  1.00  0.00     0.163 HD
BRANCH  12  14
ATOM     14  C   UNL     1      28.199   3.216  21.509  1.00  0.00     0.151 C 
BRANCH  14  15
ATOM     15  C   UNL     1      27.244   2.132  21.095  1.00  0.00    -0.025 A 
ATOM     16  C   UNL     1      26.672   1.290  22.061  1.00  0.00     0.056 A 
ATOM     17  C   UNL     1      26.888   1.972  19.748  1.00  0.00     0.009 A 
ATOM     18  C   UNL     1      25.774   0.280  21.692  1.00  0.00     0.160 A 
ATOM     19  C   UNL     1      25.977   0.983  19.373  1.00  0.00     0.050 A 
ATOM     20  C   UNL     1      25.413   0.137  20.338  1.00  0.00     0.157 A 
BRANCH  18  21
ATOM     21  O   UNL     1      25.238  -0.527  22.704  1.00  0.00    -0.493 OA
ATOM     22  C   UNL     1      24.673  -0.016  23.909  1.00  0.00     0.278 C 
ENDBRANCH  18  21
BRANCH  20  23
ATOM     23  O   UNL     1      24.466  -0.812  19.956  1.00  0.00    -0.504 OA
ATOM     24  H   UNL     1      24.723  -1.768  19.740  1.00  0.00     0.293 HD
ENDBRANCH  20  23
ENDBRANCH  14  15
ENDBRANCH  12  14
ENDBRANCH   9  10
ENDBRANCH   1   9
TORSDOF 10
ENDMDL
