MODEL 1
REMARK VINA RESULT:    -4.494      0.000      0.000
REMARK INTER + INTRA:          -4.884
REMARK INTER:                  -4.756
REMARK INTRA:                  -0.127
REMARK UNBOUND:                -0.127
REMARK SMILES C=C(C)[C@H]1CC=C(C)CC1
REMARK SMILES IDX 8 1 7 2 6 3 5 4 4 5 10 6 9 7 2 8 1 9 3 10
REMARK H PARENT
REMARK Flexibility Score: inf
ROOT
ATOM      1  C   UNL     1       7.316  18.752   4.313  1.00  0.00     0.039 C 
ATOM      2  C   UNL     1       6.765  19.142   2.970  1.00  0.00    -0.077 C 
ATOM      3  C   UNL     1       5.852  20.134   2.899  1.00  0.00    -0.027 C 
ATOM      4  C   UNL     1       5.202  20.562   1.606  1.00  0.00     0.035 C 
ATOM      5  C   UNL     1       6.044  20.179   0.376  1.00  0.00     0.018 C 
ATOM      6  C   UNL     1       6.479  18.710   0.479  1.00  0.00     0.013 C 
ATOM      7  C   UNL     1       7.350  18.503   1.725  1.00  0.00     0.031 C 
ENDROOT
BRANCH   5   8
ATOM      8  C   UNL     1       5.289  20.450  -0.918  1.00  0.00    -0.077 C 
ATOM      9  C   UNL     1       4.437  19.534  -1.405  1.00  0.00     0.008 C 
ATOM     10  C   UNL     1       5.480  21.735  -1.686  1.00  0.00     0.039 C 
ENDBRANCH   5   8
TORSDOF 1
ENDMDL
MODEL 2
REMARK VINA RESULT:    -4.256     14.712     15.998
REMARK INTER + INTRA:          -4.632
REMARK INTER:                  -4.512
REMARK INTRA:                  -0.120
REMARK UNBOUND:                -0.127
REMARK SMILES C=C(C)[C@H]1CC=C(C)CC1
REMARK SMILES IDX 8 1 7 2 6 3 5 4 4 5 10 6 9 7 2 8 1 9 3 10
REMARK H PARENT
REMARK Flexibility Score: inf
ROOT
ATOM      1  C   UNL     1      -6.126  16.413   1.111  1.00  0.00     0.039 C 
ATOM      2  C   UNL     1      -7.472  16.781   1.669  1.00  0.00    -0.077 C 
ATOM      3  C   UNL     1      -7.534  17.452   2.840  1.00  0.00    -0.027 C 
ATOM      4  C   UNL     1      -8.837  17.820   3.508  1.00  0.00     0.035 C 
ATOM      5  C   UNL     1     -10.009  17.865   2.512  1.00  0.00     0.018 C 
ATOM      6  C   UNL     1     -10.009  16.595   1.649  1.00  0.00     0.013 C 
ATOM      7  C   UNL     1      -8.710  16.508   0.837  1.00  0.00     0.031 C 
ENDROOT
BRANCH   5   8
ATOM      8  C   UNL     1     -11.338  18.054   3.230  1.00  0.00    -0.077 C 
ATOM      9  C   UNL     1     -11.844  19.287   3.397  1.00  0.00     0.008 C 
ATOM     10  C   UNL     1     -12.112  16.879   3.776  1.00  0.00     0.039 C 
ENDBRANCH   5   8
TORSDOF 1
ENDMDL
MODEL 3
REMARK VINA RESULT:    -4.137     12.899     14.434
REMARK INTER + INTRA:          -4.506
REMARK INTER:                  -4.377
REMARK INTRA:                  -0.129
REMARK UNBOUND:                -0.127
REMARK SMILES C=C(C)[C@H]1CC=C(C)CC1
REMARK SMILES IDX 8 1 7 2 6 3 5 4 4 5 10 6 9 7 2 8 1 9 3 10
REMARK H PARENT
REMARK Flexibility Score: inf
ROOT
ATOM      1  C   UNL     1      -6.133  14.673  -1.046  1.00  0.00     0.039 C 
ATOM      2  C   UNL     1      -6.718  15.570   0.009  1.00  0.00    -0.077 C 
ATOM      3  C   UNL     1      -8.047  15.810   0.000  1.00  0.00    -0.027 C 
ATOM      4  C   UNL     1      -8.721  16.736   0.983  1.00  0.00     0.035 C 
ATOM      5  C   UNL     1      -7.897  16.920   2.269  1.00  0.00     0.018 C 
ATOM      6  C   UNL     1      -6.436  17.234   1.912  1.00  0.00     0.013 C 
ATOM      7  C   UNL     1      -5.822  16.068   1.126  1.00  0.00     0.031 C 
ENDROOT
BRANCH   5   8
ATOM      8  C   UNL     1      -8.498  17.995   3.164  1.00  0.00    -0.077 C 
ATOM      9  C   UNL     1      -7.696  18.846   3.825  1.00  0.00     0.008 C 
ATOM     10  C   UNL     1      -9.991  18.130   3.338  1.00  0.00     0.039 C 
ENDBRANCH   5   8
TORSDOF 1
ENDMDL
MODEL 4
REMARK VINA RESULT:    -4.082     12.870     14.301
REMARK INTER + INTRA:          -4.448
REMARK INTER:                  -4.318
REMARK INTRA:                  -0.130
REMARK UNBOUND:                -0.127
REMARK SMILES C=C(C)[C@H]1CC=C(C)CC1
REMARK SMILES IDX 8 1 7 2 6 3 5 4 4 5 10 6 9 7 2 8 1 9 3 10
REMARK H PARENT
REMARK Flexibility Score: inf
ROOT
ATOM      1  C   UNL     1      -8.386  15.262   0.173  1.00  0.00     0.039 C 
ATOM      2  C   UNL     1      -8.019  16.290   1.206  1.00  0.00    -0.077 C 
ATOM      3  C   UNL     1      -8.986  16.789   2.006  1.00  0.00    -0.027 C 
ATOM      4  C   UNL     1      -8.727  17.861   3.036  1.00  0.00     0.035 C 
ATOM      5  C   UNL     1      -7.249  17.919   3.459  1.00  0.00     0.018 C 
ATOM      6  C   UNL     1      -6.351  17.925   2.214  1.00  0.00     0.013 C 
ATOM      7  C   UNL     1      -6.557  16.636   1.408  1.00  0.00     0.031 C 
ENDROOT
BRANCH   5   8
ATOM      8  C   UNL     1      -6.975  19.120   4.353  1.00  0.00    -0.077 C 
ATOM      9  C   UNL     1      -7.493  20.321   4.045  1.00  0.00     0.008 C 
ATOM     10  C   UNL     1      -6.118  19.003   5.589  1.00  0.00     0.039 C 
ENDBRANCH   5   8
TORSDOF 1
ENDMDL
MODEL 5
REMARK VINA RESULT:    -4.020     12.885     15.086
REMARK INTER + INTRA:          -4.382
REMARK INTER:                  -4.256
REMARK INTRA:                  -0.126
REMARK UNBOUND:                -0.127
REMARK SMILES C=C(C)[C@H]1CC=C(C)CC1
REMARK SMILES IDX 8 1 7 2 6 3 5 4 4 5 10 6 9 7 2 8 1 9 3 10
REMARK H PARENT
REMARK Flexibility Score: inf
ROOT
ATOM      1  C   UNL     1      -8.452  15.162  -5.097  1.00  0.00     0.039 C 
ATOM      2  C   UNL     1      -8.112  15.432  -3.657  1.00  0.00    -0.077 C 
ATOM      3  C   UNL     1      -8.834  16.348  -2.975  1.00  0.00    -0.027 C 
ATOM      4  C   UNL     1      -8.537  16.727  -1.545  1.00  0.00     0.035 C 
ATOM      5  C   UNL     1      -7.751  15.632  -0.802  1.00  0.00     0.018 C 
ATOM      6  C   UNL     1      -6.561  15.173  -1.658  1.00  0.00     0.013 C 
ATOM      7  C   UNL     1      -7.061  14.576  -2.980  1.00  0.00     0.031 C 
ENDROOT
BRANCH   5   8
ATOM      8  C   UNL     1      -7.302  16.108   0.572  1.00  0.00    -0.077 C 
ATOM      9  C   UNL     1      -8.193  16.641   1.424  1.00  0.00     0.008 C 
ATOM     10  C   UNL     1      -5.862  16.004   1.010  1.00  0.00     0.039 C 
ENDBRANCH   5   8
TORSDOF 1
ENDMDL
MODEL 6
REMARK VINA RESULT:    -4.015     14.213     15.152
REMARK INTER + INTRA:          -4.377
REMARK INTER:                  -4.247
REMARK INTRA:                  -0.129
REMARK UNBOUND:                -0.127
REMARK SMILES C=C(C)[C@H]1CC=C(C)CC1
REMARK SMILES IDX 8 1 7 2 6 3 5 4 4 5 10 6 9 7 2 8 1 9 3 10
REMARK H PARENT
REMARK Flexibility Score: inf
ROOT
ATOM      1  C   UNL     1      -8.372  16.599   1.028  1.00  0.00     0.039 C 
ATOM      2  C   UNL     1      -8.188  16.260  -0.425  1.00  0.00    -0.077 C 
ATOM      3  C   UNL     1      -7.209  15.399  -0.778  1.00  0.00    -0.027 C 
ATOM      4  C   UNL     1      -6.911  15.037  -2.213  1.00  0.00     0.035 C 
ATOM      5  C   UNL     1      -8.118  15.277  -3.137  1.00  0.00     0.018 C 
ATOM      6  C   UNL     1      -8.699  16.676  -2.882  1.00  0.00     0.013 C 
ATOM      7  C   UNL     1      -9.190  16.789  -1.433  1.00  0.00     0.031 C 
ENDROOT
BRANCH   5   8
ATOM      8  C   UNL     1      -7.743  15.084  -4.599  1.00  0.00    -0.077 C 
ATOM      9  C   UNL     1      -8.476  15.663  -5.564  1.00  0.00     0.008 C 
ATOM     10  C   UNL     1      -6.558  14.241  -5.003  1.00  0.00     0.039 C 
ENDBRANCH   5   8
TORSDOF 1
ENDMDL
MODEL 7
REMARK VINA RESULT:    -4.006     13.083     14.711
REMARK INTER + INTRA:          -4.368
REMARK INTER:                  -4.247
REMARK INTRA:                  -0.121
REMARK UNBOUND:                -0.127
REMARK SMILES C=C(C)[C@H]1CC=C(C)CC1
REMARK SMILES IDX 8 1 7 2 6 3 5 4 4 5 10 6 9 7 2 8 1 9 3 10
REMARK H PARENT
REMARK Flexibility Score: inf
ROOT
ATOM      1  C   UNL     1      -9.159  16.219  -0.655  1.00  0.00     0.039 C 
ATOM      2  C   UNL     1      -8.558  16.596   0.671  1.00  0.00    -0.077 C 
ATOM      3  C   UNL     1      -7.217  16.539   0.822  1.00  0.00    -0.027 C 
ATOM      4  C   UNL     1      -6.524  16.845   2.127  1.00  0.00     0.035 C 
ATOM      5  C   UNL     1      -7.383  17.728   3.050  1.00  0.00     0.018 C 
ATOM      6  C   UNL     1      -8.806  17.158   3.139  1.00  0.00     0.013 C 
ATOM      7  C   UNL     1      -9.462  17.154   1.752  1.00  0.00     0.031 C 
ENDROOT
BRANCH   5   8
ATOM      8  C   UNL     1      -6.749  17.871   4.427  1.00  0.00    -0.077 C 
ATOM      9  C   UNL     1      -6.522  19.092   4.939  1.00  0.00     0.008 C 
ATOM     10  C   UNL     1      -6.354  16.664   5.241  1.00  0.00     0.039 C 
ENDBRANCH   5   8
TORSDOF 1
ENDMDL
MODEL 8
REMARK VINA RESULT:    -3.998      0.815      4.530
REMARK INTER + INTRA:          -4.359
REMARK INTER:                  -4.229
REMARK INTRA:                  -0.130
REMARK UNBOUND:                -0.127
REMARK SMILES C=C(C)[C@H]1CC=C(C)CC1
REMARK SMILES IDX 8 1 7 2 6 3 5 4 4 5 10 6 9 7 2 8 1 9 3 10
REMARK H PARENT
REMARK Flexibility Score: inf
ROOT
ATOM      1  C   UNL     1       4.746  19.970  -1.035  1.00  0.00     0.039 C 
ATOM      2  C   UNL     1       5.498  19.836   0.259  1.00  0.00    -0.077 C 
ATOM      3  C   UNL     1       5.077  20.534   1.336  1.00  0.00    -0.027 C 
ATOM      4  C   UNL     1       5.795  20.509   2.663  1.00  0.00     0.035 C 
ATOM      5  C   UNL     1       6.662  19.249   2.833  1.00  0.00     0.018 C 
ATOM      6  C   UNL     1       7.520  19.034   1.577  1.00  0.00     0.013 C 
ATOM      7  C   UNL     1       6.621  18.822   0.352  1.00  0.00     0.031 C 
ENDROOT
BRANCH   5   8
ATOM      8  C   UNL     1       7.517  19.329   4.089  1.00  0.00    -0.077 C 
ATOM      9  C   UNL     1       8.125  20.481   4.417  1.00  0.00     0.008 C 
ATOM     10  C   UNL     1       7.714  18.132   4.986  1.00  0.00     0.039 C 
ENDBRANCH   5   8
TORSDOF 1
ENDMDL
MODEL 9
REMARK VINA RESULT:    -3.970     12.720     14.140
REMARK INTER + INTRA:          -4.330
REMARK INTER:                  -4.209
REMARK INTRA:                  -0.121
REMARK UNBOUND:                -0.127
REMARK SMILES C=C(C)[C@H]1CC=C(C)CC1
REMARK SMILES IDX 8 1 7 2 6 3 5 4 4 5 10 6 9 7 2 8 1 9 3 10
REMARK H PARENT
REMARK Flexibility Score: inf
ROOT
ATOM      1  C   UNL     1      -7.415  14.940  -2.352  1.00  0.00     0.039 C 
ATOM      2  C   UNL     1      -7.252  15.491  -0.963  1.00  0.00    -0.077 C 
ATOM      3  C   UNL     1      -6.104  15.248  -0.293  1.00  0.00    -0.027 C 
ATOM      4  C   UNL     1      -5.867  15.712   1.124  1.00  0.00     0.035 C 
ATOM      5  C   UNL     1      -6.764  16.902   1.505  1.00  0.00     0.018 C 
ATOM      6  C   UNL     1      -8.218  16.607   1.109  1.00  0.00     0.013 C 
ATOM      7  C   UNL     1      -8.322  16.411  -0.409  1.00  0.00     0.031 C 
ENDROOT
BRANCH   5   8
ATOM      8  C   UNL     1      -6.644  17.234   2.986  1.00  0.00    -0.077 C 
ATOM      9  C   UNL     1      -6.418  18.499   3.377  1.00  0.00     0.008 C 
ATOM     10  C   UNL     1      -6.764  16.165   4.045  1.00  0.00     0.039 C 
ENDBRANCH   5   8
TORSDOF 1
ENDMDL
