MODEL 1
REMARK VINA RESULT:    -4.869      0.000      0.000
REMARK INTER + INTRA:          -5.011
REMARK INTER:                  -5.011
REMARK INTRA:                   0.000
REMARK UNBOUND:                 0.000
REMARK SMILES Nc1ncnc2nc[nH]c12
REMARK SMILES IDX 8 1 7 2 6 3 5 4 4 5 3 6 2 7 10 8 9 9 1 11
REMARK H PARENT 9 10 1 12 1 13
REMARK Flexibility Score: inf
ROOT
ATOM      1  C   UNL     1     120.363 119.989 142.122  1.00  0.00     0.199 A 
ATOM      2  N   UNL     1     120.232 118.635 142.175  1.00  0.00    -0.217 NA
ATOM      3  C   UNL     1     119.225 118.480 143.050  1.00  0.00     0.182 A 
ATOM      4  N   UNL     1     118.689 117.308 143.465  1.00  0.00    -0.215 NA
ATOM      5  C   UNL     1     117.662 117.351 144.366  1.00  0.00     0.226 A 
ATOM      6  N   UNL     1     117.193 118.553 144.830  1.00  0.00    -0.217 NA
ATOM      7  C   UNL     1     117.733 119.738 144.412  1.00  0.00     0.152 A 
ATOM      8  C   UNL     1     118.778 119.677 143.494  1.00  0.00     0.127 A 
ATOM      9  N   UNL     1     119.488 120.653 142.916  1.00  0.00    -0.340 N 
ATOM     10  H   UNL     1     119.399 121.686 143.041  1.00  0.00     0.168 HD
ENDROOT
BRANCH   7  11
ATOM     11  N   UNL     1     117.228 120.978 144.909  1.00  0.00    -0.382 N 
ATOM     12  H   UNL     1     117.164 121.823 144.299  1.00  0.00     0.158 HD
ATOM     13  H   UNL     1     116.912 121.053 145.901  1.00  0.00     0.158 HD
ENDBRANCH   7  11
TORSDOF 1
ENDMDL
MODEL 2
REMARK VINA RESULT:    -4.861      1.112      2.981
REMARK INTER + INTRA:          -5.003
REMARK INTER:                  -5.003
REMARK INTRA:                   0.000
REMARK UNBOUND:                 0.000
REMARK SMILES Nc1ncnc2nc[nH]c12
REMARK SMILES IDX 8 1 7 2 6 3 5 4 4 5 3 6 2 7 10 8 9 9 1 11
REMARK H PARENT 9 10 1 12 1 13
REMARK Flexibility Score: inf
ROOT
ATOM      1  C   UNL     1     116.771 117.876 145.387  1.00  0.00     0.199 A 
ATOM      2  N   UNL     1     117.413 116.997 144.569  1.00  0.00    -0.217 NA
ATOM      3  C   UNL     1     118.174 117.810 143.818  1.00  0.00     0.182 A 
ATOM      4  N   UNL     1     119.022 117.438 142.831  1.00  0.00    -0.215 NA
ATOM      5  C   UNL     1     119.717 118.415 142.174  1.00  0.00     0.226 A 
ATOM      6  N   UNL     1     119.552 119.735 142.513  1.00  0.00    -0.217 NA
ATOM      7  C   UNL     1     118.696 120.112 143.509  1.00  0.00     0.152 A 
ATOM      8  C   UNL     1     117.997 119.105 144.169  1.00  0.00     0.127 A 
ATOM      9  N   UNL     1     117.107 119.171 145.167  1.00  0.00    -0.340 N 
ATOM     10  H   UNL     1     116.747 120.015 145.665  1.00  0.00     0.168 HD
ENDROOT
BRANCH   7  11
ATOM     11  N   UNL     1     118.540 121.491 143.845  1.00  0.00    -0.382 N 
ATOM     12  H   UNL     1     118.431 122.222 143.107  1.00  0.00     0.158 HD
ATOM     13  H   UNL     1     118.533 121.788 144.846  1.00  0.00     0.158 HD
ENDBRANCH   7  11
TORSDOF 1
ENDMDL
MODEL 3
REMARK VINA RESULT:    -4.800      1.687      2.993
REMARK INTER + INTRA:          -4.941
REMARK INTER:                  -4.941
REMARK INTRA:                   0.000
REMARK UNBOUND:                 0.000
REMARK SMILES Nc1ncnc2nc[nH]c12
REMARK SMILES IDX 8 1 7 2 6 3 5 4 4 5 3 6 2 7 10 8 9 9 1 11
REMARK H PARENT 9 10 1 12 1 13
REMARK Flexibility Score: inf
ROOT
ATOM      1  C   UNL     1     118.074 120.524 144.761  1.00  0.00     0.199 A 
ATOM      2  N   UNL     1     119.018 119.801 145.425  1.00  0.00    -0.217 NA
ATOM      3  C   UNL     1     119.339 118.858 144.525  1.00  0.00     0.182 A 
ATOM      4  N   UNL     1     120.247 117.866 144.685  1.00  0.00    -0.215 NA
ATOM      5  C   UNL     1     120.440 116.995 143.649  1.00  0.00     0.226 A 
ATOM      6  N   UNL     1     119.729 117.130 142.484  1.00  0.00    -0.217 NA
ATOM      7  C   UNL     1     118.812 118.130 142.321  1.00  0.00     0.152 A 
ATOM      8  C   UNL     1     118.628 119.009 143.385  1.00  0.00     0.127 A 
ATOM      9  N   UNL     1     117.815 120.065 143.512  1.00  0.00    -0.340 N 
ATOM     10  H   UNL     1     117.136 120.453 142.820  1.00  0.00     0.168 HD
ENDROOT
BRANCH   7  11
ATOM     11  N   UNL     1     118.084 118.252 141.099  1.00  0.00    -0.382 N 
ATOM     12  H   UNL     1     117.130 117.840 140.991  1.00  0.00     0.158 HD
ATOM     13  H   UNL     1     118.502 118.761 140.289  1.00  0.00     0.158 HD
ENDBRANCH   7  11
TORSDOF 1
ENDMDL
MODEL 4
REMARK VINA RESULT:    -4.789      1.770      2.091
REMARK INTER + INTRA:          -4.929
REMARK INTER:                  -4.929
REMARK INTRA:                   0.000
REMARK UNBOUND:                 0.000
REMARK SMILES Nc1ncnc2nc[nH]c12
REMARK SMILES IDX 8 1 7 2 6 3 5 4 4 5 3 6 2 7 10 8 9 9 1 11
REMARK H PARENT 9 10 1 12 1 13
REMARK Flexibility Score: inf
ROOT
ATOM      1  C   UNL     1     122.298 119.400 144.187  1.00  0.00     0.199 A 
ATOM      2  N   UNL     1     121.936 118.255 143.546  1.00  0.00    -0.217 NA
ATOM      3  C   UNL     1     120.665 118.513 143.197  1.00  0.00     0.182 A 
ATOM      4  N   UNL     1     119.829 117.688 142.524  1.00  0.00    -0.215 NA
ATOM      5  C   UNL     1     118.563 118.129 142.257  1.00  0.00     0.226 A 
ATOM      6  N   UNL     1     118.160 119.376 142.663  1.00  0.00    -0.217 NA
ATOM      7  C   UNL     1     119.003 120.211 143.342  1.00  0.00     0.152 A 
ATOM      8  C   UNL     1     120.289 119.747 143.606  1.00  0.00     0.127 A 
ATOM      9  N   UNL     1     121.313 120.331 144.239  1.00  0.00    -0.340 N 
ATOM     10  H   UNL     1     121.356 121.278 144.676  1.00  0.00     0.168 HD
ENDROOT
BRANCH   7  11
ATOM     11  N   UNL     1     118.562 121.505 143.755  1.00  0.00    -0.382 N 
ATOM     12  H   UNL     1     117.979 122.105 143.130  1.00  0.00     0.158 HD
ATOM     13  H   UNL     1     118.821 121.869 144.698  1.00  0.00     0.158 HD
ENDBRANCH   7  11
TORSDOF 1
ENDMDL
MODEL 5
REMARK VINA RESULT:    -4.783      1.598      4.159
REMARK INTER + INTRA:          -4.923
REMARK INTER:                  -4.923
REMARK INTRA:                   0.000
REMARK UNBOUND:                 0.000
REMARK SMILES Nc1ncnc2nc[nH]c12
REMARK SMILES IDX 8 1 7 2 6 3 5 4 4 5 3 6 2 7 10 8 9 9 1 11
REMARK H PARENT 9 10 1 12 1 13
REMARK Flexibility Score: inf
ROOT
ATOM      1  C   UNL     1     117.381 116.176 145.438  1.00  0.00     0.199 A 
ATOM      2  N   UNL     1     116.956 117.445 145.189  1.00  0.00    -0.217 NA
ATOM      3  C   UNL     1     117.813 117.852 144.239  1.00  0.00     0.182 A 
ATOM      4  N   UNL     1     117.830 119.062 143.632  1.00  0.00    -0.215 NA
ATOM      5  C   UNL     1     118.785 119.294 142.681  1.00  0.00     0.226 A 
ATOM      6  N   UNL     1     119.697 118.321 142.358  1.00  0.00    -0.217 NA
ATOM      7  C   UNL     1     119.681 117.099 142.970  1.00  0.00     0.152 A 
ATOM      8  C   UNL     1     118.702 116.878 143.935  1.00  0.00     0.127 A 
ATOM      9  N   UNL     1     118.446 115.800 144.687  1.00  0.00    -0.340 N 
ATOM     10  H   UNL     1     118.943 114.882 144.701  1.00  0.00     0.168 HD
ENDROOT
BRANCH   7  11
ATOM     11  N   UNL     1     120.640 116.101 142.618  1.00  0.00    -0.382 N 
ATOM     12  H   UNL     1     120.904 115.928 141.622  1.00  0.00     0.158 HD
ATOM     13  H   UNL     1     121.093 115.526 143.361  1.00  0.00     0.158 HD
ENDBRANCH   7  11
TORSDOF 1
ENDMDL
MODEL 6
REMARK VINA RESULT:    -4.764      2.316      2.459
REMARK INTER + INTRA:          -4.904
REMARK INTER:                  -4.904
REMARK INTRA:                   0.000
REMARK UNBOUND:                 0.000
REMARK SMILES Nc1ncnc2nc[nH]c12
REMARK SMILES IDX 8 1 7 2 6 3 5 4 4 5 3 6 2 7 10 8 9 9 1 11
REMARK H PARENT 9 10 1 12 1 13
REMARK Flexibility Score: inf
ROOT
ATOM      1  C   UNL     1     121.876 120.274 144.261  1.00  0.00     0.199 A 
ATOM      2  N   UNL     1     121.341 119.190 144.887  1.00  0.00    -0.217 NA
ATOM      3  C   UNL     1     120.091 119.603 145.152  1.00  0.00     0.182 A 
ATOM      4  N   UNL     1     119.122 118.892 145.777  1.00  0.00    -0.215 NA
ATOM      5  C   UNL     1     117.903 119.484 145.958  1.00  0.00     0.226 A 
ATOM      6  N   UNL     1     117.676 120.763 145.515  1.00  0.00    -0.217 NA
ATOM      7  C   UNL     1     118.654 121.481 144.884  1.00  0.00     0.152 A 
ATOM      8  C   UNL     1     119.889 120.864 144.708  1.00  0.00     0.127 A 
ATOM      9  N   UNL     1     121.013 121.313 144.135  1.00  0.00    -0.340 N 
ATOM     10  H   UNL     1     121.195 122.241 143.695  1.00  0.00     0.168 HD
ENDROOT
BRANCH   7  11
ATOM     11  N   UNL     1     118.395 122.810 144.431  1.00  0.00    -0.382 N 
ATOM     12  H   UNL     1     117.647 123.396 144.863  1.00  0.00     0.158 HD
ATOM     13  H   UNL     1     118.961 123.217 143.654  1.00  0.00     0.158 HD
ENDBRANCH   7  11
TORSDOF 1
ENDMDL
MODEL 7
REMARK VINA RESULT:    -4.731      2.877      4.158
REMARK INTER + INTRA:          -4.870
REMARK INTER:                  -4.870
REMARK INTRA:                   0.000
REMARK UNBOUND:                 0.000
REMARK SMILES Nc1ncnc2nc[nH]c12
REMARK SMILES IDX 8 1 7 2 6 3 5 4 4 5 3 6 2 7 10 8 9 9 1 11
REMARK H PARENT 9 10 1 12 1 13
REMARK Flexibility Score: inf
ROOT
ATOM      1  C   UNL     1     121.086 116.433 146.125  1.00  0.00     0.199 A 
ATOM      2  N   UNL     1     120.675 117.725 146.010  1.00  0.00    -0.217 NA
ATOM      3  C   UNL     1     119.368 117.586 145.734  1.00  0.00     0.182 A 
ATOM      4  N   UNL     1     118.476 118.583 145.524  1.00  0.00    -0.215 NA
ATOM      5  C   UNL     1     117.179 118.243 145.255  1.00  0.00     0.226 A 
ATOM      6  N   UNL     1     116.801 116.925 145.202  1.00  0.00    -0.217 NA
ATOM      7  C   UNL     1     117.701 115.917 145.414  1.00  0.00     0.152 A 
ATOM      8  C   UNL     1     119.016 116.280 145.687  1.00  0.00     0.127 A 
ATOM      9  N   UNL     1     120.095 115.526 145.933  1.00  0.00    -0.340 N 
ATOM     10  H   UNL     1     120.169 114.485 145.970  1.00  0.00     0.168 HD
ENDROOT
BRANCH   7  11
ATOM     11  N   UNL     1     117.284 114.552 145.354  1.00  0.00    -0.382 N 
ATOM     12  H   UNL     1     117.456 113.968 144.506  1.00  0.00     0.158 HD
ATOM     13  H   UNL     1     116.798 114.118 146.169  1.00  0.00     0.158 HD
ENDBRANCH   7  11
TORSDOF 1
ENDMDL
MODEL 8
REMARK VINA RESULT:    -4.678      1.868      2.959
REMARK INTER + INTRA:          -4.814
REMARK INTER:                  -4.814
REMARK INTRA:                   0.000
REMARK UNBOUND:                 0.000
REMARK SMILES Nc1ncnc2nc[nH]c12
REMARK SMILES IDX 8 1 7 2 6 3 5 4 4 5 3 6 2 7 10 8 9 9 1 11
REMARK H PARENT 9 10 1 12 1 13
REMARK Flexibility Score: inf
ROOT
ATOM      1  C   UNL     1     118.125 118.960 142.388  1.00  0.00     0.199 A 
ATOM      2  N   UNL     1     119.113 118.028 142.309  1.00  0.00    -0.217 NA
ATOM      3  C   UNL     1     120.122 118.626 142.962  1.00  0.00     0.182 A 
ATOM      4  N   UNL     1     121.359 118.119 143.177  1.00  0.00    -0.215 NA
ATOM      5  C   UNL     1     122.259 118.881 143.868  1.00  0.00     0.226 A 
ATOM      6  N   UNL     1     121.909 120.125 144.329  1.00  0.00    -0.217 NA
ATOM      7  C   UNL     1     120.661 120.638 144.114  1.00  0.00     0.152 A 
ATOM      8  C   UNL     1     119.756 119.850 143.409  1.00  0.00     0.127 A 
ATOM      9  N   UNL     1     118.487 120.084 143.054  1.00  0.00    -0.340 N 
ATOM     10  H   UNL     1     117.903 120.929 143.240  1.00  0.00     0.168 HD
ENDROOT
BRANCH   7  11
ATOM     11  N   UNL     1     120.318 121.935 144.604  1.00  0.00    -0.382 N 
ATOM     12  H   UNL     1     120.932 122.762 144.430  1.00  0.00     0.158 HD
ATOM     13  H   UNL     1     119.438 122.073 145.148  1.00  0.00     0.158 HD
ENDBRANCH   7  11
TORSDOF 1
ENDMDL
MODEL 9
REMARK VINA RESULT:    -4.666      2.233      3.494
REMARK INTER + INTRA:          -4.803
REMARK INTER:                  -4.803
REMARK INTRA:                   0.000
REMARK UNBOUND:                 0.000
REMARK SMILES Nc1ncnc2nc[nH]c12
REMARK SMILES IDX 8 1 7 2 6 3 5 4 4 5 3 6 2 7 10 8 9 9 1 11
REMARK H PARENT 9 10 1 12 1 13
REMARK Flexibility Score: inf
ROOT
ATOM      1  C   UNL     1     118.640 118.114 141.977  1.00  0.00     0.199 A 
ATOM      2  N   UNL     1     118.316 119.030 142.932  1.00  0.00    -0.217 NA
ATOM      3  C   UNL     1     119.074 118.640 143.969  1.00  0.00     0.182 A 
ATOM      4  N   UNL     1     119.133 119.223 145.190  1.00  0.00    -0.215 NA
ATOM      5  C   UNL     1     119.970 118.680 146.125  1.00  0.00     0.226 A 
ATOM      6  N   UNL     1     120.726 117.576 145.825  1.00  0.00    -0.217 NA
ATOM      7  C   UNL     1     120.669 116.986 144.593  1.00  0.00     0.152 A 
ATOM      8  C   UNL     1     119.812 117.551 143.652  1.00  0.00     0.127 A 
ATOM      9  N   UNL     1     119.552 117.198 142.388  1.00  0.00    -0.340 N 
ATOM     10  H   UNL     1     119.949 116.405 141.836  1.00  0.00     0.168 HD
ENDROOT
BRANCH   7  11
ATOM     11  N   UNL     1     121.466 115.837 144.303  1.00  0.00    -0.382 N 
ATOM     12  H   UNL     1     121.094 115.048 143.729  1.00  0.00     0.158 HD
ATOM     13  H   UNL     1     122.442 115.773 144.666  1.00  0.00     0.158 HD
ENDBRANCH   7  11
TORSDOF 1
ENDMDL
