MODEL 1
REMARK VINA RESULT:    -3.977      0.000      0.000
REMARK INTER + INTRA:          -6.225
REMARK INTER:                  -5.373
REMARK INTRA:                  -0.853
REMARK UNBOUND:                -0.853
REMARK SMILES CC(=O)CCC=C(C)CCC=C(C)C
REMARK SMILES IDX 7 1 6 2 8 3 9 4 10 5 11 6 13 7 12 8 14 9 5 10 4 11 2 12 3 13
REMARK SMILES IDX 1 14
REMARK H PARENT
REMARK Flexibility Score: inf
ROOT
ATOM      1  C   UNL     1     165.680 202.716 301.947  1.00  0.00    -0.077 C 
ATOM      2  C   UNL     1     166.182 202.271 303.121  1.00  0.00    -0.028 C 
ATOM      3  C   UNL     1     164.209 203.012 301.769  1.00  0.00     0.039 C 
ENDROOT
BRANCH   1   4
ATOM      4  C   UNL     1     166.621 202.949 300.786  1.00  0.00     0.034 C 
BRANCH   4   5
ATOM      5  C   UNL     1     166.435 201.874 299.710  1.00  0.00     0.032 C 
BRANCH   5   6
ATOM      6  C   UNL     1     167.587 200.900 299.721  1.00  0.00    -0.028 C 
ATOM      7  C   UNL     1     166.457 199.338 301.320  1.00  0.00     0.039 C 
ATOM      8  C   UNL     1     167.623 199.772 300.466  1.00  0.00    -0.080 C 
ATOM      9  C   UNL     1     168.839 198.883 300.422  1.00  0.00     0.039 C 
ENDBRANCH   5   6
ENDBRANCH   4   5
ENDBRANCH   1   4
BRANCH   2  10
ATOM     10  C   UNL     1     165.355 201.966 304.347  1.00  0.00     0.035 C 
BRANCH  10  11
ATOM     11  C   UNL     1     164.998 200.477 304.449  1.00  0.00     0.079 C 
BRANCH  11  12
ATOM     12  C   UNL     1     165.953 199.730 305.344  1.00  0.00     0.130 C 
ATOM     13  O   UNL     1     166.920 199.161 304.860  1.00  0.00    -0.300 OA
ATOM     14  C   UNL     1     165.705 199.650 306.819  1.00  0.00     0.087 C 
ENDBRANCH  11  12
ENDBRANCH  10  11
ENDBRANCH   2  10
TORSDOF 6
ENDMDL
MODEL 2
REMARK VINA RESULT:    -3.963      2.179      5.898
REMARK INTER + INTRA:          -6.206
REMARK INTER:                  -5.443
REMARK INTRA:                  -0.763
REMARK UNBOUND:                -0.853
REMARK SMILES CC(=O)CCC=C(C)CCC=C(C)C
REMARK SMILES IDX 7 1 6 2 8 3 9 4 10 5 11 6 13 7 12 8 14 9 5 10 4 11 2 12 3 13
REMARK SMILES IDX 1 14
REMARK H PARENT
REMARK Flexibility Score: inf
ROOT
ATOM      1  C   UNL     1     165.967 200.030 303.200  1.00  0.00    -0.077 C 
ATOM      2  C   UNL     1     166.121 201.372 303.282  1.00  0.00    -0.028 C 
ATOM      3  C   UNL     1     165.121 199.389 302.125  1.00  0.00     0.039 C 
ENDROOT
BRANCH   1   4
ATOM      4  C   UNL     1     166.684 199.146 304.196  1.00  0.00     0.034 C 
BRANCH   4   5
ATOM      5  C   UNL     1     166.496 199.671 305.624  1.00  0.00     0.032 C 
BRANCH   5   6
ATOM      6  C   UNL     1     165.767 198.660 306.474  1.00  0.00    -0.028 C 
ATOM      7  C   UNL     1     164.583 200.411 307.819  1.00  0.00     0.039 C 
ATOM      8  C   UNL     1     164.929 198.980 307.486  1.00  0.00    -0.080 C 
ATOM      9  C   UNL     1     164.274 197.888 308.291  1.00  0.00     0.039 C 
ENDBRANCH   5   6
ENDBRANCH   4   5
ENDBRANCH   1   4
BRANCH   2  10
ATOM     10  C   UNL     1     165.440 202.370 302.377  1.00  0.00     0.035 C 
BRANCH  10  11
ATOM     11  C   UNL     1     166.393 202.931 301.313  1.00  0.00     0.079 C 
BRANCH  11  12
ATOM     12  C   UNL     1     166.327 202.145 300.029  1.00  0.00     0.130 C 
ATOM     13  O   UNL     1     165.371 202.281 299.281  1.00  0.00    -0.300 OA
ATOM     14  C   UNL     1     167.410 201.170 299.681  1.00  0.00     0.087 C 
ENDBRANCH  11  12
ENDBRANCH  10  11
ENDBRANCH   2  10
TORSDOF 6
ENDMDL
MODEL 3
REMARK VINA RESULT:    -3.922      2.639      5.939
REMARK INTER + INTRA:          -6.150
REMARK INTER:                  -5.252
REMARK INTRA:                  -0.898
REMARK UNBOUND:                -0.853
REMARK SMILES CC(=O)CCC=C(C)CCC=C(C)C
REMARK SMILES IDX 7 1 6 2 8 3 9 4 10 5 11 6 13 7 12 8 14 9 5 10 4 11 2 12 3 13
REMARK SMILES IDX 1 14
REMARK H PARENT
REMARK Flexibility Score: inf
ROOT
ATOM      1  C   UNL     1     165.247 202.305 304.145  1.00  0.00    -0.077 C 
ATOM      2  C   UNL     1     165.371 201.048 304.630  1.00  0.00    -0.028 C 
ATOM      3  C   UNL     1     166.299 202.924 303.255  1.00  0.00     0.039 C 
ENDROOT
BRANCH   1   4
ATOM      4  C   UNL     1     164.007 203.103 304.481  1.00  0.00     0.034 C 
BRANCH   4   5
ATOM      5  C   UNL     1     162.979 202.230 305.211  1.00  0.00     0.032 C 
BRANCH   5   6
ATOM      6  C   UNL     1     162.544 202.880 306.500  1.00  0.00    -0.028 C 
ATOM      7  C   UNL     1     163.738 201.207 307.931  1.00  0.00     0.039 C 
ATOM      8  C   UNL     1     162.851 202.411 307.731  1.00  0.00    -0.080 C 
ATOM      9  C   UNL     1     162.338 203.125 308.955  1.00  0.00     0.039 C 
ENDBRANCH   5   6
ENDBRANCH   4   5
ENDBRANCH   1   4
BRANCH   2  10
ATOM     10  C   UNL     1     166.567 200.155 304.400  1.00  0.00     0.035 C 
BRANCH  10  11
ATOM     11  C   UNL     1     166.230 198.955 303.506  1.00  0.00     0.079 C 
BRANCH  11  12
ATOM     12  C   UNL     1     165.957 199.373 302.084  1.00  0.00     0.130 C 
ATOM     13  O   UNL     1     164.806 199.546 301.712  1.00  0.00    -0.300 OA
ATOM     14  C   UNL     1     167.085 199.544 301.113  1.00  0.00     0.087 C 
ENDBRANCH  11  12
ENDBRANCH  10  11
ENDBRANCH   2  10
TORSDOF 6
ENDMDL
MODEL 4
REMARK VINA RESULT:    -3.902      1.596      3.269
REMARK INTER + INTRA:          -6.123
REMARK INTER:                  -5.209
REMARK INTRA:                  -0.914
REMARK UNBOUND:                -0.853
REMARK SMILES CC(=O)CCC=C(C)CCC=C(C)C
REMARK SMILES IDX 7 1 6 2 8 3 9 4 10 5 11 6 13 7 12 8 14 9 5 10 4 11 2 12 3 13
REMARK SMILES IDX 1 14
REMARK H PARENT
REMARK Flexibility Score: inf
ROOT
ATOM      1  C   UNL     1     166.094 200.753 302.220  1.00  0.00    -0.077 C 
ATOM      2  C   UNL     1     165.977 201.321 303.442  1.00  0.00    -0.028 C 
ATOM      3  C   UNL     1     165.551 199.375 301.926  1.00  0.00     0.039 C 
ENDROOT
BRANCH   1   4
ATOM      4  C   UNL     1     166.763 201.532 301.109  1.00  0.00     0.034 C 
BRANCH   4   5
ATOM      5  C   UNL     1     165.932 202.762 300.728  1.00  0.00     0.032 C 
BRANCH   5   6
ATOM      6  C   UNL     1     164.758 202.369 299.865  1.00  0.00    -0.028 C 
ATOM      7  C   UNL     1     163.079 202.820 301.668  1.00  0.00     0.039 C 
ATOM      8  C   UNL     1     163.473 202.360 300.286  1.00  0.00    -0.080 C 
ATOM      9  C   UNL     1     162.380 201.921 299.347  1.00  0.00     0.039 C 
ENDBRANCH   5   6
ENDBRANCH   4   5
ENDBRANCH   1   4
BRANCH   2  10
ATOM     10  C   UNL     1     165.362 200.647 304.645  1.00  0.00     0.035 C 
BRANCH  10  11
ATOM     11  C   UNL     1     166.370 199.764 305.392  1.00  0.00     0.079 C 
BRANCH  11  12
ATOM     12  C   UNL     1     165.830 199.293 306.718  1.00  0.00     0.130 C 
ATOM     13  O   UNL     1     166.107 198.174 307.124  1.00  0.00    -0.300 OA
ATOM     14  C   UNL     1     164.924 200.173 307.524  1.00  0.00     0.087 C 
ENDBRANCH  11  12
ENDBRANCH  10  11
ENDBRANCH   2  10
TORSDOF 6
ENDMDL
MODEL 5
REMARK VINA RESULT:    -3.806      2.064      4.621
REMARK INTER + INTRA:          -5.993
REMARK INTER:                  -5.110
REMARK INTRA:                  -0.884
REMARK UNBOUND:                -0.853
REMARK SMILES CC(=O)CCC=C(C)CCC=C(C)C
REMARK SMILES IDX 7 1 6 2 8 3 9 4 10 5 11 6 13 7 12 8 14 9 5 10 4 11 2 12 3 13
REMARK SMILES IDX 1 14
REMARK H PARENT
REMARK Flexibility Score: inf
ROOT
ATOM      1  C   UNL     1     165.233 200.699 302.206  1.00  0.00    -0.077 C 
ATOM      2  C   UNL     1     165.045 200.234 303.463  1.00  0.00    -0.028 C 
ATOM      3  C   UNL     1     166.414 200.273 301.366  1.00  0.00     0.039 C 
ENDROOT
BRANCH   1   4
ATOM      4  C   UNL     1     164.218 201.653 301.617  1.00  0.00     0.034 C 
BRANCH   4   5
ATOM      5  C   UNL     1     164.019 202.868 302.530  1.00  0.00     0.032 C 
BRANCH   5   6
ATOM      6  C   UNL     1     162.580 202.976 302.972  1.00  0.00    -0.028 C 
ATOM      7  C   UNL     1     163.138 202.685 305.397  1.00  0.00     0.039 C 
ATOM      8  C   UNL     1     162.168 202.863 304.255  1.00  0.00    -0.080 C 
ATOM      9  C   UNL     1     160.700 202.959 304.581  1.00  0.00     0.039 C 
ENDBRANCH   5   6
ENDBRANCH   4   5
ENDBRANCH   1   4
BRANCH   2  10
ATOM     10  C   UNL     1     165.993 199.305 304.183  1.00  0.00     0.035 C 
BRANCH  10  11
ATOM     11  C   UNL     1     166.531 199.921 305.482  1.00  0.00     0.079 C 
BRANCH  11  12
ATOM     12  C   UNL     1     165.837 199.361 306.698  1.00  0.00     0.130 C 
ATOM     13  O   UNL     1     166.004 198.191 307.008  1.00  0.00    -0.300 OA
ATOM     14  C   UNL     1     164.914 200.220 307.507  1.00  0.00     0.087 C 
ENDBRANCH  11  12
ENDBRANCH  10  11
ENDBRANCH   2  10
TORSDOF 6
ENDMDL
MODEL 6
REMARK VINA RESULT:    -3.730      1.354      2.326
REMARK INTER + INTRA:          -5.890
REMARK INTER:                  -5.057
REMARK INTRA:                  -0.833
REMARK UNBOUND:                -0.853
REMARK SMILES CC(=O)CCC=C(C)CCC=C(C)C
REMARK SMILES IDX 7 1 6 2 8 3 9 4 10 5 11 6 13 7 12 8 14 9 5 10 4 11 2 12 3 13
REMARK SMILES IDX 1 14
REMARK H PARENT
REMARK Flexibility Score: inf
ROOT
ATOM      1  C   UNL     1     164.931 201.999 303.448  1.00  0.00    -0.077 C 
ATOM      2  C   UNL     1     165.558 200.803 303.356  1.00  0.00    -0.028 C 
ATOM      3  C   UNL     1     163.957 202.305 304.561  1.00  0.00     0.039 C 
ENDROOT
BRANCH   1   4
ATOM      4  C   UNL     1     165.234 203.068 302.422  1.00  0.00     0.034 C 
BRANCH   4   5
ATOM      5  C   UNL     1     165.033 202.531 301.001  1.00  0.00     0.032 C 
BRANCH   5   6
ATOM      6  C   UNL     1     166.178 202.939 300.107  1.00  0.00    -0.028 C 
ATOM      7  C   UNL     1     167.249 200.676 300.178  1.00  0.00     0.039 C 
ATOM      8  C   UNL     1     167.198 202.124 299.756  1.00  0.00    -0.080 C 
ATOM      9  C   UNL     1     168.307 202.645 298.879  1.00  0.00     0.039 C 
ENDBRANCH   5   6
ENDBRANCH   4   5
ENDBRANCH   1   4
BRANCH   2  10
ATOM     10  C   UNL     1     165.325 199.640 304.290  1.00  0.00     0.035 C 
BRANCH  10  11
ATOM     11  C   UNL     1     166.431 199.516 305.347  1.00  0.00     0.079 C 
BRANCH  11  12
ATOM     12  C   UNL     1     165.875 199.160 306.702  1.00  0.00     0.130 C 
ATOM     13  O   UNL     1     166.118 198.066 307.190  1.00  0.00    -0.300 OA
ATOM     14  C   UNL     1     164.995 200.123 307.439  1.00  0.00     0.087 C 
ENDBRANCH  11  12
ENDBRANCH  10  11
ENDBRANCH   2  10
TORSDOF 6
ENDMDL
MODEL 7
REMARK VINA RESULT:    -3.673      2.027      4.511
REMARK INTER + INTRA:          -5.814
REMARK INTER:                  -4.807
REMARK INTRA:                  -1.007
REMARK UNBOUND:                -0.853
REMARK SMILES CC(=O)CCC=C(C)CCC=C(C)C
REMARK SMILES IDX 7 1 6 2 8 3 9 4 10 5 11 6 13 7 12 8 14 9 5 10 4 11 2 12 3 13
REMARK SMILES IDX 1 14
REMARK H PARENT
REMARK Flexibility Score: inf
ROOT
ATOM      1  C   UNL     1     165.427 202.881 302.200  1.00  0.00    -0.077 C 
ATOM      2  C   UNL     1     166.709 202.676 301.821  1.00  0.00    -0.028 C 
ATOM      3  C   UNL     1     164.287 202.854 301.209  1.00  0.00     0.039 C 
ENDROOT
BRANCH   1   4
ATOM      4  C   UNL     1     165.123 203.119 303.663  1.00  0.00     0.034 C 
BRANCH   4   5
ATOM      5  C   UNL     1     164.367 201.928 304.262  1.00  0.00     0.032 C 
BRANCH   5   6
ATOM      6  C   UNL     1     165.322 200.965 304.923  1.00  0.00    -0.028 C 
ATOM      7  C   UNL     1     165.288 199.363 302.998  1.00  0.00     0.039 C 
ATOM      8  C   UNL     1     165.719 199.792 304.379  1.00  0.00    -0.080 C 
ATOM      9  C   UNL     1     166.656 198.891 305.141  1.00  0.00     0.039 C 
ENDBRANCH   5   6
ENDBRANCH   4   5
ENDBRANCH   1   4
BRANCH   2  10
ATOM     10  C   UNL     1     167.156 202.459 300.395  1.00  0.00     0.035 C 
BRANCH  10  11
ATOM     11  C   UNL     1     166.829 201.047 299.893  1.00  0.00     0.079 C 
BRANCH  11  12
ATOM     12  C   UNL     1     168.064 200.191 299.777  1.00  0.00     0.130 C 
ATOM     13  O   UNL     1     168.863 200.397 298.875  1.00  0.00    -0.300 OA
ATOM     14  C   UNL     1     168.302 199.066 300.737  1.00  0.00     0.087 C 
ENDBRANCH  11  12
ENDBRANCH  10  11
ENDBRANCH   2  10
TORSDOF 6
ENDMDL
MODEL 8
REMARK VINA RESULT:    -3.665      1.510      3.628
REMARK INTER + INTRA:          -5.804
REMARK INTER:                  -5.037
REMARK INTRA:                  -0.766
REMARK UNBOUND:                -0.853
REMARK SMILES CC(=O)CCC=C(C)CCC=C(C)C
REMARK SMILES IDX 7 1 6 2 8 3 9 4 10 5 11 6 13 7 12 8 14 9 5 10 4 11 2 12 3 13
REMARK SMILES IDX 1 14
REMARK H PARENT
REMARK Flexibility Score: inf
ROOT
ATOM      1  C   UNL     1     167.463 200.029 300.462  1.00  0.00    -0.077 C 
ATOM      2  C   UNL     1     166.556 200.002 301.465  1.00  0.00    -0.028 C 
ATOM      3  C   UNL     1     168.562 198.998 300.352  1.00  0.00     0.039 C 
ENDROOT
BRANCH   1   4
ATOM      4  C   UNL     1     167.359 201.107 299.406  1.00  0.00     0.034 C 
BRANCH   4   5
ATOM      5  C   UNL     1     166.548 202.300 299.924  1.00  0.00     0.032 C 
BRANCH   5   6
ATOM      6  C   UNL     1     165.251 202.437 299.166  1.00  0.00    -0.028 C 
ATOM      7  C   UNL     1     163.841 202.246 301.227  1.00  0.00     0.039 C 
ATOM      8  C   UNL     1     164.026 202.382 299.736  1.00  0.00    -0.080 C 
ATOM      9  C   UNL     1     162.794 202.501 298.877  1.00  0.00     0.039 C 
ENDBRANCH   5   6
ENDBRANCH   4   5
ENDBRANCH   1   4
BRANCH   2  10
ATOM     10  C   UNL     1     166.562 199.006 302.600  1.00  0.00     0.035 C 
BRANCH  10  11
ATOM     11  C   UNL     1     165.304 199.113 303.471  1.00  0.00     0.079 C 
BRANCH  11  12
ATOM     12  C   UNL     1     165.529 199.986 304.678  1.00  0.00     0.130 C 
ATOM     13  O   UNL     1     165.262 201.177 304.625  1.00  0.00    -0.300 OA
ATOM     14  C   UNL     1     166.113 199.411 305.933  1.00  0.00     0.087 C 
ENDBRANCH  11  12
ENDBRANCH  10  11
ENDBRANCH   2  10
TORSDOF 6
ENDMDL
MODEL 9
REMARK VINA RESULT:    -1.849      1.853      2.559
REMARK INTER + INTRA:          -3.350
REMARK INTER:                  -2.668
REMARK INTRA:                  -0.682
REMARK UNBOUND:                -0.853
REMARK SMILES CC(=O)CCC=C(C)CCC=C(C)C
REMARK SMILES IDX 7 1 6 2 8 3 9 4 10 5 11 6 13 7 12 8 14 9 5 10 4 11 2 12 3 13
REMARK SMILES IDX 1 14
REMARK H PARENT
REMARK Flexibility Score: inf
ROOT
ATOM      1  C   UNL     1     165.296 200.827 303.573  1.00  0.00    -0.077 C 
ATOM      2  C   UNL     1     166.172 200.024 304.219  1.00  0.00    -0.028 C 
ATOM      3  C   UNL     1     164.452 201.841 304.309  1.00  0.00     0.039 C 
ENDROOT
BRANCH   1   4
ATOM      4  C   UNL     1     165.177 200.725 302.069  1.00  0.00     0.034 C 
BRANCH   4   5
ATOM      5  C   UNL     1     166.135 199.662 301.519  1.00  0.00     0.032 C 
BRANCH   5   6
ATOM      6  C   UNL     1     166.941 200.211 300.368  1.00  0.00    -0.028 C 
ATOM      7  C   UNL     1     168.845 198.626 300.739  1.00  0.00     0.039 C 
ATOM      8  C   UNL     1     168.175 199.776 300.027  1.00  0.00    -0.080 C 
ATOM      9  C   UNL     1     168.904 200.417 298.875  1.00  0.00     0.039 C 
ENDBRANCH   5   6
ENDBRANCH   4   5
ENDBRANCH   1   4
BRANCH   2  10
ATOM     10  C   UNL     1     166.369 199.998 305.716  1.00  0.00     0.035 C 
BRANCH  10  11
ATOM     11  C   UNL     1     165.917 198.669 306.337  1.00  0.00     0.079 C 
BRANCH  11  12
ATOM     12  C   UNL     1     164.915 198.878 307.443  1.00  0.00     0.130 C 
ATOM     13  O   UNL     1     164.340 197.917 307.931  1.00  0.00    -0.300 OA
ATOM     14  C   UNL     1     164.592 200.260 307.924  1.00  0.00     0.087 C 
ENDBRANCH  11  12
ENDBRANCH  10  11
ENDBRANCH   2  10
TORSDOF 6
ENDMDL
