MODEL 1
REMARK VINA RESULT:    -3.360      0.000      0.000
REMARK INTER + INTRA:          -4.020
REMARK INTER:                  -3.950
REMARK INTRA:                  -0.071
REMARK UNBOUND:                -0.071
REMARK SMILES CCCCC(=O)[O-]
REMARK SMILES IDX 4 1 5 2 6 3 7 4 3 5 2 6 1 7
REMARK H PARENT
REMARK Flexibility Score: inf
ROOT
ATOM      1  C   UNL     1      37.819  20.951   7.006  1.00  0.00     0.053 C 
ENDROOT
BRANCH   1   2
ATOM      2  C   UNL     1      37.685  19.601   7.640  1.00  0.00     0.041 C 
ATOM      3  O   UNL     1      36.689  19.337   8.363  1.00  0.00    -0.550 OA
ATOM      4  O   UNL     1      38.676  18.646   7.457  1.00  0.00    -0.550 OA
ENDBRANCH   1   2
BRANCH   1   5
ATOM      5  C   UNL     1      37.815  20.870   5.472  1.00  0.00     0.006 C 
BRANCH   5   6
ATOM      6  C   UNL     1      36.702  19.981   4.891  1.00  0.00    -0.003 C 
ATOM      7  C   UNL     1      36.255  20.422   3.498  1.00  0.00     0.004 C 
ENDBRANCH   5   6
ENDBRANCH   1   5
TORSDOF 3
ENDMDL
MODEL 2
REMARK VINA RESULT:    -3.355      1.194      1.412
REMARK INTER + INTRA:          -4.014
REMARK INTER:                  -3.951
REMARK INTRA:                  -0.063
REMARK UNBOUND:                -0.071
REMARK SMILES CCCCC(=O)[O-]
REMARK SMILES IDX 4 1 5 2 6 3 7 4 3 5 2 6 1 7
REMARK H PARENT
REMARK Flexibility Score: inf
ROOT
ATOM      1  C   UNL     1      38.476  19.609   6.334  1.00  0.00     0.053 C 
ENDROOT
BRANCH   1   2
ATOM      2  C   UNL     1      37.618  20.167   7.427  1.00  0.00     0.041 C 
ATOM      3  O   UNL     1      36.966  19.394   8.177  1.00  0.00    -0.550 OA
ATOM      4  O   UNL     1      37.514  21.541   7.596  1.00  0.00    -0.550 OA
ENDBRANCH   1   2
BRANCH   1   5
ATOM      5  C   UNL     1      38.059  20.132   4.950  1.00  0.00     0.006 C 
BRANCH   5   6
ATOM      6  C   UNL     1      36.552  20.015   4.661  1.00  0.00    -0.003 C 
ATOM      7  C   UNL     1      36.167  20.562   3.287  1.00  0.00     0.004 C 
ENDBRANCH   5   6
ENDBRANCH   1   5
TORSDOF 3
ENDMDL
MODEL 3
REMARK VINA RESULT:    -3.339      0.103      1.225
REMARK INTER + INTRA:          -3.995
REMARK INTER:                  -3.916
REMARK INTRA:                  -0.079
REMARK UNBOUND:                -0.071
REMARK SMILES CCCCC(=O)[O-]
REMARK SMILES IDX 4 1 5 2 6 3 7 4 3 5 2 6 1 7
REMARK H PARENT
REMARK Flexibility Score: inf
ROOT
ATOM      1  C   UNL     1      37.809  20.915   6.955  1.00  0.00     0.053 C 
ENDROOT
BRANCH   1   2
ATOM      2  C   UNL     1      37.784  19.572   7.616  1.00  0.00     0.041 C 
ATOM      3  O   UNL     1      38.732  18.762   7.441  1.00  0.00    -0.550 OA
ATOM      4  O   UNL     1      36.699  19.203   8.400  1.00  0.00    -0.550 OA
ENDBRANCH   1   2
BRANCH   1   5
ATOM      5  C   UNL     1      37.783  20.803   5.422  1.00  0.00     0.006 C 
BRANCH   5   6
ATOM      6  C   UNL     1      36.624  19.953   4.873  1.00  0.00    -0.003 C 
ATOM      7  C   UNL     1      36.182  20.383   3.474  1.00  0.00     0.004 C 
ENDBRANCH   5   6
ENDBRANCH   1   5
TORSDOF 3
ENDMDL
MODEL 4
REMARK VINA RESULT:    -3.273      1.515      1.960
REMARK INTER + INTRA:          -3.918
REMARK INTER:                  -3.868
REMARK INTRA:                  -0.050
REMARK UNBOUND:                -0.071
REMARK SMILES CCCCC(=O)[O-]
REMARK SMILES IDX 4 1 5 2 6 3 7 4 3 5 2 6 1 7
REMARK H PARENT
REMARK Flexibility Score: inf
ROOT
ATOM      1  C   UNL     1      38.457  19.097   6.832  1.00  0.00     0.053 C 
ENDROOT
BRANCH   1   2
ATOM      2  C   UNL     1      37.492  19.859   7.687  1.00  0.00     0.041 C 
ATOM      3  O   UNL     1      36.670  19.244   8.416  1.00  0.00    -0.550 OA
ATOM      4  O   UNL     1      37.480  21.247   7.654  1.00  0.00    -0.550 OA
ENDBRANCH   1   2
BRANCH   1   5
ATOM      5  C   UNL     1      39.507  20.017   6.189  1.00  0.00     0.006 C 
BRANCH   5   6
ATOM      6  C   UNL     1      39.378  20.146   4.661  1.00  0.00    -0.003 C 
ATOM      7  C   UNL     1      37.932  20.323   4.199  1.00  0.00     0.004 C 
ENDBRANCH   5   6
ENDBRANCH   1   5
TORSDOF 3
ENDMDL
MODEL 5
REMARK VINA RESULT:    -3.269      1.038      1.870
REMARK INTER + INTRA:          -3.913
REMARK INTER:                  -3.836
REMARK INTRA:                  -0.077
REMARK UNBOUND:                -0.071
REMARK SMILES CCCCC(=O)[O-]
REMARK SMILES IDX 4 1 5 2 6 3 7 4 3 5 2 6 1 7
REMARK H PARENT
REMARK Flexibility Score: inf
ROOT
ATOM      1  C   UNL     1      37.699  20.491   6.518  1.00  0.00     0.053 C 
ENDROOT
BRANCH   1   2
ATOM      2  C   UNL     1      37.736  19.417   7.561  1.00  0.00     0.041 C 
ATOM      3  O   UNL     1      38.729  18.646   7.641  1.00  0.00    -0.550 OA
ATOM      4  O   UNL     1      36.661  19.248   8.423  1.00  0.00    -0.550 OA
ENDBRANCH   1   2
BRANCH   1   5
ATOM      5  C   UNL     1      37.021  20.014   5.224  1.00  0.00     0.006 C 
BRANCH   5   6
ATOM      6  C   UNL     1      37.802  20.353   3.942  1.00  0.00    -0.003 C 
ATOM      7  C   UNL     1      39.315  20.215   4.114  1.00  0.00     0.004 C 
ENDBRANCH   5   6
ENDBRANCH   1   5
TORSDOF 3
ENDMDL
MODEL 6
REMARK VINA RESULT:    -3.201      2.292      3.299
REMARK INTER + INTRA:          -3.833
REMARK INTER:                  -3.725
REMARK INTRA:                  -0.108
REMARK UNBOUND:                -0.071
REMARK SMILES CCCCC(=O)[O-]
REMARK SMILES IDX 4 1 5 2 6 3 7 4 3 5 2 6 1 7
REMARK H PARENT
REMARK Flexibility Score: inf
ROOT
ATOM      1  C   UNL     1      38.932  19.539   6.793  1.00  0.00     0.053 C 
ENDROOT
BRANCH   1   2
ATOM      2  C   UNL     1      37.750  20.083   7.534  1.00  0.00     0.041 C 
ATOM      3  O   UNL     1      36.948  19.300   8.109  1.00  0.00    -0.550 OA
ATOM      4  O   UNL     1      37.517  21.451   7.563  1.00  0.00    -0.550 OA
ENDBRANCH   1   2
BRANCH   1   5
ATOM      5  C   UNL     1      40.238  19.712   7.585  1.00  0.00     0.006 C 
BRANCH   5   6
ATOM      6  C   UNL     1      41.049  20.961   7.196  1.00  0.00    -0.003 C 
ATOM      7  C   UNL     1      40.749  21.445   5.777  1.00  0.00     0.004 C 
ENDBRANCH   5   6
ENDBRANCH   1   5
TORSDOF 3
ENDMDL
MODEL 7
REMARK VINA RESULT:    -3.170      2.267      2.868
REMARK INTER + INTRA:          -3.797
REMARK INTER:                  -3.674
REMARK INTRA:                  -0.124
REMARK UNBOUND:                -0.071
REMARK SMILES CCCCC(=O)[O-]
REMARK SMILES IDX 4 1 5 2 6 3 7 4 3 5 2 6 1 7
REMARK H PARENT
REMARK Flexibility Score: inf
ROOT
ATOM      1  C   UNL     1      38.353  21.924   7.205  1.00  0.00     0.053 C 
ENDROOT
BRANCH   1   2
ATOM      2  C   UNL     1      39.781  21.751   6.789  1.00  0.00     0.041 C 
ATOM      3  O   UNL     1      40.175  22.198   5.680  1.00  0.00    -0.550 OA
ATOM      4  O   UNL     1      40.667  21.070   7.613  1.00  0.00    -0.550 OA
ENDBRANCH   1   2
BRANCH   1   5
ATOM      5  C   UNL     1      37.630  20.576   7.358  1.00  0.00     0.006 C 
BRANCH   5   6
ATOM      6  C   UNL     1      37.763  19.649   6.136  1.00  0.00    -0.003 C 
ATOM      7  C   UNL     1      36.853  20.058   4.978  1.00  0.00     0.004 C 
ENDBRANCH   5   6
ENDBRANCH   1   5
TORSDOF 3
ENDMDL
MODEL 8
REMARK VINA RESULT:    -3.118      2.481      3.232
REMARK INTER + INTRA:          -3.735
REMARK INTER:                  -3.740
REMARK INTRA:                   0.005
REMARK UNBOUND:                -0.071
REMARK SMILES CCCCC(=O)[O-]
REMARK SMILES IDX 4 1 5 2 6 3 7 4 3 5 2 6 1 7
REMARK H PARENT
REMARK Flexibility Score: inf
ROOT
ATOM      1  C   UNL     1      38.001  20.877   6.030  1.00  0.00     0.053 C 
ENDROOT
BRANCH   1   2
ATOM      2  C   UNL     1      38.571  21.954   6.900  1.00  0.00     0.041 C 
ATOM      3  O   UNL     1      37.816  22.628   7.649  1.00  0.00    -0.550 OA
ATOM      4  O   UNL     1      39.930  22.233   6.861  1.00  0.00    -0.550 OA
ENDBRANCH   1   2
BRANCH   1   5
ATOM      5  C   UNL     1      38.707  19.529   6.243  1.00  0.00     0.006 C 
BRANCH   5   6
ATOM      6  C   UNL     1      38.390  18.860   7.593  1.00  0.00    -0.003 C 
ATOM      7  C   UNL     1      36.985  19.182   8.100  1.00  0.00     0.004 C 
ENDBRANCH   5   6
ENDBRANCH   1   5
TORSDOF 3
ENDMDL
MODEL 9
REMARK VINA RESULT:    -3.100      2.563      3.738
REMARK INTER + INTRA:          -3.714
REMARK INTER:                  -3.633
REMARK INTRA:                  -0.082
REMARK UNBOUND:                -0.071
REMARK SMILES CCCCC(=O)[O-]
REMARK SMILES IDX 4 1 5 2 6 3 7 4 3 5 2 6 1 7
REMARK H PARENT
REMARK Flexibility Score: inf
ROOT
ATOM      1  C   UNL     1      37.247  19.919   5.419  1.00  0.00     0.053 C 
ENDROOT
BRANCH   1   2
ATOM      2  C   UNL     1      38.281  20.696   4.666  1.00  0.00     0.041 C 
ATOM      3  O   UNL     1      38.268  21.955   4.687  1.00  0.00    -0.550 OA
ATOM      4  O   UNL     1      39.240  20.030   3.914  1.00  0.00    -0.550 OA
ENDBRANCH   1   2
BRANCH   1   5
ATOM      5  C   UNL     1      37.580  19.817   6.916  1.00  0.00     0.006 C 
BRANCH   5   6
ATOM      6  C   UNL     1      38.760  18.882   7.236  1.00  0.00    -0.003 C 
ATOM      7  C   UNL     1      40.041  19.639   7.583  1.00  0.00     0.004 C 
ENDBRANCH   5   6
ENDBRANCH   1   5
TORSDOF 3
ENDMDL
