MODEL 1
REMARK VINA RESULT:     4.112      0.000      0.000
REMARK INTER + INTRA:           4.121
REMARK INTER:                   4.352
REMARK INTRA:                  -0.231
REMARK UNBOUND:                -0.231
REMARK SMILES CC1=CC[C@]23[C@@H]([C@@H](C(C)C)CC[C@H]2C)[C@@H]13
REMARK SMILES IDX 14 1 13 2 12 3 11 4 7 5 6 6 5 7 15 8 2 9 3 10 4 11 1 12 8 13
REMARK SMILES IDX 9 14 10 15
REMARK H PARENT
REMARK Flexibility Score: inf
ROOT
ATOM      1  C   UNL     1     -13.363  -2.737  15.730  1.00  0.00     0.008 C 
ATOM      2  C   UNL     1     -14.624  -3.158  16.504  1.00  0.00    -0.007 C 
ATOM      3  C   UNL     1     -15.948  -2.707  15.806  1.00  0.00     0.004 C 
ATOM      4  C   UNL     1     -16.384  -1.239  16.100  1.00  0.00     0.004 C 
ATOM      5  C   UNL     1     -16.179  -0.808  17.585  1.00  0.00    -0.004 C 
ATOM      6  C   UNL     1     -14.720  -1.151  17.908  1.00  0.00     0.007 C 
ATOM      7  C   UNL     1     -14.667  -2.724  17.988  1.00  0.00    -0.013 C 
ATOM      8  C   UNL     1     -13.926  -1.830  18.978  1.00  0.00     0.025 C 
ATOM      9  C   UNL     1     -14.620  -2.012  20.281  1.00  0.00    -0.073 C 
ATOM     10  C   UNL     1     -15.561  -2.939  20.228  1.00  0.00    -0.027 C 
ATOM     11  C   UNL     1     -15.662  -3.531  18.867  1.00  0.00     0.035 C 
ATOM     12  C   UNL     1     -14.283  -1.242  21.520  1.00  0.00     0.039 C 
ENDROOT
BRANCH   5  13
ATOM     13  C   UNL     1     -16.479   0.696  17.864  1.00  0.00    -0.014 C 
ATOM     14  C   UNL     1     -17.930   1.053  17.508  1.00  0.00     0.007 C 
ATOM     15  C   UNL     1     -15.517   1.684  17.182  1.00  0.00     0.007 C 
ENDBRANCH   5  13
TORSDOF 1
ENDMDL
MODEL 2
REMARK VINA RESULT:     5.034      1.058      3.965
REMARK INTER + INTRA:           5.098
REMARK INTER:                   5.348
REMARK INTRA:                  -0.250
REMARK UNBOUND:                -0.231
REMARK SMILES CC1=CC[C@]23[C@@H]([C@@H](C(C)C)CC[C@H]2C)[C@@H]13
REMARK SMILES IDX 14 1 13 2 12 3 11 4 7 5 6 6 5 7 15 8 2 9 3 10 4 11 1 12 8 13
REMARK SMILES IDX 9 14 10 15
REMARK H PARENT
REMARK Flexibility Score: inf
ROOT
ATOM      1  C   UNL     1     -15.114  -4.280  16.050  1.00  0.00     0.008 C 
ATOM      2  C   UNL     1     -14.427  -2.908  16.158  1.00  0.00    -0.007 C 
ATOM      3  C   UNL     1     -13.121  -2.945  17.016  1.00  0.00     0.004 C 
ATOM      4  C   UNL     1     -13.338  -2.842  18.557  1.00  0.00     0.004 C 
ATOM      5  C   UNL     1     -14.433  -1.809  18.969  1.00  0.00    -0.004 C 
ATOM      6  C   UNL     1     -15.669  -2.179  18.141  1.00  0.00     0.007 C 
ATOM      7  C   UNL     1     -15.326  -1.755  16.663  1.00  0.00    -0.013 C 
ATOM      8  C   UNL     1     -16.698  -1.514  17.284  1.00  0.00     0.025 C 
ATOM      9  C   UNL     1     -16.815  -0.039  17.440  1.00  0.00    -0.073 C 
ATOM     10  C   UNL     1     -15.790   0.608  16.914  1.00  0.00    -0.027 C 
ATOM     11  C   UNL     1     -14.802  -0.332  16.321  1.00  0.00     0.035 C 
ATOM     12  C   UNL     1     -17.971   0.639  18.107  1.00  0.00     0.039 C 
ENDROOT
BRANCH   5  13
ATOM     13  C   UNL     1     -14.759  -1.794  20.493  1.00  0.00    -0.014 C 
ATOM     14  C   UNL     1     -13.480  -1.687  21.339  1.00  0.00     0.007 C 
ATOM     15  C   UNL     1     -15.609  -2.979  20.983  1.00  0.00     0.007 C 
ENDBRANCH   5  13
TORSDOF 1
ENDMDL
MODEL 3
REMARK VINA RESULT:     5.828      1.248      3.983
REMARK INTER + INTRA:           5.938
REMARK INTER:                   6.257
REMARK INTRA:                  -0.318
REMARK UNBOUND:                -0.231
REMARK SMILES CC1=CC[C@]23[C@@H]([C@@H](C(C)C)CC[C@H]2C)[C@@H]13
REMARK SMILES IDX 14 1 13 2 12 3 11 4 7 5 6 6 5 7 15 8 2 9 3 10 4 11 1 12 8 13
REMARK SMILES IDX 9 14 10 15
REMARK H PARENT
REMARK Flexibility Score: inf
ROOT
ATOM      1  C   UNL     1     -15.842   0.730  16.846  1.00  0.00     0.008 C 
ATOM      2  C   UNL     1     -16.268  -0.748  16.791  1.00  0.00    -0.007 C 
ATOM      3  C   UNL     1     -17.141  -1.176  18.015  1.00  0.00     0.004 C 
ATOM      4  C   UNL     1     -16.340  -1.562  19.297  1.00  0.00     0.004 C 
ATOM      5  C   UNL     1     -15.057  -2.402  19.007  1.00  0.00    -0.004 C 
ATOM      6  C   UNL     1     -14.285  -1.607  17.947  1.00  0.00     0.007 C 
ATOM      7  C   UNL     1     -15.116  -1.764  16.617  1.00  0.00    -0.013 C 
ATOM      8  C   UNL     1     -13.592  -1.836  16.642  1.00  0.00     0.025 C 
ATOM      9  C   UNL     1     -13.251  -3.250  16.330  1.00  0.00    -0.073 C 
ATOM     10  C   UNL     1     -14.316  -3.971  16.024  1.00  0.00    -0.027 C 
ATOM     11  C   UNL     1     -15.559  -3.157  16.090  1.00  0.00     0.035 C 
ATOM     12  C   UNL     1     -11.857  -3.794  16.346  1.00  0.00     0.039 C 
ENDROOT
BRANCH   5  13
ATOM     13  C   UNL     1     -14.173  -2.676  20.261  1.00  0.00    -0.014 C 
ATOM     14  C   UNL     1     -15.010  -2.670  21.549  1.00  0.00     0.007 C 
ATOM     15  C   UNL     1     -12.966  -1.735  20.418  1.00  0.00     0.007 C 
ENDBRANCH   5  13
TORSDOF 1
ENDMDL
MODEL 4
REMARK VINA RESULT:     6.919      1.198      3.692
REMARK INTER + INTRA:           7.093
REMARK INTER:                   7.518
REMARK INTRA:                  -0.425
REMARK UNBOUND:                -0.231
REMARK SMILES CC1=CC[C@]23[C@@H]([C@@H](C(C)C)CC[C@H]2C)[C@@H]13
REMARK SMILES IDX 14 1 13 2 12 3 11 4 7 5 6 6 5 7 15 8 2 9 3 10 4 11 1 12 8 13
REMARK SMILES IDX 9 14 10 15
REMARK H PARENT
REMARK Flexibility Score: inf
ROOT
ATOM      1  C   UNL     1     -15.123  -2.584  20.876  1.00  0.00     0.008 C 
ATOM      2  C   UNL     1     -14.113  -2.132  19.807  1.00  0.00    -0.007 C 
ATOM      3  C   UNL     1     -14.058  -0.579  19.638  1.00  0.00     0.004 C 
ATOM      4  C   UNL     1     -15.155   0.025  18.708  1.00  0.00     0.004 C 
ATOM      5  C   UNL     1     -15.429  -0.823  17.427  1.00  0.00    -0.004 C 
ATOM      6  C   UNL     1     -15.687  -2.247  17.933  1.00  0.00     0.007 C 
ATOM      7  C   UNL     1     -14.286  -2.783  18.415  1.00  0.00    -0.013 C 
ATOM      8  C   UNL     1     -15.266  -3.650  17.631  1.00  0.00     0.025 C 
ATOM      9  C   UNL     1     -14.638  -3.865  16.301  1.00  0.00    -0.073 C 
ATOM     10  C   UNL     1     -13.418  -3.360  16.230  1.00  0.00    -0.027 C 
ATOM     11  C   UNL     1     -13.027  -2.708  17.508  1.00  0.00     0.035 C 
ATOM     12  C   UNL     1     -15.304  -4.586  15.170  1.00  0.00     0.039 C 
ENDROOT
BRANCH   5  13
ATOM     13  C   UNL     1     -16.616  -0.309  16.558  1.00  0.00    -0.014 C 
ATOM     14  C   UNL     1     -17.716   0.319  17.428  1.00  0.00     0.007 C 
ATOM     15  C   UNL     1     -17.232  -1.361  15.619  1.00  0.00     0.007 C 
ENDBRANCH   5  13
TORSDOF 1
ENDMDL
