MODEL 1
REMARK VINA RESULT:    -6.373      0.000      0.000
REMARK INTER + INTRA:          -8.218
REMARK INTER:                  -7.863
REMARK INTRA:                  -0.354
REMARK UNBOUND:                -0.354
REMARK SMILES O=c1c(O)c(-c2cc(O)c(O)c(O)c2)oc2cc(O)cc(O)c12
REMARK SMILES IDX 5 1 3 2 2 3 1 4 23 5 21 6 20 7 18 8 17 9 16 10 15 11 6 12
REMARK SMILES IDX 7 13 8 14 14 15 10 16 12 17 9 18 11 20 13 22 4 24 22 26
REMARK SMILES IDX 19 28
REMARK H PARENT 9 19 11 21 13 23 4 25 22 27 19 29
REMARK Flexibility Score: inf
ROOT
ATOM      1  C   UNL     1     138.733 134.913 146.939  1.00  0.00     0.180 A 
ATOM      2  C   UNL     1     139.112 135.106 145.600  1.00  0.00     0.208 A 
ATOM      3  C   UNL     1     139.250 136.416 145.114  1.00  0.00     0.238 A 
ATOM      4  O   UNL     1     139.642 136.584 143.930  1.00  0.00    -0.285 OA
ATOM      5  C   UNL     1     138.993 137.516 145.968  1.00  0.00     0.111 A 
ATOM      6  C   UNL     1     139.063 138.884 145.571  1.00  0.00     0.134 A 
ATOM      7  C   UNL     1     138.916 139.891 146.533  1.00  0.00     0.093 A 
ATOM      8  C   UNL     1     138.636 139.581 147.863  1.00  0.00     0.123 A 
ATOM      9  C   UNL     1     138.507 138.247 148.251  1.00  0.00     0.094 A 
ATOM     10  C   UNL     1     138.684 137.220 147.322  1.00  0.00     0.146 A 
ATOM     11  O   UNL     1     138.562 135.964 147.734  1.00  0.00    -0.452 OA
ENDROOT
BRANCH   1  12
ATOM     12  C   UNL     1     138.543 133.562 147.517  1.00  0.00     0.029 A 
ATOM     13  C   UNL     1     139.595 132.886 148.159  1.00  0.00     0.062 A 
ATOM     14  C   UNL     1     139.402 131.599 148.678  1.00  0.00     0.162 A 
ATOM     15  C   UNL     1     137.305 132.917 147.370  1.00  0.00     0.062 A 
ATOM     16  C   UNL     1     138.157 130.970 148.550  1.00  0.00     0.200 A 
ATOM     17  C   UNL     1     137.106 131.630 147.890  1.00  0.00     0.162 A 
BRANCH  14  18
ATOM     18  O   UNL     1     140.446 130.936 149.320  1.00  0.00    -0.504 OA
ATOM     19  H   UNL     1     140.694 129.982 149.083  1.00  0.00     0.293 HD
ENDBRANCH  14  18
BRANCH  16  20
ATOM     20  O   UNL     1     137.982 129.691 149.076  1.00  0.00    -0.502 OA
ATOM     21  H   UNL     1     137.064 129.298 149.247  1.00  0.00     0.293 HD
ENDBRANCH  16  20
BRANCH  17  22
ATOM     22  O   UNL     1     135.867 131.004 147.752  1.00  0.00    -0.504 OA
ATOM     23  H   UNL     1     135.729 130.238 147.104  1.00  0.00     0.293 HD
ENDBRANCH  17  22
ENDBRANCH   1  12
BRANCH   2  24
ATOM     24  O   UNL     1     139.382 134.007 144.780  1.00  0.00    -0.502 OA
ATOM     25  H   UNL     1     138.870 133.827 143.925  1.00  0.00     0.293 HD
ENDBRANCH   2  24
BRANCH   6  26
ATOM     26  O   UNL     1     139.247 139.305 144.250  1.00  0.00    -0.507 OA
ATOM     27  H   UNL     1     139.208 140.264 143.943  1.00  0.00     0.293 HD
ENDBRANCH   6  26
BRANCH   8  28
ATOM     28  O   UNL     1     138.481 140.609 148.791  1.00  0.00    -0.508 OA
ATOM     29  H   UNL     1     138.888 141.525 148.639  1.00  0.00     0.293 HD
ENDBRANCH   8  28
TORSDOF 7
ENDMDL
MODEL 2
REMARK VINA RESULT:    -6.368      0.107      1.751
REMARK INTER + INTRA:          -8.212
REMARK INTER:                  -7.851
REMARK INTRA:                  -0.361
REMARK UNBOUND:                -0.354
REMARK SMILES O=c1c(O)c(-c2cc(O)c(O)c(O)c2)oc2cc(O)cc(O)c12
REMARK SMILES IDX 5 1 3 2 2 3 1 4 23 5 21 6 20 7 18 8 17 9 16 10 15 11 6 12
REMARK SMILES IDX 7 13 8 14 14 15 10 16 12 17 9 18 11 20 13 22 4 24 22 26
REMARK SMILES IDX 19 28
REMARK H PARENT 9 19 11 21 13 23 4 25 22 27 19 29
REMARK Flexibility Score: inf
ROOT
ATOM      1  C   UNL     1     138.694 134.840 146.850  1.00  0.00     0.180 A 
ATOM      2  C   UNL     1     139.075 135.057 145.515  1.00  0.00     0.208 A 
ATOM      3  C   UNL     1     139.225 136.375 145.055  1.00  0.00     0.238 A 
ATOM      4  O   UNL     1     139.619 136.563 143.875  1.00  0.00    -0.285 OA
ATOM      5  C   UNL     1     138.979 137.460 145.932  1.00  0.00     0.111 A 
ATOM      6  C   UNL     1     139.062 138.835 145.562  1.00  0.00     0.134 A 
ATOM      7  C   UNL     1     138.925 139.824 146.544  1.00  0.00     0.093 A 
ATOM      8  C   UNL     1     138.643 139.490 147.868  1.00  0.00     0.123 A 
ATOM      9  C   UNL     1     138.500 138.149 148.229  1.00  0.00     0.094 A 
ATOM     10  C   UNL     1     138.668 137.139 147.279  1.00  0.00     0.146 A 
ATOM     11  O   UNL     1     138.533 135.876 147.666  1.00  0.00    -0.452 OA
ENDROOT
BRANCH   1  12
ATOM     12  C   UNL     1     138.490 133.480 147.401  1.00  0.00     0.029 A 
ATOM     13  C   UNL     1     137.268 132.804 147.245  1.00  0.00     0.062 A 
ATOM     14  C   UNL     1     137.087 131.527 147.793  1.00  0.00     0.162 A 
ATOM     15  C   UNL     1     139.516 132.875 148.143  1.00  0.00     0.062 A 
ATOM     16  C   UNL     1     138.123 130.919 148.513  1.00  0.00     0.200 A 
ATOM     17  C   UNL     1     139.341 131.597 148.692  1.00  0.00     0.162 A 
BRANCH  14  18
ATOM     18  O   UNL     1     135.876 130.857 147.631  1.00  0.00    -0.504 OA
ATOM     19  H   UNL     1     135.023 131.351 147.396  1.00  0.00     0.293 HD
ENDBRANCH  14  18
BRANCH  16  20
ATOM     20  O   UNL     1     137.927 129.647 149.048  1.00  0.00    -0.502 OA
ATOM     21  H   UNL     1     138.676 128.970 149.123  1.00  0.00     0.293 HD
ENDBRANCH  16  20
BRANCH  17  22
ATOM     22  O   UNL     1     140.372 131.000 149.416  1.00  0.00    -0.504 OA
ATOM     23  H   UNL     1     140.353 130.951 150.428  1.00  0.00     0.293 HD
ENDBRANCH  17  22
ENDBRANCH   1  12
BRANCH   2  24
ATOM     24  O   UNL     1     139.334 133.972 144.673  1.00  0.00    -0.502 OA
ATOM     25  H   UNL     1     139.580 133.055 145.027  1.00  0.00     0.293 HD
ENDBRANCH   2  24
BRANCH   6  26
ATOM     26  O   UNL     1     139.250 139.281 144.250  1.00  0.00    -0.507 OA
ATOM     27  H   UNL     1     138.512 139.593 143.639  1.00  0.00     0.293 HD
ENDBRANCH   6  26
BRANCH   8  28
ATOM     28  O   UNL     1     138.497 140.500 148.817  1.00  0.00    -0.508 OA
ATOM     29  H   UNL     1     139.280 141.080 149.097  1.00  0.00     0.293 HD
ENDBRANCH   8  28
TORSDOF 7
ENDMDL
MODEL 3
REMARK VINA RESULT:    -6.295      2.017      2.552
REMARK INTER + INTRA:          -8.121
REMARK INTER:                  -7.760
REMARK INTRA:                  -0.361
REMARK UNBOUND:                -0.354
REMARK SMILES O=c1c(O)c(-c2cc(O)c(O)c(O)c2)oc2cc(O)cc(O)c12
REMARK SMILES IDX 5 1 3 2 2 3 1 4 23 5 21 6 20 7 18 8 17 9 16 10 15 11 6 12
REMARK SMILES IDX 7 13 8 14 14 15 10 16 12 17 9 18 11 20 13 22 4 24 22 26
REMARK SMILES IDX 19 28
REMARK H PARENT 9 19 11 21 13 23 4 25 22 27 19 29
REMARK Flexibility Score: inf
ROOT
ATOM      1  C   UNL     1     138.847 135.248 147.127  1.00  0.00     0.180 A 
ATOM      2  C   UNL     1     140.244 135.271 147.266  1.00  0.00     0.208 A 
ATOM      3  C   UNL     1     140.914 136.504 147.213  1.00  0.00     0.238 A 
ATOM      4  O   UNL     1     142.159 136.525 147.392  1.00  0.00    -0.285 OA
ATOM      5  C   UNL     1     140.179 137.697 147.006  1.00  0.00     0.111 A 
ATOM      6  C   UNL     1     140.757 138.997 146.896  1.00  0.00     0.134 A 
ATOM      7  C   UNL     1     139.924 140.119 146.824  1.00  0.00     0.093 A 
ATOM      8  C   UNL     1     138.537 139.987 146.791  1.00  0.00     0.123 A 
ATOM      9  C   UNL     1     137.962 138.716 146.838  1.00  0.00     0.094 A 
ATOM     10  C   UNL     1     138.766 137.579 146.948  1.00  0.00     0.146 A 
ATOM     11  O   UNL     1     138.178 136.389 147.000  1.00  0.00    -0.452 OA
ENDROOT
BRANCH   1  12
ATOM     12  C   UNL     1     138.073 133.985 147.146  1.00  0.00     0.029 A 
ATOM     13  C   UNL     1     137.760 133.301 145.959  1.00  0.00     0.062 A 
ATOM     14  C   UNL     1     137.007 132.120 145.996  1.00  0.00     0.162 A 
ATOM     15  C   UNL     1     137.592 133.489 148.368  1.00  0.00     0.062 A 
ATOM     16  C   UNL     1     136.551 131.617 147.221  1.00  0.00     0.200 A 
ATOM     17  C   UNL     1     136.841 132.305 148.411  1.00  0.00     0.162 A 
BRANCH  14  18
ATOM     18  O   UNL     1     136.705 131.441 144.817  1.00  0.00    -0.504 OA
ATOM     19  H   UNL     1     135.784 131.491 144.396  1.00  0.00     0.293 HD
ENDBRANCH  14  18
BRANCH  16  20
ATOM     20  O   UNL     1     135.807 130.438 147.239  1.00  0.00    -0.502 OA
ATOM     21  H   UNL     1     136.235 129.531 147.380  1.00  0.00     0.293 HD
ENDBRANCH  16  20
BRANCH  17  22
ATOM     22  O   UNL     1     136.381 131.814 149.632  1.00  0.00    -0.504 OA
ATOM     23  H   UNL     1     136.063 132.434 150.368  1.00  0.00     0.293 HD
ENDBRANCH  17  22
ENDBRANCH   1  12
BRANCH   2  24
ATOM     24  O   UNL     1     140.948 134.085 147.490  1.00  0.00    -0.502 OA
ATOM     25  H   UNL     1     141.733 133.801 146.916  1.00  0.00     0.293 HD
ENDBRANCH   2  24
BRANCH   6  26
ATOM     26  O   UNL     1     142.134 139.235 146.828  1.00  0.00    -0.507 OA
ATOM     27  H   UNL     1     142.598 140.035 147.229  1.00  0.00     0.293 HD
ENDBRANCH   6  26
BRANCH   8  28
ATOM     28  O   UNL     1     137.738 141.125 146.703  1.00  0.00    -0.508 OA
ATOM     29  H   UNL     1     136.860 141.118 146.197  1.00  0.00     0.293 HD
ENDBRANCH   8  28
TORSDOF 7
ENDMDL
MODEL 4
REMARK VINA RESULT:    -6.263      2.003      2.346
REMARK INTER + INTRA:          -8.082
REMARK INTER:                  -7.728
REMARK INTRA:                  -0.354
REMARK UNBOUND:                -0.354
REMARK SMILES O=c1c(O)c(-c2cc(O)c(O)c(O)c2)oc2cc(O)cc(O)c12
REMARK SMILES IDX 5 1 3 2 2 3 1 4 23 5 21 6 20 7 18 8 17 9 16 10 15 11 6 12
REMARK SMILES IDX 7 13 8 14 14 15 10 16 12 17 9 18 11 20 13 22 4 24 22 26
REMARK SMILES IDX 19 28
REMARK H PARENT 9 19 11 21 13 23 4 25 22 27 19 29
REMARK Flexibility Score: inf
ROOT
ATOM      1  C   UNL     1     138.799 135.242 147.143  1.00  0.00     0.180 A 
ATOM      2  C   UNL     1     140.200 135.253 147.244  1.00  0.00     0.208 A 
ATOM      3  C   UNL     1     140.879 136.480 147.163  1.00  0.00     0.238 A 
ATOM      4  O   UNL     1     142.129 136.491 147.309  1.00  0.00    -0.285 OA
ATOM      5  C   UNL     1     140.149 137.678 146.968  1.00  0.00     0.111 A 
ATOM      6  C   UNL     1     140.736 138.971 146.833  1.00  0.00     0.134 A 
ATOM      7  C   UNL     1     139.911 140.101 146.775  1.00  0.00     0.093 A 
ATOM      8  C   UNL     1     138.521 139.980 146.781  1.00  0.00     0.123 A 
ATOM      9  C   UNL     1     137.937 138.715 146.853  1.00  0.00     0.094 A 
ATOM     10  C   UNL     1     138.734 137.572 146.949  1.00  0.00     0.146 A 
ATOM     11  O   UNL     1     138.138 136.388 147.026  1.00  0.00    -0.452 OA
ENDROOT
BRANCH   1  12
ATOM     12  C   UNL     1     138.016 133.985 147.193  1.00  0.00     0.029 A 
ATOM     13  C   UNL     1     137.600 133.431 148.415  1.00  0.00     0.062 A 
ATOM     14  C   UNL     1     136.881 132.229 148.443  1.00  0.00     0.162 A 
ATOM     15  C   UNL     1     137.732 133.301 146.001  1.00  0.00     0.062 A 
ATOM     16  C   UNL     1     136.580 131.563 147.249  1.00  0.00     0.200 A 
ATOM     17  C   UNL     1     137.010 132.099 146.023  1.00  0.00     0.162 A 
BRANCH  14  18
ATOM     18  O   UNL     1     136.465 131.686 149.658  1.00  0.00    -0.504 OA
ATOM     19  H   UNL     1     136.694 130.735 149.921  1.00  0.00     0.293 HD
ENDBRANCH  14  18
BRANCH  16  20
ATOM     20  O   UNL     1     135.860 130.370 147.295  1.00  0.00    -0.502 OA
ATOM     21  H   UNL     1     134.848 130.348 147.258  1.00  0.00     0.293 HD
ENDBRANCH  16  20
BRANCH  17  22
ATOM     22  O   UNL     1     136.721 131.436 144.831  1.00  0.00    -0.504 OA
ATOM     23  H   UNL     1     136.367 130.486 144.824  1.00  0.00     0.293 HD
ENDBRANCH  17  22
ENDBRANCH   1  12
BRANCH   2  24
ATOM     24  O   UNL     1     140.900 134.062 147.457  1.00  0.00    -0.502 OA
ATOM     25  H   UNL     1     140.601 133.178 147.066  1.00  0.00     0.293 HD
ENDBRANCH   2  24
BRANCH   6  26
ATOM     26  O   UNL     1     142.111 139.197 146.725  1.00  0.00    -0.507 OA
ATOM     27  H   UNL     1     142.735 139.328 147.506  1.00  0.00     0.293 HD
ENDBRANCH   6  26
BRANCH   8  28
ATOM     28  O   UNL     1     137.731 141.125 146.707  1.00  0.00    -0.508 OA
ATOM     29  H   UNL     1     138.044 142.010 147.087  1.00  0.00     0.293 HD
ENDBRANCH   8  28
TORSDOF 7
ENDMDL
MODEL 5
REMARK VINA RESULT:    -6.261      8.754     10.271
REMARK INTER + INTRA:          -8.079
REMARK INTER:                  -7.714
REMARK INTRA:                  -0.365
REMARK UNBOUND:                -0.354
REMARK SMILES O=c1c(O)c(-c2cc(O)c(O)c(O)c2)oc2cc(O)cc(O)c12
REMARK SMILES IDX 5 1 3 2 2 3 1 4 23 5 21 6 20 7 18 8 17 9 16 10 15 11 6 12
REMARK SMILES IDX 7 13 8 14 14 15 10 16 12 17 9 18 11 20 13 22 4 24 22 26
REMARK SMILES IDX 19 28
REMARK H PARENT 9 19 11 21 13 23 4 25 22 27 19 29
REMARK Flexibility Score: inf
ROOT
ATOM      1  C   UNL     1     132.095 135.775 153.934  1.00  0.00     0.180 A 
ATOM      2  C   UNL     1     130.717 135.855 154.193  1.00  0.00     0.208 A 
ATOM      3  C   UNL     1     130.239 136.878 155.028  1.00  0.00     0.238 A 
ATOM      4  O   UNL     1     128.998 136.979 155.213  1.00  0.00    -0.285 OA
ATOM      5  C   UNL     1     131.148 137.797 155.606  1.00  0.00     0.111 A 
ATOM      6  C   UNL     1     130.779 138.848 156.499  1.00  0.00     0.134 A 
ATOM      7  C   UNL     1     131.743 139.778 156.906  1.00  0.00     0.093 A 
ATOM      8  C   UNL     1     133.074 139.658 156.507  1.00  0.00     0.123 A 
ATOM      9  C   UNL     1     133.457 138.599 155.683  1.00  0.00     0.094 A 
ATOM     10  C   UNL     1     132.511 137.677 155.230  1.00  0.00     0.146 A 
ATOM     11  O   UNL     1     132.915 136.691 154.438  1.00  0.00    -0.452 OA
ENDROOT
BRANCH   1  12
ATOM     12  C   UNL     1     132.676 134.710 153.084  1.00  0.00     0.029 A 
ATOM     13  C   UNL     1     133.086 133.481 153.629  1.00  0.00     0.062 A 
ATOM     14  C   UNL     1     133.656 132.495 152.813  1.00  0.00     0.162 A 
ATOM     15  C   UNL     1     132.878 134.951 151.716  1.00  0.00     0.062 A 
ATOM     16  C   UNL     1     133.832 132.733 151.444  1.00  0.00     0.200 A 
ATOM     17  C   UNL     1     133.445 133.967 150.894  1.00  0.00     0.162 A 
BRANCH  14  18
ATOM     18  O   UNL     1     134.054 131.275 153.356  1.00  0.00    -0.504 OA
ATOM     19  H   UNL     1     133.447 130.464 153.341  1.00  0.00     0.293 HD
ENDBRANCH  14  18
BRANCH  16  20
ATOM     20  O   UNL     1     134.396 131.739 150.646  1.00  0.00    -0.502 OA
ATOM     21  H   UNL     1     133.924 131.367 149.831  1.00  0.00     0.293 HD
ENDBRANCH  16  20
BRANCH  17  22
ATOM     22  O   UNL     1     133.627 134.213 149.534  1.00  0.00    -0.504 OA
ATOM     23  H   UNL     1     133.589 135.151 149.154  1.00  0.00     0.293 HD
ENDBRANCH  17  22
ENDBRANCH   1  12
BRANCH   2  24
ATOM     24  O   UNL     1     129.835 134.951 153.594  1.00  0.00    -0.502 OA
ATOM     25  H   UNL     1     129.939 133.948 153.686  1.00  0.00     0.293 HD
ENDBRANCH   2  24
BRANCH   6  26
ATOM     26  O   UNL     1     129.496 139.006 157.032  1.00  0.00    -0.507 OA
ATOM     27  H   UNL     1     128.679 139.255 156.496  1.00  0.00     0.293 HD
ENDBRANCH   6  26
BRANCH   8  28
ATOM     28  O   UNL     1     134.010 140.593 156.944  1.00  0.00    -0.508 OA
ATOM     29  H   UNL     1     134.023 140.921 157.903  1.00  0.00     0.293 HD
ENDBRANCH   8  28
TORSDOF 7
ENDMDL
MODEL 6
REMARK VINA RESULT:    -6.224      2.193      3.094
REMARK INTER + INTRA:          -8.033
REMARK INTER:                  -7.719
REMARK INTRA:                  -0.315
REMARK UNBOUND:                -0.354
REMARK SMILES O=c1c(O)c(-c2cc(O)c(O)c(O)c2)oc2cc(O)cc(O)c12
REMARK SMILES IDX 5 1 3 2 2 3 1 4 23 5 21 6 20 7 18 8 17 9 16 10 15 11 6 12
REMARK SMILES IDX 7 13 8 14 14 15 10 16 12 17 9 18 11 20 13 22 4 24 22 26
REMARK SMILES IDX 19 28
REMARK H PARENT 9 19 11 21 13 23 4 25 22 27 19 29
REMARK Flexibility Score: inf
ROOT
ATOM      1  C   UNL     1     139.254 134.624 146.816  1.00  0.00     0.180 A 
ATOM      2  C   UNL     1     140.278 133.972 146.110  1.00  0.00     0.208 A 
ATOM      3  C   UNL     1     141.237 134.743 145.433  1.00  0.00     0.238 A 
ATOM      4  O   UNL     1     142.183 134.155 144.847  1.00  0.00    -0.285 OA
ATOM      5  C   UNL     1     141.150 136.156 145.459  1.00  0.00     0.111 A 
ATOM      6  C   UNL     1     142.043 137.036 144.776  1.00  0.00     0.134 A 
ATOM      7  C   UNL     1     141.940 138.417 144.979  1.00  0.00     0.093 A 
ATOM      8  C   UNL     1     140.938 138.955 145.785  1.00  0.00     0.123 A 
ATOM      9  C   UNL     1     140.022 138.107 146.409  1.00  0.00     0.094 A 
ATOM     10  C   UNL     1     140.121 136.722 146.256  1.00  0.00     0.146 A 
ATOM     11  O   UNL     1     139.236 135.951 146.876  1.00  0.00    -0.452 OA
ENDROOT
BRANCH   1  12
ATOM     12  C   UNL     1     138.193 133.878 147.532  1.00  0.00     0.029 A 
ATOM     13  C   UNL     1     137.142 133.254 146.839  1.00  0.00     0.062 A 
ATOM     14  C   UNL     1     136.134 132.574 147.536  1.00  0.00     0.162 A 
ATOM     15  C   UNL     1     138.201 133.843 148.935  1.00  0.00     0.062 A 
ATOM     16  C   UNL     1     136.162 132.521 148.935  1.00  0.00     0.200 A 
ATOM     17  C   UNL     1     137.197 133.161 149.638  1.00  0.00     0.162 A 
BRANCH  14  18
ATOM     18  O   UNL     1     135.098 131.950 146.843  1.00  0.00    -0.504 OA
ATOM     19  H   UNL     1     134.310 131.535 147.328  1.00  0.00     0.293 HD
ENDBRANCH  14  18
BRANCH  16  20
ATOM     20  O   UNL     1     135.154 131.836 149.612  1.00  0.00    -0.502 OA
ATOM     21  H   UNL     1     135.308 131.399 150.512  1.00  0.00     0.293 HD
ENDBRANCH  16  20
BRANCH  17  22
ATOM     22  O   UNL     1     137.224 133.120 151.031  1.00  0.00    -0.504 OA
ATOM     23  H   UNL     1     137.863 132.514 151.532  1.00  0.00     0.293 HD
ENDBRANCH  17  22
ENDBRANCH   1  12
BRANCH   2  24
ATOM     24  O   UNL     1     140.358 132.576 146.115  1.00  0.00    -0.502 OA
ATOM     25  H   UNL     1     139.697 131.995 146.616  1.00  0.00     0.293 HD
ENDBRANCH   2  24
BRANCH   6  26
ATOM     26  O   UNL     1     143.023 136.608 143.875  1.00  0.00    -0.507 OA
ATOM     27  H   UNL     1     143.940 137.018 143.787  1.00  0.00     0.293 HD
ENDBRANCH   6  26
BRANCH   8  28
ATOM     28  O   UNL     1     140.856 140.336 145.952  1.00  0.00    -0.508 OA
ATOM     29  H   UNL     1     139.963 140.815 145.970  1.00  0.00     0.293 HD
ENDBRANCH   8  28
TORSDOF 7
ENDMDL
MODEL 7
REMARK VINA RESULT:    -6.103     10.109     12.289
REMARK INTER + INTRA:          -7.885
REMARK INTER:                  -7.657
REMARK INTRA:                  -0.227
REMARK UNBOUND:                -0.354
REMARK SMILES O=c1c(O)c(-c2cc(O)c(O)c(O)c2)oc2cc(O)cc(O)c12
REMARK SMILES IDX 5 1 3 2 2 3 1 4 23 5 21 6 20 7 18 8 17 9 16 10 15 11 6 12
REMARK SMILES IDX 7 13 8 14 14 15 10 16 12 17 9 18 11 20 13 22 4 24 22 26
REMARK SMILES IDX 19 28
REMARK H PARENT 9 19 11 21 13 23 4 25 22 27 19 29
REMARK Flexibility Score: inf
ROOT
ATOM      1  C   UNL     1     132.918 138.774 156.225  1.00  0.00     0.180 A 
ATOM      2  C   UNL     1     133.989 139.679 156.133  1.00  0.00     0.208 A 
ATOM      3  C   UNL     1     134.947 139.500 155.121  1.00  0.00     0.238 A 
ATOM      4  O   UNL     1     135.874 140.344 155.010  1.00  0.00    -0.285 OA
ATOM      5  C   UNL     1     134.829 138.410 154.225  1.00  0.00     0.111 A 
ATOM      6  C   UNL     1     135.762 138.110 153.187  1.00  0.00     0.134 A 
ATOM      7  C   UNL     1     135.477 137.085 152.278  1.00  0.00     0.093 A 
ATOM      8  C   UNL     1     134.327 136.307 152.405  1.00  0.00     0.123 A 
ATOM      9  C   UNL     1     133.437 136.554 153.452  1.00  0.00     0.094 A 
ATOM     10  C   UNL     1     133.676 137.593 154.354  1.00  0.00     0.146 A 
ATOM     11  O   UNL     1     132.799 137.801 155.329  1.00  0.00    -0.452 OA
ENDROOT
BRANCH   1  12
ATOM     12  C   UNL     1     131.884 138.883 157.280  1.00  0.00     0.029 A 
ATOM     13  C   UNL     1     131.764 137.912 158.289  1.00  0.00     0.062 A 
ATOM     14  C   UNL     1     130.763 138.020 159.264  1.00  0.00     0.162 A 
ATOM     15  C   UNL     1     130.966 139.944 157.240  1.00  0.00     0.062 A 
ATOM     16  C   UNL     1     129.866 139.095 159.233  1.00  0.00     0.200 A 
ATOM     17  C   UNL     1     129.965 140.058 158.215  1.00  0.00     0.162 A 
BRANCH  14  18
ATOM     18  O   UNL     1     130.652 137.059 160.267  1.00  0.00    -0.504 OA
ATOM     19  H   UNL     1     129.772 136.881 160.737  1.00  0.00     0.293 HD
ENDBRANCH  14  18
BRANCH  16  20
ATOM     20  O   UNL     1     128.879 139.188 160.214  1.00  0.00    -0.502 OA
ATOM     21  H   UNL     1     129.040 138.900 161.171  1.00  0.00     0.293 HD
ENDBRANCH  16  20
BRANCH  17  22
ATOM     22  O   UNL     1     129.067 141.125 158.173  1.00  0.00    -0.504 OA
ATOM     23  H   UNL     1     128.077 140.980 158.016  1.00  0.00     0.293 HD
ENDBRANCH  17  22
ENDBRANCH   1  12
BRANCH   2  24
ATOM     24  O   UNL     1     134.075 140.760 157.015  1.00  0.00    -0.502 OA
ATOM     25  H   UNL     1     133.491 141.583 156.925  1.00  0.00     0.293 HD
ENDBRANCH   2  24
BRANCH   6  26
ATOM     26  O   UNL     1     136.987 138.766 153.025  1.00  0.00    -0.507 OA
ATOM     27  H   UNL     1     137.102 139.665 152.584  1.00  0.00     0.293 HD
ENDBRANCH   6  26
BRANCH   8  28
ATOM     28  O   UNL     1     134.082 135.285 151.491  1.00  0.00    -0.508 OA
ATOM     29  H   UNL     1     134.824 134.896 150.920  1.00  0.00     0.293 HD
ENDBRANCH   8  28
TORSDOF 7
ENDMDL
MODEL 8
REMARK VINA RESULT:    -5.971      3.450      3.946
REMARK INTER + INTRA:          -7.722
REMARK INTER:                  -7.658
REMARK INTRA:                  -0.064
REMARK UNBOUND:                -0.354
REMARK SMILES O=c1c(O)c(-c2cc(O)c(O)c(O)c2)oc2cc(O)cc(O)c12
REMARK SMILES IDX 5 1 3 2 2 3 1 4 23 5 21 6 20 7 18 8 17 9 16 10 15 11 6 12
REMARK SMILES IDX 7 13 8 14 14 15 10 16 12 17 9 18 11 20 13 22 4 24 22 26
REMARK SMILES IDX 19 28
REMARK H PARENT 9 19 11 21 13 23 4 25 22 27 19 29
REMARK Flexibility Score: inf
ROOT
ATOM      1  C   UNL     1     138.449 133.582 147.455  1.00  0.00     0.180 A 
ATOM      2  C   UNL     1     138.513 133.189 146.107  1.00  0.00     0.208 A 
ATOM      3  C   UNL     1     139.641 133.542 145.348  1.00  0.00     0.238 A 
ATOM      4  O   UNL     1     139.718 133.141 144.158  1.00  0.00    -0.285 OA
ATOM      5  C   UNL     1     140.682 134.295 145.943  1.00  0.00     0.111 A 
ATOM      6  C   UNL     1     141.852 134.741 145.258  1.00  0.00     0.134 A 
ATOM      7  C   UNL     1     142.877 135.367 145.977  1.00  0.00     0.093 A 
ATOM      8  C   UNL     1     142.748 135.621 147.342  1.00  0.00     0.123 A 
ATOM      9  C   UNL     1     141.583 135.242 148.010  1.00  0.00     0.094 A 
ATOM     10  C   UNL     1     140.558 134.583 147.327  1.00  0.00     0.146 A 
ATOM     11  O   UNL     1     139.470 134.231 148.001  1.00  0.00    -0.452 OA
ENDROOT
BRANCH   1  12
ATOM     12  C   UNL     1     137.281 133.269 148.311  1.00  0.00     0.029 A 
ATOM     13  C   UNL     1     137.427 132.564 149.518  1.00  0.00     0.062 A 
ATOM     14  C   UNL     1     136.308 132.257 150.303  1.00  0.00     0.162 A 
ATOM     15  C   UNL     1     135.994 133.631 147.883  1.00  0.00     0.062 A 
ATOM     16  C   UNL     1     135.029 132.642 149.882  1.00  0.00     0.200 A 
ATOM     17  C   UNL     1     134.871 133.328 148.666  1.00  0.00     0.162 A 
BRANCH  14  18
ATOM     18  O   UNL     1     136.458 131.564 151.503  1.00  0.00    -0.504 OA
ATOM     19  H   UNL     1     137.344 131.541 151.995  1.00  0.00     0.293 HD
ENDBRANCH  14  18
BRANCH  16  20
ATOM     20  O   UNL     1     133.927 132.332 150.678  1.00  0.00    -0.502 OA
ATOM     21  H   UNL     1     133.890 132.561 151.663  1.00  0.00     0.293 HD
ENDBRANCH  16  20
BRANCH  17  22
ATOM     22  O   UNL     1     133.599 133.705 148.237  1.00  0.00    -0.504 OA
ATOM     23  H   UNL     1     132.763 133.407 148.727  1.00  0.00     0.293 HD
ENDBRANCH  17  22
ENDBRANCH   1  12
BRANCH   2  24
ATOM     24  O   UNL     1     137.484 132.427 145.546  1.00  0.00    -0.502 OA
ATOM     25  H   UNL     1     137.128 131.587 145.985  1.00  0.00     0.293 HD
ENDBRANCH   2  24
BRANCH   6  26
ATOM     26  O   UNL     1     142.043 134.619 143.878  1.00  0.00    -0.507 OA
ATOM     27  H   UNL     1     141.476 134.051 143.268  1.00  0.00     0.293 HD
ENDBRANCH   6  26
BRANCH   8  28
ATOM     28  O   UNL     1     143.782 136.260 148.024  1.00  0.00    -0.508 OA
ATOM     29  H   UNL     1     143.608 136.805 148.860  1.00  0.00     0.293 HD
ENDBRANCH   8  28
TORSDOF 7
ENDMDL
MODEL 9
REMARK VINA RESULT:    -5.920     10.247     12.438
REMARK INTER + INTRA:          -7.659
REMARK INTER:                  -7.532
REMARK INTRA:                  -0.127
REMARK UNBOUND:                -0.354
REMARK SMILES O=c1c(O)c(-c2cc(O)c(O)c(O)c2)oc2cc(O)cc(O)c12
REMARK SMILES IDX 5 1 3 2 2 3 1 4 23 5 21 6 20 7 18 8 17 9 16 10 15 11 6 12
REMARK SMILES IDX 7 13 8 14 14 15 10 16 12 17 9 18 11 20 13 22 4 24 22 26
REMARK SMILES IDX 19 28
REMARK H PARENT 9 19 11 21 13 23 4 25 22 27 19 29
REMARK Flexibility Score: inf
ROOT
ATOM      1  C   UNL     1     132.218 137.956 155.861  1.00  0.00     0.180 A 
ATOM      2  C   UNL     1     133.262 138.753 155.363  1.00  0.00     0.208 A 
ATOM      3  C   UNL     1     133.992 138.303 154.251  1.00  0.00     0.238 A 
ATOM      4  O   UNL     1     134.889 139.045 153.775  1.00  0.00    -0.285 OA
ATOM      5  C   UNL     1     133.678 137.054 153.661  1.00  0.00     0.111 A 
ATOM      6  C   UNL     1     134.377 136.481 152.556  1.00  0.00     0.134 A 
ATOM      7  C   UNL     1     133.897 135.302 151.973  1.00  0.00     0.093 A 
ATOM      8  C   UNL     1     132.785 134.641 152.492  1.00  0.00     0.123 A 
ATOM      9  C   UNL     1     132.130 135.161 153.610  1.00  0.00     0.094 A 
ATOM     10  C   UNL     1     132.563 136.355 154.191  1.00  0.00     0.146 A 
ATOM     11  O   UNL     1     131.905 136.820 155.247  1.00  0.00    -0.452 OA
ENDROOT
BRANCH   1  12
ATOM     12  C   UNL     1     131.421 138.352 157.045  1.00  0.00     0.029 A 
ATOM     13  C   UNL     1     130.687 139.550 157.065  1.00  0.00     0.062 A 
ATOM     14  C   UNL     1     129.958 139.920 158.203  1.00  0.00     0.162 A 
ATOM     15  C   UNL     1     131.444 137.546 158.194  1.00  0.00     0.062 A 
ATOM     16  C   UNL     1     129.966 139.098 159.338  1.00  0.00     0.200 A 
ATOM     17  C   UNL     1     130.714 137.909 159.335  1.00  0.00     0.162 A 
BRANCH  14  18
ATOM     18  O   UNL     1     129.226 141.105 158.216  1.00  0.00    -0.504 OA
ATOM     19  H   UNL     1     128.214 141.104 158.269  1.00  0.00     0.293 HD
ENDBRANCH  14  18
BRANCH  16  20
ATOM     20  O   UNL     1     129.231 139.479 160.460  1.00  0.00    -0.502 OA
ATOM     21  H   UNL     1     128.745 140.366 160.512  1.00  0.00     0.293 HD
ENDBRANCH  16  20
BRANCH  17  22
ATOM     22  O   UNL     1     130.732 137.093 160.465  1.00  0.00    -0.504 OA
ATOM     23  H   UNL     1     130.102 136.305 160.562  1.00  0.00     0.293 HD
ENDBRANCH  17  22
ENDBRANCH   1  12
BRANCH   2  24
ATOM     24  O   UNL     1     133.541 139.993 155.946  1.00  0.00    -0.502 OA
ATOM     25  H   UNL     1     134.487 140.322 156.097  1.00  0.00     0.293 HD
ENDBRANCH   2  24
BRANCH   6  26
ATOM     26  O   UNL     1     135.552 137.012 152.016  1.00  0.00    -0.507 OA
ATOM     27  H   UNL     1     135.744 137.095 151.030  1.00  0.00     0.293 HD
ENDBRANCH   6  26
BRANCH   8  28
ATOM     28  O   UNL     1     132.345 133.462 151.895  1.00  0.00    -0.508 OA
ATOM     29  H   UNL     1     132.316 133.357 150.888  1.00  0.00     0.293 HD
ENDBRANCH   8  28
TORSDOF 7
ENDMDL
