MODEL 1
REMARK VINA RESULT:    -3.823      0.000      0.000
REMARK INTER + INTRA:          -4.199
REMARK INTER:                  -4.158
REMARK INTRA:                  -0.041
REMARK UNBOUND:                -0.041
REMARK SMILES COc1ccccc1O
REMARK SMILES IDX 3 1 4 2 5 3 6 4 7 5 8 6 2 7 1 8 9 9
REMARK H PARENT 9 10
REMARK Flexibility Score: inf
ROOT
ATOM      1  C   UNL     1      -9.011  -1.394   7.744  1.00  0.00     0.160 A 
ATOM      2  C   UNL     1      -8.970  -1.599   9.138  1.00  0.00     0.050 A 
ATOM      3  C   UNL     1      -7.757  -1.519   9.827  1.00  0.00     0.004 A 
ATOM      4  C   UNL     1      -6.576  -1.237   9.137  1.00  0.00     0.004 A 
ATOM      5  C   UNL     1      -6.606  -1.034   7.756  1.00  0.00     0.050 A 
ATOM      6  C   UNL     1      -7.818  -1.110   7.057  1.00  0.00     0.157 A 
ENDROOT
BRANCH   1   7
ATOM      7  O   UNL     1     -10.205  -1.464   7.011  1.00  0.00    -0.493 OA
ATOM      8  C   UNL     1     -11.043  -2.614   6.945  1.00  0.00     0.278 C 
ENDBRANCH   1   7
BRANCH   6   9
ATOM      9  O   UNL     1      -7.850  -0.907   5.678  1.00  0.00    -0.504 OA
ATOM     10  H   UNL     1      -7.465  -0.069   5.257  1.00  0.00     0.293 HD
ENDBRANCH   6   9
TORSDOF 2
ENDMDL
MODEL 2
REMARK VINA RESULT:    -3.664      1.283      3.241
REMARK INTER + INTRA:          -4.027
REMARK INTER:                  -4.000
REMARK INTRA:                  -0.027
REMARK UNBOUND:                -0.041
REMARK SMILES COc1ccccc1O
REMARK SMILES IDX 3 1 4 2 5 3 6 4 7 5 8 6 2 7 1 8 9 9
REMARK H PARENT 9 10
REMARK Flexibility Score: inf
ROOT
ATOM      1  C   UNL     1      -8.542  -1.450   7.779  1.00  0.00     0.160 A 
ATOM      2  C   UNL     1      -9.538  -1.822   8.705  1.00  0.00     0.050 A 
ATOM      3  C   UNL     1     -10.846  -2.060   8.274  1.00  0.00     0.004 A 
ATOM      4  C   UNL     1     -11.174  -1.930   6.923  1.00  0.00     0.004 A 
ATOM      5  C   UNL     1     -10.194  -1.562   5.999  1.00  0.00     0.050 A 
ATOM      6  C   UNL     1      -8.879  -1.322   6.422  1.00  0.00     0.157 A 
ENDROOT
BRANCH   1   7
ATOM      7  O   UNL     1      -7.216  -1.202   8.165  1.00  0.00    -0.493 OA
ATOM      8  C   UNL     1      -6.724  -1.348   9.495  1.00  0.00     0.278 C 
ENDBRANCH   1   7
BRANCH   6   9
ATOM      9  O   UNL     1      -7.900  -0.955   5.500  1.00  0.00    -0.504 OA
ATOM     10  H   UNL     1      -8.061  -1.020   4.501  1.00  0.00     0.293 HD
ENDBRANCH   6   9
TORSDOF 2
ENDMDL
MODEL 3
REMARK VINA RESULT:    -3.352      1.566      2.220
REMARK INTER + INTRA:          -3.686
REMARK INTER:                  -3.713
REMARK INTRA:                   0.027
REMARK UNBOUND:                -0.041
REMARK SMILES COc1ccccc1O
REMARK SMILES IDX 3 1 4 2 5 3 6 4 7 5 8 6 2 7 1 8 9 9
REMARK H PARENT 9 10
REMARK Flexibility Score: inf
ROOT
ATOM      1  C   UNL     1      -8.071  -0.652   7.486  1.00  0.00     0.160 A 
ATOM      2  C   UNL     1      -6.958  -1.325   8.029  1.00  0.00     0.050 A 
ATOM      3  C   UNL     1      -6.551  -1.068   9.342  1.00  0.00     0.004 A 
ATOM      4  C   UNL     1      -7.245  -0.143  10.123  1.00  0.00     0.004 A 
ATOM      5  C   UNL     1      -8.350   0.529   9.594  1.00  0.00     0.050 A 
ATOM      6  C   UNL     1      -8.765   0.278   8.279  1.00  0.00     0.157 A 
ENDROOT
BRANCH   1   7
ATOM      7  O   UNL     1      -8.517  -0.877   6.175  1.00  0.00    -0.493 OA
ATOM      8  C   UNL     1      -9.587  -1.752   5.828  1.00  0.00     0.278 C 
ENDBRANCH   1   7
BRANCH   6   9
ATOM      9  O   UNL     1      -9.867   0.947   7.749  1.00  0.00    -0.504 OA
ATOM     10  H   UNL     1     -10.815   0.658   7.961  1.00  0.00     0.293 HD
ENDBRANCH   6   9
TORSDOF 2
ENDMDL
MODEL 4
REMARK VINA RESULT:    -3.335      1.849      3.818
REMARK INTER + INTRA:          -3.668
REMARK INTER:                  -3.641
REMARK INTRA:                  -0.027
REMARK UNBOUND:                -0.041
REMARK SMILES COc1ccccc1O
REMARK SMILES IDX 3 1 4 2 5 3 6 4 7 5 8 6 2 7 1 8 9 9
REMARK H PARENT 9 10
REMARK Flexibility Score: inf
ROOT
ATOM      1  C   UNL     1      -8.471  -1.469   8.433  1.00  0.00     0.160 A 
ATOM      2  C   UNL     1      -7.872  -0.884   7.298  1.00  0.00     0.050 A 
ATOM      3  C   UNL     1      -8.503  -0.955   6.053  1.00  0.00     0.004 A 
ATOM      4  C   UNL     1      -9.732  -1.605   5.926  1.00  0.00     0.004 A 
ATOM      5  C   UNL     1     -10.333  -2.188   7.044  1.00  0.00     0.050 A 
ATOM      6  C   UNL     1      -9.708  -2.121   8.297  1.00  0.00     0.157 A 
ENDROOT
BRANCH   1   7
ATOM      7  O   UNL     1      -7.875  -1.423   9.702  1.00  0.00    -0.493 OA
ATOM      8  C   UNL     1      -6.650  -0.754   9.992  1.00  0.00     0.278 C 
ENDBRANCH   1   7
BRANCH   6   9
ATOM      9  O   UNL     1     -10.306  -2.702   9.413  1.00  0.00    -0.504 OA
ATOM     10  H   UNL     1     -10.845  -2.151  10.073  1.00  0.00     0.293 HD
ENDBRANCH   6   9
TORSDOF 2
ENDMDL
MODEL 5
REMARK VINA RESULT:    -3.267     20.815     21.433
REMARK INTER + INTRA:          -3.595
REMARK INTER:                  -3.566
REMARK INTRA:                  -0.028
REMARK UNBOUND:                -0.041
REMARK SMILES COc1ccccc1O
REMARK SMILES IDX 3 1 4 2 5 3 6 4 7 5 8 6 2 7 1 8 9 9
REMARK H PARENT 9 10
REMARK Flexibility Score: inf
ROOT
ATOM      1  C   UNL     1       1.830   5.326  -9.632  1.00  0.00     0.160 A 
ATOM      2  C   UNL     1       2.507   6.557  -9.746  1.00  0.00     0.050 A 
ATOM      3  C   UNL     1       3.833   6.674  -9.316  1.00  0.00     0.004 A 
ATOM      4  C   UNL     1       4.493   5.572  -8.771  1.00  0.00     0.004 A 
ATOM      5  C   UNL     1       3.830   4.348  -8.654  1.00  0.00     0.050 A 
ATOM      6  C   UNL     1       2.502   4.221  -9.083  1.00  0.00     0.157 A 
ENDROOT
BRANCH   1   7
ATOM      7  O   UNL     1       0.501   5.161 -10.050  1.00  0.00    -0.493 OA
ATOM      8  C   UNL     1      -0.456   6.215 -10.125  1.00  0.00     0.278 C 
ENDBRANCH   1   7
BRANCH   6   9
ATOM      9  O   UNL     1       1.839   3.000  -8.967  1.00  0.00    -0.504 OA
ATOM     10  H   UNL     1       2.289   2.189  -8.559  1.00  0.00     0.293 HD
ENDBRANCH   6   9
TORSDOF 2
ENDMDL
MODEL 6
REMARK VINA RESULT:    -3.203      2.404      2.946
REMARK INTER + INTRA:          -3.525
REMARK INTER:                  -3.479
REMARK INTRA:                  -0.046
REMARK UNBOUND:                -0.041
REMARK SMILES COc1ccccc1O
REMARK SMILES IDX 3 1 4 2 5 3 6 4 7 5 8 6 2 7 1 8 9 9
REMARK H PARENT 9 10
REMARK Flexibility Score: inf
ROOT
ATOM      1  C   UNL     1      -8.708   0.724   9.114  1.00  0.00     0.160 A 
ATOM      2  C   UNL     1      -7.707   0.768  10.107  1.00  0.00     0.050 A 
ATOM      3  C   UNL     1      -6.690  -0.191  10.124  1.00  0.00     0.004 A 
ATOM      4  C   UNL     1      -6.659  -1.198   9.158  1.00  0.00     0.004 A 
ATOM      5  C   UNL     1      -7.647  -1.250   8.171  1.00  0.00     0.050 A 
ATOM      6  C   UNL     1      -8.670  -0.292   8.145  1.00  0.00     0.157 A 
ENDROOT
BRANCH   1   7
ATOM      7  O   UNL     1      -9.747   1.665   9.057  1.00  0.00    -0.493 OA
ATOM      8  C   UNL     1      -9.587   3.017   8.635  1.00  0.00     0.278 C 
ENDBRANCH   1   7
BRANCH   6   9
ATOM      9  O   UNL     1      -9.655  -0.342   7.161  1.00  0.00    -0.504 OA
ATOM     10  H   UNL     1     -10.446   0.292   7.169  1.00  0.00     0.293 HD
ENDBRANCH   6   9
TORSDOF 2
ENDMDL
MODEL 7
REMARK VINA RESULT:    -3.057     21.137     21.530
REMARK INTER + INTRA:          -3.366
REMARK INTER:                  -3.326
REMARK INTRA:                  -0.041
REMARK UNBOUND:                -0.041
REMARK SMILES COc1ccccc1O
REMARK SMILES IDX 3 1 4 2 5 3 6 4 7 5 8 6 2 7 1 8 9 9
REMARK H PARENT 9 10
REMARK Flexibility Score: inf
ROOT
ATOM      1  C   UNL     1       3.814   4.255  -8.537  1.00  0.00     0.160 A 
ATOM      2  C   UNL     1       3.923   3.130  -9.379  1.00  0.00     0.050 A 
ATOM      3  C   UNL     1       5.007   2.256  -9.251  1.00  0.00     0.004 A 
ATOM      4  C   UNL     1       5.987   2.492  -8.286  1.00  0.00     0.004 A 
ATOM      5  C   UNL     1       5.888   3.605  -7.446  1.00  0.00     0.050 A 
ATOM      6  C   UNL     1       4.804   4.486  -7.568  1.00  0.00     0.157 A 
ENDROOT
BRANCH   1   7
ATOM      7  O   UNL     1       2.745   5.159  -8.630  1.00  0.00    -0.493 OA
ATOM      8  C   UNL     1       2.687   6.245  -9.550  1.00  0.00     0.278 C 
ENDBRANCH   1   7
BRANCH   6   9
ATOM      9  O   UNL     1       4.703   5.596  -6.732  1.00  0.00    -0.504 OA
ATOM     10  H   UNL     1       4.832   5.518  -5.729  1.00  0.00     0.293 HD
ENDBRANCH   6   9
TORSDOF 2
ENDMDL
