MODEL 1
REMARK VINA RESULT:    -3.589      0.000      0.000
REMARK INTER + INTRA:          -5.985
REMARK INTER:                  -5.478
REMARK INTRA:                  -0.507
REMARK UNBOUND:                -0.507
REMARK SMILES O=C([O-])CCCCCCCCC(=O)[O-]
REMARK SMILES IDX 7 1 6 2 5 3 4 4 2 5 1 6 3 7 8 8 9 9 10 10 11 11 12 12 13 13
REMARK SMILES IDX 14 14
REMARK H PARENT
REMARK Flexibility Score: inf
ROOT
ATOM      1  C   UNL     1      35.988  20.954  14.587  1.00  0.00     0.000 C 
ENDROOT
BRANCH   1   2
ATOM      2  C   UNL     1      35.926  20.090  15.859  1.00  0.00     0.000 C 
BRANCH   2   3
ATOM      3  C   UNL     1      34.642  20.323  16.676  1.00  0.00     0.006 C 
BRANCH   3   4
ATOM      4  C   UNL     1      33.341  20.034  15.911  1.00  0.00     0.053 C 
BRANCH   4   5
ATOM      5  C   UNL     1      33.258  18.608  15.461  1.00  0.00     0.041 C 
ATOM      6  O   UNL     1      33.260  18.331  14.233  1.00  0.00    -0.550 OA
ATOM      7  O   UNL     1      33.143  17.587  16.396  1.00  0.00    -0.550 OA
ENDBRANCH   4   5
ENDBRANCH   3   4
ENDBRANCH   2   3
ENDBRANCH   1   2
BRANCH   1   8
ATOM      8  C   UNL     1      36.888  22.189  14.757  1.00  0.00     0.000 C 
BRANCH   8   9
ATOM      9  C   UNL     1      37.368  22.764  13.413  1.00  0.00     0.000 C 
BRANCH   9  10
ATOM     10  C   UNL     1      36.251  22.840  12.356  1.00  0.00     0.006 C 
BRANCH  10  11
ATOM     11  C   UNL     1      36.738  22.611  10.916  1.00  0.00     0.053 C 
BRANCH  11  12
ATOM     12  C   UNL     1      36.124  21.397  10.288  1.00  0.00     0.041 C 
ATOM     13  O   UNL     1      35.030  20.945  10.718  1.00  0.00    -0.550 OA
ATOM     14  O   UNL     1      36.777  20.741   9.251  1.00  0.00    -0.550 OA
ENDBRANCH  11  12
ENDBRANCH  10  11
ENDBRANCH   9  10
ENDBRANCH   8   9
ENDBRANCH   1   8
TORSDOF 9
ENDMDL
MODEL 2
REMARK VINA RESULT:    -3.464      0.853      5.915
REMARK INTER + INTRA:          -5.793
REMARK INTER:                  -5.392
REMARK INTRA:                  -0.401
REMARK UNBOUND:                -0.507
REMARK SMILES O=C([O-])CCCCCCCCC(=O)[O-]
REMARK SMILES IDX 7 1 6 2 5 3 4 4 2 5 1 6 3 7 8 8 9 9 10 10 11 11 12 12 13 13
REMARK SMILES IDX 14 14
REMARK H PARENT
REMARK Flexibility Score: inf
ROOT
ATOM      1  C   UNL     1      35.860  21.842  13.825  1.00  0.00     0.000 C 
ENDROOT
BRANCH   1   2
ATOM      2  C   UNL     1      36.900  22.623  13.003  1.00  0.00     0.000 C 
BRANCH   2   3
ATOM      3  C   UNL     1      36.468  22.834  11.540  1.00  0.00     0.006 C 
BRANCH   3   4
ATOM      4  C   UNL     1      35.611  21.697  10.961  1.00  0.00     0.053 C 
BRANCH   4   5
ATOM      5  C   UNL     1      35.919  21.438   9.519  1.00  0.00     0.041 C 
ATOM      6  O   UNL     1      36.948  20.788   9.198  1.00  0.00    -0.550 OA
ATOM      7  O   UNL     1      35.086  21.943   8.528  1.00  0.00    -0.550 OA
ENDBRANCH   4   5
ENDBRANCH   3   4
ENDBRANCH   2   3
ENDBRANCH   1   2
BRANCH   1   8
ATOM      8  C   UNL     1      36.324  21.581  15.267  1.00  0.00     0.000 C 
BRANCH   8   9
ATOM      9  C   UNL     1      35.856  20.216  15.804  1.00  0.00     0.000 C 
BRANCH   9  10
ATOM     10  C   UNL     1      34.693  20.330  16.806  1.00  0.00     0.006 C 
BRANCH  10  11
ATOM     11  C   UNL     1      33.316  20.006  16.203  1.00  0.00     0.053 C 
BRANCH  11  12
ATOM     12  C   UNL     1      33.249  18.619  15.637  1.00  0.00     0.041 C 
ATOM     13  O   UNL     1      33.188  17.624  16.406  1.00  0.00    -0.550 OA
ATOM     14  O   UNL     1      33.289  18.423  14.263  1.00  0.00    -0.550 OA
ENDBRANCH  11  12
ENDBRANCH  10  11
ENDBRANCH   9  10
ENDBRANCH   8   9
ENDBRANCH   1   8
TORSDOF 9
ENDMDL
MODEL 3
REMARK VINA RESULT:    -3.453      2.451      3.659
REMARK INTER + INTRA:          -5.776
REMARK INTER:                  -5.079
REMARK INTRA:                  -0.698
REMARK UNBOUND:                -0.507
REMARK SMILES O=C([O-])CCCCCCCCC(=O)[O-]
REMARK SMILES IDX 7 1 6 2 5 3 4 4 2 5 1 6 3 7 8 8 9 9 10 10 11 11 12 12 13 13
REMARK SMILES IDX 14 14
REMARK H PARENT
REMARK Flexibility Score: inf
ROOT
ATOM      1  C   UNL     1      33.612  18.903  14.442  1.00  0.00     0.000 C 
ENDROOT
BRANCH   1   2
ATOM      2  C   UNL     1      33.664  20.154  15.337  1.00  0.00     0.000 C 
BRANCH   2   3
ATOM      3  C   UNL     1      35.019  20.321  16.049  1.00  0.00     0.006 C 
BRANCH   3   4
ATOM      4  C   UNL     1      36.234  20.331  15.107  1.00  0.00     0.053 C 
BRANCH   4   5
ATOM      5  C   UNL     1      36.741  21.718  14.857  1.00  0.00     0.041 C 
ATOM      6  O   UNL     1      35.954  22.617  14.462  1.00  0.00    -0.550 OA
ATOM      7  O   UNL     1      38.089  22.009  15.028  1.00  0.00    -0.550 OA
ENDBRANCH   4   5
ENDBRANCH   3   4
ENDBRANCH   2   3
ENDBRANCH   1   2
BRANCH   1   8
ATOM      8  C   UNL     1      33.275  19.238  12.980  1.00  0.00     0.000 C 
BRANCH   8   9
ATOM      9  C   UNL     1      33.596  20.698  12.615  1.00  0.00     0.000 C 
BRANCH   9  10
ATOM     10  C   UNL     1      34.035  20.870  11.150  1.00  0.00     0.006 C 
BRANCH  10  11
ATOM     11  C   UNL     1      35.467  21.404  10.987  1.00  0.00     0.053 C 
BRANCH  11  12
ATOM     12  C   UNL     1      35.924  21.399   9.559  1.00  0.00     0.041 C 
ATOM     13  O   UNL     1      37.031  20.885   9.250  1.00  0.00    -0.550 OA
ATOM     14  O   UNL     1      35.144  21.994   8.575  1.00  0.00    -0.550 OA
ENDBRANCH  11  12
ENDBRANCH  10  11
ENDBRANCH   9  10
ENDBRANCH   8   9
ENDBRANCH   1   8
TORSDOF 9
ENDMDL
MODEL 4
REMARK VINA RESULT:    -3.420      2.389      5.457
REMARK INTER + INTRA:          -5.727
REMARK INTER:                  -5.023
REMARK INTRA:                  -0.704
REMARK UNBOUND:                -0.507
REMARK SMILES O=C([O-])CCCCCCCCC(=O)[O-]
REMARK SMILES IDX 7 1 6 2 5 3 4 4 2 5 1 6 3 7 8 8 9 9 10 10 11 11 12 12 13 13
REMARK SMILES IDX 14 14
REMARK H PARENT
REMARK Flexibility Score: inf
ROOT
ATOM      1  C   UNL     1      33.238  18.999  13.403  1.00  0.00     0.000 C 
ENDROOT
BRANCH   1   2
ATOM      2  C   UNL     1      33.322  19.942  12.189  1.00  0.00     0.000 C 
BRANCH   2   3
ATOM      3  C   UNL     1      34.756  20.428  11.910  1.00  0.00     0.006 C 
BRANCH   3   4
ATOM      4  C   UNL     1      34.864  21.479  10.793  1.00  0.00     0.053 C 
BRANCH   4   5
ATOM      5  C   UNL     1      36.268  21.630  10.295  1.00  0.00     0.041 C 
ATOM      6  O   UNL     1      37.008  22.538  10.754  1.00  0.00    -0.550 OA
ATOM      7  O   UNL     1      36.748  20.788   9.299  1.00  0.00    -0.550 OA
ENDBRANCH   4   5
ENDBRANCH   3   4
ENDBRANCH   2   3
ENDBRANCH   1   2
BRANCH   1   8
ATOM      8  C   UNL     1      33.018  19.757  14.723  1.00  0.00     0.000 C 
BRANCH   8   9
ATOM      9  C   UNL     1      33.994  19.319  15.829  1.00  0.00     0.000 C 
BRANCH   9  10
ATOM     10  C   UNL     1      35.021  20.408  16.192  1.00  0.00     0.006 C 
BRANCH  10  11
ATOM     11  C   UNL     1      36.312  20.349  15.358  1.00  0.00     0.053 C 
BRANCH  11  12
ATOM     12  C   UNL     1      36.715  21.692  14.827  1.00  0.00     0.041 C 
ATOM     13  O   UNL     1      35.837  22.528  14.486  1.00  0.00    -0.550 OA
ATOM     14  O   UNL     1      38.059  22.009  14.676  1.00  0.00    -0.550 OA
ENDBRANCH  11  12
ENDBRANCH  10  11
ENDBRANCH   9  10
ENDBRANCH   8   9
ENDBRANCH   1   8
TORSDOF 9
ENDMDL
MODEL 5
REMARK VINA RESULT:    -3.287      2.507      4.600
REMARK INTER + INTRA:          -5.524
REMARK INTER:                  -4.904
REMARK INTRA:                  -0.620
REMARK UNBOUND:                -0.507
REMARK SMILES O=C([O-])CCCCCCCCC(=O)[O-]
REMARK SMILES IDX 7 1 6 2 5 3 4 4 2 5 1 6 3 7 8 8 9 9 10 10 11 11 12 12 13 13
REMARK SMILES IDX 14 14
REMARK H PARENT
REMARK Flexibility Score: inf
ROOT
ATOM      1  C   UNL     1      34.213  20.085  16.451  1.00  0.00     0.000 C 
ENDROOT
BRANCH   1   2
ATOM      2  C   UNL     1      35.666  20.184  15.956  1.00  0.00     0.000 C 
BRANCH   2   3
ATOM      3  C   UNL     1      35.857  21.271  14.882  1.00  0.00     0.006 C 
BRANCH   3   4
ATOM      4  C   UNL     1      36.836  22.388  15.278  1.00  0.00     0.053 C 
BRANCH   4   5
ATOM      5  C   UNL     1      37.862  22.641  14.216  1.00  0.00     0.041 C 
ATOM      6  O   UNL     1      37.503  22.875  13.033  1.00  0.00    -0.550 OA
ATOM      7  O   UNL     1      39.215  22.585  14.528  1.00  0.00    -0.550 OA
ENDBRANCH   4   5
ENDBRANCH   3   4
ENDBRANCH   2   3
ENDBRANCH   1   2
BRANCH   1   8
ATOM      8  C   UNL     1      33.205  19.949  15.298  1.00  0.00     0.000 C 
BRANCH   8   9
ATOM      9  C   UNL     1      33.494  18.736  14.396  1.00  0.00     0.000 C 
BRANCH   9  10
ATOM     10  C   UNL     1      32.974  18.918  12.958  1.00  0.00     0.006 C 
BRANCH  10  11
ATOM     11  C   UNL     1      32.875  20.386  12.512  1.00  0.00     0.053 C 
BRANCH  11  12
ATOM     12  C   UNL     1      33.854  20.724  11.428  1.00  0.00     0.041 C 
ATOM     13  O   UNL     1      35.075  20.449  11.569  1.00  0.00    -0.550 OA
ATOM     14  O   UNL     1      33.426  21.375  10.279  1.00  0.00    -0.550 OA
ENDBRANCH  11  12
ENDBRANCH  10  11
ENDBRANCH   9  10
ENDBRANCH   8   9
ENDBRANCH   1   8
TORSDOF 9
ENDMDL
MODEL 6
REMARK VINA RESULT:    -3.217     14.626     15.935
REMARK INTER + INTRA:          -5.417
REMARK INTER:                  -4.885
REMARK INTRA:                  -0.532
REMARK UNBOUND:                -0.507
REMARK SMILES O=C([O-])CCCCCCCCC(=O)[O-]
REMARK SMILES IDX 7 1 6 2 5 3 4 4 2 5 1 6 3 7 8 8 9 9 10 10 11 11 12 12 13 13
REMARK SMILES IDX 14 14
REMARK H PARENT
REMARK Flexibility Score: inf
ROOT
ATOM      1  C   UNL     1      52.271  22.098  16.222  1.00  0.00     0.000 C 
ENDROOT
BRANCH   1   2
ATOM      2  C   UNL     1      53.082  21.631  17.443  1.00  0.00     0.000 C 
BRANCH   2   3
ATOM      3  C   UNL     1      52.735  22.412  18.724  1.00  0.00     0.006 C 
BRANCH   3   4
ATOM      4  C   UNL     1      51.242  22.401  19.089  1.00  0.00     0.053 C 
BRANCH   4   5
ATOM      5  C   UNL     1      51.008  21.936  20.493  1.00  0.00     0.041 C 
ATOM      6  O   UNL     1      51.629  20.937  20.940  1.00  0.00    -0.550 OA
ATOM      7  O   UNL     1      50.080  22.587  21.297  1.00  0.00    -0.550 OA
ENDBRANCH   4   5
ENDBRANCH   3   4
ENDBRANCH   2   3
ENDBRANCH   1   2
BRANCH   1   8
ATOM      8  C   UNL     1      51.960  20.950  15.248  1.00  0.00     0.000 C 
BRANCH   8   9
ATOM      9  C   UNL     1      50.563  21.070  14.613  1.00  0.00     0.000 C 
BRANCH   9  10
ATOM     10  C   UNL     1      49.492  21.566  15.602  1.00  0.00     0.006 C 
BRANCH  10  11
ATOM     11  C   UNL     1      48.147  20.830  15.484  1.00  0.00     0.053 C 
BRANCH  11  12
ATOM     12  C   UNL     1      47.098  21.403  16.388  1.00  0.00     0.041 C 
ATOM     13  O   UNL     1      45.877  21.218  16.139  1.00  0.00    -0.550 OA
ATOM     14  O   UNL     1      47.465  22.172  17.485  1.00  0.00    -0.550 OA
ENDBRANCH  11  12
ENDBRANCH  10  11
ENDBRANCH   9  10
ENDBRANCH   8   9
ENDBRANCH   1   8
TORSDOF 9
ENDMDL
MODEL 7
REMARK VINA RESULT:    -3.144      2.425      3.565
REMARK INTER + INTRA:          -5.305
REMARK INTER:                  -4.740
REMARK INTRA:                  -0.565
REMARK UNBOUND:                -0.507
REMARK SMILES O=C([O-])CCCCCCCCC(=O)[O-]
REMARK SMILES IDX 7 1 6 2 5 3 4 4 2 5 1 6 3 7 8 8 9 9 10 10 11 11 12 12 13 13
REMARK SMILES IDX 14 14
REMARK H PARENT
REMARK Flexibility Score: inf
ROOT
ATOM      1  C   UNL     1      33.782  20.728  11.876  1.00  0.00     0.000 C 
ENDROOT
BRANCH   1   2
ATOM      2  C   UNL     1      33.300  19.472  12.623  1.00  0.00     0.000 C 
BRANCH   2   3
ATOM      3  C   UNL     1      32.985  19.743  14.105  1.00  0.00     0.006 C 
BRANCH   3   4
ATOM      4  C   UNL     1      33.928  19.037  15.094  1.00  0.00     0.053 C 
BRANCH   4   5
ATOM      5  C   UNL     1      35.029  19.937  15.564  1.00  0.00     0.041 C 
ATOM      6  O   UNL     1      34.970  20.466  16.705  1.00  0.00    -0.550 OA
ATOM      7  O   UNL     1      36.103  20.218  14.729  1.00  0.00    -0.550 OA
ENDBRANCH   4   5
ENDBRANCH   3   4
ENDBRANCH   2   3
ENDBRANCH   1   2
BRANCH   1   8
ATOM      8  C   UNL     1      32.936  21.034  10.629  1.00  0.00     0.000 C 
BRANCH   8   9
ATOM      9  C   UNL     1      33.371  22.327   9.918  1.00  0.00     0.000 C 
BRANCH   9  10
ATOM     10  C   UNL     1      34.136  22.066   8.607  1.00  0.00     0.006 C 
BRANCH  10  11
ATOM     11  C   UNL     1      35.583  22.585   8.616  1.00  0.00     0.053 C 
BRANCH  11  12
ATOM     12  C   UNL     1      36.462  21.821   9.560  1.00  0.00     0.041 C 
ATOM     13  O   UNL     1      36.808  20.641   9.289  1.00  0.00    -0.550 OA
ATOM     14  O   UNL     1      36.869  22.398  10.756  1.00  0.00    -0.550 OA
ENDBRANCH  11  12
ENDBRANCH  10  11
ENDBRANCH   9  10
ENDBRANCH   8   9
ENDBRANCH   1   8
TORSDOF 9
ENDMDL
MODEL 8
REMARK VINA RESULT:    -3.032     14.725     16.551
REMARK INTER + INTRA:          -5.134
REMARK INTER:                  -4.458
REMARK INTRA:                  -0.676
REMARK UNBOUND:                -0.507
REMARK SMILES O=C([O-])CCCCCCCCC(=O)[O-]
REMARK SMILES IDX 7 1 6 2 5 3 4 4 2 5 1 6 3 7 8 8 9 9 10 10 11 11 12 12 13 13
REMARK SMILES IDX 14 14
REMARK H PARENT
REMARK Flexibility Score: inf
ROOT
ATOM      1  C   UNL     1      48.285  20.852  15.651  1.00  0.00     0.000 C 
ENDROOT
BRANCH   1   2
ATOM      2  C   UNL     1      49.582  21.602  15.299  1.00  0.00     0.000 C 
BRANCH   2   3
ATOM      3  C   UNL     1      50.687  20.667  14.775  1.00  0.00     0.006 C 
BRANCH   3   4
ATOM      4  C   UNL     1      52.062  21.336  14.617  1.00  0.00     0.053 C 
BRANCH   4   5
ATOM      5  C   UNL     1      52.697  21.637  15.940  1.00  0.00     0.041 C 
ATOM      6  O   UNL     1      53.125  20.700  16.664  1.00  0.00    -0.550 OA
ATOM      7  O   UNL     1      52.787  22.949  16.387  1.00  0.00    -0.550 OA
ENDBRANCH   4   5
ENDBRANCH   3   4
ENDBRANCH   2   3
ENDBRANCH   1   2
BRANCH   1   8
ATOM      8  C   UNL     1      47.372  21.661  16.586  1.00  0.00     0.000 C 
BRANCH   8   9
ATOM      9  C   UNL     1      48.086  22.869  17.216  1.00  0.00     0.000 C 
BRANCH   9  10
ATOM     10  C   UNL     1      48.699  22.556  18.594  1.00  0.00     0.006 C 
BRANCH  10  11
ATOM     11  C   UNL     1      50.177  22.958  18.725  1.00  0.00     0.053 C 
BRANCH  11  12
ATOM     12  C   UNL     1      50.907  22.139  19.746  1.00  0.00     0.041 C 
ATOM     13  O   UNL     1      50.265  21.468  20.597  1.00  0.00    -0.550 OA
ATOM     14  O   UNL     1      52.296  22.143  19.782  1.00  0.00    -0.550 OA
ENDBRANCH  11  12
ENDBRANCH  10  11
ENDBRANCH   9  10
ENDBRANCH   8   9
ENDBRANCH   1   8
TORSDOF 9
ENDMDL
MODEL 9
REMARK VINA RESULT:    -3.028     14.540     15.762
REMARK INTER + INTRA:          -5.129
REMARK INTER:                  -4.648
REMARK INTRA:                  -0.481
REMARK UNBOUND:                -0.507
REMARK SMILES O=C([O-])CCCCCCCCC(=O)[O-]
REMARK SMILES IDX 7 1 6 2 5 3 4 4 2 5 1 6 3 7 8 8 9 9 10 10 11 11 12 12 13 13
REMARK SMILES IDX 14 14
REMARK H PARENT
REMARK Flexibility Score: inf
ROOT
ATOM      1  C   UNL     1      47.395  21.834  16.748  1.00  0.00     0.000 C 
ENDROOT
BRANCH   1   2
ATOM      2  C   UNL     1      48.037  23.112  17.316  1.00  0.00     0.000 C 
BRANCH   2   3
ATOM      3  C   UNL     1      48.273  23.035  18.836  1.00  0.00     0.006 C 
BRANCH   3   4
ATOM      4  C   UNL     1      49.681  22.568  19.237  1.00  0.00     0.053 C 
BRANCH   4   5
ATOM      5  C   UNL     1      49.758  22.184  20.683  1.00  0.00     0.041 C 
ATOM      6  O   UNL     1      49.007  22.741  21.526  1.00  0.00    -0.550 OA
ATOM      7  O   UNL     1      50.681  21.236  21.104  1.00  0.00    -0.550 OA
ENDBRANCH   4   5
ENDBRANCH   3   4
ENDBRANCH   2   3
ENDBRANCH   1   2
BRANCH   1   8
ATOM      8  C   UNL     1      48.252  21.184  15.649  1.00  0.00     0.000 C 
BRANCH   8   9
ATOM      9  C   UNL     1      49.718  21.650  15.684  1.00  0.00     0.000 C 
BRANCH   9  10
ATOM     10  C   UNL     1      50.553  21.098  14.515  1.00  0.00     0.006 C 
BRANCH  10  11
ATOM     11  C   UNL     1      51.997  20.731  14.898  1.00  0.00     0.053 C 
BRANCH  11  12
ATOM     12  C   UNL     1      52.638  21.764  15.775  1.00  0.00     0.041 C 
ATOM     13  O   UNL     1      53.116  22.814  15.270  1.00  0.00    -0.550 OA
ATOM     14  O   UNL     1      52.742  21.552  17.143  1.00  0.00    -0.550 OA
ENDBRANCH  11  12
ENDBRANCH  10  11
ENDBRANCH   9  10
ENDBRANCH   8   9
ENDBRANCH   1   8
TORSDOF 9
ENDMDL
