MODEL 1
REMARK VINA RESULT:    -3.155      0.000      0.000
REMARK INTER + INTRA:          -3.247
REMARK INTER:                  -3.247
REMARK INTRA:                   0.000
REMARK UNBOUND:                 0.000
REMARK SMILES CC1(C)[C@H]2CC[C@]1(C)[C@@H](O)C2
REMARK SMILES IDX 1 1 2 2 4 3 5 4 6 5 7 6 9 7 11 8 8 9 3 10 10 11
REMARK H PARENT 10 12
REMARK Flexibility Score: inf
ROOT
ATOM      1  C   UNL     1     110.341 112.044 106.182  1.00  0.00     0.012 C 
ATOM      2  C   UNL     1     109.176 111.849 105.164  1.00  0.00    -0.025 C 
ATOM      3  C   UNL     1     107.803 112.277 105.706  1.00  0.00    -0.002 C 
ATOM      4  C   UNL     1     106.831 111.873 104.569  1.00  0.00     0.005 C 
ATOM      5  C   UNL     1     107.457 110.571 104.030  1.00  0.00     0.010 C 
ATOM      6  C   UNL     1     108.704 110.392 104.940  1.00  0.00    -0.001 C 
ATOM      7  C   UNL     1     108.146 109.958 106.330  1.00  0.00     0.121 C 
ATOM      8  C   UNL     1     107.545 111.280 106.866  1.00  0.00     0.036 C 
ATOM      9  C   UNL     1     109.743 109.429 104.346  1.00  0.00     0.015 C 
ATOM     10  C   UNL     1     109.612 112.614 103.875  1.00  0.00     0.012 C 
ENDROOT
BRANCH   7  11
ATOM     11  O   UNL     1     109.157 109.466 107.171  1.00  0.00    -0.393 OA
ATOM     12  H   UNL     1     110.014 109.602 106.690  1.00  0.00     0.210 HD
ENDBRANCH   7  11
TORSDOF 1
ENDMDL
MODEL 2
REMARK VINA RESULT:    -3.151      2.669      4.687
REMARK INTER + INTRA:          -3.243
REMARK INTER:                  -3.243
REMARK INTRA:                   0.000
REMARK UNBOUND:                 0.000
REMARK SMILES CC1(C)[C@H]2CC[C@]1(C)[C@@H](O)C2
REMARK SMILES IDX 1 1 2 2 4 3 5 4 6 5 7 6 9 7 11 8 8 9 3 10 10 11
REMARK H PARENT 10 12
REMARK Flexibility Score: inf
ROOT
ATOM      1  C   UNL     1     109.790 108.154 106.196  1.00  0.00     0.012 C 
ATOM      2  C   UNL     1     110.927 108.309 105.140  1.00  0.00    -0.025 C 
ATOM      3  C   UNL     1     112.306 107.859 105.646  1.00  0.00    -0.002 C 
ATOM      4  C   UNL     1     113.251 108.225 104.474  1.00  0.00     0.005 C 
ATOM      5  C   UNL     1     112.638 109.534 103.936  1.00  0.00     0.010 C 
ATOM      6  C   UNL     1     111.423 109.753 104.882  1.00  0.00    -0.001 C 
ATOM      7  C   UNL     1     112.033 110.193 106.247  1.00  0.00     0.121 C 
ATOM      8  C   UNL     1     112.620 108.865 106.784  1.00  0.00     0.036 C 
ATOM      9  C   UNL     1     110.388 110.730 104.306  1.00  0.00     0.015 C 
ATOM     10  C   UNL     1     110.435 107.537 103.875  1.00  0.00     0.012 C 
ENDROOT
BRANCH   7  11
ATOM     11  O   UNL     1     111.059 110.718 107.111  1.00  0.00    -0.393 OA
ATOM     12  H   UNL     1     110.180 110.534 106.690  1.00  0.00     0.210 HD
ENDBRANCH   7  11
TORSDOF 1
ENDMDL
MODEL 3
REMARK VINA RESULT:    -3.062      2.411      3.890
REMARK INTER + INTRA:          -3.152
REMARK INTER:                  -3.152
REMARK INTRA:                   0.000
REMARK UNBOUND:                 0.000
REMARK SMILES CC1(C)[C@H]2CC[C@]1(C)[C@@H](O)C2
REMARK SMILES IDX 1 1 2 2 4 3 5 4 6 5 7 6 9 7 11 8 8 9 3 10 10 11
REMARK H PARENT 10 12
REMARK Flexibility Score: inf
ROOT
ATOM      1  C   UNL     1     112.264 110.132 104.413  1.00  0.00     0.012 C 
ATOM      2  C   UNL     1     111.048 110.618 105.259  1.00  0.00    -0.025 C 
ATOM      3  C   UNL     1     110.052 111.483 104.471  1.00  0.00    -0.002 C 
ATOM      4  C   UNL     1     109.032 111.924 105.550  1.00  0.00     0.005 C 
ATOM      5  C   UNL     1     109.915 112.106 106.801  1.00  0.00     0.010 C 
ATOM      6  C   UNL     1     111.333 111.756 106.269  1.00  0.00    -0.001 C 
ATOM      7  C   UNL     1     111.750 112.961 105.373  1.00  0.00     0.121 C 
ATOM      8  C   UNL     1     110.875 112.748 104.114  1.00  0.00     0.036 C 
ATOM      9  C   UNL     1     112.327 111.428 107.393  1.00  0.00     0.015 C 
ATOM     10  C   UNL     1     110.418 109.327 105.870  1.00  0.00     0.012 C 
ENDROOT
BRANCH   7  11
ATOM     11  O   UNL     1     113.120 112.937 105.065  1.00  0.00    -0.393 OA
ATOM     12  H   UNL     1     113.492 112.127 105.502  1.00  0.00     0.210 HD
ENDBRANCH   7  11
TORSDOF 1
ENDMDL
MODEL 4
REMARK VINA RESULT:    -3.007      2.250      3.594
REMARK INTER + INTRA:          -3.095
REMARK INTER:                  -3.095
REMARK INTRA:                   0.000
REMARK UNBOUND:                 0.000
REMARK SMILES CC1(C)[C@H]2CC[C@]1(C)[C@@H](O)C2
REMARK SMILES IDX 1 1 2 2 4 3 5 4 6 5 7 6 9 7 11 8 8 9 3 10 10 11
REMARK H PARENT 10 12
REMARK Flexibility Score: inf
ROOT
ATOM      1  C   UNL     1     109.839 111.950 106.764  1.00  0.00     0.012 C 
ATOM      2  C   UNL     1     111.138 111.716 105.934  1.00  0.00    -0.025 C 
ATOM      3  C   UNL     1     111.381 112.780 104.852  1.00  0.00    -0.002 C 
ATOM      4  C   UNL     1     112.638 112.254 104.113  1.00  0.00     0.005 C 
ATOM      5  C   UNL     1     112.438 110.725 104.144  1.00  0.00     0.010 C 
ATOM      6  C   UNL     1     111.082 110.575 104.889  1.00  0.00    -0.001 C 
ATOM      7  C   UNL     1     109.995 111.045 103.875  1.00  0.00     0.121 C 
ATOM      8  C   UNL     1     110.193 112.581 103.876  1.00  0.00     0.036 C 
ATOM      9  C   UNL     1     110.860 109.161 105.445  1.00  0.00     0.015 C 
ATOM     10  C   UNL     1     112.291 111.604 106.981  1.00  0.00     0.012 C 
ENDROOT
BRANCH   7  11
ATOM     11  O   UNL     1     108.702 110.687 104.287  1.00  0.00    -0.393 OA
ATOM     12  H   UNL     1     108.804 109.894 104.876  1.00  0.00     0.210 HD
ENDBRANCH   7  11
TORSDOF 1
ENDMDL
MODEL 5
REMARK VINA RESULT:    -2.969      2.038      3.853
REMARK INTER + INTRA:          -3.055
REMARK INTER:                  -3.055
REMARK INTRA:                   0.000
REMARK UNBOUND:                 0.000
REMARK SMILES CC1(C)[C@H]2CC[C@]1(C)[C@@H](O)C2
REMARK SMILES IDX 1 1 2 2 4 3 5 4 6 5 7 6 9 7 11 8 8 9 3 10 10 11
REMARK H PARENT 10 12
REMARK Flexibility Score: inf
ROOT
ATOM      1  C   UNL     1     110.232 108.036 106.849  1.00  0.00     0.012 C 
ATOM      2  C   UNL     1     108.975 108.229 105.947  1.00  0.00    -0.025 C 
ATOM      3  C   UNL     1     108.984 107.359 104.680  1.00  0.00    -0.002 C 
ATOM      4  C   UNL     1     107.716 107.825 103.921  1.00  0.00     0.005 C 
ATOM      5  C   UNL     1     107.666 109.334 104.232  1.00  0.00     0.010 C 
ATOM      6  C   UNL     1     108.923 109.539 105.123  1.00  0.00    -0.001 C 
ATOM      7  C   UNL     1     110.141 109.425 104.156  1.00  0.00     0.121 C 
ATOM      8  C   UNL     1     110.193 107.904 103.875  1.00  0.00     0.036 C 
ATOM      9  C   UNL     1     108.875 110.844 105.932  1.00  0.00     0.015 C 
ATOM     10  C   UNL     1     107.747 107.978 106.877  1.00  0.00     0.012 C 
ENDROOT
BRANCH   7  11
ATOM     11  O   UNL     1     111.327 109.885 104.751  1.00  0.00    -0.393 OA
ATOM     12  H   UNL     1     111.842 109.079 105.011  1.00  0.00     0.210 HD
ENDBRANCH   7  11
TORSDOF 1
ENDMDL
MODEL 6
REMARK VINA RESULT:    -2.966      3.090      4.730
REMARK INTER + INTRA:          -3.052
REMARK INTER:                  -3.052
REMARK INTRA:                   0.000
REMARK UNBOUND:                 0.000
REMARK SMILES CC1(C)[C@H]2CC[C@]1(C)[C@@H](O)C2
REMARK SMILES IDX 1 1 2 2 4 3 5 4 6 5 7 6 9 7 11 8 8 9 3 10 10 11
REMARK H PARENT 10 12
REMARK Flexibility Score: inf
ROOT
ATOM      1  C   UNL     1     112.145 110.159 106.850  1.00  0.00     0.012 C 
ATOM      2  C   UNL     1     112.154 108.903 105.926  1.00  0.00    -0.025 C 
ATOM      3  C   UNL     1     113.000 109.077 104.655  1.00  0.00    -0.002 C 
ATOM      4  C   UNL     1     112.743 107.763 103.875  1.00  0.00     0.005 C 
ATOM      5  C   UNL     1     111.265 107.459 104.194  1.00  0.00     0.010 C 
ATOM      6  C   UNL     1     110.864 108.650 105.109  1.00  0.00    -0.001 C 
ATOM      7  C   UNL     1     110.767 109.886 104.164  1.00  0.00     0.121 C 
ATOM      8  C   UNL     1     112.256 110.193 103.875  1.00  0.00     0.036 C 
ATOM      9  C   UNL     1     109.591 108.374 105.924  1.00  0.00     0.015 C 
ATOM     10  C   UNL     1     112.612 107.717 106.832  1.00  0.00     0.012 C 
ENDROOT
BRANCH   7  11
ATOM     11  O   UNL     1     110.123 110.970 104.782  1.00  0.00    -0.393 OA
ATOM     12  H   UNL     1     109.589 110.592 105.528  1.00  0.00     0.210 HD
ENDBRANCH   7  11
TORSDOF 1
ENDMDL
MODEL 7
REMARK VINA RESULT:    -2.941      1.837      3.732
REMARK INTER + INTRA:          -3.027
REMARK INTER:                  -3.027
REMARK INTRA:                   0.000
REMARK UNBOUND:                 0.000
REMARK SMILES CC1(C)[C@H]2CC[C@]1(C)[C@@H](O)C2
REMARK SMILES IDX 1 1 2 2 4 3 5 4 6 5 7 6 9 7 11 8 8 9 3 10 10 11
REMARK H PARENT 10 12
REMARK Flexibility Score: inf
ROOT
ATOM      1  C   UNL     1     107.748 107.392 106.070  1.00  0.00     0.012 C 
ATOM      2  C   UNL     1     108.837 107.957 105.108  1.00  0.00    -0.025 C 
ATOM      3  C   UNL     1     110.214 108.135 105.768  1.00  0.00    -0.002 C 
ATOM      4  C   UNL     1     111.057 108.808 104.655  1.00  0.00     0.005 C 
ATOM      5  C   UNL     1     110.032 109.726 103.958  1.00  0.00     0.010 C 
ATOM      6  C   UNL     1     108.734 109.465 104.773  1.00  0.00    -0.001 C 
ATOM      7  C   UNL     1     108.954 110.173 106.144  1.00  0.00     0.121 C 
ATOM      8  C   UNL     1     109.963 109.227 106.840  1.00  0.00     0.036 C 
ATOM      9  C   UNL     1     107.464 109.906 104.029  1.00  0.00     0.015 C 
ATOM     10  C   UNL     1     108.846 107.000 103.875  1.00  0.00     0.012 C 
ENDROOT
BRANCH   7  11
ATOM     11  O   UNL     1     107.760 110.287 106.874  1.00  0.00    -0.393 OA
ATOM     12  H   UNL     1     107.148 110.844 106.326  1.00  0.00     0.210 HD
ENDBRANCH   7  11
TORSDOF 1
ENDMDL
MODEL 8
REMARK VINA RESULT:    -2.162      1.921      3.321
REMARK INTER + INTRA:          -2.226
REMARK INTER:                  -2.226
REMARK INTRA:                   0.000
REMARK UNBOUND:                 0.000
REMARK SMILES CC1(C)[C@H]2CC[C@]1(C)[C@@H](O)C2
REMARK SMILES IDX 1 1 2 2 4 3 5 4 6 5 7 6 9 7 11 8 8 9 3 10 10 11
REMARK H PARENT 10 12
REMARK Flexibility Score: inf
ROOT
ATOM      1  C   UNL     1     112.014 109.727 106.148  1.00  0.00     0.012 C 
ATOM      2  C   UNL     1     111.863 110.904 105.136  1.00  0.00    -0.025 C 
ATOM      3  C   UNL     1     112.268 112.270 105.712  1.00  0.00    -0.002 C 
ATOM      4  C   UNL     1     111.912 113.255 104.570  1.00  0.00     0.005 C 
ATOM      5  C   UNL     1     110.633 112.637 103.971  1.00  0.00     0.010 C 
ATOM      6  C   UNL     1     110.416 111.380 104.859  1.00  0.00    -0.001 C 
ATOM      7  C   UNL     1     109.925 111.922 106.235  1.00  0.00     0.121 C 
ATOM      8  C   UNL     1     111.225 112.515 106.833  1.00  0.00     0.036 C 
ATOM      9  C   UNL     1     109.478 110.349 104.213  1.00  0.00     0.015 C 
ATOM     10  C   UNL     1     112.680 110.482 103.875  1.00  0.00     0.012 C 
ENDROOT
BRANCH   7  11
ATOM     11  O   UNL     1     109.399 110.902 107.043  1.00  0.00    -0.393 OA
ATOM     12  H   UNL     1     108.872 110.312 106.444  1.00  0.00     0.210 HD
ENDBRANCH   7  11
TORSDOF 1
ENDMDL
