MODEL 1
REMARK VINA RESULT:    -3.901      0.000      0.000
REMARK INTER + INTRA:          -4.159
REMARK INTER:                  -4.129
REMARK INTRA:                  -0.031
REMARK UNBOUND:                -0.031
REMARK SMILES O=C([O-])[C@@H]1CCC[NH2+]1
REMARK SMILES IDX 4 1 8 2 7 3 5 4 6 5 2 8 1 9 3 10
REMARK H PARENT 8 6 8 7
REMARK Flexibility Score: inf
ROOT
ATOM      1  C   UNL     1      24.096  37.442   3.499  1.00  0.00     0.229 C 
ATOM      2  N   UNL     1      25.315  36.749   3.062  1.00  0.00    -0.339 N 
ATOM      3  C   UNL     1      25.273  36.677   1.597  1.00  0.00     0.261 C 
ATOM      4  C   UNL     1      23.655  38.323   2.338  1.00  0.00     0.077 C 
ATOM      5  C   UNL     1      24.185  37.626   1.101  1.00  0.00     0.068 C 
ATOM      6  H   UNL     1      26.149  37.313   3.353  1.00  0.00     0.346 HD
ATOM      7  H   UNL     1      25.402  35.793   3.481  1.00  0.00     0.346 HD
ENDROOT
BRANCH   1   8
ATOM      8  C   UNL     1      23.011  36.465   3.884  1.00  0.00     0.099 C 
ATOM      9  O   UNL     1      21.909  36.455   3.273  1.00  0.00    -0.544 OA
ATOM     10  O   UNL     1      23.218  35.579   4.934  1.00  0.00    -0.544 OA
ENDBRANCH   1   8
TORSDOF 1
ENDMDL
MODEL 2
REMARK VINA RESULT:    -3.686      2.397      3.449
REMARK INTER + INTRA:          -3.933
REMARK INTER:                  -3.912
REMARK INTRA:                  -0.021
REMARK UNBOUND:                -0.031
REMARK SMILES O=C([O-])[C@@H]1CCC[NH2+]1
REMARK SMILES IDX 4 1 8 2 7 3 5 4 6 5 2 8 1 9 3 10
REMARK H PARENT 8 6 8 7
REMARK Flexibility Score: inf
ROOT
ATOM      1  C   UNL     1      23.882  38.129   2.478  1.00  0.00     0.229 C 
ATOM      2  N   UNL     1      22.434  37.888   2.515  1.00  0.00    -0.339 N 
ATOM      3  C   UNL     1      22.210  36.714   3.368  1.00  0.00     0.261 C 
ATOM      4  C   UNL     1      24.454  37.540   3.761  1.00  0.00     0.077 C 
ATOM      5  C   UNL     1      23.497  36.427   4.137  1.00  0.00     0.068 C 
ATOM      6  H   UNL     1      21.961  38.718   2.944  1.00  0.00     0.346 HD
ATOM      7  H   UNL     1      22.031  37.737   1.559  1.00  0.00     0.346 HD
ENDROOT
BRANCH   1   8
ATOM      8  C   UNL     1      24.518  37.503   1.260  1.00  0.00     0.099 C 
ATOM      9  O   UNL     1      25.378  36.591   1.383  1.00  0.00    -0.544 OA
ATOM     10  O   UNL     1      24.169  37.947  -0.008  1.00  0.00    -0.544 OA
ENDBRANCH   1   8
TORSDOF 1
ENDMDL
MODEL 3
REMARK VINA RESULT:    -3.617     16.014     16.394
REMARK INTER + INTRA:          -3.859
REMARK INTER:                  -3.767
REMARK INTRA:                  -0.093
REMARK UNBOUND:                -0.031
REMARK SMILES O=C([O-])[C@@H]1CCC[NH2+]1
REMARK SMILES IDX 4 1 8 2 7 3 5 4 6 5 2 8 1 9 3 10
REMARK H PARENT 8 6 8 7
REMARK Flexibility Score: inf
ROOT
ATOM      1  C   UNL     1      37.239  46.614   5.509  1.00  0.00     0.229 C 
ATOM      2  N   UNL     1      36.272  45.977   4.606  1.00  0.00    -0.339 N 
ATOM      3  C   UNL     1      34.930  46.281   5.119  1.00  0.00     0.261 C 
ATOM      4  C   UNL     1      36.518  47.787   6.161  1.00  0.00     0.077 C 
ATOM      5  C   UNL     1      35.055  47.394   6.157  1.00  0.00     0.068 C 
ATOM      6  H   UNL     1      36.374  46.393   3.650  1.00  0.00     0.346 HD
ATOM      7  H   UNL     1      36.418  44.942   4.532  1.00  0.00     0.346 HD
ENDROOT
BRANCH   1   8
ATOM      8  C   UNL     1      37.750  45.644   6.547  1.00  0.00     0.099 C 
ATOM      9  O   UNL     1      38.076  44.471   6.224  1.00  0.00    -0.544 OA
ATOM     10  O   UNL     1      37.845  46.039   7.875  1.00  0.00    -0.544 OA
ENDBRANCH   1   8
TORSDOF 1
ENDMDL
MODEL 4
REMARK VINA RESULT:    -3.471      6.035      6.584
REMARK INTER + INTRA:          -3.705
REMARK INTER:                  -3.609
REMARK INTRA:                  -0.096
REMARK UNBOUND:                -0.031
REMARK SMILES O=C([O-])[C@@H]1CCC[NH2+]1
REMARK SMILES IDX 4 1 8 2 7 3 5 4 6 5 2 8 1 9 3 10
REMARK H PARENT 8 6 8 7
REMARK Flexibility Score: inf
ROOT
ATOM      1  C   UNL     1      24.242  33.421   7.123  1.00  0.00     0.229 C 
ATOM      2  N   UNL     1      25.429  32.698   6.648  1.00  0.00    -0.339 N 
ATOM      3  C   UNL     1      25.056  31.284   6.521  1.00  0.00     0.261 C 
ATOM      4  C   UNL     1      23.032  32.608   6.684  1.00  0.00     0.077 C 
ATOM      5  C   UNL     1      23.535  31.181   6.597  1.00  0.00     0.068 C 
ATOM      6  H   UNL     1      25.697  33.067   5.705  1.00  0.00     0.346 HD
ATOM      7  H   UNL     1      26.249  32.812   7.291  1.00  0.00     0.346 HD
ENDROOT
BRANCH   1   8
ATOM      8  C   UNL     1      24.264  33.597   8.623  1.00  0.00     0.099 C 
ATOM      9  O   UNL     1      25.356  33.607   9.252  1.00  0.00    -0.544 OA
ATOM     10  O   UNL     1      23.072  33.733   9.321  1.00  0.00    -0.544 OA
ENDBRANCH   1   8
TORSDOF 1
ENDMDL
MODEL 5
REMARK VINA RESULT:    -3.431      7.308      8.423
REMARK INTER + INTRA:          -3.662
REMARK INTER:                  -3.567
REMARK INTRA:                  -0.095
REMARK UNBOUND:                -0.031
REMARK SMILES O=C([O-])[C@@H]1CCC[NH2+]1
REMARK SMILES IDX 4 1 8 2 7 3 5 4 6 5 2 8 1 9 3 10
REMARK H PARENT 8 6 8 7
REMARK Flexibility Score: inf
ROOT
ATOM      1  C   UNL     1      26.386  36.292  10.420  1.00  0.00     0.229 C 
ATOM      2  N   UNL     1      26.251  37.719  10.102  1.00  0.00    -0.339 N 
ATOM      3  C   UNL     1      25.759  38.390  11.312  1.00  0.00     0.261 C 
ATOM      4  C   UNL     1      26.593  36.199  11.927  1.00  0.00     0.077 C 
ATOM      5  C   UNL     1      25.908  37.429  12.488  1.00  0.00     0.068 C 
ATOM      6  H   UNL     1      27.194  38.104   9.857  1.00  0.00     0.346 HD
ATOM      7  H   UNL     1      25.606  37.887   9.293  1.00  0.00     0.346 HD
ENDROOT
BRANCH   1   8
ATOM      8  C   UNL     1      25.169  35.509   9.989  1.00  0.00     0.099 C 
ATOM      9  O   UNL     1      24.922  34.379  10.487  1.00  0.00    -0.544 OA
ATOM     10  O   UNL     1      24.320  36.029   9.021  1.00  0.00    -0.544 OA
ENDBRANCH   1   8
TORSDOF 1
ENDMDL
MODEL 6
REMARK VINA RESULT:    -3.377      8.467      9.161
REMARK INTER + INTRA:          -3.605
REMARK INTER:                  -3.510
REMARK INTRA:                  -0.095
REMARK UNBOUND:                -0.031
REMARK SMILES O=C([O-])[C@@H]1CCC[NH2+]1
REMARK SMILES IDX 4 1 8 2 7 3 5 4 6 5 2 8 1 9 3 10
REMARK H PARENT 8 6 8 7
REMARK Flexibility Score: inf
ROOT
ATOM      1  C   UNL     1      25.776  36.197  11.110  1.00  0.00     0.229 C 
ATOM      2  N   UNL     1      26.674  35.802  10.016  1.00  0.00    -0.339 N 
ATOM      3  C   UNL     1      27.907  35.291  10.629  1.00  0.00     0.261 C 
ATOM      4  C   UNL     1      26.175  35.365  12.322  1.00  0.00     0.077 C 
ATOM      5  C   UNL     1      27.643  35.055  12.113  1.00  0.00     0.068 C 
ATOM      6  H   UNL     1      26.222  35.034   9.466  1.00  0.00     0.346 HD
ATOM      7  H   UNL     1      26.881  36.596   9.365  1.00  0.00     0.346 HD
ENDROOT
BRANCH   1   8
ATOM      8  C   UNL     1      25.878  37.674  11.405  1.00  0.00     0.099 C 
ATOM      9  O   UNL     1      25.951  38.512  10.467  1.00  0.00    -0.544 OA
ATOM     10  O   UNL     1      25.911  38.116  12.721  1.00  0.00    -0.544 OA
ENDBRANCH   1   8
TORSDOF 1
ENDMDL
MODEL 7
REMARK VINA RESULT:    -3.360     15.988     16.286
REMARK INTER + INTRA:          -3.587
REMARK INTER:                  -3.543
REMARK INTRA:                  -0.044
REMARK UNBOUND:                -0.031
REMARK SMILES O=C([O-])[C@@H]1CCC[NH2+]1
REMARK SMILES IDX 4 1 8 2 7 3 5 4 6 5 2 8 1 9 3 10
REMARK H PARENT 8 6 8 7
REMARK Flexibility Score: inf
ROOT
ATOM      1  C   UNL     1      36.519  46.624   6.804  1.00  0.00     0.229 C 
ATOM      2  N   UNL     1      37.239  45.357   6.621  1.00  0.00    -0.339 N 
ATOM      3  C   UNL     1      38.209  45.559   5.538  1.00  0.00     0.261 C 
ATOM      4  C   UNL     1      37.447  47.726   6.309  1.00  0.00     0.077 C 
ATOM      5  C   UNL     1      38.325  47.057   5.271  1.00  0.00     0.068 C 
ATOM      6  H   UNL     1      37.756  45.128   7.504  1.00  0.00     0.346 HD
ATOM      7  H   UNL     1      36.594  44.560   6.402  1.00  0.00     0.346 HD
ENDROOT
BRANCH   1   8
ATOM      8  C   UNL     1      35.212  46.632   6.049  1.00  0.00     0.099 C 
ATOM      9  O   UNL     1      34.447  47.632   6.101  1.00  0.00    -0.544 OA
ATOM     10  O   UNL     1      34.836  45.523   5.302  1.00  0.00    -0.544 OA
ENDBRANCH   1   8
TORSDOF 1
ENDMDL
MODEL 8
REMARK VINA RESULT:    -3.355      3.238      4.041
REMARK INTER + INTRA:          -3.582
REMARK INTER:                  -3.495
REMARK INTRA:                  -0.087
REMARK UNBOUND:                -0.031
REMARK SMILES O=C([O-])[C@@H]1CCC[NH2+]1
REMARK SMILES IDX 4 1 8 2 7 3 5 4 6 5 2 8 1 9 3 10
REMARK H PARENT 8 6 8 7
REMARK Flexibility Score: inf
ROOT
ATOM      1  C   UNL     1      24.596  38.312  -0.856  1.00  0.00     0.229 C 
ATOM      2  N   UNL     1      25.578  37.229  -0.715  1.00  0.00    -0.339 N 
ATOM      3  C   UNL     1      25.164  36.147  -1.617  1.00  0.00     0.261 C 
ATOM      4  C   UNL     1      23.987  38.170  -2.245  1.00  0.00     0.077 C 
ATOM      5  C   UNL     1      24.107  36.695  -2.571  1.00  0.00     0.068 C 
ATOM      6  H   UNL     1      26.518  37.581  -1.013  1.00  0.00     0.346 HD
ATOM      7  H   UNL     1      25.652  36.885   0.272  1.00  0.00     0.346 HD
ENDROOT
BRANCH   1   8
ATOM      8  C   UNL     1      23.533  38.240   0.214  1.00  0.00     0.099 C 
ATOM      9  O   UNL     1      22.320  38.424  -0.072  1.00  0.00    -0.544 OA
ATOM     10  O   UNL     1      23.893  37.988   1.531  1.00  0.00    -0.544 OA
ENDBRANCH   1   8
TORSDOF 1
ENDMDL
MODEL 9
REMARK VINA RESULT:    -3.343      5.136      6.209
REMARK INTER + INTRA:          -3.570
REMARK INTER:                  -3.507
REMARK INTRA:                  -0.062
REMARK UNBOUND:                -0.031
REMARK SMILES O=C([O-])[C@@H]1CCC[NH2+]1
REMARK SMILES IDX 4 1 8 2 7 3 5 4 6 5 2 8 1 9 3 10
REMARK H PARENT 8 6 8 7
REMARK Flexibility Score: inf
ROOT
ATOM      1  C   UNL     1      24.311  32.808   7.333  1.00  0.00     0.229 C 
ATOM      2  N   UNL     1      24.508  33.882   6.351  1.00  0.00    -0.339 N 
ATOM      3  C   UNL     1      23.180  34.411   6.013  1.00  0.00     0.261 C 
ATOM      4  C   UNL     1      22.998  33.104   8.046  1.00  0.00     0.077 C 
ATOM      5  C   UNL     1      22.180  33.889   7.040  1.00  0.00     0.068 C 
ATOM      6  H   UNL     1      25.077  34.644   6.790  1.00  0.00     0.346 HD
ATOM      7  H   UNL     1      25.008  33.550   5.492  1.00  0.00     0.346 HD
ENDROOT
BRANCH   1   8
ATOM      8  C   UNL     1      24.277  31.451   6.670  1.00  0.00     0.099 C 
ATOM      9  O   UNL     1      25.233  31.067   5.945  1.00  0.00    -0.544 OA
ATOM     10  O   UNL     1      23.176  30.623   6.845  1.00  0.00    -0.544 OA
ENDBRANCH   1   8
TORSDOF 1
ENDMDL
