MODEL 1
REMARK VINA RESULT:    -5.547      0.000      0.000
REMARK INTER + INTRA:          -9.395
REMARK INTER:                  -8.628
REMARK INTRA:                  -0.767
REMARK UNBOUND:                -0.767
REMARK SMILES COc1cc(CNC(=O)CCCCC=CC(C)C)ccc1O
REMARK SMILES IDX 11 1 12 2 13 3 14 4 15 5 16 6 17 7 18 8 10 9 8 10 9 11 7 12
REMARK SMILES IDX 6 14 5 15 4 16 19 17 3 18 20 19 21 20 2 21 1 22 22 23
REMARK H PARENT 7 13 22 24
REMARK Flexibility Score: inf
ROOT
ATOM      1  C   UNL     1     -13.245 -10.430  93.513  1.00  0.00     0.010 C 
ENDROOT
BRANCH   1   2
ATOM      2  C   UNL     1     -12.897 -11.838  94.020  1.00  0.00     0.005 C 
BRANCH   2   3
ATOM      3  C   UNL     1     -11.833 -11.808  95.132  1.00  0.00     0.027 C 
BRANCH   3   4
ATOM      4  C   UNL     1     -12.242 -10.943  96.292  1.00  0.00    -0.031 C 
ATOM      5  C   UNL     1     -13.093 -11.383  97.231  1.00  0.00    -0.028 C 
BRANCH   5   6
ATOM      6  C   UNL     1     -13.489 -10.509  98.398  1.00  0.00     0.005 C 
ATOM      7  C   UNL     1     -14.802  -9.770  98.101  1.00  0.00     0.012 C 
ATOM      8  C   UNL     1     -13.625 -11.350  99.669  1.00  0.00     0.012 C 
ENDBRANCH   5   6
ENDBRANCH   3   4
ENDBRANCH   2   3
ENDBRANCH   1   2
BRANCH   1   9
ATOM      9  C   UNL     1     -14.388 -10.475  92.493  1.00  0.00     0.100 C 
BRANCH   9  10
ATOM     10  C   UNL     1     -13.940  -9.909  91.179  1.00  0.00     0.220 C 
ATOM     11  O   UNL     1     -14.361  -8.782  90.813  1.00  0.00    -0.275 OA
ATOM     12  N   UNL     1     -13.007 -10.631  90.362  1.00  0.00    -0.352 N 
ATOM     13  H   UNL     1     -12.695 -11.581  90.664  1.00  0.00     0.163 HD
BRANCH  12  14
ATOM     14  C   UNL     1     -12.425 -10.066  89.147  1.00  0.00     0.151 C 
BRANCH  14  15
ATOM     15  C   UNL     1     -10.926 -10.229  89.150  1.00  0.00    -0.025 A 
ATOM     16  C   UNL     1     -10.118  -9.379  89.921  1.00  0.00     0.056 A 
ATOM     17  C   UNL     1     -10.328 -11.226  88.366  1.00  0.00     0.009 A 
ATOM     18  C   UNL     1      -8.716  -9.523  89.916  1.00  0.00     0.160 A 
ATOM     19  C   UNL     1      -8.939 -11.375  88.358  1.00  0.00     0.050 A 
ATOM     20  C   UNL     1      -8.133 -10.528  89.130  1.00  0.00     0.157 A 
BRANCH  18  21
ATOM     21  O   UNL     1      -7.875  -8.691  90.671  1.00  0.00    -0.493 OA
ATOM     22  C   UNL     1      -8.315  -7.853  91.734  1.00  0.00     0.278 C 
ENDBRANCH  18  21
BRANCH  20  23
ATOM     23  O   UNL     1      -6.748 -10.679  89.125  1.00  0.00    -0.504 OA
ATOM     24  H   UNL     1      -6.126  -9.883  89.197  1.00  0.00     0.293 HD
ENDBRANCH  20  23
ENDBRANCH  14  15
ENDBRANCH  12  14
ENDBRANCH   9  10
ENDBRANCH   1   9
TORSDOF 10
ENDMDL
MODEL 2
REMARK VINA RESULT:    -5.297      1.567      2.604
REMARK INTER + INTRA:          -9.005
REMARK INTER:                  -8.206
REMARK INTRA:                  -0.799
REMARK UNBOUND:                -0.767
REMARK SMILES COc1cc(CNC(=O)CCCCC=CC(C)C)ccc1O
REMARK SMILES IDX 11 1 12 2 13 3 14 4 15 5 16 6 17 7 18 8 10 9 8 10 9 11 7 12
REMARK SMILES IDX 6 14 5 15 4 16 19 17 3 18 20 19 21 20 2 21 1 22 22 23
REMARK H PARENT 7 13 22 24
REMARK Flexibility Score: inf
ROOT
ATOM      1  C   UNL     1     -11.849 -11.356  95.746  1.00  0.00     0.010 C 
ENDROOT
BRANCH   1   2
ATOM      2  C   UNL     1     -12.155 -10.573  97.031  1.00  0.00     0.005 C 
BRANCH   2   3
ATOM      3  C   UNL     1     -13.258 -11.242  97.870  1.00  0.00     0.027 C 
BRANCH   3   4
ATOM      4  C   UNL     1     -14.269 -10.252  98.379  1.00  0.00    -0.031 C 
ATOM      5  C   UNL     1     -14.982  -9.482  97.543  1.00  0.00    -0.028 C 
BRANCH   5   6
ATOM      6  C   UNL     1     -16.003  -8.499  98.066  1.00  0.00     0.005 C 
ATOM      7  C   UNL     1     -15.682  -8.102  99.515  1.00  0.00     0.012 C 
ATOM      8  C   UNL     1     -16.053  -7.258  97.172  1.00  0.00     0.012 C 
ENDBRANCH   5   6
ENDBRANCH   3   4
ENDBRANCH   2   3
ENDBRANCH   1   2
BRANCH   1   9
ATOM      9  C   UNL     1     -13.133 -11.891  95.104  1.00  0.00     0.100 C 
BRANCH   9  10
ATOM     10  C   UNL     1     -13.375 -11.227  93.782  1.00  0.00     0.220 C 
ATOM     11  O   UNL     1     -14.544 -10.893  93.459  1.00  0.00    -0.275 OA
ATOM     12  N   UNL     1     -12.274 -10.938  92.907  1.00  0.00    -0.352 N 
ATOM     13  H   UNL     1     -11.316 -11.254  93.175  1.00  0.00     0.163 HD
BRANCH  12  14
ATOM     14  C   UNL     1     -12.430 -10.165  91.677  1.00  0.00     0.151 C 
BRANCH  14  15
ATOM     15  C   UNL     1     -11.118 -10.068  90.941  1.00  0.00    -0.025 A 
ATOM     16  C   UNL     1     -10.025  -9.400  91.517  1.00  0.00     0.056 A 
ATOM     17  C   UNL     1     -10.987 -10.633  89.665  1.00  0.00     0.009 A 
ATOM     18  C   UNL     1      -8.802  -9.299  90.825  1.00  0.00     0.160 A 
ATOM     19  C   UNL     1      -9.776 -10.537  88.975  1.00  0.00     0.050 A 
ATOM     20  C   UNL     1      -8.685  -9.874  89.551  1.00  0.00     0.157 A 
BRANCH  18  21
ATOM     21  O   UNL     1      -7.688  -8.638  91.365  1.00  0.00    -0.493 OA
ATOM     22  C   UNL     1      -7.543  -7.223  91.426  1.00  0.00     0.278 C 
ENDBRANCH  18  21
BRANCH  20  23
ATOM     23  O   UNL     1      -7.476  -9.782  88.864  1.00  0.00    -0.504 OA
ATOM     24  H   UNL     1      -7.203 -10.470  88.172  1.00  0.00     0.293 HD
ENDBRANCH  20  23
ENDBRANCH  14  15
ENDBRANCH  12  14
ENDBRANCH   9  10
ENDBRANCH   1   9
TORSDOF 10
ENDMDL
MODEL 3
REMARK VINA RESULT:    -5.247      2.708      4.940
REMARK INTER + INTRA:          -8.928
REMARK INTER:                  -6.765
REMARK INTRA:                  -2.163
REMARK UNBOUND:                -0.767
REMARK SMILES COc1cc(CNC(=O)CCCCC=CC(C)C)ccc1O
REMARK SMILES IDX 11 1 12 2 13 3 14 4 15 5 16 6 17 7 18 8 10 9 8 10 9 11 7 12
REMARK SMILES IDX 6 14 5 15 4 16 19 17 3 18 20 19 21 20 2 21 1 22 22 23
REMARK H PARENT 7 13 22 24
REMARK Flexibility Score: inf
ROOT
ATOM      1  C   UNL     1     -14.775  -9.415  98.672  1.00  0.00     0.010 C 
ENDROOT
BRANCH   1   2
ATOM      2  C   UNL     1     -13.893 -10.667  98.562  1.00  0.00     0.005 C 
BRANCH   2   3
ATOM      3  C   UNL     1     -12.460 -10.330  98.113  1.00  0.00     0.027 C 
BRANCH   3   4
ATOM      4  C   UNL     1     -12.146 -10.876  96.747  1.00  0.00    -0.031 C 
ATOM      5  C   UNL     1     -13.043 -11.593  96.053  1.00  0.00    -0.028 C 
BRANCH   5   6
ATOM      6  C   UNL     1     -12.721 -12.127  94.677  1.00  0.00     0.005 C 
ATOM      7  C   UNL     1     -13.502 -11.358  93.601  1.00  0.00     0.012 C 
ATOM      8  C   UNL     1     -11.216 -12.038  94.411  1.00  0.00     0.012 C 
ENDBRANCH   5   6
ENDBRANCH   3   4
ENDBRANCH   2   3
ENDBRANCH   1   2
BRANCH   1   9
ATOM      9  C   UNL     1     -15.573  -9.185  97.384  1.00  0.00     0.100 C 
BRANCH   9  10
ATOM     10  C   UNL     1     -14.972  -8.066  96.587  1.00  0.00     0.220 C 
ATOM     11  O   UNL     1     -15.035  -6.889  97.025  1.00  0.00    -0.275 OA
ATOM     12  N   UNL     1     -14.295  -8.342  95.352  1.00  0.00    -0.352 N 
ATOM     13  H   UNL     1     -14.282  -9.320  94.987  1.00  0.00     0.163 HD
BRANCH  12  14
ATOM     14  C   UNL     1     -13.566  -7.316  94.609  1.00  0.00     0.151 C 
BRANCH  14  15
ATOM     15  C   UNL     1     -12.260  -7.862  94.092  1.00  0.00    -0.025 A 
ATOM     16  C   UNL     1     -12.124  -8.226  92.743  1.00  0.00     0.056 A 
ATOM     17  C   UNL     1     -11.173  -8.025  94.963  1.00  0.00     0.009 A 
ATOM     18  C   UNL     1     -10.907  -8.748  92.261  1.00  0.00     0.160 A 
ATOM     19  C   UNL     1      -9.964  -8.540  94.491  1.00  0.00     0.050 A 
ATOM     20  C   UNL     1      -9.828  -8.900  93.143  1.00  0.00     0.157 A 
BRANCH  18  21
ATOM     21  O   UNL     1     -10.733  -9.127  90.920  1.00  0.00    -0.493 OA
ATOM     22  C   UNL     1     -11.240 -10.329  90.351  1.00  0.00     0.278 C 
ENDBRANCH  18  21
BRANCH  20  23
ATOM     23  O   UNL     1      -8.621  -9.411  92.671  1.00  0.00    -0.504 OA
ATOM     24  H   UNL     1      -7.737  -8.956  92.868  1.00  0.00     0.293 HD
ENDBRANCH  20  23
ENDBRANCH  14  15
ENDBRANCH  12  14
ENDBRANCH   9  10
ENDBRANCH   1   9
TORSDOF 10
ENDMDL
MODEL 4
REMARK VINA RESULT:    -5.199      1.890      4.901
REMARK INTER + INTRA:          -8.853
REMARK INTER:                  -7.333
REMARK INTRA:                  -1.520
REMARK UNBOUND:                -0.767
REMARK SMILES COc1cc(CNC(=O)CCCCC=CC(C)C)ccc1O
REMARK SMILES IDX 11 1 12 2 13 3 14 4 15 5 16 6 17 7 18 8 10 9 8 10 9 11 7 12
REMARK SMILES IDX 6 14 5 15 4 16 19 17 3 18 20 19 21 20 2 21 1 22 22 23
REMARK H PARENT 7 13 22 24
REMARK Flexibility Score: inf
ROOT
ATOM      1  C   UNL     1      -8.214  -8.804  93.158  1.00  0.00     0.010 C 
ENDROOT
BRANCH   1   2
ATOM      2  C   UNL     1      -9.206  -7.863  93.857  1.00  0.00     0.005 C 
BRANCH   2   3
ATOM      3  C   UNL     1     -10.668  -8.207  93.519  1.00  0.00     0.027 C 
BRANCH   3   4
ATOM      4  C   UNL     1     -11.033  -9.609  93.921  1.00  0.00    -0.031 C 
ATOM      5  C   UNL     1     -11.205  -9.950  95.207  1.00  0.00    -0.028 C 
BRANCH   5   6
ATOM      6  C   UNL     1     -11.582 -11.360  95.597  1.00  0.00     0.005 C 
ATOM      7  C   UNL     1     -13.029 -11.412  96.111  1.00  0.00     0.012 C 
ATOM      8  C   UNL     1     -11.404 -12.307  94.409  1.00  0.00     0.012 C 
ENDBRANCH   5   6
ENDBRANCH   3   4
ENDBRANCH   2   3
ENDBRANCH   1   2
BRANCH   1   9
ATOM      9  C   UNL     1      -7.579  -8.131  91.937  1.00  0.00     0.100 C 
BRANCH   9  10
ATOM     10  C   UNL     1      -8.149  -8.698  90.670  1.00  0.00     0.220 C 
ATOM     11  O   UNL     1      -7.937  -8.112  89.577  1.00  0.00    -0.275 OA
ATOM     12  N   UNL     1      -8.897  -9.922  90.700  1.00  0.00    -0.352 N 
ATOM     13  H   UNL     1      -9.093 -10.376  91.620  1.00  0.00     0.163 HD
BRANCH  12  14
ATOM     14  C   UNL     1      -9.349 -10.597  89.486  1.00  0.00     0.151 C 
BRANCH  14  15
ATOM     15  C   UNL     1     -10.846 -10.492  89.346  1.00  0.00    -0.025 A 
ATOM     16  C   UNL     1     -11.651 -10.232  90.467  1.00  0.00     0.056 A 
ATOM     17  C   UNL     1     -11.448 -10.671  88.092  1.00  0.00     0.009 A 
ATOM     18  C   UNL     1     -13.052 -10.146  90.339  1.00  0.00     0.160 A 
ATOM     19  C   UNL     1     -12.835 -10.585  87.959  1.00  0.00     0.050 A 
ATOM     20  C   UNL     1     -13.638 -10.322  89.077  1.00  0.00     0.157 A 
BRANCH  18  21
ATOM     21  O   UNL     1     -13.889  -9.890  91.436  1.00  0.00    -0.493 OA
ATOM     22  C   UNL     1     -14.211 -10.845  92.442  1.00  0.00     0.278 C 
ENDBRANCH  18  21
BRANCH  20  23
ATOM     23  O   UNL     1     -15.021 -10.233  88.944  1.00  0.00    -0.504 OA
ATOM     24  H   UNL     1     -15.505  -9.344  88.999  1.00  0.00     0.293 HD
ENDBRANCH  20  23
ENDBRANCH  14  15
ENDBRANCH  12  14
ENDBRANCH   9  10
ENDBRANCH   1   9
TORSDOF 10
ENDMDL
MODEL 5
REMARK VINA RESULT:    -5.193      2.498      7.294
REMARK INTER + INTRA:          -8.844
REMARK INTER:                  -7.995
REMARK INTRA:                  -0.849
REMARK UNBOUND:                -0.767
REMARK SMILES COc1cc(CNC(=O)CCCCC=CC(C)C)ccc1O
REMARK SMILES IDX 11 1 12 2 13 3 14 4 15 5 16 6 17 7 18 8 10 9 8 10 9 11 7 12
REMARK SMILES IDX 6 14 5 15 4 16 19 17 3 18 20 19 21 20 2 21 1 22 22 23
REMARK H PARENT 7 13 22 24
REMARK Flexibility Score: inf
ROOT
ATOM      1  C   UNL     1     -10.160 -10.625  89.511  1.00  0.00     0.010 C 
ENDROOT
BRANCH   1   2
ATOM      2  C   UNL     1      -8.900 -11.040  88.738  1.00  0.00     0.005 C 
BRANCH   2   3
ATOM      3  C   UNL     1      -7.665 -10.224  89.160  1.00  0.00     0.027 C 
BRANCH   3   4
ATOM      4  C   UNL     1      -8.028  -8.847  89.644  1.00  0.00    -0.031 C 
ATOM      5  C   UNL     1      -7.691  -8.421  90.870  1.00  0.00    -0.028 C 
BRANCH   5   6
ATOM      6  C   UNL     1      -8.052  -7.032  91.341  1.00  0.00     0.005 C 
ATOM      7  C   UNL     1      -6.792  -6.167  91.493  1.00  0.00     0.012 C 
ATOM      8  C   UNL     1      -9.034  -6.379  90.367  1.00  0.00     0.012 C 
ENDBRANCH   5   6
ENDBRANCH   3   4
ENDBRANCH   2   3
ENDBRANCH   1   2
BRANCH   1   9
ATOM      9  C   UNL     1     -11.389 -10.600  88.594  1.00  0.00     0.100 C 
BRANCH   9  10
ATOM     10  C   UNL     1     -12.648 -10.531  89.406  1.00  0.00     0.220 C 
ATOM     11  O   UNL     1     -13.761 -10.492  88.822  1.00  0.00    -0.275 OA
ATOM     12  N   UNL     1     -12.584 -10.549  90.840  1.00  0.00    -0.352 N 
ATOM     13  H   UNL     1     -11.651 -10.547  91.307  1.00  0.00     0.163 HD
BRANCH  12  14
ATOM     14  C   UNL     1     -13.778 -10.632  91.678  1.00  0.00     0.151 C 
BRANCH  14  15
ATOM     15  C   UNL     1     -13.399 -10.736  93.133  1.00  0.00    -0.025 A 
ATOM     16  C   UNL     1     -14.256 -10.243  94.130  1.00  0.00     0.056 A 
ATOM     17  C   UNL     1     -12.175 -11.315  93.499  1.00  0.00     0.009 A 
ATOM     18  C   UNL     1     -13.897 -10.329  95.490  1.00  0.00     0.160 A 
ATOM     19  C   UNL     1     -11.815 -11.405  94.845  1.00  0.00     0.050 A 
ATOM     20  C   UNL     1     -12.672 -10.916  95.841  1.00  0.00     0.157 A 
BRANCH  18  21
ATOM     21  O   UNL     1     -14.724  -9.845  96.515  1.00  0.00    -0.493 OA
ATOM     22  C   UNL     1     -14.775  -8.485  96.934  1.00  0.00     0.278 C 
ENDBRANCH  18  21
BRANCH  20  23
ATOM     23  O   UNL     1     -12.314 -11.009  97.184  1.00  0.00    -0.504 OA
ATOM     24  H   UNL     1     -12.302 -10.196  97.789  1.00  0.00     0.293 HD
ENDBRANCH  20  23
ENDBRANCH  14  15
ENDBRANCH  12  14
ENDBRANCH   9  10
ENDBRANCH   1   9
TORSDOF 10
ENDMDL
MODEL 6
REMARK VINA RESULT:    -5.193      2.580      6.863
REMARK INTER + INTRA:          -8.844
REMARK INTER:                  -6.587
REMARK INTRA:                  -2.257
REMARK UNBOUND:                -0.767
REMARK SMILES COc1cc(CNC(=O)CCCCC=CC(C)C)ccc1O
REMARK SMILES IDX 11 1 12 2 13 3 14 4 15 5 16 6 17 7 18 8 10 9 8 10 9 11 7 12
REMARK SMILES IDX 6 14 5 15 4 16 19 17 3 18 20 19 21 20 2 21 1 22 22 23
REMARK H PARENT 7 13 22 24
REMARK Flexibility Score: inf
ROOT
ATOM      1  C   UNL     1      -8.363  -7.974  90.077  1.00  0.00     0.010 C 
ENDROOT
BRANCH   1   2
ATOM      2  C   UNL     1      -8.048  -9.470  89.921  1.00  0.00     0.005 C 
BRANCH   2   3
ATOM      3  C   UNL     1      -9.289 -10.285  89.517  1.00  0.00     0.027 C 
BRANCH   3   4
ATOM      4  C   UNL     1     -10.572  -9.565  89.829  1.00  0.00    -0.031 C 
ATOM      5  C   UNL     1     -11.683 -10.228  90.185  1.00  0.00    -0.028 C 
BRANCH   5   6
ATOM      6  C   UNL     1     -12.963  -9.493  90.506  1.00  0.00     0.005 C 
ATOM      7  C   UNL     1     -13.917 -10.392  91.307  1.00  0.00     0.012 C 
ATOM      8  C   UNL     1     -12.659  -8.211  91.283  1.00  0.00     0.012 C 
ENDBRANCH   5   6
ENDBRANCH   3   4
ENDBRANCH   2   3
ENDBRANCH   1   2
BRANCH   1   9
ATOM      9  C   UNL     1      -7.524  -7.346  91.195  1.00  0.00     0.100 C 
BRANCH   9  10
ATOM     10  C   UNL     1      -8.014  -7.801  92.538  1.00  0.00     0.220 C 
ATOM     11  O   UNL     1      -7.197  -8.265  93.373  1.00  0.00    -0.275 OA
ATOM     12  N   UNL     1      -9.402  -7.670  92.882  1.00  0.00    -0.352 N 
ATOM     13  H   UNL     1     -10.072  -7.315  92.164  1.00  0.00     0.163 HD
BRANCH  12  14
ATOM     14  C   UNL     1      -9.910  -7.958  94.221  1.00  0.00     0.151 C 
BRANCH  14  15
ATOM     15  C   UNL     1     -10.710  -9.235  94.222  1.00  0.00    -0.025 A 
ATOM     16  C   UNL     1     -11.922  -9.317  94.927  1.00  0.00     0.056 A 
ATOM     17  C   UNL     1     -10.237 -10.359  93.529  1.00  0.00     0.009 A 
ATOM     18  C   UNL     1     -12.664 -10.515  94.938  1.00  0.00     0.160 A 
ATOM     19  C   UNL     1     -10.970 -11.548  93.535  1.00  0.00     0.050 A 
ATOM     20  C   UNL     1     -12.181 -11.629  94.236  1.00  0.00     0.157 A 
BRANCH  18  21
ATOM     21  O   UNL     1     -13.878 -10.637  95.633  1.00  0.00    -0.493 OA
ATOM     22  C   UNL     1     -14.651  -9.537  96.100  1.00  0.00     0.278 C 
ENDBRANCH  18  21
BRANCH  20  23
ATOM     23  O   UNL     1     -12.913 -12.814  94.239  1.00  0.00    -0.504 OA
ATOM     24  H   UNL     1     -13.351 -13.167  95.082  1.00  0.00     0.293 HD
ENDBRANCH  20  23
ENDBRANCH  14  15
ENDBRANCH  12  14
ENDBRANCH   9  10
ENDBRANCH   1   9
TORSDOF 10
ENDMDL
MODEL 7
REMARK VINA RESULT:    -5.185      2.600      6.477
REMARK INTER + INTRA:          -8.831
REMARK INTER:                  -6.909
REMARK INTRA:                  -1.922
REMARK UNBOUND:                -0.767
REMARK SMILES COc1cc(CNC(=O)CCCCC=CC(C)C)ccc1O
REMARK SMILES IDX 11 1 12 2 13 3 14 4 15 5 16 6 17 7 18 8 10 9 8 10 9 11 7 12
REMARK SMILES IDX 6 14 5 15 4 16 19 17 3 18 20 19 21 20 2 21 1 22 22 23
REMARK H PARENT 7 13 22 24
REMARK Flexibility Score: inf
ROOT
ATOM      1  C   UNL     1     -12.758 -10.495  89.140  1.00  0.00     0.010 C 
ENDROOT
BRANCH   1   2
ATOM      2  C   UNL     1     -11.414 -10.181  88.466  1.00  0.00     0.005 C 
BRANCH   2   3
ATOM      3  C   UNL     1     -10.220 -10.726  89.269  1.00  0.00     0.027 C 
BRANCH   3   4
ATOM      4  C   UNL     1      -9.926  -9.897  90.490  1.00  0.00    -0.031 C 
ATOM      5  C   UNL     1     -10.179 -10.353  91.726  1.00  0.00    -0.028 C 
BRANCH   5   6
ATOM      6  C   UNL     1      -9.869  -9.516  92.945  1.00  0.00     0.005 C 
ATOM      7  C   UNL     1      -8.525  -8.791  92.778  1.00  0.00     0.012 C 
ATOM      8  C   UNL     1     -10.992  -8.507  93.196  1.00  0.00     0.012 C 
ENDBRANCH   5   6
ENDBRANCH   3   4
ENDBRANCH   2   3
ENDBRANCH   1   2
BRANCH   1   9
ATOM      9  C   UNL     1     -13.329  -9.257  89.839  1.00  0.00     0.100 C 
BRANCH   9  10
ATOM     10  C   UNL     1     -13.929  -9.631  91.162  1.00  0.00     0.220 C 
ATOM     11  O   UNL     1     -14.530  -8.759  91.840  1.00  0.00    -0.275 OA
ATOM     12  N   UNL     1     -13.852 -10.985  91.632  1.00  0.00    -0.352 N 
ATOM     13  H   UNL     1     -13.320 -11.688  91.073  1.00  0.00     0.163 HD
BRANCH  12  14
ATOM     14  C   UNL     1     -14.542 -11.438  92.838  1.00  0.00     0.151 C 
BRANCH  14  15
ATOM     15  C   UNL     1     -13.682 -11.220  94.056  1.00  0.00    -0.025 A 
ATOM     16  C   UNL     1     -14.073 -10.311  95.052  1.00  0.00     0.056 A 
ATOM     17  C   UNL     1     -12.472 -11.916  94.193  1.00  0.00     0.009 A 
ATOM     18  C   UNL     1     -13.263 -10.098  96.185  1.00  0.00     0.160 A 
ATOM     19  C   UNL     1     -11.667 -11.710  95.316  1.00  0.00     0.050 A 
ATOM     20  C   UNL     1     -12.059 -10.805  96.311  1.00  0.00     0.157 A 
BRANCH  18  21
ATOM     21  O   UNL     1     -13.618  -9.195  97.200  1.00  0.00    -0.493 OA
ATOM     22  C   UNL     1     -14.584  -9.462  98.212  1.00  0.00     0.278 C 
ENDBRANCH  18  21
BRANCH  20  23
ATOM     23  O   UNL     1     -11.257 -10.602  97.432  1.00  0.00    -0.504 OA
ATOM     24  H   UNL     1     -11.648 -10.320  98.323  1.00  0.00     0.293 HD
ENDBRANCH  20  23
ENDBRANCH  14  15
ENDBRANCH  12  14
ENDBRANCH   9  10
ENDBRANCH   1   9
TORSDOF 10
ENDMDL
MODEL 8
REMARK VINA RESULT:    -5.151      2.894      8.101
REMARK INTER + INTRA:          -8.778
REMARK INTER:                  -7.869
REMARK INTRA:                  -0.909
REMARK UNBOUND:                -0.767
REMARK SMILES COc1cc(CNC(=O)CCCCC=CC(C)C)ccc1O
REMARK SMILES IDX 11 1 12 2 13 3 14 4 15 5 16 6 17 7 18 8 10 9 8 10 9 11 7 12
REMARK SMILES IDX 6 14 5 15 4 16 19 17 3 18 20 19 21 20 2 21 1 22 22 23
REMARK H PARENT 7 13 22 24
REMARK Flexibility Score: inf
ROOT
ATOM      1  C   UNL     1     -10.862  -9.549  90.002  1.00  0.00     0.010 C 
ENDROOT
BRANCH   1   2
ATOM      2  C   UNL     1      -9.865 -10.606  89.504  1.00  0.00     0.005 C 
BRANCH   2   3
ATOM      3  C   UNL     1      -8.434 -10.049  89.397  1.00  0.00     0.027 C 
BRANCH   3   4
ATOM      4  C   UNL     1      -8.346  -8.613  89.836  1.00  0.00    -0.031 C 
ATOM      5  C   UNL     1      -7.556  -8.236  90.852  1.00  0.00    -0.028 C 
BRANCH   5   6
ATOM      6  C   UNL     1      -7.466  -6.789  91.277  1.00  0.00     0.005 C 
ATOM      7  C   UNL     1      -8.862  -6.151  91.323  1.00  0.00     0.012 C 
ATOM      8  C   UNL     1      -6.783  -6.677  92.641  1.00  0.00     0.012 C 
ENDBRANCH   5   6
ENDBRANCH   3   4
ENDBRANCH   2   3
ENDBRANCH   1   2
BRANCH   1   9
ATOM      9  C   UNL     1     -11.916 -10.173  90.923  1.00  0.00     0.100 C 
BRANCH   9  10
ATOM     10  C   UNL     1     -11.367 -10.345  92.308  1.00  0.00     0.220 C 
ATOM     11  O   UNL     1     -10.449  -9.585  92.711  1.00  0.00    -0.275 OA
ATOM     12  N   UNL     1     -11.911 -11.345  93.182  1.00  0.00    -0.352 N 
ATOM     13  H   UNL     1     -12.648 -11.990  92.819  1.00  0.00     0.163 HD
BRANCH  12  14
ATOM     14  C   UNL     1     -11.519 -11.461  94.585  1.00  0.00     0.151 C 
BRANCH  14  15
ATOM     15  C   UNL     1     -12.613 -10.950  95.486  1.00  0.00    -0.025 A 
ATOM     16  C   UNL     1     -12.653 -11.322  96.840  1.00  0.00     0.056 A 
ATOM     17  C   UNL     1     -13.610 -10.110  94.972  1.00  0.00     0.009 A 
ATOM     18  C   UNL     1     -13.683 -10.854  97.681  1.00  0.00     0.160 A 
ATOM     19  C   UNL     1     -14.632  -9.641  95.801  1.00  0.00     0.050 A 
ATOM     20  C   UNL     1     -14.670 -10.010  97.152  1.00  0.00     0.157 A 
BRANCH  18  21
ATOM     21  O   UNL     1     -13.759 -11.205  99.038  1.00  0.00    -0.493 OA
ATOM     22  C   UNL     1     -12.951 -10.637 100.062  1.00  0.00     0.278 C 
ENDBRANCH  18  21
BRANCH  20  23
ATOM     23  O   UNL     1     -15.687  -9.540  97.980  1.00  0.00    -0.504 OA
ATOM     24  H   UNL     1     -15.995  -8.575  97.950  1.00  0.00     0.293 HD
ENDBRANCH  20  23
ENDBRANCH  14  15
ENDBRANCH  12  14
ENDBRANCH   9  10
ENDBRANCH   1   9
TORSDOF 10
ENDMDL
MODEL 9
REMARK VINA RESULT:    -4.974      2.169      3.697
REMARK INTER + INTRA:          -8.502
REMARK INTER:                  -6.930
REMARK INTRA:                  -1.573
REMARK UNBOUND:                -0.767
REMARK SMILES COc1cc(CNC(=O)CCCCC=CC(C)C)ccc1O
REMARK SMILES IDX 11 1 12 2 13 3 14 4 15 5 16 6 17 7 18 8 10 9 8 10 9 11 7 12
REMARK SMILES IDX 6 14 5 15 4 16 19 17 3 18 20 19 21 20 2 21 1 22 22 23
REMARK H PARENT 7 13 22 24
REMARK Flexibility Score: inf
ROOT
ATOM      1  C   UNL     1     -13.990 -10.689  90.234  1.00  0.00     0.010 C 
ENDROOT
BRANCH   1   2
ATOM      2  C   UNL     1     -14.229  -9.246  90.702  1.00  0.00     0.005 C 
BRANCH   2   3
ATOM      3  C   UNL     1     -13.769  -9.023  92.154  1.00  0.00     0.027 C 
BRANCH   3   4
ATOM      4  C   UNL     1     -13.363 -10.305  92.828  1.00  0.00    -0.031 C 
ATOM      5  C   UNL     1     -13.352 -10.424  94.164  1.00  0.00    -0.028 C 
BRANCH   5   6
ATOM      6  C   UNL     1     -12.952 -11.720  94.829  1.00  0.00     0.005 C 
ATOM      7  C   UNL     1     -11.569 -12.176  94.341  1.00  0.00     0.012 C 
ATOM      8  C   UNL     1     -12.955 -11.560  96.351  1.00  0.00     0.012 C 
ENDBRANCH   5   6
ENDBRANCH   3   4
ENDBRANCH   2   3
ENDBRANCH   1   2
BRANCH   1   9
ATOM      9  C   UNL     1     -13.770 -10.750  88.718  1.00  0.00     0.100 C 
BRANCH   9  10
ATOM     10  C   UNL     1     -12.310 -10.624  88.395  1.00  0.00     0.220 C 
ATOM     11  O   UNL     1     -11.959 -10.141  87.289  1.00  0.00    -0.275 OA
ATOM     12  N   UNL     1     -11.321 -11.017  89.358  1.00  0.00    -0.352 N 
ATOM     13  H   UNL     1     -11.631 -11.449  90.257  1.00  0.00     0.163 HD
BRANCH  12  14
ATOM     14  C   UNL     1      -9.893 -10.782  89.158  1.00  0.00     0.151 C 
BRANCH  14  15
ATOM     15  C   UNL     1      -9.396  -9.709  90.092  1.00  0.00    -0.025 A 
ATOM     16  C   UNL     1     -10.129  -9.365  91.239  1.00  0.00     0.056 A 
ATOM     17  C   UNL     1      -8.200  -9.033  89.809  1.00  0.00     0.009 A 
ATOM     18  C   UNL     1      -9.671  -8.353  92.106  1.00  0.00     0.160 A 
ATOM     19  C   UNL     1      -7.739  -8.031  90.666  1.00  0.00     0.050 A 
ATOM     20  C   UNL     1      -8.470  -7.690  91.813  1.00  0.00     0.157 A 
BRANCH  18  21
ATOM     21  O   UNL     1     -10.377  -7.979  93.260  1.00  0.00    -0.493 OA
ATOM     22  C   UNL     1     -10.197  -8.574  94.541  1.00  0.00     0.278 C 
ENDBRANCH  18  21
BRANCH  20  23
ATOM     23  O   UNL     1      -8.009  -6.693  92.669  1.00  0.00    -0.504 OA
ATOM     24  H   UNL     1      -8.261  -5.720  92.537  1.00  0.00     0.293 HD
ENDBRANCH  20  23
ENDBRANCH  14  15
ENDBRANCH  12  14
ENDBRANCH   9  10
ENDBRANCH   1   9
TORSDOF 10
ENDMDL
