MODEL 1
REMARK VINA RESULT:    -4.620      0.000      0.000
REMARK INTER + INTRA:          -5.555
REMARK INTER:                  -5.431
REMARK INTRA:                  -0.124
REMARK UNBOUND:                -0.124
REMARK SMILES O=C([O-])C=Cc1ccc(O)c(O)c1
REMARK SMILES IDX 6 1 13 2 7 3 11 4 8 5 9 6 5 7 4 8 2 9 1 10 3 11 12 12 10 14
REMARK H PARENT 12 13 10 15
REMARK Flexibility Score: inf
ROOT
ATOM      1  C   UNL     1      78.833  99.665  -5.072  1.00  0.00    -0.022 A 
ATOM      2  C   UNL     1      77.597  98.988  -5.110  1.00  0.00     0.058 A 
ATOM      3  C   UNL     1      78.834 101.068  -5.017  1.00  0.00     0.012 A 
ATOM      4  C   UNL     1      76.391  99.702  -5.069  1.00  0.00     0.157 A 
ATOM      5  C   UNL     1      77.633 101.780  -4.974  1.00  0.00     0.051 A 
ATOM      6  C   UNL     1      76.409 101.100  -4.997  1.00  0.00     0.157 A 
ENDROOT
BRANCH   1   7
ATOM      7  C   UNL     1      80.136  98.955  -5.125  1.00  0.00     0.010 C 
ATOM      8  C   UNL     1      80.262  97.624  -5.039  1.00  0.00     0.025 C 
BRANCH   8   9
ATOM      9  C   UNL     1      81.572  96.954  -5.084  1.00  0.00     0.064 C 
ATOM     10  O   UNL     1      81.663  95.698  -5.116  1.00  0.00    -0.545 OA
ATOM     11  O   UNL     1      82.731  97.721  -5.089  1.00  0.00    -0.545 OA
ENDBRANCH   8   9
ENDBRANCH   1   7
BRANCH   4  12
ATOM     12  O   UNL     1      75.171  99.030  -5.104  1.00  0.00    -0.504 OA
ATOM     13  H   UNL     1      75.077  98.124  -5.548  1.00  0.00     0.293 HD
ENDBRANCH   4  12
BRANCH   6  14
ATOM     14  O   UNL     1      75.208 101.807  -4.953  1.00  0.00    -0.504 OA
ATOM     15  H   UNL     1      75.163 102.790  -5.192  1.00  0.00     0.293 HD
ENDBRANCH   6  14
TORSDOF 4
ENDMDL
MODEL 2
REMARK VINA RESULT:    -3.990     18.351     18.897
REMARK INTER + INTRA:          -4.814
REMARK INTER:                  -4.689
REMARK INTRA:                  -0.125
REMARK UNBOUND:                -0.124
REMARK SMILES O=C([O-])C=Cc1ccc(O)c(O)c1
REMARK SMILES IDX 6 1 13 2 7 3 11 4 8 5 9 6 5 7 4 8 2 9 1 10 3 11 12 12 10 14
REMARK H PARENT 12 13 10 15
REMARK Flexibility Score: inf
ROOT
ATOM      1  C   UNL     1      76.316  89.867  11.598  1.00  0.00    -0.022 A 
ATOM      2  C   UNL     1      75.373  90.302  10.645  1.00  0.00     0.058 A 
ATOM      3  C   UNL     1      76.509  90.634  12.759  1.00  0.00     0.012 A 
ATOM      4  C   UNL     1      74.621  91.466  10.866  1.00  0.00     0.157 A 
ATOM      5  C   UNL     1      75.760  91.792  12.979  1.00  0.00     0.051 A 
ATOM      6  C   UNL     1      74.813  92.209  12.036  1.00  0.00     0.157 A 
ENDROOT
BRANCH   1   7
ATOM      7  C   UNL     1      77.144  88.650  11.405  1.00  0.00     0.010 C 
ATOM      8  C   UNL     1      77.989  88.479  10.379  1.00  0.00     0.025 C 
BRANCH   8   9
ATOM      9  C   UNL     1      78.786  87.252  10.213  1.00  0.00     0.064 C 
ATOM     10  O   UNL     1      78.234  86.124  10.112  1.00  0.00    -0.545 OA
ATOM     11  O   UNL     1      80.172  87.339  10.171  1.00  0.00    -0.545 OA
ENDBRANCH   8   9
ENDBRANCH   1   7
BRANCH   4  12
ATOM     12  O   UNL     1      73.686  91.891   9.925  1.00  0.00    -0.504 OA
ATOM     13  H   UNL     1      73.911  91.939   8.937  1.00  0.00     0.293 HD
ENDBRANCH   4  12
BRANCH   6  14
ATOM     14  O   UNL     1      74.062  93.364  12.254  1.00  0.00    -0.504 OA
ATOM     15  H   UNL     1      73.233  93.567  11.708  1.00  0.00     0.293 HD
ENDBRANCH   6  14
TORSDOF 4
ENDMDL
MODEL 3
REMARK VINA RESULT:    -3.934     18.632     19.319
REMARK INTER + INTRA:          -4.748
REMARK INTER:                  -4.616
REMARK INTRA:                  -0.133
REMARK UNBOUND:                -0.124
REMARK SMILES O=C([O-])C=Cc1ccc(O)c(O)c1
REMARK SMILES IDX 6 1 13 2 7 3 11 4 8 5 9 6 5 7 4 8 2 9 1 10 3 11 12 12 10 14
REMARK H PARENT 12 13 10 15
REMARK Flexibility Score: inf
ROOT
ATOM      1  C   UNL     1      75.893  89.474  11.243  1.00  0.00    -0.022 A 
ATOM      2  C   UNL     1      75.632  90.856  11.150  1.00  0.00     0.058 A 
ATOM      3  C   UNL     1      76.246  88.933  12.490  1.00  0.00     0.012 A 
ATOM      4  C   UNL     1      75.699  91.672  12.289  1.00  0.00     0.157 A 
ATOM      5  C   UNL     1      76.311  89.745  13.625  1.00  0.00     0.051 A 
ATOM      6  C   UNL     1      76.035  91.115  13.528  1.00  0.00     0.157 A 
ENDROOT
BRANCH   1   7
ATOM      7  C   UNL     1      75.848  88.571  10.065  1.00  0.00     0.010 C 
ATOM      8  C   UNL     1      76.939  88.113   9.436  1.00  0.00     0.025 C 
BRANCH   8   9
ATOM      9  C   UNL     1      76.855  87.228   8.262  1.00  0.00     0.064 C 
ATOM     10  O   UNL     1      77.699  87.299   7.329  1.00  0.00    -0.545 OA
ATOM     11  O   UNL     1      75.825  86.299   8.179  1.00  0.00    -0.545 OA
ENDBRANCH   8   9
ENDBRANCH   1   7
BRANCH   4  12
ATOM     12  O   UNL     1      75.437  93.037  12.196  1.00  0.00    -0.504 OA
ATOM     13  H   UNL     1      74.516  93.415  12.388  1.00  0.00     0.293 HD
ENDBRANCH   4  12
BRANCH   6  14
ATOM     14  O   UNL     1      76.096  91.928  14.659  1.00  0.00    -0.504 OA
ATOM     15  H   UNL     1      75.326  91.984  15.314  1.00  0.00     0.293 HD
ENDBRANCH   6  14
TORSDOF 4
ENDMDL
MODEL 4
REMARK VINA RESULT:    -3.831     18.524     19.986
REMARK INTER + INTRA:          -4.628
REMARK INTER:                  -4.502
REMARK INTRA:                  -0.126
REMARK UNBOUND:                -0.124
REMARK SMILES O=C([O-])C=Cc1ccc(O)c(O)c1
REMARK SMILES IDX 6 1 13 2 7 3 11 4 8 5 9 6 5 7 4 8 2 9 1 10 3 11 12 12 10 14
REMARK H PARENT 12 13 10 15
REMARK Flexibility Score: inf
ROOT
ATOM      1  C   UNL     1      75.915  87.802  10.324  1.00  0.00    -0.022 A 
ATOM      2  C   UNL     1      77.147  88.416  10.631  1.00  0.00     0.058 A 
ATOM      3  C   UNL     1      75.852  86.919   9.234  1.00  0.00     0.012 A 
ATOM      4  C   UNL     1      78.294  88.129   9.875  1.00  0.00     0.157 A 
ATOM      5  C   UNL     1      76.994  86.632   8.483  1.00  0.00     0.051 A 
ATOM      6  C   UNL     1      78.217  87.234   8.803  1.00  0.00     0.157 A 
ENDROOT
BRANCH   1   7
ATOM      7  C   UNL     1      74.671  88.081  11.085  1.00  0.00     0.010 C 
ATOM      8  C   UNL     1      74.191  89.314  11.300  1.00  0.00     0.025 C 
BRANCH   8   9
ATOM      9  C   UNL     1      72.960  89.554  12.070  1.00  0.00     0.064 C 
ATOM     10  O   UNL     1      72.038  88.696  12.111  1.00  0.00    -0.545 OA
ATOM     11  O   UNL     1      72.810  90.749  12.762  1.00  0.00    -0.545 OA
ENDBRANCH   8   9
ENDBRANCH   1   7
BRANCH   4  12
ATOM     12  O   UNL     1      79.511  88.735  10.183  1.00  0.00    -0.504 OA
ATOM     13  H   UNL     1      79.684  89.146  11.093  1.00  0.00     0.293 HD
ENDBRANCH   4  12
BRANCH   6  14
ATOM     14  O   UNL     1      79.360  86.948   8.057  1.00  0.00    -0.504 OA
ATOM     15  H   UNL     1      79.440  87.220   7.084  1.00  0.00     0.293 HD
ENDBRANCH   6  14
TORSDOF 4
ENDMDL
MODEL 5
REMARK VINA RESULT:    -3.802     18.594     19.154
REMARK INTER + INTRA:          -4.593
REMARK INTER:                  -4.441
REMARK INTRA:                  -0.152
REMARK UNBOUND:                -0.124
REMARK SMILES O=C([O-])C=Cc1ccc(O)c(O)c1
REMARK SMILES IDX 6 1 13 2 7 3 11 4 8 5 9 6 5 7 4 8 2 9 1 10 3 11 12 12 10 14
REMARK H PARENT 12 13 10 15
REMARK Flexibility Score: inf
ROOT
ATOM      1  C   UNL     1      76.049  89.990  11.339  1.00  0.00    -0.022 A 
ATOM      2  C   UNL     1      76.343  90.436  12.643  1.00  0.00     0.058 A 
ATOM      3  C   UNL     1      75.096  90.691  10.582  1.00  0.00     0.012 A 
ATOM      4  C   UNL     1      75.714  91.576  13.165  1.00  0.00     0.157 A 
ATOM      5  C   UNL     1      74.471  91.826  11.102  1.00  0.00     0.051 A 
ATOM      6  C   UNL     1      74.779  92.273  12.392  1.00  0.00     0.157 A 
ENDROOT
BRANCH   1   7
ATOM      7  C   UNL     1      76.679  88.783  10.746  1.00  0.00     0.010 C 
ATOM      8  C   UNL     1      76.210  88.157   9.657  1.00  0.00     0.025 C 
BRANCH   8   9
ATOM      9  C   UNL     1      76.854  86.955   9.104  1.00  0.00     0.064 C 
ATOM     10  O   UNL     1      76.427  86.412   8.049  1.00  0.00    -0.545 OA
ATOM     11  O   UNL     1      77.950  86.406   9.756  1.00  0.00    -0.545 OA
ENDBRANCH   8   9
ENDBRANCH   1   7
BRANCH   4  12
ATOM     12  O   UNL     1      76.009  92.017  14.454  1.00  0.00    -0.504 OA
ATOM     13  H   UNL     1      75.539  91.634  15.267  1.00  0.00     0.293 HD
ENDBRANCH   4  12
BRANCH   6  14
ATOM     14  O   UNL     1      74.158  93.408  12.913  1.00  0.00    -0.504 OA
ATOM     15  H   UNL     1      73.837  93.442  13.873  1.00  0.00     0.293 HD
ENDBRANCH   6  14
TORSDOF 4
ENDMDL
MODEL 6
REMARK VINA RESULT:    -3.724     19.080     20.285
REMARK INTER + INTRA:          -4.502
REMARK INTER:                  -4.360
REMARK INTRA:                  -0.142
REMARK UNBOUND:                -0.124
REMARK SMILES O=C([O-])C=Cc1ccc(O)c(O)c1
REMARK SMILES IDX 6 1 13 2 7 3 11 4 8 5 9 6 5 7 4 8 2 9 1 10 3 11 12 12 10 14
REMARK H PARENT 12 13 10 15
REMARK Flexibility Score: inf
ROOT
ATOM      1  C   UNL     1      74.542  92.244  12.491  1.00  0.00    -0.022 A 
ATOM      2  C   UNL     1      75.464  91.707  13.412  1.00  0.00     0.058 A 
ATOM      3  C   UNL     1      74.600  91.824  11.152  1.00  0.00     0.012 A 
ATOM      4  C   UNL     1      76.406  90.752  13.003  1.00  0.00     0.157 A 
ATOM      5  C   UNL     1      75.538  90.872  10.745  1.00  0.00     0.051 A 
ATOM      6  C   UNL     1      76.440  90.331  11.669  1.00  0.00     0.157 A 
ENDROOT
BRANCH   1   7
ATOM      7  C   UNL     1      73.534  93.265  12.871  1.00  0.00     0.010 C 
ATOM      8  C   UNL     1      72.248  93.219  12.494  1.00  0.00     0.025 C 
BRANCH   8   9
ATOM      9  C   UNL     1      71.279  94.258  12.881  1.00  0.00     0.064 C 
ATOM     10  O   UNL     1      71.639  95.451  13.066  1.00  0.00    -0.545 OA
ATOM     11  O   UNL     1      69.943  93.916  13.048  1.00  0.00    -0.545 OA
ENDBRANCH   8   9
ENDBRANCH   1   7
BRANCH   4  12
ATOM     12  O   UNL     1      77.314  90.220  13.917  1.00  0.00    -0.504 OA
ATOM     13  H   UNL     1      77.257  90.433  14.906  1.00  0.00     0.293 HD
ENDBRANCH   4  12
BRANCH   6  14
ATOM     14  O   UNL     1      77.376  89.379  11.267  1.00  0.00    -0.504 OA
ATOM     15  H   UNL     1      77.198  88.387  11.367  1.00  0.00     0.293 HD
ENDBRANCH   6  14
TORSDOF 4
ENDMDL
MODEL 7
REMARK VINA RESULT:    -3.668     12.707     15.296
REMARK INTER + INTRA:          -4.435
REMARK INTER:                  -4.308
REMARK INTRA:                  -0.127
REMARK UNBOUND:                -0.124
REMARK SMILES O=C([O-])C=Cc1ccc(O)c(O)c1
REMARK SMILES IDX 6 1 13 2 7 3 11 4 8 5 9 6 5 7 4 8 2 9 1 10 3 11 12 12 10 14
REMARK H PARENT 12 13 10 15
REMARK Flexibility Score: inf
ROOT
ATOM      1  C   UNL     1      80.937  86.682   2.742  1.00  0.00    -0.022 A 
ATOM      2  C   UNL     1      82.006  86.987   3.609  1.00  0.00     0.058 A 
ATOM      3  C   UNL     1      79.675  86.411   3.292  1.00  0.00     0.012 A 
ATOM      4  C   UNL     1      81.804  87.045   4.996  1.00  0.00     0.157 A 
ATOM      5  C   UNL     1      79.473  86.470   4.673  1.00  0.00     0.051 A 
ATOM      6  C   UNL     1      80.535  86.790   5.528  1.00  0.00     0.157 A 
ENDROOT
BRANCH   1   7
ATOM      7  C   UNL     1      81.103  86.596   1.268  1.00  0.00     0.010 C 
ATOM      8  C   UNL     1      81.175  87.667   0.464  1.00  0.00     0.025 C 
BRANCH   8   9
ATOM      9  C   UNL     1      81.327  87.544  -0.995  1.00  0.00     0.064 C 
ATOM     10  O   UNL     1      81.343  86.416  -1.557  1.00  0.00    -0.545 OA
ATOM     11  O   UNL     1      81.458  88.691  -1.767  1.00  0.00    -0.545 OA
ENDBRANCH   8   9
ENDBRANCH   1   7
BRANCH   4  12
ATOM     12  O   UNL     1      82.861  87.351   5.851  1.00  0.00    -0.504 OA
ATOM     13  H   UNL     1      83.057  88.305   6.132  1.00  0.00     0.293 HD
ENDBRANCH   4  12
BRANCH   6  14
ATOM     14  O   UNL     1      80.337  86.852   6.907  1.00  0.00    -0.504 OA
ATOM     15  H   UNL     1      79.932  86.078   7.419  1.00  0.00     0.293 HD
ENDBRANCH   6  14
TORSDOF 4
ENDMDL
MODEL 8
REMARK VINA RESULT:    -3.624     19.155     20.247
REMARK INTER + INTRA:          -4.384
REMARK INTER:                  -4.234
REMARK INTRA:                  -0.150
REMARK UNBOUND:                -0.124
REMARK SMILES O=C([O-])C=Cc1ccc(O)c(O)c1
REMARK SMILES IDX 6 1 13 2 7 3 11 4 8 5 9 6 5 7 4 8 2 9 1 10 3 11 12 12 10 14
REMARK H PARENT 12 13 10 15
REMARK Flexibility Score: inf
ROOT
ATOM      1  C   UNL     1      74.474  92.005  12.274  1.00  0.00    -0.022 A 
ATOM      2  C   UNL     1      74.402  91.097  11.198  1.00  0.00     0.058 A 
ATOM      3  C   UNL     1      75.575  91.938  13.144  1.00  0.00     0.012 A 
ATOM      4  C   UNL     1      75.425  90.161  10.985  1.00  0.00     0.157 A 
ATOM      5  C   UNL     1      76.594  91.006  12.931  1.00  0.00     0.051 A 
ATOM      6  C   UNL     1      76.524  90.118  11.851  1.00  0.00     0.157 A 
ENDROOT
BRANCH   1   7
ATOM      7  C   UNL     1      73.413  93.006  12.549  1.00  0.00     0.010 C 
ATOM      8  C   UNL     1      73.202  93.557  13.752  1.00  0.00     0.025 C 
BRANCH   8   9
ATOM      9  C   UNL     1      72.131  94.539  13.990  1.00  0.00     0.064 C 
ATOM     10  O   UNL     1      71.573  94.635  15.116  1.00  0.00    -0.545 OA
ATOM     11  O   UNL     1      71.726  95.371  12.955  1.00  0.00    -0.545 OA
ENDBRANCH   8   9
ENDBRANCH   1   7
BRANCH   4  12
ATOM     12  O   UNL     1      75.353  89.267   9.919  1.00  0.00    -0.504 OA
ATOM     13  H   UNL     1      74.500  88.762   9.707  1.00  0.00     0.293 HD
ENDBRANCH   4  12
BRANCH   6  14
ATOM     14  O   UNL     1      77.540  89.189  11.634  1.00  0.00    -0.504 OA
ATOM     15  H   UNL     1      78.486  89.354  11.956  1.00  0.00     0.293 HD
ENDBRANCH   6  14
TORSDOF 4
ENDMDL
MODEL 9
REMARK VINA RESULT:    -3.621     18.799     20.224
REMARK INTER + INTRA:          -4.380
REMARK INTER:                  -4.252
REMARK INTRA:                  -0.128
REMARK UNBOUND:                -0.124
REMARK SMILES O=C([O-])C=Cc1ccc(O)c(O)c1
REMARK SMILES IDX 6 1 13 2 7 3 11 4 8 5 9 6 5 7 4 8 2 9 1 10 3 11 12 12 10 14
REMARK H PARENT 12 13 10 15
REMARK Flexibility Score: inf
ROOT
ATOM      1  C   UNL     1      76.395  86.522   9.716  1.00  0.00    -0.022 A 
ATOM      2  C   UNL     1      76.424  87.266   8.518  1.00  0.00     0.058 A 
ATOM      3  C   UNL     1      77.566  85.875  10.139  1.00  0.00     0.012 A 
ATOM      4  C   UNL     1      77.610  87.378   7.778  1.00  0.00     0.157 A 
ATOM      5  C   UNL     1      78.748  85.988   9.403  1.00  0.00     0.051 A 
ATOM      6  C   UNL     1      78.774  86.741   8.223  1.00  0.00     0.157 A 
ENDROOT
BRANCH   1   7
ATOM      7  C   UNL     1      75.162  86.364  10.528  1.00  0.00     0.010 C 
ATOM      8  C   UNL     1      74.852  87.148  11.571  1.00  0.00     0.025 C 
BRANCH   8   9
ATOM      9  C   UNL     1      73.626  86.954  12.362  1.00  0.00     0.064 C 
ATOM     10  O   UNL     1      72.765  86.094  12.032  1.00  0.00    -0.545 OA
ATOM     11  O   UNL     1      73.412  87.733  13.491  1.00  0.00    -0.545 OA
ENDBRANCH   8   9
ENDBRANCH   1   7
BRANCH   4  12
ATOM     12  O   UNL     1      77.637  88.116   6.596  1.00  0.00    -0.504 OA
ATOM     13  H   UNL     1      77.041  87.883   5.810  1.00  0.00     0.293 HD
ENDBRANCH   4  12
BRANCH   6  14
ATOM     14  O   UNL     1      79.952  86.857   7.486  1.00  0.00    -0.504 OA
ATOM     15  H   UNL     1      79.975  87.344   6.598  1.00  0.00     0.293 HD
ENDBRANCH   6  14
TORSDOF 4
ENDMDL
