MODEL 1
REMARK VINA RESULT:    -2.751      0.000      0.000
REMARK INTER + INTRA:          -5.160
REMARK INTER:                  -4.681
REMARK INTRA:                  -0.479
REMARK UNBOUND:                -0.479
REMARK SMILES CCCCCCCCCCCCCC(=O)[O-]
REMARK SMILES IDX 8 1 9 2 10 3 11 4 12 5 13 6 14 7 15 8 16 9 7 10 6 11 5 12
REMARK SMILES IDX 4 13 3 14 2 15 1 16
REMARK H PARENT
REMARK Flexibility Score: inf
ROOT
ATOM      1  C   UNL     1      23.242  -1.242  -2.285  1.00  0.00     0.000 C 
ENDROOT
BRANCH   1   2
ATOM      2  C   UNL     1      22.824   0.240  -2.389  1.00  0.00     0.000 C 
BRANCH   2   3
ATOM      3  C   UNL     1      23.868   1.127  -3.088  1.00  0.00     0.000 C 
BRANCH   3   4
ATOM      4  C   UNL     1      23.750   2.609  -2.696  1.00  0.00     0.000 C 
BRANCH   4   5
ATOM      5  C   UNL     1      25.098   3.219  -2.278  1.00  0.00     0.006 C 
BRANCH   5   6
ATOM      6  C   UNL     1      24.964   4.670  -1.799  1.00  0.00     0.053 C 
BRANCH   6   7
ATOM      7  C   UNL     1      26.213   5.105  -1.098  1.00  0.00     0.041 C 
ATOM      8  O   UNL     1      26.542   6.320  -1.088  1.00  0.00    -0.550 OA
ATOM      9  O   UNL     1      27.038   4.162  -0.499  1.00  0.00    -0.550 OA
ENDBRANCH   6   7
ENDBRANCH   5   6
ENDBRANCH   4   5
ENDBRANCH   3   4
ENDBRANCH   2   3
ENDBRANCH   1   2
BRANCH   1  10
ATOM     10  C   UNL     1      24.395  -1.593  -3.242  1.00  0.00     0.000 C 
BRANCH  10  11
ATOM     11  C   UNL     1      25.323  -2.682  -2.660  1.00  0.00    -0.000 C 
BRANCH  11  12
ATOM     12  C   UNL     1      26.216  -3.360  -3.713  1.00  0.00    -0.000 C 
BRANCH  12  13
ATOM     13  C   UNL     1      25.997  -4.880  -3.788  1.00  0.00    -0.000 C 
BRANCH  13  14
ATOM     14  C   UNL     1      26.612  -5.634  -2.596  1.00  0.00    -0.000 C 
BRANCH  14  15
ATOM     15  C   UNL     1      27.817  -4.940  -1.936  1.00  0.00    -0.003 C 
ATOM     16  C   UNL     1      27.649  -4.750  -0.428  1.00  0.00     0.004 C 
ENDBRANCH  14  15
ENDBRANCH  13  14
ENDBRANCH  12  13
ENDBRANCH  11  12
ENDBRANCH  10  11
ENDBRANCH   1  10
TORSDOF 12
ENDMDL
MODEL 2
REMARK VINA RESULT:    -2.608      3.626      8.674
REMARK INTER + INTRA:          -4.917
REMARK INTER:                  -4.589
REMARK INTRA:                  -0.327
REMARK UNBOUND:                -0.479
REMARK SMILES CCCCCCCCCCCCCC(=O)[O-]
REMARK SMILES IDX 8 1 9 2 10 3 11 4 12 5 13 6 14 7 15 8 16 9 7 10 6 11 5 12
REMARK SMILES IDX 4 13 3 14 2 15 1 16
REMARK H PARENT
REMARK Flexibility Score: inf
ROOT
ATOM      1  C   UNL     1      24.032   1.309  -3.036  1.00  0.00     0.000 C 
ENDROOT
BRANCH   1   2
ATOM      2  C   UNL     1      22.833   0.400  -2.695  1.00  0.00     0.000 C 
BRANCH   2   3
ATOM      3  C   UNL     1      23.234  -1.045  -2.349  1.00  0.00     0.000 C 
BRANCH   3   4
ATOM      4  C   UNL     1      24.341  -1.592  -3.265  1.00  0.00     0.000 C 
BRANCH   4   5
ATOM      5  C   UNL     1      25.453  -2.311  -2.484  1.00  0.00     0.006 C 
BRANCH   5   6
ATOM      6  C   UNL     1      26.074  -3.468  -3.275  1.00  0.00     0.053 C 
BRANCH   6   7
ATOM      7  C   UNL     1      26.544  -4.543  -2.346  1.00  0.00     0.041 C 
ATOM      8  O   UNL     1      27.024  -4.242  -1.222  1.00  0.00    -0.550 OA
ATOM      9  O   UNL     1      26.498  -5.873  -2.742  1.00  0.00    -0.550 OA
ENDBRANCH   6   7
ENDBRANCH   5   6
ENDBRANCH   4   5
ENDBRANCH   3   4
ENDBRANCH   2   3
ENDBRANCH   1   2
BRANCH   1  10
ATOM     10  C   UNL     1      23.777   2.780  -2.660  1.00  0.00     0.000 C 
BRANCH  10  11
ATOM     11  C   UNL     1      24.993   3.419  -1.957  1.00  0.00    -0.000 C 
BRANCH  11  12
ATOM     12  C   UNL     1      25.041   4.952  -2.076  1.00  0.00    -0.000 C 
BRANCH  12  13
ATOM     13  C   UNL     1      26.168   5.578  -1.238  1.00  0.00    -0.000 C 
BRANCH  13  14
ATOM     14  C   UNL     1      26.448   7.045  -1.612  1.00  0.00    -0.000 C 
BRANCH  14  15
ATOM     15  C   UNL     1      27.722   7.645  -0.991  1.00  0.00    -0.003 C 
ATOM     16  C   UNL     1      27.534   9.081  -0.504  1.00  0.00     0.004 C 
ENDBRANCH  14  15
ENDBRANCH  13  14
ENDBRANCH  12  13
ENDBRANCH  11  12
ENDBRANCH  10  11
ENDBRANCH   1  10
TORSDOF 12
ENDMDL
MODEL 3
REMARK VINA RESULT:    -2.546      1.021      1.829
REMARK INTER + INTRA:          -4.812
REMARK INTER:                  -4.412
REMARK INTRA:                  -0.400
REMARK UNBOUND:                -0.479
REMARK SMILES CCCCCCCCCCCCCC(=O)[O-]
REMARK SMILES IDX 8 1 9 2 10 3 11 4 12 5 13 6 14 7 15 8 16 9 7 10 6 11 5 12
REMARK SMILES IDX 4 13 3 14 2 15 1 16
REMARK H PARENT
REMARK Flexibility Score: inf
ROOT
ATOM      1  C   UNL     1      22.677   0.529  -2.614  1.00  0.00     0.000 C 
ENDROOT
BRANCH   1   2
ATOM      2  C   UNL     1      23.895   1.367  -3.056  1.00  0.00     0.000 C 
BRANCH   2   3
ATOM      3  C   UNL     1      23.821   2.841  -2.619  1.00  0.00     0.000 C 
BRANCH   3   4
ATOM      4  C   UNL     1      25.123   3.336  -1.967  1.00  0.00     0.000 C 
BRANCH   4   5
ATOM      5  C   UNL     1      25.197   4.869  -1.889  1.00  0.00     0.006 C 
BRANCH   5   6
ATOM      6  C   UNL     1      26.371   5.358  -1.031  1.00  0.00     0.053 C 
BRANCH   6   7
ATOM      7  C   UNL     1      26.636   6.809  -1.286  1.00  0.00     0.041 C 
ATOM      8  O   UNL     1      27.406   7.454  -0.529  1.00  0.00    -0.550 OA
ATOM      9  O   UNL     1      25.992   7.459  -2.331  1.00  0.00    -0.550 OA
ENDBRANCH   6   7
ENDBRANCH   5   6
ENDBRANCH   4   5
ENDBRANCH   3   4
ENDBRANCH   2   3
ENDBRANCH   1   2
BRANCH   1  10
ATOM     10  C   UNL     1      23.056  -0.925  -2.282  1.00  0.00     0.000 C 
BRANCH  10  11
ATOM     11  C   UNL     1      24.286  -1.402  -3.085  1.00  0.00    -0.000 C 
BRANCH  11  12
ATOM     12  C   UNL     1      25.107  -2.489  -2.369  1.00  0.00    -0.000 C 
BRANCH  12  13
ATOM     13  C   UNL     1      26.104  -3.193  -3.304  1.00  0.00    -0.000 C 
BRANCH  13  14
ATOM     14  C   UNL     1      26.298  -4.682  -2.962  1.00  0.00    -0.000 C 
BRANCH  14  15
ATOM     15  C   UNL     1      27.588  -5.011  -2.191  1.00  0.00    -0.003 C 
ATOM     16  C   UNL     1      27.504  -4.666  -0.704  1.00  0.00     0.004 C 
ENDBRANCH  14  15
ENDBRANCH  13  14
ENDBRANCH  12  13
ENDBRANCH  11  12
ENDBRANCH  10  11
ENDBRANCH   1  10
TORSDOF 12
ENDMDL
MODEL 4
REMARK VINA RESULT:    -2.211      3.605      7.863
REMARK INTER + INTRA:          -4.241
REMARK INTER:                  -3.731
REMARK INTRA:                  -0.510
REMARK UNBOUND:                -0.479
REMARK SMILES CCCCCCCCCCCCCC(=O)[O-]
REMARK SMILES IDX 8 1 9 2 10 3 11 4 12 5 13 6 14 7 15 8 16 9 7 10 6 11 5 12
REMARK SMILES IDX 4 13 3 14 2 15 1 16
REMARK H PARENT
REMARK Flexibility Score: inf
ROOT
ATOM      1  C   UNL     1      22.755   0.255  -2.515  1.00  0.00     0.000 C 
ENDROOT
BRANCH   1   2
ATOM      2  C   UNL     1      23.229  -1.205  -2.359  1.00  0.00     0.000 C 
BRANCH   2   3
ATOM      3  C   UNL     1      24.422  -1.565  -3.261  1.00  0.00     0.000 C 
BRANCH   3   4
ATOM      4  C   UNL     1      25.445  -2.477  -2.562  1.00  0.00     0.000 C 
BRANCH   4   5
ATOM      5  C   UNL     1      26.046  -3.526  -3.511  1.00  0.00     0.006 C 
BRANCH   5   6
ATOM      6  C   UNL     1      26.128  -4.918  -2.873  1.00  0.00     0.053 C 
BRANCH   6   7
ATOM      7  C   UNL     1      27.471  -5.127  -2.246  1.00  0.00     0.041 C 
ATOM      8  O   UNL     1      28.380  -5.723  -2.880  1.00  0.00    -0.550 OA
ATOM      9  O   UNL     1      27.702  -4.707  -0.942  1.00  0.00    -0.550 OA
ENDBRANCH   6   7
ENDBRANCH   5   6
ENDBRANCH   4   5
ENDBRANCH   3   4
ENDBRANCH   2   3
ENDBRANCH   1   2
BRANCH   1  10
ATOM     10  C   UNL     1      23.849   1.166  -3.101  1.00  0.00     0.000 C 
BRANCH  10  11
ATOM     11  C   UNL     1      23.775   2.601  -2.537  1.00  0.00    -0.000 C 
BRANCH  11  12
ATOM     12  C   UNL     1      25.143   3.295  -2.433  1.00  0.00    -0.000 C 
BRANCH  12  13
ATOM     13  C   UNL     1      25.042   4.730  -1.888  1.00  0.00    -0.000 C 
BRANCH  13  14
ATOM     14  C   UNL     1      26.233   5.116  -0.991  1.00  0.00    -0.000 C 
BRANCH  14  15
ATOM     15  C   UNL     1      27.231   3.980  -0.708  1.00  0.00    -0.003 C 
ATOM     16  C   UNL     1      28.451   4.438   0.091  1.00  0.00     0.004 C 
ENDBRANCH  14  15
ENDBRANCH  13  14
ENDBRANCH  12  13
ENDBRANCH  11  12
ENDBRANCH  10  11
ENDBRANCH   1  10
TORSDOF 12
ENDMDL
MODEL 5
REMARK VINA RESULT:    -1.894      3.829      7.062
REMARK INTER + INTRA:          -3.702
REMARK INTER:                  -3.058
REMARK INTRA:                  -0.643
REMARK UNBOUND:                -0.479
REMARK SMILES CCCCCCCCCCCCCC(=O)[O-]
REMARK SMILES IDX 8 1 9 2 10 3 11 4 12 5 13 6 14 7 15 8 16 9 7 10 6 11 5 12
REMARK SMILES IDX 4 13 3 14 2 15 1 16
REMARK H PARENT
REMARK Flexibility Score: inf
ROOT
ATOM      1  C   UNL     1      26.459   5.414  -0.766  1.00  0.00     0.000 C 
ENDROOT
BRANCH   1   2
ATOM      2  C   UNL     1      26.506   6.729  -1.573  1.00  0.00     0.000 C 
BRANCH   2   3
ATOM      3  C   UNL     1      27.046   7.925  -0.770  1.00  0.00     0.000 C 
BRANCH   3   4
ATOM      4  C   UNL     1      28.575   8.061  -0.859  1.00  0.00     0.000 C 
BRANCH   4   5
ATOM      5  C   UNL     1      29.047   8.527  -2.246  1.00  0.00     0.006 C 
BRANCH   5   6
ATOM      6  C   UNL     1      28.955  10.049  -2.418  1.00  0.00     0.053 C 
BRANCH   6   7
ATOM      7  C   UNL     1      27.954  10.395  -3.475  1.00  0.00     0.041 C 
ATOM      8  O   UNL     1      27.210   9.502  -3.958  1.00  0.00    -0.550 OA
ATOM      9  O   UNL     1      27.877  11.694  -3.960  1.00  0.00    -0.550 OA
ENDBRANCH   6   7
ENDBRANCH   5   6
ENDBRANCH   4   5
ENDBRANCH   3   4
ENDBRANCH   2   3
ENDBRANCH   1   2
BRANCH   1  10
ATOM     10  C   UNL     1      25.720   4.293  -1.518  1.00  0.00     0.000 C 
BRANCH  10  11
ATOM     11  C   UNL     1      24.569   4.838  -2.391  1.00  0.00    -0.000 C 
BRANCH  11  12
ATOM     12  C   UNL     1      23.565   3.760  -2.835  1.00  0.00    -0.000 C 
BRANCH  12  13
ATOM     13  C   UNL     1      24.088   2.332  -2.604  1.00  0.00    -0.000 C 
BRANCH  13  14
ATOM     14  C   UNL     1      23.015   1.255  -2.847  1.00  0.00    -0.000 C 
BRANCH  14  15
ATOM     15  C   UNL     1      23.541  -0.190  -2.893  1.00  0.00    -0.003 C 
ATOM     16  C   UNL     1      22.852  -1.112  -1.887  1.00  0.00     0.004 C 
ENDBRANCH  14  15
ENDBRANCH  13  14
ENDBRANCH  12  13
ENDBRANCH  11  12
ENDBRANCH  10  11
ENDBRANCH   1  10
TORSDOF 12
ENDMDL
MODEL 6
REMARK VINA RESULT:    -1.871      4.283      9.564
REMARK INTER + INTRA:          -3.663
REMARK INTER:                  -2.986
REMARK INTRA:                  -0.677
REMARK UNBOUND:                -0.479
REMARK SMILES CCCCCCCCCCCCCC(=O)[O-]
REMARK SMILES IDX 8 1 9 2 10 3 11 4 12 5 13 6 14 7 15 8 16 9 7 10 6 11 5 12
REMARK SMILES IDX 4 13 3 14 2 15 1 16
REMARK H PARENT
REMARK Flexibility Score: inf
ROOT
ATOM      1  C   UNL     1      25.844   4.674  -1.197  1.00  0.00     0.000 C 
ENDROOT
BRANCH   1   2
ATOM      2  C   UNL     1      24.890   5.134  -2.320  1.00  0.00     0.000 C 
BRANCH   2   3
ATOM      3  C   UNL     1      23.852   4.072  -2.720  1.00  0.00     0.000 C 
BRANCH   3   4
ATOM      4  C   UNL     1      24.214   2.664  -2.217  1.00  0.00     0.000 C 
BRANCH   4   5
ATOM      5  C   UNL     1      23.754   1.557  -3.179  1.00  0.00     0.006 C 
BRANCH   5   6
ATOM      6  C   UNL     1      22.613   0.711  -2.600  1.00  0.00     0.053 C 
BRANCH   6   7
ATOM      7  C   UNL     1      23.076  -0.690  -2.352  1.00  0.00     0.041 C 
ATOM      8  O   UNL     1      22.583  -1.362  -1.409  1.00  0.00    -0.550 OA
ATOM      9  O   UNL     1      24.088  -1.236  -3.131  1.00  0.00    -0.550 OA
ENDBRANCH   6   7
ENDBRANCH   5   6
ENDBRANCH   4   5
ENDBRANCH   3   4
ENDBRANCH   2   3
ENDBRANCH   1   2
BRANCH   1  10
ATOM     10  C   UNL     1      26.885   5.749  -0.837  1.00  0.00     0.000 C 
BRANCH  10  11
ATOM     11  C   UNL     1      26.617   7.085  -1.564  1.00  0.00    -0.000 C 
BRANCH  11  12
ATOM     12  C   UNL     1      27.007   8.325  -0.741  1.00  0.00    -0.000 C 
BRANCH  12  13
ATOM     13  C   UNL     1      28.303   8.985  -1.239  1.00  0.00    -0.000 C 
BRANCH  13  14
ATOM     14  C   UNL     1      28.682   8.558  -2.669  1.00  0.00    -0.000 C 
BRANCH  14  15
ATOM     15  C   UNL     1      28.334   9.577  -3.768  1.00  0.00    -0.003 C 
ATOM     16  C   UNL     1      28.276  11.016  -3.256  1.00  0.00     0.004 C 
ENDBRANCH  14  15
ENDBRANCH  13  14
ENDBRANCH  12  13
ENDBRANCH  11  12
ENDBRANCH  10  11
ENDBRANCH   1  10
TORSDOF 12
ENDMDL
MODEL 7
REMARK VINA RESULT:    -1.713      2.297      4.881
REMARK INTER + INTRA:          -3.394
REMARK INTER:                  -2.916
REMARK INTRA:                  -0.477
REMARK UNBOUND:                -0.479
REMARK SMILES CCCCCCCCCCCCCC(=O)[O-]
REMARK SMILES IDX 8 1 9 2 10 3 11 4 12 5 13 6 14 7 15 8 16 9 7 10 6 11 5 12
REMARK SMILES IDX 4 13 3 14 2 15 1 16
REMARK H PARENT
REMARK Flexibility Score: inf
ROOT
ATOM      1  C   UNL     1      24.689   4.373  -2.360  1.00  0.00     0.000 C 
ENDROOT
BRANCH   1   2
ATOM      2  C   UNL     1      25.583   3.863  -1.210  1.00  0.00     0.000 C 
BRANCH   2   3
ATOM      3  C   UNL     1      26.762   4.796  -0.885  1.00  0.00     0.000 C 
BRANCH   3   4
ATOM      4  C   UNL     1      26.464   6.269  -1.211  1.00  0.00     0.000 C 
BRANCH   4   5
ATOM      5  C   UNL     1      27.630   7.202  -0.846  1.00  0.00     0.006 C 
BRANCH   5   6
ATOM      6  C   UNL     1      27.208   8.675  -0.785  1.00  0.00     0.053 C 
BRANCH   6   7
ATOM      7  C   UNL     1      27.873   9.454  -1.876  1.00  0.00     0.041 C 
ATOM      8  O   UNL     1      28.420  10.559  -1.622  1.00  0.00    -0.550 OA
ATOM      9  O   UNL     1      27.844   8.984  -3.183  1.00  0.00    -0.550 OA
ENDBRANCH   6   7
ENDBRANCH   5   6
ENDBRANCH   4   5
ENDBRANCH   3   4
ENDBRANCH   2   3
ENDBRANCH   1   2
BRANCH   1  10
ATOM     10  C   UNL     1      23.619   3.345  -2.769  1.00  0.00     0.000 C 
BRANCH  10  11
ATOM     11  C   UNL     1      24.146   1.896  -2.694  1.00  0.00    -0.000 C 
BRANCH  11  12
ATOM     12  C   UNL     1      23.094   0.837  -3.066  1.00  0.00    -0.000 C 
BRANCH  12  13
ATOM     13  C   UNL     1      23.384  -0.535  -2.434  1.00  0.00    -0.000 C 
BRANCH  13  14
ATOM     14  C   UNL     1      24.232  -1.445  -3.341  1.00  0.00    -0.000 C 
BRANCH  14  15
ATOM     15  C   UNL     1      25.403  -2.157  -2.640  1.00  0.00    -0.003 C 
ATOM     16  C   UNL     1      25.808  -3.462  -3.323  1.00  0.00     0.004 C 
ENDBRANCH  14  15
ENDBRANCH  13  14
ENDBRANCH  12  13
ENDBRANCH  11  12
ENDBRANCH  10  11
ENDBRANCH   1  10
TORSDOF 12
ENDMDL
MODEL 8
REMARK VINA RESULT:    -1.285      3.650      8.920
REMARK INTER + INTRA:          -2.666
REMARK INTER:                  -2.284
REMARK INTRA:                  -0.381
REMARK UNBOUND:                -0.479
REMARK SMILES CCCCCCCCCCCCCC(=O)[O-]
REMARK SMILES IDX 8 1 9 2 10 3 11 4 12 5 13 6 14 7 15 8 16 9 7 10 6 11 5 12
REMARK SMILES IDX 4 13 3 14 2 15 1 16
REMARK H PARENT
REMARK Flexibility Score: inf
ROOT
ATOM      1  C   UNL     1      24.222   3.394  -2.633  1.00  0.00     0.000 C 
ENDROOT
BRANCH   1   2
ATOM      2  C   UNL     1      23.556   2.056  -2.249  1.00  0.00     0.000 C 
BRANCH   2   3
ATOM      3  C   UNL     1      23.964   0.882  -3.155  1.00  0.00     0.000 C 
BRANCH   3   4
ATOM      4  C   UNL     1      23.516  -0.482  -2.603  1.00  0.00     0.000 C 
BRANCH   4   5
ATOM      5  C   UNL     1      24.264  -1.657  -3.253  1.00  0.00     0.006 C 
BRANCH   5   6
ATOM      6  C   UNL     1      25.604  -1.953  -2.567  1.00  0.00     0.053 C 
BRANCH   6   7
ATOM      7  C   UNL     1      26.031  -3.361  -2.842  1.00  0.00     0.041 C 
ATOM      8  O   UNL     1      25.827  -3.874  -3.973  1.00  0.00    -0.550 OA
ATOM      9  O   UNL     1      26.610  -4.121  -1.835  1.00  0.00    -0.550 OA
ENDBRANCH   6   7
ENDBRANCH   5   6
ENDBRANCH   4   5
ENDBRANCH   3   4
ENDBRANCH   2   3
ENDBRANCH   1   2
BRANCH   1  10
ATOM     10  C   UNL     1      25.278   3.838  -1.605  1.00  0.00     0.000 C 
BRANCH  10  11
ATOM     11  C   UNL     1      25.644   5.331  -1.755  1.00  0.00    -0.000 C 
BRANCH  11  12
ATOM     12  C   UNL     1      26.854   5.758  -0.907  1.00  0.00    -0.000 C 
BRANCH  12  13
ATOM     13  C   UNL     1      27.045   7.284  -0.872  1.00  0.00    -0.000 C 
BRANCH  13  14
ATOM     14  C   UNL     1      28.522   7.706  -0.971  1.00  0.00    -0.000 C 
BRANCH  14  15
ATOM     15  C   UNL     1      28.867   8.593  -2.180  1.00  0.00    -0.003 C 
ATOM     16  C   UNL     1      27.661   8.889  -3.071  1.00  0.00     0.004 C 
ENDBRANCH  14  15
ENDBRANCH  13  14
ENDBRANCH  12  13
ENDBRANCH  11  12
ENDBRANCH  10  11
ENDBRANCH   1  10
TORSDOF 12
ENDMDL
MODEL 9
REMARK VINA RESULT:    -1.222      5.858      8.409
REMARK INTER + INTRA:          -2.558
REMARK INTER:                  -1.790
REMARK INTRA:                  -0.768
REMARK UNBOUND:                -0.479
REMARK SMILES CCCCCCCCCCCCCC(=O)[O-]
REMARK SMILES IDX 8 1 9 2 10 3 11 4 12 5 13 6 14 7 15 8 16 9 7 10 6 11 5 12
REMARK SMILES IDX 4 13 3 14 2 15 1 16
REMARK H PARENT
REMARK Flexibility Score: inf
ROOT
ATOM      1  C   UNL     1      26.182   8.316  -2.495  1.00  0.00     0.000 C 
ENDROOT
BRANCH   1   2
ATOM      2  C   UNL     1      27.143   8.606  -3.667  1.00  0.00     0.000 C 
BRANCH   2   3
ATOM      3  C   UNL     1      27.132  10.075  -4.125  1.00  0.00     0.000 C 
BRANCH   3   4
ATOM      4  C   UNL     1      28.202  10.927  -3.422  1.00  0.00     0.000 C 
BRANCH   4   5
ATOM      5  C   UNL     1      29.125  10.091  -2.521  1.00  0.00     0.006 C 
BRANCH   5   6
ATOM      6  C   UNL     1      29.082  10.541  -1.056  1.00  0.00     0.053 C 
BRANCH   6   7
ATOM      7  C   UNL     1      28.963   9.356  -0.149  1.00  0.00     0.041 C 
ATOM      8  O   UNL     1      29.049   8.191  -0.617  1.00  0.00    -0.550 OA
ATOM      9  O   UNL     1      28.708   9.539   1.204  1.00  0.00    -0.550 OA
ENDBRANCH   6   7
ENDBRANCH   5   6
ENDBRANCH   4   5
ENDBRANCH   3   4
ENDBRANCH   2   3
ENDBRANCH   1   2
BRANCH   1  10
ATOM     10  C   UNL     1      26.319   6.877  -1.967  1.00  0.00     0.000 C 
BRANCH  10  11
ATOM     11  C   UNL     1      25.191   5.958  -2.483  1.00  0.00    -0.000 C 
BRANCH  11  12
ATOM     12  C   UNL     1      25.297   4.508  -1.981  1.00  0.00    -0.000 C 
BRANCH  12  13
ATOM     13  C   UNL     1      26.174   4.377  -0.726  1.00  0.00    -0.000 C 
BRANCH  13  14
ATOM     14  C   UNL     1      27.302   3.341  -0.888  1.00  0.00    -0.000 C 
BRANCH  14  15
ATOM     15  C   UNL     1      28.569   3.622  -0.061  1.00  0.00    -0.003 C 
ATOM     16  C   UNL     1      28.879   5.112   0.075  1.00  0.00     0.004 C 
ENDBRANCH  14  15
ENDBRANCH  13  14
ENDBRANCH  12  13
ENDBRANCH  11  12
ENDBRANCH  10  11
ENDBRANCH   1  10
TORSDOF 12
ENDMDL
