MODEL 1
REMARK VINA RESULT:    -4.122      0.000      0.000
REMARK INTER + INTRA:         -10.720
REMARK INTER:                  -7.977
REMARK INTRA:                  -2.744
REMARK UNBOUND:                -2.744
REMARK SMILES CCCCCC=CCC=CCCCCCCCCOC(C)=O
REMARK SMILES IDX 12 1 11 2 10 3 9 4 8 5 7 6 6 7 5 8 4 9 3 10 2 11 1 12 13 13
REMARK SMILES IDX 14 14 15 15 16 16 17 17 18 18 19 19 20 20 22 21 21 22
REMARK H PARENT
REMARK Flexibility Score: inf
ROOT
ATOM      1  C   UNL     1      -0.489 -28.625  -6.853  1.00  0.00     0.004 C 
ENDROOT
BRANCH   1   2
ATOM      2  C   UNL     1      -1.775 -27.820  -6.616  1.00  0.00     0.027 C 
BRANCH   2   3
ATOM      3  C   UNL     1      -1.867 -26.658  -7.567  1.00  0.00    -0.031 C 
ATOM      4  C   UNL     1      -1.725 -25.390  -7.149  1.00  0.00    -0.027 C 
BRANCH   4   5
ATOM      5  C   UNL     1      -1.813 -24.238  -8.107  1.00  0.00     0.054 C 
BRANCH   5   6
ATOM      6  C   UNL     1      -1.678 -24.727  -9.528  1.00  0.00    -0.027 C 
ATOM      7  C   UNL     1      -0.525 -24.786 -10.220  1.00  0.00    -0.031 C 
BRANCH   7   8
ATOM      8  C   UNL     1       0.827 -24.386  -9.684  1.00  0.00     0.027 C 
BRANCH   8   9
ATOM      9  C   UNL     1       1.269 -23.000 -10.181  1.00  0.00     0.004 C 
BRANCH   9  10
ATOM     10  C   UNL     1       1.014 -21.904  -9.135  1.00  0.00     0.000 C 
BRANCH  10  11
ATOM     11  C   UNL     1      -0.149 -21.000  -9.560  1.00  0.00    -0.003 C 
ATOM     12  C   UNL     1      -1.040 -20.656  -8.371  1.00  0.00     0.004 C 
ENDBRANCH  10  11
ENDBRANCH   9  10
ENDBRANCH   8   9
ENDBRANCH   7   8
ENDBRANCH   5   6
ENDBRANCH   4   5
ENDBRANCH   2   3
ENDBRANCH   1   2
BRANCH   1  13
ATOM     13  C   UNL     1       0.424 -27.981  -7.909  1.00  0.00     0.000 C 
BRANCH  13  14
ATOM     14  C   UNL     1       1.210 -29.026  -8.720  1.00  0.00     0.000 C 
BRANCH  14  15
ATOM     15  C   UNL     1       0.928 -28.944 -10.230  1.00  0.00     0.000 C 
BRANCH  15  16
ATOM     16  C   UNL     1      -0.441 -28.316 -10.545  1.00  0.00     0.003 C 
BRANCH  16  17
ATOM     17  C   UNL     1      -1.494 -29.368 -10.929  1.00  0.00     0.042 C 
BRANCH  17  18
ATOM     18  C   UNL     1      -2.125 -30.051  -9.707  1.00  0.00     0.233 C 
BRANCH  18  19
ATOM     19  O   UNL     1      -1.913 -31.460  -9.762  1.00  0.00    -0.466 OA
BRANCH  19  20
ATOM     20  C   UNL     1      -0.989 -32.132  -8.954  1.00  0.00     0.302 C 
ATOM     21  O   UNL     1       0.175 -32.383  -9.373  1.00  0.00    -0.253 OA
ATOM     22  C   UNL     1      -1.368 -32.509  -7.562  1.00  0.00     0.139 C 
ENDBRANCH  19  20
ENDBRANCH  18  19
ENDBRANCH  17  18
ENDBRANCH  16  17
ENDBRANCH  15  16
ENDBRANCH  14  15
ENDBRANCH  13  14
ENDBRANCH   1  13
TORSDOF 16
ENDMDL
MODEL 2
REMARK VINA RESULT:    -3.986      1.573      2.935
REMARK INTER + INTRA:         -10.458
REMARK INTER:                  -8.698
REMARK INTRA:                  -1.760
REMARK UNBOUND:                -2.744
REMARK SMILES CCCCCC=CCC=CCCCCCCCCOC(C)=O
REMARK SMILES IDX 12 1 11 2 10 3 9 4 8 5 7 6 6 7 5 8 4 9 3 10 2 11 1 12 13 13
REMARK SMILES IDX 14 14 15 15 16 16 17 17 18 18 19 19 20 20 22 21 21 22
REMARK H PARENT
REMARK Flexibility Score: inf
ROOT
ATOM      1  C   UNL     1       0.066 -27.607  -9.011  1.00  0.00     0.004 C 
ENDROOT
BRANCH   1   2
ATOM      2  C   UNL     1       0.943 -26.468  -9.551  1.00  0.00     0.027 C 
BRANCH   2   3
ATOM      3  C   UNL     1       0.140 -25.211  -9.739  1.00  0.00    -0.031 C 
ATOM      4  C   UNL     1      -1.001 -24.995  -9.066  1.00  0.00    -0.027 C 
BRANCH   4   5
ATOM      5  C   UNL     1      -1.793 -23.734  -9.255  1.00  0.00     0.054 C 
BRANCH   5   6
ATOM      6  C   UNL     1      -1.890 -22.976  -7.954  1.00  0.00    -0.027 C 
ATOM      7  C   UNL     1      -1.333 -21.775  -7.714  1.00  0.00    -0.031 C 
BRANCH   7   8
ATOM      8  C   UNL     1      -0.530 -20.979  -8.713  1.00  0.00     0.027 C 
BRANCH   8   9
ATOM      9  C   UNL     1       0.868 -20.617  -8.186  1.00  0.00     0.004 C 
BRANCH   9  10
ATOM     10  C   UNL     1       1.951 -20.776  -9.264  1.00  0.00     0.000 C 
BRANCH  10  11
ATOM     11  C   UNL     1       1.676 -22.002 -10.142  1.00  0.00    -0.003 C 
ATOM     12  C   UNL     1       1.754 -21.648 -11.623  1.00  0.00     0.004 C 
ENDBRANCH  10  11
ENDBRANCH   9  10
ENDBRANCH   8   9
ENDBRANCH   7   8
ENDBRANCH   5   6
ENDBRANCH   4   5
ENDBRANCH   2   3
ENDBRANCH   1   2
BRANCH   1  13
ATOM     13  C   UNL     1       0.814 -28.505  -8.012  1.00  0.00     0.000 C 
BRANCH  13  14
ATOM     14  C   UNL     1      -0.099 -29.013  -6.883  1.00  0.00     0.000 C 
BRANCH  14  15
ATOM     15  C   UNL     1      -1.453 -29.531  -7.398  1.00  0.00     0.000 C 
BRANCH  15  16
ATOM     16  C   UNL     1      -1.339 -30.896  -8.099  1.00  0.00     0.003 C 
BRANCH  16  17
ATOM     17  C   UNL     1      -1.712 -30.823  -9.589  1.00  0.00     0.042 C 
BRANCH  17  18
ATOM     18  C   UNL     1      -0.615 -31.386 -10.504  1.00  0.00     0.233 C 
BRANCH  18  19
ATOM     19  O   UNL     1       0.491 -31.845  -9.729  1.00  0.00    -0.466 OA
BRANCH  19  20
ATOM     20  C   UNL     1       1.244 -32.978 -10.057  1.00  0.00     0.302 C 
ATOM     21  O   UNL     1       2.461 -33.062  -9.734  1.00  0.00    -0.253 OA
ATOM     22  C   UNL     1       0.586 -34.122 -10.750  1.00  0.00     0.139 C 
ENDBRANCH  19  20
ENDBRANCH  18  19
ENDBRANCH  17  18
ENDBRANCH  16  17
ENDBRANCH  15  16
ENDBRANCH  14  15
ENDBRANCH  13  14
ENDBRANCH   1  13
TORSDOF 16
ENDMDL
MODEL 3
REMARK VINA RESULT:    -3.976      1.511      3.012
REMARK INTER + INTRA:         -10.439
REMARK INTER:                  -8.523
REMARK INTRA:                  -1.916
REMARK UNBOUND:                -2.744
REMARK SMILES CCCCCC=CCC=CCCCCCCCCOC(C)=O
REMARK SMILES IDX 12 1 11 2 10 3 9 4 8 5 7 6 6 7 5 8 4 9 3 10 2 11 1 12 13 13
REMARK SMILES IDX 14 14 15 15 16 16 17 17 18 18 19 19 20 20 22 21 21 22
REMARK H PARENT
REMARK Flexibility Score: inf
ROOT
ATOM      1  C   UNL     1       0.397 -27.662 -10.105  1.00  0.00     0.004 C 
ENDROOT
BRANCH   1   2
ATOM      2  C   UNL     1       0.888 -26.368  -9.440  1.00  0.00     0.027 C 
BRANCH   2   3
ATOM      3  C   UNL     1      -0.219 -25.354  -9.347  1.00  0.00    -0.031 C 
ATOM      4  C   UNL     1      -0.268 -24.286 -10.158  1.00  0.00    -0.027 C 
BRANCH   4   5
ATOM      5  C   UNL     1      -1.381 -23.282 -10.062  1.00  0.00     0.054 C 
BRANCH   5   6
ATOM      6  C   UNL     1      -1.666 -22.954  -8.617  1.00  0.00    -0.027 C 
ATOM      7  C   UNL     1      -1.241 -21.850  -7.975  1.00  0.00    -0.031 C 
BRANCH   7   8
ATOM      8  C   UNL     1      -0.419 -20.749  -8.600  1.00  0.00     0.027 C 
BRANCH   8   9
ATOM      9  C   UNL     1       1.084 -20.907  -8.318  1.00  0.00     0.004 C 
BRANCH   9  10
ATOM     10  C   UNL     1       1.945 -20.434  -9.499  1.00  0.00     0.000 C 
BRANCH  10  11
ATOM     11  C   UNL     1       1.115 -20.349 -10.785  1.00  0.00    -0.003 C 
ATOM     12  C   UNL     1       1.504 -21.451 -11.765  1.00  0.00     0.004 C 
ENDBRANCH  10  11
ENDBRANCH   9  10
ENDBRANCH   8   9
ENDBRANCH   7   8
ENDBRANCH   5   6
ENDBRANCH   4   5
ENDBRANCH   2   3
ENDBRANCH   1   2
BRANCH   1  13
ATOM     13  C   UNL     1       0.836 -28.922  -9.341  1.00  0.00     0.000 C 
BRANCH  13  14
ATOM     14  C   UNL     1       0.933 -28.683  -7.825  1.00  0.00     0.000 C 
BRANCH  14  15
ATOM     15  C   UNL     1      -0.413 -28.873  -7.104  1.00  0.00     0.000 C 
BRANCH  15  16
ATOM     16  C   UNL     1      -1.382 -29.778  -7.885  1.00  0.00     0.003 C 
BRANCH  16  17
ATOM     17  C   UNL     1      -1.552 -31.158  -7.231  1.00  0.00     0.042 C 
BRANCH  17  18
ATOM     18  C   UNL     1      -1.553 -32.304  -8.253  1.00  0.00     0.233 C 
BRANCH  18  19
ATOM     19  O   UNL     1      -0.352 -32.283  -9.022  1.00  0.00    -0.466 OA
BRANCH  19  20
ATOM     20  C   UNL     1      -0.331 -32.362 -10.420  1.00  0.00     0.302 C 
ATOM     21  O   UNL     1      -0.896 -31.482 -11.126  1.00  0.00    -0.253 OA
ATOM     22  C   UNL     1       0.414 -33.470 -11.082  1.00  0.00     0.139 C 
ENDBRANCH  19  20
ENDBRANCH  18  19
ENDBRANCH  17  18
ENDBRANCH  16  17
ENDBRANCH  15  16
ENDBRANCH  14  15
ENDBRANCH  13  14
ENDBRANCH   1  13
TORSDOF 16
ENDMDL
MODEL 4
REMARK VINA RESULT:    -3.963      1.671      3.511
REMARK INTER + INTRA:         -10.413
REMARK INTER:                  -7.998
REMARK INTRA:                  -2.414
REMARK UNBOUND:                -2.744
REMARK SMILES CCCCCC=CCC=CCCCCCCCCOC(C)=O
REMARK SMILES IDX 12 1 11 2 10 3 9 4 8 5 7 6 6 7 5 8 4 9 3 10 2 11 1 12 13 13
REMARK SMILES IDX 14 14 15 15 16 16 17 17 18 18 19 19 20 20 22 21 21 22
REMARK H PARENT
REMARK Flexibility Score: inf
ROOT
ATOM      1  C   UNL     1      -0.975 -25.124  -8.660  1.00  0.00     0.004 C 
ENDROOT
BRANCH   1   2
ATOM      2  C   UNL     1      -2.022 -24.554  -9.628  1.00  0.00     0.027 C 
BRANCH   2   3
ATOM      3  C   UNL     1      -1.535 -23.280 -10.262  1.00  0.00    -0.031 C 
ATOM      4  C   UNL     1      -1.203 -23.220 -11.561  1.00  0.00    -0.027 C 
BRANCH   4   5
ATOM      5  C   UNL     1      -0.723 -21.942 -12.186  1.00  0.00     0.054 C 
BRANCH   5   6
ATOM      6  C   UNL     1      -1.713 -20.832 -11.935  1.00  0.00    -0.027 C 
ATOM      7  C   UNL     1      -1.497 -19.766 -11.142  1.00  0.00    -0.031 C 
BRANCH   7   8
ATOM      8  C   UNL     1      -0.220 -19.497 -10.385  1.00  0.00     0.027 C 
BRANCH   8   9
ATOM      9  C   UNL     1      -0.368 -19.755  -8.877  1.00  0.00     0.004 C 
BRANCH   9  10
ATOM     10  C   UNL     1       0.619 -20.821  -8.374  1.00  0.00     0.000 C 
BRANCH  10  11
ATOM     11  C   UNL     1       1.800 -20.974  -9.340  1.00  0.00    -0.003 C 
ATOM     12  C   UNL     1       1.992 -22.431  -9.746  1.00  0.00     0.004 C 
ENDBRANCH  10  11
ENDBRANCH   9  10
ENDBRANCH   8   9
ENDBRANCH   7   8
ENDBRANCH   5   6
ENDBRANCH   4   5
ENDBRANCH   2   3
ENDBRANCH   1   2
BRANCH   1  13
ATOM     13  C   UNL     1       0.239 -25.722  -9.390  1.00  0.00     0.000 C 
BRANCH  13  14
ATOM     14  C   UNL     1       0.048 -27.212  -9.722  1.00  0.00     0.000 C 
BRANCH  14  15
ATOM     15  C   UNL     1       1.217 -28.086  -9.236  1.00  0.00     0.000 C 
BRANCH  15  16
ATOM     16  C   UNL     1       0.959 -28.709  -7.853  1.00  0.00     0.003 C 
BRANCH  16  17
ATOM     17  C   UNL     1      -0.539 -28.903  -7.568  1.00  0.00     0.042 C 
BRANCH  17  18
ATOM     18  C   UNL     1      -1.014 -30.339  -7.830  1.00  0.00     0.233 C 
BRANCH  18  19
ATOM     19  O   UNL     1      -1.303 -30.521  -9.214  1.00  0.00    -0.466 OA
BRANCH  19  20
ATOM     20  C   UNL     1      -0.519 -31.306 -10.068  1.00  0.00     0.302 C 
ATOM     21  O   UNL     1       0.652 -31.645  -9.742  1.00  0.00    -0.253 OA
ATOM     22  C   UNL     1      -1.094 -31.790 -11.355  1.00  0.00     0.139 C 
ENDBRANCH  19  20
ENDBRANCH  18  19
ENDBRANCH  17  18
ENDBRANCH  16  17
ENDBRANCH  15  16
ENDBRANCH  14  15
ENDBRANCH  13  14
ENDBRANCH   1  13
TORSDOF 16
ENDMDL
MODEL 5
REMARK VINA RESULT:    -3.926      1.786      3.760
REMARK INTER + INTRA:         -10.342
REMARK INTER:                  -7.980
REMARK INTRA:                  -2.363
REMARK UNBOUND:                -2.744
REMARK SMILES CCCCCC=CCC=CCCCCCCCCOC(C)=O
REMARK SMILES IDX 12 1 11 2 10 3 9 4 8 5 7 6 6 7 5 8 4 9 3 10 2 11 1 12 13 13
REMARK SMILES IDX 14 14 15 15 16 16 17 17 18 18 19 19 20 20 22 21 21 22
REMARK H PARENT
REMARK Flexibility Score: inf
ROOT
ATOM      1  C   UNL     1      -1.589 -24.554  -7.338  1.00  0.00     0.004 C 
ENDROOT
BRANCH   1   2
ATOM      2  C   UNL     1      -2.125 -23.202  -7.831  1.00  0.00     0.027 C 
BRANCH   2   3
ATOM      3  C   UNL     1      -1.067 -22.137  -7.738  1.00  0.00    -0.031 C 
ATOM      4  C   UNL     1      -1.211 -20.945  -8.340  1.00  0.00    -0.027 C 
BRANCH   4   5
ATOM      5  C   UNL     1      -0.152 -19.886  -8.237  1.00  0.00     0.054 C 
BRANCH   5   6
ATOM      6  C   UNL     1       1.214 -20.487  -8.457  1.00  0.00    -0.027 C 
ATOM      7  C   UNL     1       1.793 -20.674  -9.657  1.00  0.00    -0.031 C 
BRANCH   7   8
ATOM      8  C   UNL     1       1.178 -20.298 -10.982  1.00  0.00     0.027 C 
BRANCH   8   9
ATOM      9  C   UNL     1       0.988 -21.511 -11.906  1.00  0.00     0.004 C 
BRANCH   9  10
ATOM     10  C   UNL     1       0.113 -22.597 -11.261  1.00  0.00     0.000 C 
BRANCH  10  11
ATOM     11  C   UNL     1      -1.358 -22.423 -11.655  1.00  0.00    -0.003 C 
ATOM     12  C   UNL     1      -1.765 -23.434 -12.721  1.00  0.00     0.004 C 
ENDBRANCH  10  11
ENDBRANCH   9  10
ENDBRANCH   8   9
ENDBRANCH   7   8
ENDBRANCH   5   6
ENDBRANCH   4   5
ENDBRANCH   2   3
ENDBRANCH   1   2
BRANCH   1  13
ATOM     13  C   UNL     1      -1.906 -25.703  -8.310  1.00  0.00     0.000 C 
BRANCH  13  14
ATOM     14  C   UNL     1      -0.846 -25.844  -9.416  1.00  0.00     0.000 C 
BRANCH  14  15
ATOM     15  C   UNL     1      -1.375 -26.577 -10.660  1.00  0.00     0.000 C 
BRANCH  15  16
ATOM     16  C   UNL     1      -0.855 -28.021 -10.765  1.00  0.00     0.003 C 
BRANCH  16  17
ATOM     17  C   UNL     1       0.460 -28.228  -9.996  1.00  0.00     0.042 C 
BRANCH  17  18
ATOM     18  C   UNL     1       0.542 -29.604  -9.319  1.00  0.00     0.233 C 
BRANCH  18  19
ATOM     19  O   UNL     1       0.176 -29.503  -7.944  1.00  0.00    -0.466 OA
BRANCH  19  20
ATOM     20  C   UNL     1      -1.069 -29.905  -7.447  1.00  0.00     0.302 C 
ATOM     21  O   UNL     1      -1.378 -31.128  -7.390  1.00  0.00    -0.253 OA
ATOM     22  C   UNL     1      -2.020 -28.881  -6.929  1.00  0.00     0.139 C 
ENDBRANCH  19  20
ENDBRANCH  18  19
ENDBRANCH  17  18
ENDBRANCH  16  17
ENDBRANCH  15  16
ENDBRANCH  14  15
ENDBRANCH  13  14
ENDBRANCH   1  13
TORSDOF 16
ENDMDL
MODEL 6
REMARK VINA RESULT:    -3.915      1.576      3.383
REMARK INTER + INTRA:         -10.320
REMARK INTER:                  -8.626
REMARK INTRA:                  -1.695
REMARK UNBOUND:                -2.744
REMARK SMILES CCCCCC=CCC=CCCCCCCCCOC(C)=O
REMARK SMILES IDX 12 1 11 2 10 3 9 4 8 5 7 6 6 7 5 8 4 9 3 10 2 11 1 12 13 13
REMARK SMILES IDX 14 14 15 15 16 16 17 17 18 18 19 19 20 20 22 21 21 22
REMARK H PARENT
REMARK Flexibility Score: inf
ROOT
ATOM      1  C   UNL     1       0.897 -26.629  -9.461  1.00  0.00     0.004 C 
ENDROOT
BRANCH   1   2
ATOM      2  C   UNL     1      -0.368 -25.785  -9.247  1.00  0.00     0.027 C 
BRANCH   2   3
ATOM      3  C   UNL     1      -0.152 -24.366  -9.699  1.00  0.00    -0.031 C 
ATOM      4  C   UNL     1       1.078 -23.840  -9.808  1.00  0.00    -0.027 C 
BRANCH   4   5
ATOM      5  C   UNL     1       1.284 -22.425 -10.266  1.00  0.00     0.054 C 
BRANCH   5   6
ATOM      6  C   UNL     1       1.657 -21.546  -9.097  1.00  0.00    -0.027 C 
ATOM      7  C   UNL     1       0.782 -20.960  -8.259  1.00  0.00    -0.031 C 
BRANCH   7   8
ATOM      8  C   UNL     1      -0.718 -21.098  -8.340  1.00  0.00     0.027 C 
BRANCH   8   9
ATOM      9  C   UNL     1      -1.426 -19.737  -8.441  1.00  0.00     0.004 C 
BRANCH   9  10
ATOM     10  C   UNL     1      -0.596 -18.711  -9.227  1.00  0.00     0.000 C 
BRANCH  10  11
ATOM     11  C   UNL     1      -0.878 -18.811 -10.730  1.00  0.00    -0.003 C 
ATOM     12  C   UNL     1       0.356 -18.443 -11.547  1.00  0.00     0.004 C 
ENDBRANCH  10  11
ENDBRANCH   9  10
ENDBRANCH   8   9
ENDBRANCH   7   8
ENDBRANCH   5   6
ENDBRANCH   4   5
ENDBRANCH   2   3
ENDBRANCH   1   2
BRANCH   1  13
ATOM     13  C   UNL     1       0.607 -28.139  -9.442  1.00  0.00     0.000 C 
BRANCH  13  14
ATOM     14  C   UNL     1       1.055 -28.806  -8.130  1.00  0.00     0.000 C 
BRANCH  14  15
ATOM     15  C   UNL     1      -0.012 -28.724  -7.026  1.00  0.00     0.000 C 
BRANCH  15  16
ATOM     16  C   UNL     1      -1.373 -29.289  -7.472  1.00  0.00     0.003 C 
BRANCH  16  17
ATOM     17  C   UNL     1      -1.425 -30.823  -7.397  1.00  0.00     0.042 C 
BRANCH  17  18
ATOM     18  C   UNL     1      -1.616 -31.479  -8.772  1.00  0.00     0.233 C 
BRANCH  18  19
ATOM     19  O   UNL     1      -1.102 -32.809  -8.763  1.00  0.00    -0.466 OA
BRANCH  19  20
ATOM     20  C   UNL     1       0.062 -33.189  -9.441  1.00  0.00     0.302 C 
ATOM     21  O   UNL     1       0.281 -34.401  -9.720  1.00  0.00    -0.253 OA
ATOM     22  C   UNL     1       1.027 -32.145  -9.887  1.00  0.00     0.139 C 
ENDBRANCH  19  20
ENDBRANCH  18  19
ENDBRANCH  17  18
ENDBRANCH  16  17
ENDBRANCH  15  16
ENDBRANCH  14  15
ENDBRANCH  13  14
ENDBRANCH   1  13
TORSDOF 16
ENDMDL
MODEL 7
REMARK VINA RESULT:    -3.904      3.628      7.945
REMARK INTER + INTRA:         -10.300
REMARK INTER:                  -7.949
REMARK INTRA:                  -2.351
REMARK UNBOUND:                -2.744
REMARK SMILES CCCCCC=CCC=CCCCCCCCCOC(C)=O
REMARK SMILES IDX 12 1 11 2 10 3 9 4 8 5 7 6 6 7 5 8 4 9 3 10 2 11 1 12 13 13
REMARK SMILES IDX 14 14 15 15 16 16 17 17 18 18 19 19 20 20 22 21 21 22
REMARK H PARENT
REMARK Flexibility Score: inf
ROOT
ATOM      1  C   UNL     1       0.259 -24.519  -9.694  1.00  0.00     0.004 C 
ENDROOT
BRANCH   1   2
ATOM      2  C   UNL     1      -0.008 -25.974 -10.106  1.00  0.00     0.027 C 
BRANCH   2   3
ATOM      3  C   UNL     1       0.143 -26.903  -8.932  1.00  0.00    -0.031 C 
ATOM      4  C   UNL     1       0.897 -28.011  -9.002  1.00  0.00    -0.027 C 
BRANCH   4   5
ATOM      5  C   UNL     1       1.047 -28.929  -7.823  1.00  0.00     0.054 C 
BRANCH   5   6
ATOM      6  C   UNL     1      -0.209 -28.915  -6.987  1.00  0.00    -0.027 C 
ATOM      7  C   UNL     1      -1.229 -29.784  -7.107  1.00  0.00    -0.031 C 
BRANCH   7   8
ATOM      8  C   UNL     1      -1.280 -30.928  -8.090  1.00  0.00     0.027 C 
BRANCH   8   9
ATOM      9  C   UNL     1      -1.854 -30.504  -9.452  1.00  0.00     0.004 C 
BRANCH   9  10
ATOM     10  C   UNL     1      -0.907 -30.851 -10.610  1.00  0.00     0.000 C 
BRANCH  10  11
ATOM     11  C   UNL     1      -0.942 -29.766 -11.692  1.00  0.00    -0.003 C 
ATOM     12  C   UNL     1      -2.062 -28.765 -11.430  1.00  0.00     0.004 C 
ENDBRANCH  10  11
ENDBRANCH   9  10
ENDBRANCH   8   9
ENDBRANCH   7   8
ENDBRANCH   5   6
ENDBRANCH   4   5
ENDBRANCH   2   3
ENDBRANCH   1   2
BRANCH   1  13
ATOM     13  C   UNL     1      -0.994 -23.825  -9.135  1.00  0.00     0.000 C 
BRANCH  13  14
ATOM     14  C   UNL     1      -1.690 -22.939 -10.183  1.00  0.00     0.000 C 
BRANCH  14  15
ATOM     15  C   UNL     1      -1.191 -23.204 -11.614  1.00  0.00     0.000 C 
BRANCH  15  16
ATOM     16  C   UNL     1      -0.892 -21.907 -12.388  1.00  0.00     0.003 C 
BRANCH  16  17
ATOM     17  C   UNL     1      -1.297 -20.649 -11.604  1.00  0.00     0.042 C 
BRANCH  17  18
ATOM     18  C   UNL     1      -0.094 -19.780 -11.212  1.00  0.00     0.233 C 
BRANCH  18  19
ATOM     19  O   UNL     1       1.028 -20.600 -10.893  1.00  0.00    -0.466 OA
BRANCH  19  20
ATOM     20  C   UNL     1       1.372 -20.959  -9.585  1.00  0.00     0.302 C 
ATOM     21  O   UNL     1       2.358 -21.714  -9.359  1.00  0.00    -0.253 OA
ATOM     22  C   UNL     1       0.599 -20.398  -8.441  1.00  0.00     0.139 C 
ENDBRANCH  19  20
ENDBRANCH  18  19
ENDBRANCH  17  18
ENDBRANCH  16  17
ENDBRANCH  15  16
ENDBRANCH  14  15
ENDBRANCH  13  14
ENDBRANCH   1  13
TORSDOF 16
ENDMDL
MODEL 8
REMARK VINA RESULT:    -3.869      1.688      3.149
REMARK INTER + INTRA:         -10.231
REMARK INTER:                  -8.272
REMARK INTRA:                  -1.959
REMARK UNBOUND:                -2.744
REMARK SMILES CCCCCC=CCC=CCCCCCCCCOC(C)=O
REMARK SMILES IDX 12 1 11 2 10 3 9 4 8 5 7 6 6 7 5 8 4 9 3 10 2 11 1 12 13 13
REMARK SMILES IDX 14 14 15 15 16 16 17 17 18 18 19 19 20 20 22 21 21 22
REMARK H PARENT
REMARK Flexibility Score: inf
ROOT
ATOM      1  C   UNL     1       0.322 -27.934  -8.251  1.00  0.00     0.004 C 
ENDROOT
BRANCH   1   2
ATOM      2  C   UNL     1       0.731 -26.989  -9.391  1.00  0.00     0.027 C 
BRANCH   2   3
ATOM      3  C   UNL     1      -0.330 -25.952  -9.640  1.00  0.00    -0.031 C 
ATOM      4  C   UNL     1      -0.030 -24.649  -9.759  1.00  0.00    -0.027 C 
BRANCH   4   5
ATOM      5  C   UNL     1      -1.095 -23.622 -10.014  1.00  0.00     0.054 C 
BRANCH   5   6
ATOM      6  C   UNL     1      -1.339 -23.478 -11.495  1.00  0.00    -0.027 C 
ATOM      7  C   UNL     1      -1.032 -22.392 -12.229  1.00  0.00    -0.031 C 
BRANCH   7   8
ATOM      8  C   UNL     1      -0.378 -21.143 -11.692  1.00  0.00     0.027 C 
BRANCH   8   9
ATOM      9  C   UNL     1       1.155 -21.199 -11.783  1.00  0.00     0.004 C 
BRANCH   9  10
ATOM     10  C   UNL     1       1.830 -20.513 -10.585  1.00  0.00     0.000 C 
BRANCH  10  11
ATOM     11  C   UNL     1       1.743 -21.390  -9.330  1.00  0.00    -0.003 C 
ATOM     12  C   UNL     1       0.813 -20.772  -8.292  1.00  0.00     0.004 C 
ENDBRANCH  10  11
ENDBRANCH   9  10
ENDBRANCH   8   9
ENDBRANCH   7   8
ENDBRANCH   5   6
ENDBRANCH   4   5
ENDBRANCH   2   3
ENDBRANCH   1   2
BRANCH   1  13
ATOM     13  C   UNL     1      -0.971 -27.487  -7.551  1.00  0.00     0.000 C 
BRANCH  13  14
ATOM     14  C   UNL     1      -1.849 -28.677  -7.126  1.00  0.00     0.000 C 
BRANCH  14  15
ATOM     15  C   UNL     1      -1.089 -30.013  -7.140  1.00  0.00     0.000 C 
BRANCH  15  16
ATOM     16  C   UNL     1      -1.897 -31.150  -7.790  1.00  0.00     0.003 C 
BRANCH  16  17
ATOM     17  C   UNL     1      -1.023 -32.070  -8.657  1.00  0.00     0.042 C 
BRANCH  17  18
ATOM     18  C   UNL     1      -0.073 -31.292  -9.579  1.00  0.00     0.233 C 
BRANCH  18  19
ATOM     19  O   UNL     1      -0.586 -31.262 -10.908  1.00  0.00    -0.466 OA
BRANCH  19  20
ATOM     20  C   UNL     1      -1.228 -30.149 -11.462  1.00  0.00     0.302 C 
ATOM     21  O   UNL     1      -1.706 -29.244 -10.723  1.00  0.00    -0.253 OA
ATOM     22  C   UNL     1      -1.301 -30.003 -12.943  1.00  0.00     0.139 C 
ENDBRANCH  19  20
ENDBRANCH  18  19
ENDBRANCH  17  18
ENDBRANCH  16  17
ENDBRANCH  15  16
ENDBRANCH  14  15
ENDBRANCH  13  14
ENDBRANCH   1  13
TORSDOF 16
ENDMDL
MODEL 9
REMARK VINA RESULT:    -3.785      1.683      3.569
REMARK INTER + INTRA:         -10.069
REMARK INTER:                  -7.650
REMARK INTRA:                  -2.419
REMARK UNBOUND:                -2.744
REMARK SMILES CCCCCC=CCC=CCCCCCCCCOC(C)=O
REMARK SMILES IDX 12 1 11 2 10 3 9 4 8 5 7 6 6 7 5 8 4 9 3 10 2 11 1 12 13 13
REMARK SMILES IDX 14 14 15 15 16 16 17 17 18 18 19 19 20 20 22 21 21 22
REMARK H PARENT
REMARK Flexibility Score: inf
ROOT
ATOM      1  C   UNL     1      -0.286 -25.264 -10.389  1.00  0.00     0.004 C 
ENDROOT
BRANCH   1   2
ATOM      2  C   UNL     1      -1.399 -24.450 -11.065  1.00  0.00     0.027 C 
BRANCH   2   3
ATOM      3  C   UNL     1      -1.797 -23.272 -10.219  1.00  0.00    -0.031 C 
ATOM      4  C   UNL     1      -1.369 -23.135  -8.954  1.00  0.00    -0.027 C 
BRANCH   4   5
ATOM      5  C   UNL     1      -1.766 -21.953  -8.118  1.00  0.00     0.054 C 
BRANCH   5   6
ATOM      6  C   UNL     1      -0.608 -20.996  -7.982  1.00  0.00    -0.027 C 
ATOM      7  C   UNL     1      -0.400 -19.916  -8.759  1.00  0.00    -0.031 C 
BRANCH   7   8
ATOM      8  C   UNL     1      -1.300 -19.476  -9.886  1.00  0.00     0.027 C 
BRANCH   8   9
ATOM      9  C   UNL     1      -0.776 -19.918 -11.262  1.00  0.00     0.004 C 
BRANCH   9  10
ATOM     10  C   UNL     1       0.750 -20.092 -11.270  1.00  0.00     0.000 C 
BRANCH  10  11
ATOM     11  C   UNL     1       1.138 -21.515 -11.689  1.00  0.00    -0.003 C 
ATOM     12  C   UNL     1       1.874 -22.237 -10.565  1.00  0.00     0.004 C 
ENDBRANCH  10  11
ENDBRANCH   9  10
ENDBRANCH   8   9
ENDBRANCH   7   8
ENDBRANCH   5   6
ENDBRANCH   4   5
ENDBRANCH   2   3
ENDBRANCH   1   2
BRANCH   1  13
ATOM     13  C   UNL     1      -0.761 -26.656  -9.943  1.00  0.00     0.000 C 
BRANCH  13  14
ATOM     14  C   UNL     1      -0.227 -27.040  -8.552  1.00  0.00     0.000 C 
BRANCH  14  15
ATOM     15  C   UNL     1      -1.321 -27.039  -7.472  1.00  0.00     0.000 C 
BRANCH  15  16
ATOM     16  C   UNL     1      -2.069 -28.381  -7.382  1.00  0.00     0.003 C 
BRANCH  16  17
ATOM     17  C   UNL     1      -1.113 -29.577  -7.241  1.00  0.00     0.042 C 
BRANCH  17  18
ATOM     18  C   UNL     1      -1.295 -30.618  -8.355  1.00  0.00     0.233 C 
BRANCH  18  19
ATOM     19  O   UNL     1      -0.111 -30.711  -9.144  1.00  0.00    -0.466 OA
BRANCH  19  20
ATOM     20  C   UNL     1       0.309 -31.892  -9.766  1.00  0.00     0.302 C 
ATOM     21  O   UNL     1       1.529 -32.212  -9.791  1.00  0.00    -0.253 OA
ATOM     22  C   UNL     1      -0.704 -32.810 -10.361  1.00  0.00     0.139 C 
ENDBRANCH  19  20
ENDBRANCH  18  19
ENDBRANCH  17  18
ENDBRANCH  16  17
ENDBRANCH  15  16
ENDBRANCH  14  15
ENDBRANCH  13  14
ENDBRANCH   1  13
TORSDOF 16
ENDMDL
