MODEL 1
REMARK VINA RESULT:    -6.651      0.000      0.000
REMARK INTER + INTRA:          -8.241
REMARK INTER:                  -8.012
REMARK INTRA:                  -0.229
REMARK UNBOUND:                -0.229
REMARK SMILES O=c1ccn([C@@H]2O[C@H](CO)[C@@H](O)[C@H]2O)c(=O)[nH]1
REMARK SMILES IDX 6 1 13 2 11 3 8 4 7 5 5 6 3 7 4 8 2 9 17 10 1 11 15 12 16 14
REMARK SMILES IDX 14 15 12 17 9 19 10 20
REMARK H PARENT 17 13 14 16 12 18 10 21
REMARK Flexibility Score: inf
ROOT
ATOM      1  C   UNL     1      11.523 -18.258 -28.371  1.00  0.00     0.255 C 
ATOM      2  C   UNL     1      11.055 -18.490 -26.946  1.00  0.00     0.196 C 
ATOM      3  C   UNL     1      11.913 -19.655 -26.513  1.00  0.00     0.179 C 
ATOM      4  C   UNL     1      12.266 -20.342 -27.845  1.00  0.00     0.178 C 
ATOM      5  O   UNL     1      11.897 -19.500 -28.920  1.00  0.00    -0.347 OA
ENDROOT
BRANCH   1   6
ATOM      6  N   UNL     1      10.468 -17.616 -29.185  1.00  0.00    -0.271 N 
ATOM      7  C   UNL     1       8.154 -17.038 -29.447  1.00  0.00     0.090 A 
ATOM      8  C   UNL     1       9.185 -17.612 -28.709  1.00  0.00     0.099 A 
ATOM      9  C   UNL     1       8.451 -16.478 -30.685  1.00  0.00     0.253 A 
ATOM     10  N   UNL     1       9.728 -16.506 -31.148  1.00  0.00    -0.274 N 
ATOM     11  O   UNL     1       7.538 -15.952 -31.374  1.00  0.00    -0.269 OA
ATOM     12  C   UNL     1      10.730 -17.071 -30.420  1.00  0.00     0.330 A 
ATOM     13  H   UNL     1       9.943 -16.090 -32.085  1.00  0.00     0.175 HD
ATOM     14  O   UNL     1      11.897 -17.091 -30.898  1.00  0.00    -0.248 OA
ENDBRANCH   1   6
BRANCH   2  15
ATOM     15  O   UNL     1      11.258 -17.346 -26.158  1.00  0.00    -0.386 OA
ATOM     16  H   UNL     1      11.411 -16.596 -26.790  1.00  0.00     0.211 HD
ENDBRANCH   2  15
BRANCH   3  17
ATOM     17  O   UNL     1      13.083 -19.198 -25.879  1.00  0.00    -0.387 OA
ATOM     18  H   UNL     1      13.842 -19.658 -26.323  1.00  0.00     0.211 HD
ENDBRANCH   3  17
BRANCH   4  19
ATOM     19  C   UNL     1      11.551 -21.692 -27.999  1.00  0.00     0.191 C 
BRANCH  19  20
ATOM     20  O   UNL     1      10.985 -21.813 -29.276  1.00  0.00    -0.394 OA
ATOM     21  H   UNL     1      11.101 -22.761 -29.550  1.00  0.00     0.210 HD
ENDBRANCH  19  20
ENDBRANCH   4  19
TORSDOF 5
ENDMDL
MODEL 2
REMARK VINA RESULT:    -5.778      3.136      5.514
REMARK INTER + INTRA:          -7.190
REMARK INTER:                  -6.790
REMARK INTRA:                  -0.399
REMARK UNBOUND:                -0.229
REMARK SMILES O=c1ccn([C@@H]2O[C@H](CO)[C@@H](O)[C@H]2O)c(=O)[nH]1
REMARK SMILES IDX 6 1 13 2 11 3 8 4 7 5 5 6 3 7 4 8 2 9 17 10 1 11 15 12 16 14
REMARK SMILES IDX 14 15 12 17 9 19 10 20
REMARK H PARENT 17 13 14 16 12 18 10 21
REMARK Flexibility Score: inf
ROOT
ATOM      1  C   UNL     1      12.122 -19.968 -27.857  1.00  0.00     0.255 C 
ATOM      2  C   UNL     1      10.764 -19.359 -27.555  1.00  0.00     0.196 C 
ATOM      3  C   UNL     1      11.135 -18.121 -26.775  1.00  0.00     0.179 C 
ATOM      4  C   UNL     1      12.508 -18.483 -26.178  1.00  0.00     0.178 C 
ATOM      5  O   UNL     1      12.988 -19.665 -26.788  1.00  0.00    -0.347 OA
ENDROOT
BRANCH   1   6
ATOM      6  N   UNL     1      12.022 -21.429 -28.059  1.00  0.00    -0.271 N 
ATOM      7  C   UNL     1      11.743 -23.613 -27.105  1.00  0.00     0.090 A 
ATOM      8  C   UNL     1      11.824 -22.230 -26.968  1.00  0.00     0.099 A 
ATOM      9  C   UNL     1      11.879 -24.166 -28.373  1.00  0.00     0.253 A 
ATOM     10  N   UNL     1      12.092 -23.357 -29.443  1.00  0.00    -0.274 N 
ATOM     11  O   UNL     1      11.810 -25.415 -28.526  1.00  0.00    -0.269 OA
ATOM     12  C   UNL     1      12.171 -22.005 -29.300  1.00  0.00     0.330 A 
ATOM     13  H   UNL     1      12.202 -23.781 -30.394  1.00  0.00     0.175 HD
ATOM     14  O   UNL     1      12.388 -21.294 -30.318  1.00  0.00    -0.248 OA
ENDBRANCH   1   6
BRANCH   2  15
ATOM     15  O   UNL     1      10.072 -19.064 -28.740  1.00  0.00    -0.386 OA
ATOM     16  H   UNL     1      10.263 -19.809 -29.368  1.00  0.00     0.211 HD
ENDBRANCH   2  15
BRANCH   3  17
ATOM     17  O   UNL     1      11.256 -17.013 -27.634  1.00  0.00    -0.387 OA
ATOM     18  H   UNL     1      10.486 -16.419 -27.437  1.00  0.00     0.211 HD
ENDBRANCH   3  17
BRANCH   4  19
ATOM     19  C   UNL     1      12.433 -18.696 -24.660  1.00  0.00     0.191 C 
BRANCH  19  20
ATOM     20  O   UNL     1      13.272 -17.795 -23.989  1.00  0.00    -0.394 OA
ATOM     21  H   UNL     1      13.161 -17.972 -23.018  1.00  0.00     0.210 HD
ENDBRANCH  19  20
ENDBRANCH   4  19
TORSDOF 5
ENDMDL
MODEL 3
REMARK VINA RESULT:    -5.692      2.176      3.335
REMARK INTER + INTRA:          -7.086
REMARK INTER:                  -6.648
REMARK INTRA:                  -0.438
REMARK UNBOUND:                -0.229
REMARK SMILES O=c1ccn([C@@H]2O[C@H](CO)[C@@H](O)[C@H]2O)c(=O)[nH]1
REMARK SMILES IDX 6 1 13 2 11 3 8 4 7 5 5 6 3 7 4 8 2 9 17 10 1 11 15 12 16 14
REMARK SMILES IDX 14 15 12 17 9 19 10 20
REMARK H PARENT 17 13 14 16 12 18 10 21
REMARK Flexibility Score: inf
ROOT
ATOM      1  C   UNL     1      10.217 -18.590 -27.207  1.00  0.00     0.255 C 
ATOM      2  C   UNL     1      11.488 -18.495 -28.031  1.00  0.00     0.196 C 
ATOM      3  C   UNL     1      12.466 -19.298 -27.206  1.00  0.00     0.179 C 
ATOM      4  C   UNL     1      11.882 -19.201 -25.784  1.00  0.00     0.178 C 
ATOM      5  O   UNL     1      10.578 -18.658 -25.846  1.00  0.00    -0.347 OA
ENDROOT
BRANCH   1   6
ATOM      6  N   UNL     1       9.326 -17.437 -27.460  1.00  0.00    -0.271 N 
ATOM      7  C   UNL     1       8.430 -15.341 -26.713  1.00  0.00     0.090 A 
ATOM      8  C   UNL     1       9.268 -16.436 -26.529  1.00  0.00     0.099 A 
ATOM      9  C   UNL     1       7.643 -15.288 -27.858  1.00  0.00     0.253 A 
ATOM     10  N   UNL     1       7.701 -16.299 -28.764  1.00  0.00    -0.274 N 
ATOM     11  O   UNL     1       6.875 -14.308 -28.050  1.00  0.00    -0.269 OA
ATOM     12  C   UNL     1       8.523 -17.367 -28.575  1.00  0.00     0.330 A 
ATOM     13  H   UNL     1       7.099 -16.256 -29.619  1.00  0.00     0.175 HD
ATOM     14  O   UNL     1       8.532 -18.292 -29.433  1.00  0.00    -0.248 OA
ENDBRANCH   1   6
BRANCH   2  15
ATOM     15  O   UNL     1      11.296 -19.032 -29.314  1.00  0.00    -0.386 OA
ATOM     16  H   UNL     1      11.924 -19.797 -29.394  1.00  0.00     0.211 HD
ENDBRANCH   2  15
BRANCH   3  17
ATOM     17  O   UNL     1      12.486 -20.639 -27.630  1.00  0.00    -0.387 OA
ATOM     18  H   UNL     1      12.616 -20.620 -28.614  1.00  0.00     0.211 HD
ENDBRANCH   3  17
BRANCH   4  19
ATOM     19  C   UNL     1      12.747 -18.321 -24.870  1.00  0.00     0.191 C 
BRANCH  19  20
ATOM     20  O   UNL     1      11.968 -17.731 -23.864  1.00  0.00    -0.394 OA
ATOM     21  H   UNL     1      12.600 -17.315 -23.221  1.00  0.00     0.210 HD
ENDBRANCH  19  20
ENDBRANCH   4  19
TORSDOF 5
ENDMDL
MODEL 4
REMARK VINA RESULT:    -5.446      2.042      2.803
REMARK INTER + INTRA:          -6.790
REMARK INTER:                  -6.595
REMARK INTRA:                  -0.194
REMARK UNBOUND:                -0.229
REMARK SMILES O=c1ccn([C@@H]2O[C@H](CO)[C@@H](O)[C@H]2O)c(=O)[nH]1
REMARK SMILES IDX 6 1 13 2 11 3 8 4 7 5 5 6 3 7 4 8 2 9 17 10 1 11 15 12 16 14
REMARK SMILES IDX 14 15 12 17 9 19 10 20
REMARK H PARENT 17 13 14 16 12 18 10 21
REMARK Flexibility Score: inf
ROOT
ATOM      1  C   UNL     1      11.771 -19.564 -27.731  1.00  0.00     0.255 C 
ATOM      2  C   UNL     1      11.553 -20.712 -26.762  1.00  0.00     0.196 C 
ATOM      3  C   UNL     1      12.345 -21.827 -27.403  1.00  0.00     0.179 C 
ATOM      4  C   UNL     1      12.367 -21.428 -28.890  1.00  0.00     0.178 C 
ATOM      5  O   UNL     1      11.899 -20.100 -29.028  1.00  0.00    -0.347 OA
ENDROOT
BRANCH   1   6
ATOM      6  N   UNL     1      10.659 -18.591 -27.668  1.00  0.00    -0.271 N 
ATOM      7  C   UNL     1       8.759 -17.584 -28.732  1.00  0.00     0.090 A 
ATOM      8  C   UNL     1       9.808 -18.499 -28.735  1.00  0.00     0.099 A 
ATOM      9  C   UNL     1       8.599 -16.756 -27.626  1.00  0.00     0.253 A 
ATOM     10  N   UNL     1       9.465 -16.850 -26.583  1.00  0.00    -0.274 N 
ATOM     11  O   UNL     1       7.658 -15.919 -27.596  1.00  0.00    -0.269 OA
ATOM     12  C   UNL     1      10.489 -17.747 -26.595  1.00  0.00     0.330 A 
ATOM     13  H   UNL     1       9.343 -16.218 -25.757  1.00  0.00     0.175 HD
ATOM     14  O   UNL     1      11.279 -17.787 -25.613  1.00  0.00    -0.248 OA
ENDBRANCH   1   6
BRANCH   2  15
ATOM     15  O   UNL     1      12.024 -20.383 -25.480  1.00  0.00    -0.386 OA
ATOM     16  H   UNL     1      12.040 -19.391 -25.435  1.00  0.00     0.211 HD
ENDBRANCH   2  15
BRANCH   3  17
ATOM     17  O   UNL     1      13.655 -21.860 -26.891  1.00  0.00    -0.387 OA
ATOM     18  H   UNL     1      13.657 -21.279 -26.086  1.00  0.00     0.211 HD
ENDBRANCH   3  17
BRANCH   4  19
ATOM     19  C   UNL     1      11.493 -22.357 -29.744  1.00  0.00     0.191 C 
BRANCH  19  20
ATOM     20  O   UNL     1      10.328 -22.720 -29.053  1.00  0.00    -0.394 OA
ATOM     21  H   UNL     1       9.840 -23.361 -29.634  1.00  0.00     0.210 HD
ENDBRANCH  19  20
ENDBRANCH   4  19
TORSDOF 5
ENDMDL
MODEL 5
REMARK VINA RESULT:    -5.349      2.799      4.302
REMARK INTER + INTRA:          -6.672
REMARK INTER:                  -6.517
REMARK INTRA:                  -0.155
REMARK UNBOUND:                -0.229
REMARK SMILES O=c1ccn([C@@H]2O[C@H](CO)[C@@H](O)[C@H]2O)c(=O)[nH]1
REMARK SMILES IDX 6 1 13 2 11 3 8 4 7 5 5 6 3 7 4 8 2 9 17 10 1 11 15 12 16 14
REMARK SMILES IDX 14 15 12 17 9 19 10 20
REMARK H PARENT 17 13 14 16 12 18 10 21
REMARK Flexibility Score: inf
ROOT
ATOM      1  C   UNL     1      12.412 -21.132 -28.448  1.00  0.00     0.255 C 
ATOM      2  C   UNL     1      12.865 -22.306 -27.599  1.00  0.00     0.196 C 
ATOM      3  C   UNL     1      12.613 -23.480 -28.513  1.00  0.00     0.179 C 
ATOM      4  C   UNL     1      11.503 -22.963 -29.446  1.00  0.00     0.178 C 
ATOM      5  O   UNL     1      11.353 -21.567 -29.270  1.00  0.00    -0.347 OA
ENDROOT
BRANCH   1   6
ATOM      6  N   UNL     1      11.994 -19.991 -27.607  1.00  0.00    -0.271 N 
ATOM      7  C   UNL     1      11.344 -19.169 -25.448  1.00  0.00     0.090 A 
ATOM      8  C   UNL     1      11.759 -20.208 -26.277  1.00  0.00     0.099 A 
ATOM      9  C   UNL     1      11.161 -17.907 -26.002  1.00  0.00     0.253 A 
ATOM     10  N   UNL     1      11.383 -17.713 -27.328  1.00  0.00    -0.274 N 
ATOM     11  O   UNL     1      10.787 -16.948 -25.275  1.00  0.00    -0.269 OA
ATOM     12  C   UNL     1      11.787 -18.735 -28.132  1.00  0.00     0.330 A 
ATOM     13  H   UNL     1      11.235 -16.762 -27.740  1.00  0.00     0.175 HD
ATOM     14  O   UNL     1      11.964 -18.515 -29.361  1.00  0.00    -0.248 OA
ENDBRANCH   1   6
BRANCH   2  15
ATOM     15  O   UNL     1      14.219 -22.176 -27.246  1.00  0.00    -0.386 OA
ATOM     16  H   UNL     1      14.690 -22.946 -27.659  1.00  0.00     0.211 HD
ENDBRANCH   2  15
BRANCH   3  17
ATOM     17  O   UNL     1      13.768 -23.785 -29.256  1.00  0.00    -0.387 OA
ATOM     18  H   UNL     1      13.567 -23.544 -30.198  1.00  0.00     0.211 HD
ENDBRANCH   3  17
BRANCH   4  19
ATOM     19  C   UNL     1      10.158 -23.649 -29.169  1.00  0.00     0.191 C 
BRANCH  19  20
ATOM     20  O   UNL     1       9.981 -23.862 -27.794  1.00  0.00    -0.394 OA
ATOM     21  H   UNL     1       9.801 -22.973 -27.389  1.00  0.00     0.210 HD
ENDBRANCH  19  20
ENDBRANCH   4  19
TORSDOF 5
ENDMDL
MODEL 6
REMARK VINA RESULT:    -5.347     10.875     11.867
REMARK INTER + INTRA:          -6.670
REMARK INTER:                  -6.154
REMARK INTRA:                  -0.516
REMARK UNBOUND:                -0.229
REMARK SMILES O=c1ccn([C@@H]2O[C@H](CO)[C@@H](O)[C@H]2O)c(=O)[nH]1
REMARK SMILES IDX 6 1 13 2 11 3 8 4 7 5 5 6 3 7 4 8 2 9 17 10 1 11 15 12 16 14
REMARK SMILES IDX 14 15 12 17 9 19 10 20
REMARK H PARENT 17 13 14 16 12 18 10 21
REMARK Flexibility Score: inf
ROOT
ATOM      1  C   UNL     1      16.636 -27.437 -29.880  1.00  0.00     0.255 C 
ATOM      2  C   UNL     1      17.307 -28.658 -29.279  1.00  0.00     0.196 C 
ATOM      3  C   UNL     1      17.129 -28.424 -27.797  1.00  0.00     0.179 C 
ATOM      4  C   UNL     1      16.991 -26.894 -27.700  1.00  0.00     0.178 C 
ATOM      5  O   UNL     1      16.816 -26.354 -28.996  1.00  0.00    -0.347 OA
ENDROOT
BRANCH   1   6
ATOM      6  N   UNL     1      17.186 -27.125 -31.217  1.00  0.00    -0.271 N 
ATOM      7  C   UNL     1      18.759 -25.894 -32.545  1.00  0.00     0.090 A 
ATOM      8  C   UNL     1      18.220 -26.234 -31.308  1.00  0.00     0.099 A 
ATOM      9  C   UNL     1      18.217 -26.468 -33.690  1.00  0.00     0.253 A 
ATOM     10  N   UNL     1      17.179 -27.338 -33.581  1.00  0.00    -0.274 N 
ATOM     11  O   UNL     1      18.686 -26.178 -34.823  1.00  0.00    -0.269 OA
ATOM     12  C   UNL     1      16.658 -27.665 -32.367  1.00  0.00     0.330 A 
ATOM     13  H   UNL     1      16.771 -27.760 -34.448  1.00  0.00     0.175 HD
ATOM     14  O   UNL     1      15.683 -28.463 -32.314  1.00  0.00    -0.248 OA
ENDBRANCH   1   6
BRANCH   2  15
ATOM     15  O   UNL     1      16.687 -29.839 -29.718  1.00  0.00    -0.386 OA
ATOM     16  H   UNL     1      15.713 -29.651 -29.740  1.00  0.00     0.211 HD
ENDBRANCH   2  15
BRANCH   3  17
ATOM     17  O   UNL     1      15.955 -29.047 -27.337  1.00  0.00    -0.387 OA
ATOM     18  H   UNL     1      15.621 -29.607 -28.086  1.00  0.00     0.211 HD
ENDBRANCH   3  17
BRANCH   4  19
ATOM     19  C   UNL     1      18.223 -26.248 -27.052  1.00  0.00     0.191 C 
BRANCH  19  20
ATOM     20  O   UNL     1      19.392 -26.607 -27.738  1.00  0.00    -0.394 OA
ATOM     21  H   UNL     1      19.363 -27.592 -27.856  1.00  0.00     0.210 HD
ENDBRANCH  19  20
ENDBRANCH   4  19
TORSDOF 5
ENDMDL
MODEL 7
REMARK VINA RESULT:    -5.319      8.974     11.260
REMARK INTER + INTRA:          -6.636
REMARK INTER:                  -6.139
REMARK INTRA:                  -0.497
REMARK UNBOUND:                -0.229
REMARK SMILES O=c1ccn([C@@H]2O[C@H](CO)[C@@H](O)[C@H]2O)c(=O)[nH]1
REMARK SMILES IDX 6 1 13 2 11 3 8 4 7 5 5 6 3 7 4 8 2 9 17 10 1 11 15 12 16 14
REMARK SMILES IDX 14 15 12 17 9 19 10 20
REMARK H PARENT 17 13 14 16 12 18 10 21
REMARK Flexibility Score: inf
ROOT
ATOM      1  C   UNL     1      17.661 -25.720 -27.934  1.00  0.00     0.255 C 
ATOM      2  C   UNL     1      19.129 -25.395 -28.146  1.00  0.00     0.196 C 
ATOM      3  C   UNL     1      19.192 -23.935 -27.765  1.00  0.00     0.179 C 
ATOM      4  C   UNL     1      17.751 -23.449 -28.011  1.00  0.00     0.178 C 
ATOM      5  O   UNL     1      16.908 -24.565 -28.222  1.00  0.00    -0.347 OA
ENDROOT
BRANCH   1   6
ATOM      6  N   UNL     1      17.235 -26.854 -28.782  1.00  0.00    -0.271 N 
ATOM      7  C   UNL     1      16.705 -27.688 -30.968  1.00  0.00     0.090 A 
ATOM      8  C   UNL     1      17.122 -26.657 -30.131  1.00  0.00     0.099 A 
ATOM      9  C   UNL     1      16.394 -28.921 -30.405  1.00  0.00     0.253 A 
ATOM     10  N   UNL     1      16.497 -29.093 -29.061  1.00  0.00    -0.274 N 
ATOM     11  O   UNL     1      16.015 -29.872 -31.139  1.00  0.00    -0.269 OA
ATOM     12  C   UNL     1      16.904 -28.079 -28.250  1.00  0.00     0.330 A 
ATOM     13  H   UNL     1      16.253 -30.021 -28.643  1.00  0.00     0.175 HD
ATOM     14  O   UNL     1      16.967 -28.278 -27.006  1.00  0.00    -0.248 OA
ENDBRANCH   1   6
BRANCH   2  15
ATOM     15  O   UNL     1      19.943 -26.201 -27.334  1.00  0.00    -0.386 OA
ATOM     16  H   UNL     1      20.804 -25.716 -27.234  1.00  0.00     0.211 HD
ENDBRANCH   2  15
BRANCH   3  17
ATOM     17  O   UNL     1      19.526 -23.793 -26.406  1.00  0.00    -0.387 OA
ATOM     18  H   UNL     1      18.675 -23.622 -25.924  1.00  0.00     0.211 HD
ENDBRANCH   3  17
BRANCH   4  19
ATOM     19  C   UNL     1      17.662 -22.517 -29.227  1.00  0.00     0.191 C 
BRANCH  19  20
ATOM     20  O   UNL     1      16.847 -23.074 -30.223  1.00  0.00    -0.394 OA
ATOM     21  H   UNL     1      17.129 -24.021 -30.326  1.00  0.00     0.210 HD
ENDBRANCH  19  20
ENDBRANCH   4  19
TORSDOF 5
ENDMDL
MODEL 8
REMARK VINA RESULT:    -5.276     10.833     12.162
REMARK INTER + INTRA:          -6.585
REMARK INTER:                  -6.042
REMARK INTRA:                  -0.543
REMARK UNBOUND:                -0.229
REMARK SMILES O=c1ccn([C@@H]2O[C@H](CO)[C@@H](O)[C@H]2O)c(=O)[nH]1
REMARK SMILES IDX 6 1 13 2 11 3 8 4 7 5 5 6 3 7 4 8 2 9 17 10 1 11 15 12 16 14
REMARK SMILES IDX 14 15 12 17 9 19 10 20
REMARK H PARENT 17 13 14 16 12 18 10 21
REMARK Flexibility Score: inf
ROOT
ATOM      1  C   UNL     1      16.807 -27.376 -29.828  1.00  0.00     0.255 C 
ATOM      2  C   UNL     1      17.654 -28.249 -28.920  1.00  0.00     0.196 C 
ATOM      3  C   UNL     1      17.923 -27.332 -27.752  1.00  0.00     0.179 C 
ATOM      4  C   UNL     1      17.787 -25.929 -28.373  1.00  0.00     0.178 C 
ATOM      5  O   UNL     1      17.221 -26.039 -29.664  1.00  0.00    -0.347 OA
ENDROOT
BRANCH   1   6
ATOM      6  N   UNL     1      16.925 -27.797 -31.240  1.00  0.00    -0.271 N 
ATOM      7  C   UNL     1      17.955 -27.495 -33.386  1.00  0.00     0.090 A 
ATOM      8  C   UNL     1      17.821 -27.148 -32.045  1.00  0.00     0.099 A 
ATOM      9  C   UNL     1      17.149 -28.507 -33.897  1.00  0.00     0.253 A 
ATOM     10  N   UNL     1      16.253 -29.128 -33.087  1.00  0.00    -0.274 N 
ATOM     11  O   UNL     1      17.249 -28.841 -35.107  1.00  0.00    -0.269 OA
ATOM     12  C   UNL     1      16.128 -28.782 -31.777  1.00  0.00     0.330 A 
ATOM     13  H   UNL     1      15.644 -29.884 -33.481  1.00  0.00     0.175 HD
ATOM     14  O   UNL     1      15.270 -29.374 -31.066  1.00  0.00    -0.248 OA
ENDBRANCH   1   6
BRANCH   2  15
ATOM     15  O   UNL     1      16.956 -29.410 -28.547  1.00  0.00    -0.386 OA
ATOM     16  H   UNL     1      17.553 -29.907 -27.928  1.00  0.00     0.211 HD
ENDBRANCH   2  15
BRANCH   3  17
ATOM     17  O   UNL     1      16.955 -27.513 -26.748  1.00  0.00    -0.387 OA
ATOM     18  H   UNL     1      17.325 -28.186 -26.118  1.00  0.00     0.211 HD
ENDBRANCH   3  17
BRANCH   4  19
ATOM     19  C   UNL     1      19.143 -25.218 -28.480  1.00  0.00     0.191 C 
BRANCH  19  20
ATOM     20  O   UNL     1      20.075 -25.787 -27.601  1.00  0.00    -0.394 OA
ATOM     21  H   UNL     1      19.738 -25.623 -26.682  1.00  0.00     0.210 HD
ENDBRANCH  19  20
ENDBRANCH   4  19
TORSDOF 5
ENDMDL
MODEL 9
REMARK VINA RESULT:    -5.122      4.908      7.478
REMARK INTER + INTRA:          -6.399
REMARK INTER:                  -5.854
REMARK INTRA:                  -0.545
REMARK UNBOUND:                -0.229
REMARK SMILES O=c1ccn([C@@H]2O[C@H](CO)[C@@H](O)[C@H]2O)c(=O)[nH]1
REMARK SMILES IDX 6 1 13 2 11 3 8 4 7 5 5 6 3 7 4 8 2 9 17 10 1 11 15 12 16 14
REMARK SMILES IDX 14 15 12 17 9 19 10 20
REMARK H PARENT 17 13 14 16 12 18 10 21
REMARK Flexibility Score: inf
ROOT
ATOM      1  C   UNL     1      10.823 -17.968 -34.409  1.00  0.00     0.255 C 
ATOM      2  C   UNL     1       9.592 -17.238 -34.914  1.00  0.00     0.196 C 
ATOM      3  C   UNL     1       9.054 -18.195 -35.951  1.00  0.00     0.179 C 
ATOM      4  C   UNL     1      10.304 -18.987 -36.375  1.00  0.00     0.178 C 
ATOM      5  O   UNL     1      11.362 -18.713 -35.477  1.00  0.00    -0.347 OA
ENDROOT
BRANCH   1   6
ATOM      6  N   UNL     1      11.822 -17.024 -33.866  1.00  0.00    -0.271 N 
ATOM      7  C   UNL     1      13.806 -15.720 -34.213  1.00  0.00     0.090 A 
ATOM      8  C   UNL     1      12.830 -16.593 -34.684  1.00  0.00     0.099 A 
ATOM      9  C   UNL     1      13.743 -15.301 -32.889  1.00  0.00     0.253 A 
ATOM     10  N   UNL     1      12.744 -15.752 -32.086  1.00  0.00    -0.274 N 
ATOM     11  O   UNL     1      14.613 -14.510 -32.436  1.00  0.00    -0.269 OA
ATOM     12  C   UNL     1      11.794 -16.607 -32.555  1.00  0.00     0.330 A 
ATOM     13  H   UNL     1      12.708 -15.439 -31.087  1.00  0.00     0.175 HD
ATOM     14  O   UNL     1      10.896 -17.014 -31.769  1.00  0.00    -0.248 OA
ENDBRANCH   1   6
BRANCH   2  15
ATOM     15  O   UNL     1       8.682 -17.005 -33.870  1.00  0.00    -0.386 OA
ATOM     16  H   UNL     1       8.858 -17.704 -33.187  1.00  0.00     0.211 HD
ENDBRANCH   2  15
BRANCH   3  17
ATOM     17  O   UNL     1       8.103 -19.060 -35.379  1.00  0.00    -0.387 OA
ATOM     18  H   UNL     1       7.211 -18.702 -35.629  1.00  0.00     0.211 HD
ENDBRANCH   3  17
BRANCH   4  19
ATOM     19  C   UNL     1      10.752 -18.629 -37.799  1.00  0.00     0.191 C 
BRANCH  19  20
ATOM     20  O   UNL     1       9.864 -17.716 -38.386  1.00  0.00    -0.394 OA
ATOM     21  H   UNL     1       9.109 -17.604 -37.750  1.00  0.00     0.210 HD
ENDBRANCH  19  20
ENDBRANCH   4  19
TORSDOF 5
ENDMDL
