MODEL 1
REMARK VINA RESULT:    -3.472      0.000      0.000
REMARK INTER + INTRA:          -4.913
REMARK INTER:                  -4.690
REMARK INTRA:                  -0.224
REMARK UNBOUND:                -0.224
REMARK SMILES CCCCCCCC(=O)[O-]
REMARK SMILES IDX 5 1 6 2 7 3 8 4 9 5 10 6 4 7 3 8 2 9 1 10
REMARK H PARENT
REMARK Flexibility Score: inf
ROOT
ATOM      1  C   UNL     1      26.482  -3.184  -3.245  1.00  0.00     0.000 C 
ENDROOT
BRANCH   1   2
ATOM      2  C   UNL     1      25.354  -2.528  -2.440  1.00  0.00     0.006 C 
BRANCH   2   3
ATOM      3  C   UNL     1      24.448  -1.690  -3.349  1.00  0.00     0.053 C 
BRANCH   3   4
ATOM      4  C   UNL     1      23.523  -0.846  -2.531  1.00  0.00     0.041 C 
ATOM      5  O   UNL     1      22.821  -1.369  -1.626  1.00  0.00    -0.550 OA
ATOM      6  O   UNL     1      23.473   0.528  -2.734  1.00  0.00    -0.550 OA
ENDBRANCH   3   4
ENDBRANCH   2   3
ENDBRANCH   1   2
BRANCH   1   7
ATOM      7  C   UNL     1      26.124  -4.628  -3.615  1.00  0.00     0.000 C 
BRANCH   7   8
ATOM      8  C   UNL     1      26.607  -5.609  -2.540  1.00  0.00    -0.000 C 
BRANCH   8   9
ATOM      9  C   UNL     1      27.860  -5.078  -1.833  1.00  0.00    -0.003 C 
ATOM     10  C   UNL     1      27.609  -4.876  -0.342  1.00  0.00     0.004 C 
ENDBRANCH   8   9
ENDBRANCH   7   8
ENDBRANCH   1   7
TORSDOF 6
ENDMDL
MODEL 2
REMARK VINA RESULT:    -3.010      3.182      5.408
REMARK INTER + INTRA:          -4.289
REMARK INTER:                  -4.090
REMARK INTRA:                  -0.199
REMARK UNBOUND:                -0.224
REMARK SMILES CCCCCCCC(=O)[O-]
REMARK SMILES IDX 5 1 6 2 7 3 8 4 9 5 10 6 4 7 3 8 2 9 1 10
REMARK H PARENT
REMARK Flexibility Score: inf
ROOT
ATOM      1  C   UNL     1      25.753  -2.883  -2.949  1.00  0.00     0.000 C 
ENDROOT
BRANCH   1   2
ATOM      2  C   UNL     1      25.999  -4.144  -3.785  1.00  0.00     0.006 C 
BRANCH   2   3
ATOM      3  C   UNL     1      26.249  -5.359  -2.884  1.00  0.00     0.053 C 
BRANCH   3   4
ATOM      4  C   UNL     1      27.670  -5.381  -2.418  1.00  0.00     0.041 C 
ATOM      5  O   UNL     1      28.590  -5.729  -3.205  1.00  0.00    -0.550 OA
ATOM      6  O   UNL     1      27.985  -4.971  -1.128  1.00  0.00    -0.550 OA
ENDBRANCH   3   4
ENDBRANCH   2   3
ENDBRANCH   1   2
BRANCH   1   7
ATOM      7  C   UNL     1      24.726  -1.967  -3.626  1.00  0.00     0.000 C 
BRANCH   7   8
ATOM      8  C   UNL     1      24.264  -0.858  -2.673  1.00  0.00    -0.000 C 
BRANCH   8   9
ATOM      9  C   UNL     1      22.736  -0.838  -2.552  1.00  0.00    -0.003 C 
ATOM     10  C   UNL     1      22.290  -1.211  -1.141  1.00  0.00     0.004 C 
ENDBRANCH   8   9
ENDBRANCH   7   8
ENDBRANCH   1   7
TORSDOF 6
ENDMDL
MODEL 3
REMARK VINA RESULT:    -2.763      9.119     11.061
REMARK INTER + INTRA:          -3.956
REMARK INTER:                  -3.753
REMARK INTRA:                  -0.203
REMARK UNBOUND:                -0.224
REMARK SMILES CCCCCCCC(=O)[O-]
REMARK SMILES IDX 5 1 6 2 7 3 8 4 9 5 10 6 4 7 3 8 2 9 1 10
REMARK H PARENT
REMARK Flexibility Score: inf
ROOT
ATOM      1  C   UNL     1      27.349   6.934  -0.839  1.00  0.00     0.000 C 
ENDROOT
BRANCH   1   2
ATOM      2  C   UNL     1      27.069   8.440  -0.774  1.00  0.00     0.006 C 
BRANCH   2   3
ATOM      3  C   UNL     1      28.346   9.247  -1.034  1.00  0.00     0.053 C 
BRANCH   3   4
ATOM      4  C   UNL     1      28.317   9.843  -2.405  1.00  0.00     0.041 C 
ATOM      5  O   UNL     1      28.424  11.089  -2.557  1.00  0.00    -0.550 OA
ATOM      6  O   UNL     1      28.220   9.020  -3.520  1.00  0.00    -0.550 OA
ENDBRANCH   3   4
ENDBRANCH   2   3
ENDBRANCH   1   2
BRANCH   1   7
ATOM      7  C   UNL     1      26.162   6.180  -1.451  1.00  0.00     0.000 C 
BRANCH   7   8
ATOM      8  C   UNL     1      26.176   4.703  -1.040  1.00  0.00    -0.000 C 
BRANCH   8   9
ATOM      9  C   UNL     1      25.176   3.891  -1.871  1.00  0.00    -0.003 C 
ATOM     10  C   UNL     1      24.283   4.803  -2.706  1.00  0.00     0.004 C 
ENDBRANCH   8   9
ENDBRANCH   7   8
ENDBRANCH   1   7
TORSDOF 6
ENDMDL
MODEL 4
REMARK VINA RESULT:    -2.752      9.458     11.612
REMARK INTER + INTRA:          -3.940
REMARK INTER:                  -3.749
REMARK INTRA:                  -0.192
REMARK UNBOUND:                -0.224
REMARK SMILES CCCCCCCC(=O)[O-]
REMARK SMILES IDX 5 1 6 2 7 3 8 4 9 5 10 6 4 7 3 8 2 9 1 10
REMARK H PARENT
REMARK Flexibility Score: inf
ROOT
ATOM      1  C   UNL     1      27.159   8.105  -1.608  1.00  0.00     0.000 C 
ENDROOT
BRANCH   1   2
ATOM      2  C   UNL     1      26.864   6.719  -1.022  1.00  0.00     0.006 C 
BRANCH   2   3
ATOM      3  C   UNL     1      25.772   6.005  -1.824  1.00  0.00     0.053 C 
BRANCH   3   4
ATOM      4  C   UNL     1      25.756   4.544  -1.501  1.00  0.00     0.041 C 
ATOM      5  O   UNL     1      24.854   3.801  -1.970  1.00  0.00    -0.550 OA
ATOM      6  O   UNL     1      26.765   3.995  -0.719  1.00  0.00    -0.550 OA
ENDBRANCH   3   4
ENDBRANCH   2   3
ENDBRANCH   1   2
BRANCH   1   7
ATOM      7  C   UNL     1      27.629   9.075  -0.518  1.00  0.00     0.000 C 
BRANCH   7   8
ATOM      8  C   UNL     1      28.702  10.030  -1.055  1.00  0.00    -0.000 C 
BRANCH   8   9
ATOM      9  C   UNL     1      28.511  10.286  -2.554  1.00  0.00    -0.003 C 
ATOM     10  C   UNL     1      28.826  11.735  -2.911  1.00  0.00     0.004 C 
ENDBRANCH   8   9
ENDBRANCH   7   8
ENDBRANCH   1   7
TORSDOF 6
ENDMDL
MODEL 5
REMARK VINA RESULT:    -2.437      8.279     10.418
REMARK INTER + INTRA:          -3.515
REMARK INTER:                  -3.314
REMARK INTRA:                  -0.201
REMARK UNBOUND:                -0.224
REMARK SMILES CCCCCCCC(=O)[O-]
REMARK SMILES IDX 5 1 6 2 7 3 8 4 9 5 10 6 4 7 3 8 2 9 1 10
REMARK H PARENT
REMARK Flexibility Score: inf
ROOT
ATOM      1  C   UNL     1      27.672   5.822  -0.556  1.00  0.00     0.000 C 
ENDROOT
BRANCH   1   2
ATOM      2  C   UNL     1      26.298   5.791  -1.235  1.00  0.00     0.006 C 
BRANCH   2   3
ATOM      3  C   UNL     1      25.710   4.376  -1.219  1.00  0.00     0.053 C 
BRANCH   3   4
ATOM      4  C   UNL     1      24.687   4.223  -2.299  1.00  0.00     0.041 C 
ATOM      5  O   UNL     1      24.339   5.218  -2.989  1.00  0.00    -0.550 OA
ATOM      6  O   UNL     1      24.154   2.970  -2.579  1.00  0.00    -0.550 OA
ENDBRANCH   3   4
ENDBRANCH   2   3
ENDBRANCH   1   2
BRANCH   1   7
ATOM      7  C   UNL     1      28.397   7.143  -0.841  1.00  0.00     0.000 C 
BRANCH   7   8
ATOM      8  C   UNL     1      27.397   8.263  -1.153  1.00  0.00    -0.000 C 
BRANCH   8   9
ATOM      9  C   UNL     1      27.829   9.583  -0.503  1.00  0.00    -0.003 C 
ATOM     10  C   UNL     1      28.639  10.437  -1.473  1.00  0.00     0.004 C 
ENDBRANCH   8   9
ENDBRANCH   7   8
ENDBRANCH   1   7
TORSDOF 6
ENDMDL
MODEL 6
REMARK VINA RESULT:    -2.264      8.844     10.859
REMARK INTER + INTRA:          -3.282
REMARK INTER:                  -3.049
REMARK INTRA:                  -0.233
REMARK UNBOUND:                -0.224
REMARK SMILES CCCCCCCC(=O)[O-]
REMARK SMILES IDX 5 1 6 2 7 3 8 4 9 5 10 6 4 7 3 8 2 9 1 10
REMARK H PARENT
REMARK Flexibility Score: inf
ROOT
ATOM      1  C   UNL     1      27.051   6.502  -0.906  1.00  0.00     0.000 C 
ENDROOT
BRANCH   1   2
ATOM      2  C   UNL     1      26.815   7.723  -1.802  1.00  0.00     0.006 C 
BRANCH   2   3
ATOM      3  C   UNL     1      28.127   8.468  -2.071  1.00  0.00     0.053 C 
BRANCH   3   4
ATOM      4  C   UNL     1      28.219   9.692  -1.216  1.00  0.00     0.041 C 
ATOM      5  O   UNL     1      28.691  10.760  -1.687  1.00  0.00    -0.550 OA
ATOM      6  O   UNL     1      27.739   9.667   0.087  1.00  0.00    -0.550 OA
ENDBRANCH   3   4
ENDBRANCH   2   3
ENDBRANCH   1   2
BRANCH   1   7
ATOM      7  C   UNL     1      26.068   5.375  -1.244  1.00  0.00     0.000 C 
BRANCH   7   8
ATOM      8  C   UNL     1      25.231   5.726  -2.480  1.00  0.00    -0.000 C 
BRANCH   8   9
ATOM      9  C   UNL     1      24.086   4.724  -2.673  1.00  0.00    -0.003 C 
ATOM     10  C   UNL     1      24.512   3.315  -2.272  1.00  0.00     0.004 C 
ENDBRANCH   8   9
ENDBRANCH   7   8
ENDBRANCH   1   7
TORSDOF 6
ENDMDL
MODEL 7
REMARK VINA RESULT:    -2.152      9.072     10.608
REMARK INTER + INTRA:          -3.130
REMARK INTER:                  -2.958
REMARK INTRA:                  -0.172
REMARK UNBOUND:                -0.224
REMARK SMILES CCCCCCCC(=O)[O-]
REMARK SMILES IDX 5 1 6 2 7 3 8 4 9 5 10 6 4 7 3 8 2 9 1 10
REMARK H PARENT
REMARK Flexibility Score: inf
ROOT
ATOM      1  C   UNL     1      26.878   6.655  -1.060  1.00  0.00     0.000 C 
ENDROOT
BRANCH   1   2
ATOM      2  C   UNL     1      26.824   7.909  -1.941  1.00  0.00     0.006 C 
BRANCH   2   3
ATOM      3  C   UNL     1      28.231   8.457  -2.202  1.00  0.00     0.053 C 
BRANCH   3   4
ATOM      4  C   UNL     1      28.474   9.685  -1.384  1.00  0.00     0.041 C 
ATOM      5  O   UNL     1      28.624  10.802  -1.947  1.00  0.00    -0.550 OA
ATOM      6  O   UNL     1      28.487   9.605   0.003  1.00  0.00    -0.550 OA
ENDBRANCH   3   4
ENDBRANCH   2   3
ENDBRANCH   1   2
BRANCH   1   7
ATOM      7  C   UNL     1      25.919   5.577  -1.579  1.00  0.00     0.000 C 
BRANCH   7   8
ATOM      8  C   UNL     1      26.075   4.274  -0.786  1.00  0.00    -0.000 C 
BRANCH   8   9
ATOM      9  C   UNL     1      27.439   3.626  -1.053  1.00  0.00    -0.003 C 
ATOM     10  C   UNL     1      28.329   3.685   0.184  1.00  0.00     0.004 C 
ENDBRANCH   8   9
ENDBRANCH   7   8
ENDBRANCH   1   7
TORSDOF 6
ENDMDL
MODEL 8
REMARK VINA RESULT:    -1.876      8.891     10.863
REMARK INTER + INTRA:          -2.758
REMARK INTER:                  -2.455
REMARK INTRA:                  -0.303
REMARK UNBOUND:                -0.224
REMARK SMILES CCCCCCCC(=O)[O-]
REMARK SMILES IDX 5 1 6 2 7 3 8 4 9 5 10 6 4 7 3 8 2 9 1 10
REMARK H PARENT
REMARK Flexibility Score: inf
ROOT
ATOM      1  C   UNL     1      26.531   7.911  -1.760  1.00  0.00     0.000 C 
ENDROOT
BRANCH   1   2
ATOM      2  C   UNL     1      27.052   6.586  -1.191  1.00  0.00     0.006 C 
BRANCH   2   3
ATOM      3  C   UNL     1      25.897   5.710  -0.692  1.00  0.00     0.053 C 
BRANCH   3   4
ATOM      4  C   UNL     1      25.777   4.476  -1.529  1.00  0.00     0.041 C 
ATOM      5  O   UNL     1      26.692   3.611  -1.516  1.00  0.00    -0.550 OA
ATOM      6  O   UNL     1      24.633   4.258  -2.286  1.00  0.00    -0.550 OA
ENDBRANCH   3   4
ENDBRANCH   2   3
ENDBRANCH   1   2
BRANCH   1   7
ATOM      7  C   UNL     1      27.530   8.513  -2.754  1.00  0.00     0.000 C 
BRANCH   7   8
ATOM      8  C   UNL     1      28.905   8.709  -2.103  1.00  0.00    -0.000 C 
BRANCH   8   9
ATOM      9  C   UNL     1      28.866   9.836  -1.064  1.00  0.00    -0.003 C 
ATOM     10  C   UNL     1      29.125   9.301   0.341  1.00  0.00     0.004 C 
ENDBRANCH   8   9
ENDBRANCH   7   8
ENDBRANCH   1   7
TORSDOF 6
ENDMDL
MODEL 9
REMARK VINA RESULT:    -1.196     20.443     21.913
REMARK INTER + INTRA:          -1.839
REMARK INTER:                  -1.904
REMARK INTRA:                   0.065
REMARK UNBOUND:                -0.224
REMARK SMILES CCCCCCCC(=O)[O-]
REMARK SMILES IDX 5 1 6 2 7 3 8 4 9 5 10 6 4 7 3 8 2 9 1 10
REMARK H PARENT
REMARK Flexibility Score: inf
ROOT
ATOM      1  C   UNL     1       8.956  -3.491  12.234  1.00  0.00     0.000 C 
ENDROOT
BRANCH   1   2
ATOM      2  C   UNL     1       8.988  -3.811  13.733  1.00  0.00     0.006 C 
BRANCH   2   3
ATOM      3  C   UNL     1       8.962  -2.527  14.569  1.00  0.00     0.053 C 
BRANCH   3   4
ATOM      4  C   UNL     1       9.692  -1.429  13.863  1.00  0.00     0.041 C 
ATOM      5  O   UNL     1      10.952  -1.403  13.863  1.00  0.00    -0.550 OA
ATOM      6  O   UNL     1       8.984  -0.458  13.166  1.00  0.00    -0.550 OA
ENDBRANCH   3   4
ENDBRANCH   2   3
ENDBRANCH   1   2
BRANCH   1   7
ATOM      7  C   UNL     1       8.877  -4.775  11.399  1.00  0.00     0.000 C 
BRANCH   7   8
ATOM      8  C   UNL     1       8.876  -4.457   9.899  1.00  0.00    -0.000 C 
BRANCH   8   9
ATOM      9  C   UNL     1       8.875  -5.743   9.064  1.00  0.00    -0.003 C 
ATOM     10  C   UNL     1       9.818  -5.626   7.870  1.00  0.00     0.004 C 
ENDBRANCH   8   9
ENDBRANCH   7   8
ENDBRANCH   1   7
TORSDOF 6
ENDMDL
