MODEL 1
REMARK VINA RESULT:    -8.053      0.000      0.000
REMARK INTER + INTRA:         -12.607
REMARK INTER:                 -11.113
REMARK INTRA:                  -1.493
REMARK UNBOUND:                -1.493
REMARK SMILES O=C([O-])[C@@H]1O[C@H](Oc2cc3oc(-c4ccccc4)cc(=O)c3c(O)c2O)[C@@H](O)[C@H](O)[C@@H]1O
REMARK SMILES IDX 7 1 6 2 4 3 31 4 5 5 29 6 27 7 2 8 1 9 3 10 32 11 30 13
REMARK SMILES IDX 28 15 8 17 25 18 9 19 23 20 10 21 22 22 11 23 20 24 12 25
REMARK SMILES IDX 19 26 21 27 26 28 24 30 13 32 14 33 18 34 15 35 17 36 16 37
REMARK H PARENT 32 12 30 14 28 16 26 29 24 31
REMARK Flexibility Score: inf
ROOT
ATOM      1  O   UNL     1     -14.876  51.505  25.390  1.00  0.00    -0.458 OA
ENDROOT
BRANCH   1   2
ATOM      2  C   UNL     1     -13.778  52.428  25.367  1.00  0.00     0.339 C 
ATOM      3  C   UNL     1     -12.928  54.128  23.888  1.00  0.00     0.199 C 
ATOM      4  C   UNL     1     -11.983  54.455  25.080  1.00  0.00     0.180 C 
ATOM      5  O   UNL     1     -13.655  52.907  24.036  1.00  0.00    -0.328 OA
ATOM      6  C   UNL     1     -12.743  54.476  26.433  1.00  0.00     0.181 C 
ATOM      7  C   UNL     1     -14.009  53.586  26.371  1.00  0.00     0.214 C 
BRANCH   3   8
ATOM      8  C   UNL     1     -13.874  55.271  23.613  1.00  0.00     0.073 C 
ATOM      9  O   UNL     1     -13.511  56.279  22.950  1.00  0.00    -0.547 OA
ATOM     10  O   UNL     1     -13.467  56.380  22.879  1.00  0.00    -0.547 OA
ENDBRANCH   3   8
BRANCH   4  11
ATOM     11  O   UNL     1     -11.219  55.625  24.871  1.00  0.00    -0.387 OA
ATOM     12  H   UNL     1     -11.424  56.256  25.612  1.00  0.00     0.211 HD
ENDBRANCH   4  11
BRANCH   6  13
ATOM     13  O   UNL     1     -13.127  55.787  26.773  1.00  0.00    -0.387 OA
ATOM     14  H   UNL     1     -12.636  56.034  27.602  1.00  0.00     0.211 HD
ENDBRANCH   6  13
BRANCH   7  15
ATOM     15  O   UNL     1     -14.303  53.091  27.655  1.00  0.00    -0.384 OA
ATOM     16  H   UNL     1     -13.542  53.359  28.243  1.00  0.00     0.211 HD
ENDBRANCH   7  15
ENDBRANCH   1   2
BRANCH   1  17
ATOM     17  C   UNL     1     -14.778  50.142  25.714  1.00  0.00     0.172 A 
ATOM     18  C   UNL     1     -15.269  49.614  26.926  1.00  0.00     0.201 A 
ATOM     19  C   UNL     1     -14.243  49.286  24.752  1.00  0.00     0.098 A 
ATOM     20  C   UNL     1     -15.385  48.220  27.093  1.00  0.00     0.176 A 
ATOM     21  C   UNL     1     -14.308  47.905  24.921  1.00  0.00     0.146 A 
ATOM     22  C   UNL     1     -14.963  47.347  26.052  1.00  0.00     0.111 A 
ATOM     23  O   UNL     1     -13.788  47.121  23.979  1.00  0.00    -0.456 OA
ATOM     24  C   UNL     1     -15.175  45.948  26.045  1.00  0.00     0.197 A 
ATOM     25  C   UNL     1     -13.887  45.790  24.001  1.00  0.00     0.138 A 
ATOM     26  C   UNL     1     -14.626  45.170  25.022  1.00  0.00     0.100 A 
ATOM     27  O   UNL     1     -15.886  45.375  26.914  1.00  0.00    -0.289 OA
BRANCH  18  28
ATOM     28  O   UNL     1     -15.571  50.439  28.010  1.00  0.00    -0.502 OA
ATOM     29  H   UNL     1     -16.474  50.886  28.106  1.00  0.00     0.293 HD
ENDBRANCH  18  28
BRANCH  20  30
ATOM     30  O   UNL     1     -15.879  47.771  28.325  1.00  0.00    -0.504 OA
ATOM     31  H   UNL     1     -16.530  48.281  28.905  1.00  0.00     0.293 HD
ENDBRANCH  20  30
BRANCH  25  32
ATOM     32  C   UNL     1     -13.227  44.998  22.931  1.00  0.00     0.017 A 
ATOM     33  C   UNL     1     -11.969  45.374  22.401  1.00  0.00     0.012 A 
ATOM     34  C   UNL     1     -13.882  43.880  22.378  1.00  0.00     0.012 A 
ATOM     35  C   UNL     1     -11.359  44.592  21.417  1.00  0.00     0.001 A 
ATOM     36  C   UNL     1     -13.270  43.121  21.371  1.00  0.00     0.001 A 
ATOM     37  C   UNL     1     -11.997  43.458  20.916  1.00  0.00     0.000 A 
ENDBRANCH  25  32
ENDBRANCH   1  17
TORSDOF 9
ENDMDL
MODEL 2
REMARK VINA RESULT:    -7.580      1.068      1.407
REMARK INTER + INTRA:         -11.954
REMARK INTER:                 -10.902
REMARK INTRA:                  -1.052
REMARK UNBOUND:                -1.493
REMARK SMILES O=C([O-])[C@@H]1O[C@H](Oc2cc3oc(-c4ccccc4)cc(=O)c3c(O)c2O)[C@@H](O)[C@H](O)[C@@H]1O
REMARK SMILES IDX 7 1 6 2 4 3 31 4 5 5 29 6 27 7 2 8 1 9 3 10 32 11 30 13
REMARK SMILES IDX 28 15 8 17 25 18 9 19 23 20 10 21 22 22 11 23 20 24 12 25
REMARK SMILES IDX 19 26 21 27 26 28 24 30 13 32 14 33 18 34 15 35 17 36 16 37
REMARK H PARENT 32 12 30 14 28 16 26 29 24 31
REMARK Flexibility Score: inf
ROOT
ATOM      1  O   UNL     1     -15.135  51.498  25.382  1.00  0.00    -0.458 OA
ENDROOT
BRANCH   1   2
ATOM      2  C   UNL     1     -14.534  52.602  26.073  1.00  0.00     0.339 C 
ATOM      3  C   UNL     1     -12.400  53.717  26.105  1.00  0.00     0.199 C 
ATOM      4  C   UNL     1     -13.144  54.755  26.994  1.00  0.00     0.180 C 
ATOM      5  O   UNL     1     -13.131  52.511  25.877  1.00  0.00    -0.328 OA
ATOM      6  C   UNL     1     -14.544  55.108  26.424  1.00  0.00     0.181 C 
ATOM      7  C   UNL     1     -15.096  53.950  25.556  1.00  0.00     0.214 C 
BRANCH   3   8
ATOM      8  C   UNL     1     -11.976  54.329  24.792  1.00  0.00     0.073 C 
ATOM      9  O   UNL     1     -11.510  55.498  24.732  1.00  0.00    -0.547 OA
ATOM     10  O   UNL     1     -11.462  55.620  24.733  1.00  0.00    -0.547 OA
ENDBRANCH   3   8
BRANCH   4  11
ATOM     11  O   UNL     1     -12.367  55.902  27.267  1.00  0.00    -0.387 OA
ATOM     12  H   UNL     1     -11.432  55.707  26.989  1.00  0.00     0.211 HD
ENDBRANCH   4  11
BRANCH   6  13
ATOM     13  O   UNL     1     -14.487  56.276  25.639  1.00  0.00    -0.387 OA
ATOM     14  H   UNL     1     -14.833  57.024  26.195  1.00  0.00     0.211 HD
ENDBRANCH   6  13
BRANCH   7  15
ATOM     15  O   UNL     1     -16.503  53.959  25.594  1.00  0.00    -0.384 OA
ATOM     16  H   UNL     1     -16.782  53.077  25.969  1.00  0.00     0.211 HD
ENDBRANCH   7  15
ENDBRANCH   1   2
BRANCH   1  17
ATOM     17  C   UNL     1     -14.959  50.145  25.714  1.00  0.00     0.172 A 
ATOM     18  C   UNL     1     -15.402  49.600  26.937  1.00  0.00     0.201 A 
ATOM     19  C   UNL     1     -14.392  49.312  24.750  1.00  0.00     0.098 A 
ATOM     20  C   UNL     1     -15.439  48.203  27.115  1.00  0.00     0.176 A 
ATOM     21  C   UNL     1     -14.380  47.931  24.928  1.00  0.00     0.146 A 
ATOM     22  C   UNL     1     -14.987  47.346  26.073  1.00  0.00     0.111 A 
ATOM     23  O   UNL     1     -13.832  47.169  23.983  1.00  0.00    -0.456 OA
ATOM     24  C   UNL     1     -15.122  45.938  26.079  1.00  0.00     0.197 A 
ATOM     25  C   UNL     1     -13.859  45.834  24.016  1.00  0.00     0.138 A 
ATOM     26  C   UNL     1     -14.547  45.184  25.052  1.00  0.00     0.100 A 
ATOM     27  O   UNL     1     -15.788  45.334  26.962  1.00  0.00    -0.289 OA
BRANCH  18  28
ATOM     28  O   UNL     1     -15.732  50.415  28.020  1.00  0.00    -0.502 OA
ATOM     29  H   UNL     1     -16.102  50.035  28.881  1.00  0.00     0.293 HD
ENDBRANCH  18  28
BRANCH  20  30
ATOM     30  O   UNL     1     -15.890  47.738  28.357  1.00  0.00    -0.504 OA
ATOM     31  H   UNL     1     -16.860  47.612  28.608  1.00  0.00     0.293 HD
ENDBRANCH  20  30
BRANCH  25  32
ATOM     32  C   UNL     1     -13.173  45.072  22.941  1.00  0.00     0.017 A 
ATOM     33  C   UNL     1     -11.898  45.455  22.460  1.00  0.00     0.012 A 
ATOM     34  C   UNL     1     -13.819  43.977  22.334  1.00  0.00     0.012 A 
ATOM     35  C   UNL     1     -11.264  44.699  21.470  1.00  0.00     0.001 A 
ATOM     36  C   UNL     1     -13.183  43.245  21.322  1.00  0.00     0.001 A 
ATOM     37  C   UNL     1     -11.895  43.587  20.915  1.00  0.00     0.000 A 
ENDBRANCH  25  32
ENDBRANCH   1  17
TORSDOF 9
ENDMDL
MODEL 3
REMARK VINA RESULT:    -7.391      1.559      2.369
REMARK INTER + INTRA:         -11.693
REMARK INTER:                 -10.372
REMARK INTRA:                  -1.320
REMARK UNBOUND:                -1.493
REMARK SMILES O=C([O-])[C@@H]1O[C@H](Oc2cc3oc(-c4ccccc4)cc(=O)c3c(O)c2O)[C@@H](O)[C@H](O)[C@@H]1O
REMARK SMILES IDX 7 1 6 2 4 3 31 4 5 5 29 6 27 7 2 8 1 9 3 10 32 11 30 13
REMARK SMILES IDX 28 15 8 17 25 18 9 19 23 20 10 21 22 22 11 23 20 24 12 25
REMARK SMILES IDX 19 26 21 27 26 28 24 30 13 32 14 33 18 34 15 35 17 36 16 37
REMARK H PARENT 32 12 30 14 28 16 26 29 24 31
REMARK Flexibility Score: inf
ROOT
ATOM      1  O   UNL     1     -14.212  50.713  26.276  1.00  0.00    -0.458 OA
ENDROOT
BRANCH   1   2
ATOM      2  C   UNL     1     -14.859  51.670  25.425  1.00  0.00     0.339 C 
ATOM      3  C   UNL     1     -16.485  53.430  25.659  1.00  0.00     0.199 C 
ATOM      4  C   UNL     1     -16.095  53.757  24.189  1.00  0.00     0.180 C 
ATOM      5  O   UNL     1     -15.974  52.184  26.137  1.00  0.00    -0.328 OA
ATOM      6  C   UNL     1     -14.558  53.722  23.976  1.00  0.00     0.181 C 
ATOM      7  C   UNL     1     -13.877  52.795  25.013  1.00  0.00     0.214 C 
BRANCH   3   8
ATOM      8  C   UNL     1     -16.089  54.550  26.590  1.00  0.00     0.073 C 
ATOM      9  O   UNL     1     -16.222  55.758  26.258  1.00  0.00    -0.547 OA
ATOM     10  O   UNL     1     -16.239  55.882  26.217  1.00  0.00    -0.547 OA
ENDBRANCH   3   8
BRANCH   4  11
ATOM     11  O   UNL     1     -16.679  54.954  23.719  1.00  0.00    -0.387 OA
ATOM     12  H   UNL     1     -15.999  55.425  23.166  1.00  0.00     0.211 HD
ENDBRANCH   4  11
BRANCH   6  13
ATOM     13  O   UNL     1     -14.006  55.012  24.088  1.00  0.00    -0.387 OA
ATOM     14  H   UNL     1     -13.490  55.041  24.937  1.00  0.00     0.211 HD
ENDBRANCH   6  13
BRANCH   7  15
ATOM     15  O   UNL     1     -12.695  52.260  24.465  1.00  0.00    -0.384 OA
ATOM     16  H   UNL     1     -12.091  52.063  25.235  1.00  0.00     0.211 HD
ENDBRANCH   7  15
ENDBRANCH   1   2
BRANCH   1  17
ATOM     17  C   UNL     1     -14.444  49.328  26.257  1.00  0.00     0.172 A 
ATOM     18  C   UNL     1     -15.322  48.693  27.160  1.00  0.00     0.201 A 
ATOM     19  C   UNL     1     -13.830  48.585  25.250  1.00  0.00     0.098 A 
ATOM     20  C   UNL     1     -15.720  47.360  26.938  1.00  0.00     0.176 A 
ATOM     21  C   UNL     1     -14.178  47.251  25.044  1.00  0.00     0.146 A 
ATOM     22  C   UNL     1     -15.196  46.643  25.827  1.00  0.00     0.111 A 
ATOM     23  O   UNL     1     -13.572  46.576  24.070  1.00  0.00    -0.456 OA
ATOM     24  C   UNL     1     -15.639  45.362  25.420  1.00  0.00     0.197 A 
ATOM     25  C   UNL     1     -13.904  45.327  23.732  1.00  0.00     0.138 A 
ATOM     26  C   UNL     1     -14.983  44.703  24.377  1.00  0.00     0.100 A 
ATOM     27  O   UNL     1     -16.644  44.806  25.939  1.00  0.00    -0.289 OA
BRANCH  18  28
ATOM     28  O   UNL     1     -15.752  49.329  28.325  1.00  0.00    -0.502 OA
ATOM     29  H   UNL     1     -16.734  49.447  28.538  1.00  0.00     0.293 HD
ENDBRANCH  18  28
BRANCH  20  30
ATOM     30  O   UNL     1     -16.593  46.799  27.878  1.00  0.00    -0.504 OA
ATOM     31  H   UNL     1     -17.487  46.384  27.659  1.00  0.00     0.293 HD
ENDBRANCH  20  30
BRANCH  25  32
ATOM     32  C   UNL     1     -13.133  44.638  22.665  1.00  0.00     0.017 A 
ATOM     33  C   UNL     1     -11.851  45.091  22.268  1.00  0.00     0.012 A 
ATOM     34  C   UNL     1     -13.700  43.545  21.982  1.00  0.00     0.012 A 
ATOM     35  C   UNL     1     -11.136  44.404  21.284  1.00  0.00     0.001 A 
ATOM     36  C   UNL     1     -12.983  42.883  20.976  1.00  0.00     0.001 A 
ATOM     37  C   UNL     1     -11.691  43.291  20.652  1.00  0.00     0.000 A 
ENDBRANCH  25  32
ENDBRANCH   1  17
TORSDOF 9
ENDMDL
MODEL 4
REMARK VINA RESULT:    -7.332     13.861     16.834
REMARK INTER + INTRA:         -11.612
REMARK INTER:                 -10.228
REMARK INTRA:                  -1.384
REMARK UNBOUND:                -1.493
REMARK SMILES O=C([O-])[C@@H]1O[C@H](Oc2cc3oc(-c4ccccc4)cc(=O)c3c(O)c2O)[C@@H](O)[C@H](O)[C@@H]1O
REMARK SMILES IDX 7 1 6 2 4 3 31 4 5 5 29 6 27 7 2 8 1 9 3 10 32 11 30 13
REMARK SMILES IDX 28 15 8 17 25 18 9 19 23 20 10 21 22 22 11 23 20 24 12 25
REMARK SMILES IDX 19 26 21 27 26 28 24 30 13 32 14 33 18 34 15 35 17 36 16 37
REMARK H PARENT 32 12 30 14 28 16 26 29 24 31
REMARK Flexibility Score: inf
ROOT
ATOM      1  O   UNL     1     -25.035  58.719  30.347  1.00  0.00    -0.458 OA
ENDROOT
BRANCH   1   2
ATOM      2  C   UNL     1     -26.007  59.312  31.219  1.00  0.00     0.339 C 
ATOM      3  C   UNL     1     -26.226  59.768  33.573  1.00  0.00     0.199 C 
ATOM      4  C   UNL     1     -27.485  60.567  33.130  1.00  0.00     0.180 C 
ATOM      5  O   UNL     1     -25.662  58.948  32.547  1.00  0.00    -0.328 OA
ATOM      6  C   UNL     1     -27.206  61.440  31.878  1.00  0.00     0.181 C 
ATOM      7  C   UNL     1     -26.045  60.850  31.039  1.00  0.00     0.214 C 
BRANCH   3   8
ATOM      8  C   UNL     1     -25.174  60.683  34.150  1.00  0.00     0.073 C 
ATOM      9  O   UNL     1     -25.292  61.174  35.304  1.00  0.00    -0.547 OA
ATOM     10  O   UNL     1     -25.310  61.221  35.426  1.00  0.00    -0.547 OA
ENDBRANCH   3   8
BRANCH   4  11
ATOM     11  O   UNL     1     -28.067  61.305  34.185  1.00  0.00    -0.387 OA
ATOM     12  H   UNL     1     -27.775  60.889  35.041  1.00  0.00     0.211 HD
ENDBRANCH   4  11
BRANCH   6  13
ATOM     13  O   UNL     1     -26.875  62.758  32.248  1.00  0.00    -0.387 OA
ATOM     14  H   UNL     1     -26.122  62.704  32.895  1.00  0.00     0.211 HD
ENDBRANCH   6  13
BRANCH   7  15
ATOM     15  O   UNL     1     -26.215  61.198  29.686  1.00  0.00    -0.384 OA
ATOM     16  H   UNL     1     -27.160  60.977  29.453  1.00  0.00     0.211 HD
ENDBRANCH   7  15
ENDBRANCH   1   2
BRANCH   1  17
ATOM     17  C   UNL     1     -23.691  59.115  30.248  1.00  0.00     0.172 A 
ATOM     18  C   UNL     1     -23.199  59.863  29.158  1.00  0.00     0.201 A 
ATOM     19  C   UNL     1     -22.848  58.812  31.316  1.00  0.00     0.098 A 
ATOM     20  C   UNL     1     -21.922  60.454  29.226  1.00  0.00     0.176 A 
ATOM     21  C   UNL     1     -21.565  59.352  31.380  1.00  0.00     0.146 A 
ATOM     22  C   UNL     1     -21.114  60.256  30.380  1.00  0.00     0.111 A 
ATOM     23  O   UNL     1     -20.791  59.041  32.417  1.00  0.00    -0.456 OA
ATOM     24  C   UNL     1     -19.890  60.924  30.625  1.00  0.00     0.197 A 
ATOM     25  C   UNL     1     -19.587  59.583  32.617  1.00  0.00     0.138 A 
ATOM     26  C   UNL     1     -19.124  60.577  31.741  1.00  0.00     0.100 A 
ATOM     27  O   UNL     1     -19.482  61.862  29.888  1.00  0.00    -0.289 OA
BRANCH  18  28
ATOM     28  O   UNL     1     -23.915  59.968  27.965  1.00  0.00    -0.502 OA
ATOM     29  H   UNL     1     -24.913  59.804  27.925  1.00  0.00     0.293 HD
ENDBRANCH  18  28
BRANCH  20  30
ATOM     30  O   UNL     1     -21.503  61.180  28.104  1.00  0.00    -0.504 OA
ATOM     31  H   UNL     1     -20.614  61.062  27.640  1.00  0.00     0.293 HD
ENDBRANCH  20  30
BRANCH  25  32
ATOM     32  C   UNL     1     -18.776  59.133  33.778  1.00  0.00     0.017 A 
ATOM     33  C   UNL     1     -19.043  59.593  35.090  1.00  0.00     0.012 A 
ATOM     34  C   UNL     1     -17.675  58.277  33.577  1.00  0.00     0.012 A 
ATOM     35  C   UNL     1     -18.284  59.128  36.167  1.00  0.00     0.001 A 
ATOM     36  C   UNL     1     -16.904  57.841  34.663  1.00  0.00     0.001 A 
ATOM     37  C   UNL     1     -17.229  58.240  35.958  1.00  0.00     0.000 A 
ENDBRANCH  25  32
ENDBRANCH   1  17
TORSDOF 9
ENDMDL
MODEL 5
REMARK VINA RESULT:    -7.248     12.325     15.205
REMARK INTER + INTRA:         -11.496
REMARK INTER:                 -10.274
REMARK INTRA:                  -1.221
REMARK UNBOUND:                -1.493
REMARK SMILES O=C([O-])[C@@H]1O[C@H](Oc2cc3oc(-c4ccccc4)cc(=O)c3c(O)c2O)[C@@H](O)[C@H](O)[C@@H]1O
REMARK SMILES IDX 7 1 6 2 4 3 31 4 5 5 29 6 27 7 2 8 1 9 3 10 32 11 30 13
REMARK SMILES IDX 28 15 8 17 25 18 9 19 23 20 10 21 22 22 11 23 20 24 12 25
REMARK SMILES IDX 19 26 21 27 26 28 24 30 13 32 14 33 18 34 15 35 17 36 16 37
REMARK H PARENT 32 12 30 14 28 16 26 29 24 31
REMARK Flexibility Score: inf
ROOT
ATOM      1  O   UNL     1     -23.366  60.676  30.956  1.00  0.00    -0.458 OA
ENDROOT
BRANCH   1   2
ATOM      2  C   UNL     1     -24.671  60.402  31.485  1.00  0.00     0.339 C 
ATOM      3  C   UNL     1     -25.653  59.978  33.642  1.00  0.00     0.199 C 
ATOM      4  C   UNL     1     -26.997  60.103  32.869  1.00  0.00     0.180 C 
ATOM      5  O   UNL     1     -24.499  59.904  32.803  1.00  0.00    -0.328 OA
ATOM      6  C   UNL     1     -26.996  61.313  31.896  1.00  0.00     0.181 C 
ATOM      7  C   UNL     1     -25.553  61.676  31.467  1.00  0.00     0.214 C 
BRANCH   3   8
ATOM      8  C   UNL     1     -25.497  61.093  34.648  1.00  0.00     0.073 C 
ATOM      9  O   UNL     1     -26.472  61.497  35.337  1.00  0.00    -0.547 OA
ATOM     10  O   UNL     1     -26.578  61.533  35.406  1.00  0.00    -0.547 OA
ENDBRANCH   3   8
BRANCH   4  11
ATOM     11  O   UNL     1     -28.123  60.095  33.720  1.00  0.00    -0.387 OA
ATOM     12  H   UNL     1     -28.057  59.289  34.300  1.00  0.00     0.211 HD
ENDBRANCH   4  11
BRANCH   6  13
ATOM     13  O   UNL     1     -27.588  62.440  32.497  1.00  0.00    -0.387 OA
ATOM     14  H   UNL     1     -27.029  62.686  33.281  1.00  0.00     0.211 HD
ENDBRANCH   6  13
BRANCH   7  15
ATOM     15  O   UNL     1     -25.573  62.260  30.186  1.00  0.00    -0.384 OA
ATOM     16  H   UNL     1     -26.251  61.754  29.655  1.00  0.00     0.211 HD
ENDBRANCH   7  15
ENDBRANCH   1   2
BRANCH   1  17
ATOM     17  C   UNL     1     -22.634  59.814  30.124  1.00  0.00     0.172 A 
ATOM     18  C   UNL     1     -21.245  59.615  30.271  1.00  0.00     0.201 A 
ATOM     19  C   UNL     1     -23.342  59.079  29.173  1.00  0.00     0.098 A 
ATOM     20  C   UNL     1     -20.608  58.558  29.593  1.00  0.00     0.176 A 
ATOM     21  C   UNL     1     -22.717  58.058  28.460  1.00  0.00     0.146 A 
ATOM     22  C   UNL     1     -21.361  57.720  28.725  1.00  0.00     0.111 A 
ATOM     23  O   UNL     1     -23.427  57.377  27.564  1.00  0.00    -0.456 OA
ATOM     24  C   UNL     1     -20.865  56.541  28.119  1.00  0.00     0.197 A 
ATOM     25  C   UNL     1     -22.947  56.321  26.903  1.00  0.00     0.138 A 
ATOM     26  C   UNL     1     -21.658  55.850  27.199  1.00  0.00     0.100 A 
ATOM     27  O   UNL     1     -19.737  56.062  28.414  1.00  0.00    -0.289 OA
BRANCH  18  28
ATOM     28  O   UNL     1     -20.459  60.496  31.014  1.00  0.00    -0.502 OA
ATOM     29  H   UNL     1     -19.455  60.390  31.079  1.00  0.00     0.293 HD
ENDBRANCH  18  28
BRANCH  20  30
ATOM     30  O   UNL     1     -19.227  58.425  29.788  1.00  0.00    -0.504 OA
ATOM     31  H   UNL     1     -18.668  57.657  29.447  1.00  0.00     0.293 HD
ENDBRANCH  20  30
BRANCH  25  32
ATOM     32  C   UNL     1     -23.799  55.658  25.882  1.00  0.00     0.017 A 
ATOM     33  C   UNL     1     -24.182  56.324  24.692  1.00  0.00     0.012 A 
ATOM     34  C   UNL     1     -24.297  54.362  26.115  1.00  0.00     0.012 A 
ATOM     35  C   UNL     1     -24.958  55.665  23.736  1.00  0.00     0.001 A 
ATOM     36  C   UNL     1     -25.099  53.723  25.160  1.00  0.00     0.001 A 
ATOM     37  C   UNL     1     -25.400  54.362  23.959  1.00  0.00     0.000 A 
ENDBRANCH  25  32
ENDBRANCH   1  17
TORSDOF 9
ENDMDL
MODEL 6
REMARK VINA RESULT:    -7.196     12.229     15.008
REMARK INTER + INTRA:         -11.424
REMARK INTER:                 -10.056
REMARK INTRA:                  -1.369
REMARK UNBOUND:                -1.493
REMARK SMILES O=C([O-])[C@@H]1O[C@H](Oc2cc3oc(-c4ccccc4)cc(=O)c3c(O)c2O)[C@@H](O)[C@H](O)[C@@H]1O
REMARK SMILES IDX 7 1 6 2 4 3 31 4 5 5 29 6 27 7 2 8 1 9 3 10 32 11 30 13
REMARK SMILES IDX 28 15 8 17 25 18 9 19 23 20 10 21 22 22 11 23 20 24 12 25
REMARK SMILES IDX 19 26 21 27 26 28 24 30 13 32 14 33 18 34 15 35 17 36 16 37
REMARK H PARENT 32 12 30 14 28 16 26 29 24 31
REMARK Flexibility Score: inf
ROOT
ATOM      1  O   UNL     1     -23.892  59.646  30.375  1.00  0.00    -0.458 OA
ENDROOT
BRANCH   1   2
ATOM      2  C   UNL     1     -25.115  59.723  31.120  1.00  0.00     0.339 C 
ATOM      3  C   UNL     1     -25.778  59.747  33.435  1.00  0.00     0.199 C 
ATOM      4  C   UNL     1     -27.181  60.089  32.855  1.00  0.00     0.180 C 
ATOM      5  O   UNL     1     -24.824  59.334  32.453  1.00  0.00    -0.328 OA
ATOM      6  C   UNL     1     -27.101  61.165  31.739  1.00  0.00     0.181 C 
ATOM      7  C   UNL     1     -25.709  61.153  31.059  1.00  0.00     0.214 C 
BRANCH   3   8
ATOM      8  C   UNL     1     -25.229  60.895  34.247  1.00  0.00     0.073 C 
ATOM      9  O   UNL     1     -25.760  61.241  35.336  1.00  0.00    -0.547 OA
ATOM     10  O   UNL     1     -25.820  61.271  35.449  1.00  0.00    -0.547 OA
ENDBRANCH   3   8
BRANCH   4  11
ATOM     11  O   UNL     1     -28.123  60.417  33.855  1.00  0.00    -0.387 OA
ATOM     12  H   UNL     1     -27.696  61.073  34.470  1.00  0.00     0.211 HD
ENDBRANCH   4  11
BRANCH   6  13
ATOM     13  O   UNL     1     -27.340  62.449  32.262  1.00  0.00    -0.387 OA
ATOM     14  H   UNL     1     -28.317  62.524  32.430  1.00  0.00     0.211 HD
ENDBRANCH   6  13
BRANCH   7  15
ATOM     15  O   UNL     1     -25.830  61.595  29.727  1.00  0.00    -0.384 OA
ATOM     16  H   UNL     1     -25.326  62.455  29.668  1.00  0.00     0.211 HD
ENDBRANCH   7  15
ENDBRANCH   1   2
BRANCH   1  17
ATOM     17  C   UNL     1     -23.455  58.524  29.652  1.00  0.00     0.172 A 
ATOM     18  C   UNL     1     -23.086  57.315  30.279  1.00  0.00     0.201 A 
ATOM     19  C   UNL     1     -23.469  58.606  28.260  1.00  0.00     0.098 A 
ATOM     20  C   UNL     1     -22.908  56.148  29.510  1.00  0.00     0.176 A 
ATOM     21  C   UNL     1     -23.251  57.471  27.483  1.00  0.00     0.146 A 
ATOM     22  C   UNL     1     -23.058  56.203  28.097  1.00  0.00     0.111 A 
ATOM     23  O   UNL     1     -23.276  57.590  26.157  1.00  0.00    -0.456 OA
ATOM     24  C   UNL     1     -23.057  55.072  27.246  1.00  0.00     0.197 A 
ATOM     25  C   UNL     1     -23.175  56.547  25.330  1.00  0.00     0.138 A 
ATOM     26  C   UNL     1     -23.106  55.249  25.861  1.00  0.00     0.100 A 
ATOM     27  O   UNL     1     -23.059  53.896  27.699  1.00  0.00    -0.289 OA
BRANCH  18  28
ATOM     28  O   UNL     1     -22.809  57.258  31.644  1.00  0.00    -0.502 OA
ATOM     29  H   UNL     1     -22.803  56.383  32.153  1.00  0.00     0.293 HD
ENDBRANCH  18  28
BRANCH  20  30
ATOM     30  O   UNL     1     -22.541  54.987  30.203  1.00  0.00    -0.504 OA
ATOM     31  H   UNL     1     -22.179  54.969  31.146  1.00  0.00     0.293 HD
ENDBRANCH  20  30
BRANCH  25  32
ATOM     32  C   UNL     1     -23.160  56.787  23.863  1.00  0.00     0.017 A 
ATOM     33  C   UNL     1     -24.213  56.339  23.029  1.00  0.00     0.012 A 
ATOM     34  C   UNL     1     -22.052  57.417  23.265  1.00  0.00     0.012 A 
ATOM     35  C   UNL     1     -24.187  56.607  21.659  1.00  0.00     0.001 A 
ATOM     36  C   UNL     1     -22.025  57.654  21.884  1.00  0.00     0.001 A 
ATOM     37  C   UNL     1     -23.106  57.279  21.089  1.00  0.00     0.000 A 
ENDBRANCH  25  32
ENDBRANCH   1  17
TORSDOF 9
ENDMDL
MODEL 7
REMARK VINA RESULT:    -7.112     11.795     13.920
REMARK INTER + INTRA:         -11.308
REMARK INTER:                  -9.922
REMARK INTRA:                  -1.386
REMARK UNBOUND:                -1.493
REMARK SMILES O=C([O-])[C@@H]1O[C@H](Oc2cc3oc(-c4ccccc4)cc(=O)c3c(O)c2O)[C@@H](O)[C@H](O)[C@@H]1O
REMARK SMILES IDX 7 1 6 2 4 3 31 4 5 5 29 6 27 7 2 8 1 9 3 10 32 11 30 13
REMARK SMILES IDX 28 15 8 17 25 18 9 19 23 20 10 21 22 22 11 23 20 24 12 25
REMARK SMILES IDX 19 26 21 27 26 28 24 30 13 32 14 33 18 34 15 35 17 36 16 37
REMARK H PARENT 32 12 30 14 28 16 26 29 24 31
REMARK Flexibility Score: inf
ROOT
ATOM      1  O   UNL     1     -22.713  59.112  27.973  1.00  0.00    -0.458 OA
ENDROOT
BRANCH   1   2
ATOM      2  C   UNL     1     -23.870  59.668  28.613  1.00  0.00     0.339 C 
ATOM      3  C   UNL     1     -24.908  59.572  30.783  1.00  0.00     0.199 C 
ATOM      4  C   UNL     1     -25.810  60.706  30.216  1.00  0.00     0.180 C 
ATOM      5  O   UNL     1     -24.094  58.927  29.802  1.00  0.00    -0.328 OA
ATOM      6  C   UNL     1     -24.985  61.778  29.456  1.00  0.00     0.181 C 
ATOM      7  C   UNL     1     -23.666  61.176  28.909  1.00  0.00     0.214 C 
BRANCH   3   8
ATOM      8  C   UNL     1     -24.057  60.072  31.924  1.00  0.00     0.073 C 
ATOM      9  O   UNL     1     -24.512  60.879  32.779  1.00  0.00    -0.547 OA
ATOM     10  O   UNL     1     -24.566  60.962  32.865  1.00  0.00    -0.547 OA
ENDBRANCH   3   8
BRANCH   4  11
ATOM     11  O   UNL     1     -26.661  61.271  31.192  1.00  0.00    -0.387 OA
ATOM     12  H   UNL     1     -26.191  62.055  31.585  1.00  0.00     0.211 HD
ENDBRANCH   4  11
BRANCH   6  13
ATOM     13  O   UNL     1     -24.673  62.863  30.297  1.00  0.00    -0.387 OA
ATOM     14  H   UNL     1     -23.699  63.039  30.205  1.00  0.00     0.211 HD
ENDBRANCH   6  13
BRANCH   7  15
ATOM     15  O   UNL     1     -23.273  61.871  27.749  1.00  0.00    -0.384 OA
ATOM     16  H   UNL     1     -24.096  62.306  27.388  1.00  0.00     0.211 HD
ENDBRANCH   7  15
ENDBRANCH   1   2
BRANCH   1  17
ATOM     17  C   UNL     1     -22.727  58.033  27.074  1.00  0.00     0.172 A 
ATOM     18  C   UNL     1     -23.063  56.721  27.469  1.00  0.00     0.201 A 
ATOM     19  C   UNL     1     -22.470  58.308  25.731  1.00  0.00     0.098 A 
ATOM     20  C   UNL     1     -23.315  55.734  26.496  1.00  0.00     0.176 A 
ATOM     21  C   UNL     1     -22.672  57.330  24.759  1.00  0.00     0.146 A 
ATOM     22  C   UNL     1     -23.186  56.054  25.116  1.00  0.00     0.111 A 
ATOM     23  O   UNL     1     -22.419  57.632  23.488  1.00  0.00    -0.456 OA
ATOM     24  C   UNL     1     -23.564  55.195  24.056  1.00  0.00     0.197 A 
ATOM     25  C   UNL     1     -22.673  56.798  22.476  1.00  0.00     0.138 A 
ATOM     26  C   UNL     1     -23.295  55.567  22.736  1.00  0.00     0.100 A 
ATOM     27  O   UNL     1     -24.180  54.114  24.259  1.00  0.00    -0.289 OA
BRANCH  18  28
ATOM     28  O   UNL     1     -23.073  56.346  28.813  1.00  0.00    -0.502 OA
ATOM     29  H   UNL     1     -23.750  55.689  29.179  1.00  0.00     0.293 HD
ENDBRANCH  18  28
BRANCH  20  30
ATOM     30  O   UNL     1     -23.642  54.456  26.966  1.00  0.00    -0.504 OA
ATOM     31  H   UNL     1     -23.648  53.618  26.402  1.00  0.00     0.293 HD
ENDBRANCH  20  30
BRANCH  25  32
ATOM     32  C   UNL     1     -22.306  57.205  21.095  1.00  0.00     0.017 A 
ATOM     33  C   UNL     1     -23.127  56.884  19.986  1.00  0.00     0.012 A 
ATOM     34  C   UNL     1     -21.089  57.873  20.857  1.00  0.00     0.012 A 
ATOM     35  C   UNL     1     -22.773  57.307  18.703  1.00  0.00     0.001 A 
ATOM     36  C   UNL     1     -20.732  58.266  19.560  1.00  0.00     0.001 A 
ATOM     37  C   UNL     1     -21.589  58.013  18.492  1.00  0.00     0.000 A 
ENDBRANCH  25  32
ENDBRANCH   1  17
TORSDOF 9
ENDMDL
MODEL 8
REMARK VINA RESULT:    -7.100     12.067     14.437
REMARK INTER + INTRA:         -11.291
REMARK INTER:                 -10.416
REMARK INTRA:                  -0.875
REMARK UNBOUND:                -1.493
REMARK SMILES O=C([O-])[C@@H]1O[C@H](Oc2cc3oc(-c4ccccc4)cc(=O)c3c(O)c2O)[C@@H](O)[C@H](O)[C@@H]1O
REMARK SMILES IDX 7 1 6 2 4 3 31 4 5 5 29 6 27 7 2 8 1 9 3 10 32 11 30 13
REMARK SMILES IDX 28 15 8 17 25 18 9 19 23 20 10 21 22 22 11 23 20 24 12 25
REMARK SMILES IDX 19 26 21 27 26 28 24 30 13 32 14 33 18 34 15 35 17 36 16 37
REMARK H PARENT 32 12 30 14 28 16 26 29 24 31
REMARK Flexibility Score: inf
ROOT
ATOM      1  O   UNL     1     -22.611  59.058  32.042  1.00  0.00    -0.458 OA
ENDROOT
BRANCH   1   2
ATOM      2  C   UNL     1     -23.742  59.918  32.234  1.00  0.00     0.339 C 
ATOM      3  C   UNL     1     -25.044  61.452  30.911  1.00  0.00     0.199 C 
ATOM      4  C   UNL     1     -25.983  61.464  32.152  1.00  0.00     0.180 C 
ATOM      5  O   UNL     1     -23.784  60.816  31.136  1.00  0.00    -0.328 OA
ATOM      6  C   UNL     1     -26.225  60.036  32.709  1.00  0.00     0.181 C 
ATOM      7  C   UNL     1     -25.050  59.094  32.348  1.00  0.00     0.214 C 
BRANCH   3   8
ATOM      8  C   UNL     1     -25.731  60.842  29.714  1.00  0.00     0.073 C 
ATOM      9  O   UNL     1     -25.110  60.625  28.639  1.00  0.00    -0.547 OA
ATOM     10  O   UNL     1     -25.038  60.605  28.531  1.00  0.00    -0.547 OA
ENDBRANCH   3   8
BRANCH   4  11
ATOM     11  O   UNL     1     -27.186  62.167  31.924  1.00  0.00    -0.387 OA
ATOM     12  H   UNL     1     -27.870  61.805  32.548  1.00  0.00     0.211 HD
ENDBRANCH   4  11
BRANCH   6  13
ATOM     13  O   UNL     1     -27.417  59.492  32.193  1.00  0.00    -0.387 OA
ATOM     14  H   UNL     1     -28.171  59.900  32.696  1.00  0.00     0.211 HD
ENDBRANCH   6  13
BRANCH   7  15
ATOM     15  O   UNL     1     -24.931  58.089  33.327  1.00  0.00    -0.384 OA
ATOM     16  H   UNL     1     -25.400  57.285  32.965  1.00  0.00     0.211 HD
ENDBRANCH   7  15
ENDBRANCH   1   2
BRANCH   1  17
ATOM     17  C   UNL     1     -22.556  57.986  31.136  1.00  0.00     0.172 A 
ATOM     18  C   UNL     1     -22.501  56.640  31.557  1.00  0.00     0.201 A 
ATOM     19  C   UNL     1     -22.638  58.283  29.777  1.00  0.00     0.098 A 
ATOM     20  C   UNL     1     -22.710  55.602  30.628  1.00  0.00     0.176 A 
ATOM     21  C   UNL     1     -22.801  57.266  28.839  1.00  0.00     0.146 A 
ATOM     22  C   UNL     1     -22.931  55.914  29.258  1.00  0.00     0.111 A 
ATOM     23  O   UNL     1     -22.878  57.591  27.550  1.00  0.00    -0.456 OA
ATOM     24  C   UNL     1     -23.305  54.970  28.272  1.00  0.00     0.197 A 
ATOM     25  C   UNL     1     -23.130  56.700  26.588  1.00  0.00     0.138 A 
ATOM     26  C   UNL     1     -23.393  55.366  26.935  1.00  0.00     0.100 A 
ATOM     27  O   UNL     1     -23.607  53.782  28.565  1.00  0.00    -0.289 OA
BRANCH  18  28
ATOM     28  O   UNL     1     -22.162  56.301  32.866  1.00  0.00    -0.502 OA
ATOM     29  H   UNL     1     -21.448  56.801  33.380  1.00  0.00     0.293 HD
ENDBRANCH  18  28
BRANCH  20  30
ATOM     30  O   UNL     1     -22.639  54.292  31.121  1.00  0.00    -0.504 OA
ATOM     31  H   UNL     1     -21.886  53.929  31.686  1.00  0.00     0.293 HD
ENDBRANCH  20  30
BRANCH  25  32
ATOM     32  C   UNL     1     -23.145  57.151  25.172  1.00  0.00     0.017 A 
ATOM     33  C   UNL     1     -24.064  56.619  24.236  1.00  0.00     0.012 A 
ATOM     34  C   UNL     1     -22.190  58.083  24.720  1.00  0.00     0.012 A 
ATOM     35  C   UNL     1     -24.076  57.085  22.919  1.00  0.00     0.001 A 
ATOM     36  C   UNL     1     -22.194  58.520  23.389  1.00  0.00     0.001 A 
ATOM     37  C   UNL     1     -23.157  58.047  22.500  1.00  0.00     0.000 A 
ENDBRANCH  25  32
ENDBRANCH   1  17
TORSDOF 9
ENDMDL
MODEL 9
REMARK VINA RESULT:    -6.995     12.363     15.611
REMARK INTER + INTRA:         -11.147
REMARK INTER:                  -9.720
REMARK INTRA:                  -1.427
REMARK UNBOUND:                -1.493
REMARK SMILES O=C([O-])[C@@H]1O[C@H](Oc2cc3oc(-c4ccccc4)cc(=O)c3c(O)c2O)[C@@H](O)[C@H](O)[C@@H]1O
REMARK SMILES IDX 7 1 6 2 4 3 31 4 5 5 29 6 27 7 2 8 1 9 3 10 32 11 30 13
REMARK SMILES IDX 28 15 8 17 25 18 9 19 23 20 10 21 22 22 11 23 20 24 12 25
REMARK SMILES IDX 19 26 21 27 26 28 24 30 13 32 14 33 18 34 15 35 17 36 16 37
REMARK H PARENT 32 12 30 14 28 16 26 29 24 31
REMARK Flexibility Score: inf
ROOT
ATOM      1  O   UNL     1     -23.223  59.260  34.665  1.00  0.00    -0.458 OA
ENDROOT
BRANCH   1   2
ATOM      2  C   UNL     1     -21.900  59.626  35.079  1.00  0.00     0.339 C 
ATOM      3  C   UNL     1     -19.689  59.642  34.125  1.00  0.00     0.199 C 
ATOM      4  C   UNL     1     -19.320  60.428  35.417  1.00  0.00     0.180 C 
ATOM      5  O   UNL     1     -20.992  59.055  34.150  1.00  0.00    -0.328 OA
ATOM      6  C   UNL     1     -20.366  61.525  35.747  1.00  0.00     0.181 C 
ATOM      7  C   UNL     1     -21.750  61.167  35.151  1.00  0.00     0.214 C 
BRANCH   3   8
ATOM      8  C   UNL     1     -19.527  60.505  32.898  1.00  0.00     0.073 C 
ATOM      9  O   UNL     1     -18.427  60.576  32.285  1.00  0.00    -0.547 OA
ATOM     10  O   UNL     1     -18.310  60.577  32.226  1.00  0.00    -0.547 OA
ENDBRANCH   3   8
BRANCH   4  11
ATOM     11  O   UNL     1     -17.999  60.928  35.397  1.00  0.00    -0.387 OA
ATOM     12  H   UNL     1     -17.640  60.797  34.478  1.00  0.00     0.211 HD
ENDBRANCH   4  11
BRANCH   6  13
ATOM     13  O   UNL     1     -19.962  62.773  35.238  1.00  0.00    -0.387 OA
ATOM     14  H   UNL     1     -19.033  62.936  35.553  1.00  0.00     0.211 HD
ENDBRANCH   6  13
BRANCH   7  15
ATOM     15  O   UNL     1     -22.767  61.738  35.940  1.00  0.00    -0.384 OA
ATOM     16  H   UNL     1     -23.381  62.211  35.310  1.00  0.00     0.211 HD
ENDBRANCH   7  15
ENDBRANCH   1   2
BRANCH   1  17
ATOM     17  C   UNL     1     -23.801  59.585  33.427  1.00  0.00     0.172 A 
ATOM     18  C   UNL     1     -24.718  60.645  33.272  1.00  0.00     0.201 A 
ATOM     19  C   UNL     1     -23.378  58.867  32.308  1.00  0.00     0.098 A 
ATOM     20  C   UNL     1     -25.066  61.096  31.984  1.00  0.00     0.176 A 
ATOM     21  C   UNL     1     -23.749  59.271  31.028  1.00  0.00     0.146 A 
ATOM     22  C   UNL     1     -24.525  60.447  30.839  1.00  0.00     0.111 A 
ATOM     23  O   UNL     1     -23.323  58.561  29.985  1.00  0.00    -0.456 OA
ATOM     24  C   UNL     1     -24.678  60.907  29.510  1.00  0.00     0.197 A 
ATOM     25  C   UNL     1     -23.542  58.921  28.719  1.00  0.00     0.138 A 
ATOM     26  C   UNL     1     -24.194  60.135  28.450  1.00  0.00     0.100 A 
ATOM     27  O   UNL     1     -25.203  62.023  29.246  1.00  0.00    -0.289 OA
BRANCH  18  28
ATOM     28  O   UNL     1     -25.361  61.217  34.370  1.00  0.00    -0.502 OA
ATOM     29  H   UNL     1     -24.877  61.829  35.014  1.00  0.00     0.293 HD
ENDBRANCH  18  28
BRANCH  20  30
ATOM     30  O   UNL     1     -25.983  62.152  31.912  1.00  0.00    -0.504 OA
ATOM     31  H   UNL     1     -26.082  62.877  32.607  1.00  0.00     0.293 HD
ENDBRANCH  20  30
BRANCH  25  32
ATOM     32  C   UNL     1     -23.072  58.035  27.623  1.00  0.00     0.017 A 
ATOM     33  C   UNL     1     -22.979  56.632  27.794  1.00  0.00     0.012 A 
ATOM     34  C   UNL     1     -22.647  58.591  26.401  1.00  0.00     0.012 A 
ATOM     35  C   UNL     1     -22.563  55.821  26.736  1.00  0.00     0.001 A 
ATOM     36  C   UNL     1     -22.204  57.768  25.357  1.00  0.00     0.001 A 
ATOM     37  C   UNL     1     -22.195  56.383  25.514  1.00  0.00     0.000 A 
ENDBRANCH  25  32
ENDBRANCH   1  17
TORSDOF 9
ENDMDL
