MODEL 1
REMARK VINA RESULT:    -3.175      0.000      0.000
REMARK INTER + INTRA:          -3.146
REMARK INTER:                  -3.917
REMARK INTRA:                   0.771
REMARK UNBOUND:                 0.771
REMARK SMILES CC1=CC=CC(C)(C)CC1=O
REMARK SMILES IDX 1 1 2 2 3 3 10 4 11 5 9 6 4 8 5 9 6 10 7 11 8 12
REMARK H PARENT
REMARK Flexibility Score: 80.00
ROOT
ATOM      1  C   UNL     1      82.806  31.642  67.226  1.00  0.00     0.048 C 
ATOM      2  C   UNL     1      84.201  31.749  66.659  1.00  0.00    -0.008 C 
ATOM      3  C   UNL     1      85.216  31.944  67.529  1.00  0.00     0.007 C 
ENDROOT
BRANCH   2   4
ATOM      4  C   UNL     1      84.354  31.554  65.195  1.00  0.00     0.159 C 
ATOM      5  O   UNL     1      83.372  31.117  64.535  1.00  0.00    -0.295 OA
BRANCH   4   6
ATOM      6  C   UNL     1      85.614  31.864  64.447  1.00  0.00     0.091 CG0
ATOM      7  G   UNL     1      86.833  31.059  64.948  1.00  0.00     0.000 G0
ENDBRANCH   4   6
ENDBRANCH   2   4
BRANCH   3   8
ATOM      8  C   UNL     1      86.672  32.061  67.279  1.00  0.00    -0.003 C 
ATOM      9  C   UNL     1      87.379  31.682  66.207  1.00  0.00    -0.020 C 
BRANCH   9  10
ATOM     10  C   UNL     1      86.831  31.050  64.949  1.00  0.00    -0.010 CG0
ATOM     11  C   UNL     1      86.490  29.565  65.211  1.00  0.00     0.016 C 
ATOM     12  C   UNL     1      87.930  31.103  63.863  1.00  0.00     0.016 C 
ATOM     13  G   UNL     1      85.618  31.861  64.445  1.00  0.00     0.000 G0
ENDBRANCH   9  10
ENDBRANCH   3   8
TORSDOF 0
ENDMDL
MODEL 2
REMARK VINA RESULT:    -2.750      1.421      2.141
REMARK INTER + INTRA:          -2.622
REMARK INTER:                  -3.392
REMARK INTRA:                   0.769
REMARK UNBOUND:                 0.771
REMARK SMILES CC1=CC=CC(C)(C)CC1=O
REMARK SMILES IDX 1 1 2 2 3 3 10 4 11 5 9 6 4 8 5 9 6 10 7 11 8 12
REMARK H PARENT
REMARK Flexibility Score: 80.00
ROOT
ATOM      1  C   UNL     1      82.796  31.121  64.241  1.00  0.00     0.048 C 
ATOM      2  C   UNL     1      83.853  31.679  65.163  1.00  0.00    -0.008 C 
ATOM      3  C   UNL     1      83.629  31.601  66.493  1.00  0.00     0.007 C 
ENDROOT
BRANCH   2   4
ATOM      4  C   UNL     1      85.092  32.202  64.534  1.00  0.00     0.159 C 
ATOM      5  O   UNL     1      85.292  31.980  63.309  1.00  0.00    -0.295 OA
BRANCH   4   6
ATOM      6  C   UNL     1      86.122  33.000  65.273  1.00  0.00     0.091 CG0
ATOM      7  G   UNL     1      86.741  32.238  66.466  1.00  0.00     0.000 G0
ENDBRANCH   4   6
ENDBRANCH   2   4
BRANCH   3   8
ATOM      8  C   UNL     1      84.479  32.031  67.628  1.00  0.00    -0.003 C 
ATOM      9  C   UNL     1      85.791  32.298  67.646  1.00  0.00    -0.020 C 
BRANCH   9  10
ATOM     10  C   UNL     1      86.733  32.249  66.467  1.00  0.00    -0.010 CG0
ATOM     11  C   UNL     1      87.075  30.780  66.126  1.00  0.00     0.016 C 
ATOM     12  C   UNL     1      88.045  32.963  66.866  1.00  0.00     0.016 C 
ATOM     13  G   UNL     1      86.115  33.010  65.274  1.00  0.00     0.000 G0
ENDBRANCH   9  10
ENDBRANCH   3   8
TORSDOF 0
ENDMDL
MODEL 3
REMARK VINA RESULT:    -2.652      1.476      2.610
REMARK INTER + INTRA:          -2.501
REMARK INTER:                  -3.264
REMARK INTRA:                   0.763
REMARK UNBOUND:                 0.771
REMARK SMILES CC1=CC=CC(C)(C)CC1=O
REMARK SMILES IDX 1 1 2 2 3 3 10 4 11 5 9 6 4 8 5 9 6 10 7 11 8 12
REMARK H PARENT
REMARK Flexibility Score: 80.00
ROOT
ATOM      1  C   UNL     1      83.238  30.018  64.501  1.00  0.00     0.048 C 
ATOM      2  C   UNL     1      84.532  30.448  65.150  1.00  0.00    -0.008 C 
ATOM      3  C   UNL     1      85.661  29.806  64.779  1.00  0.00     0.007 C 
ENDROOT
BRANCH   2   4
ATOM      4  C   UNL     1      84.469  31.597  66.088  1.00  0.00     0.159 C 
ATOM      5  O   UNL     1      83.404  32.269  66.155  1.00  0.00    -0.295 OA
BRANCH   4   6
ATOM      6  C   UNL     1      85.603  32.000  66.979  1.00  0.00     0.091 CG0
ATOM      7  G   UNL     1      86.891  32.352  66.202  1.00  0.00     0.000 G0
ENDBRANCH   4   6
ENDBRANCH   2   4
BRANCH   3   8
ATOM      8  C   UNL     1      87.062  30.019  65.214  1.00  0.00    -0.003 C 
ATOM      9  C   UNL     1      87.609  31.088  65.807  1.00  0.00    -0.020 C 
BRANCH   9  10
ATOM     10  C   UNL     1      86.893  32.355  66.208  1.00  0.00    -0.010 CG0
ATOM     11  C   UNL     1      86.626  33.228  64.960  1.00  0.00     0.016 C 
ATOM     12  C   UNL     1      87.816  33.152  67.159  1.00  0.00     0.016 C 
ATOM     13  G   UNL     1      85.601  32.003  66.976  1.00  0.00     0.000 G0
ENDBRANCH   9  10
ENDBRANCH   3   8
TORSDOF 0
ENDMDL
MODEL 4
REMARK VINA RESULT:    -2.442      1.997      3.502
REMARK INTER + INTRA:          -2.242
REMARK INTER:                  -3.001
REMARK INTRA:                   0.759
REMARK UNBOUND:                 0.771
REMARK SMILES CC1=CC=CC(C)(C)CC1=O
REMARK SMILES IDX 1 1 2 2 3 3 10 4 11 5 9 6 4 8 5 9 6 10 7 11 8 12
REMARK H PARENT
REMARK Flexibility Score: 80.00
ROOT
ATOM      1  C   UNL     1      88.116  33.023  66.895  1.00  0.00     0.048 C 
ATOM      2  C   UNL     1      86.790  32.773  66.218  1.00  0.00    -0.008 C 
ATOM      3  C   UNL     1      86.672  33.131  64.921  1.00  0.00     0.007 C 
ENDROOT
BRANCH   2   4
ATOM      4  C   UNL     1      85.745  32.081  67.014  1.00  0.00     0.159 C 
ATOM      5  O   UNL     1      86.064  31.567  68.120  1.00  0.00    -0.295 OA
BRANCH   4   6
ATOM      6  C   UNL     1      84.315  31.969  66.581  1.00  0.00     0.091 CG0
ATOM      7  G   UNL     1      84.143  31.239  65.231  1.00  0.00     0.000 G0
ENDBRANCH   4   6
ENDBRANCH   2   4
BRANCH   3   8
ATOM      8  C   UNL     1      85.523  32.989  63.996  1.00  0.00    -0.003 C 
ATOM      9  C   UNL     1      84.452  32.191  64.096  1.00  0.00    -0.020 C 
BRANCH   9  10
ATOM     10  C   UNL     1      84.144  31.240  65.228  1.00  0.00    -0.010 CG0
ATOM     11  C   UNL     1      85.027  29.976  65.109  1.00  0.00     0.016 C 
ATOM     12  C   UNL     1      82.667  30.803  65.105  1.00  0.00     0.016 C 
ATOM     13  G   UNL     1      84.320  31.965  66.580  1.00  0.00     0.000 G0
ENDBRANCH   9  10
ENDBRANCH   3   8
TORSDOF 0
ENDMDL
MODEL 5
REMARK VINA RESULT:    -2.125      1.895      2.977
REMARK INTER + INTRA:          -1.850
REMARK INTER:                  -2.601
REMARK INTRA:                   0.751
REMARK UNBOUND:                 0.771
REMARK SMILES CC1=CC=CC(C)(C)CC1=O
REMARK SMILES IDX 1 1 2 2 3 3 10 4 11 5 9 6 4 8 5 9 6 10 7 11 8 12
REMARK H PARENT
REMARK Flexibility Score: 80.00
ROOT
ATOM      1  C   UNL     1      84.782  28.158  64.750  1.00  0.00     0.048 C 
ATOM      2  C   UNL     1      85.290  29.580  64.751  1.00  0.00    -0.008 C 
ATOM      3  C   UNL     1      84.374  30.571  64.819  1.00  0.00     0.007 C 
ENDROOT
BRANCH   2   4
ATOM      4  C   UNL     1      86.762  29.773  64.753  1.00  0.00     0.159 C 
ATOM      5  O   UNL     1      87.505  28.774  64.955  1.00  0.00    -0.295 OA
BRANCH   4   6
ATOM      6  C   UNL     1      87.423  31.095  64.512  1.00  0.00     0.091 CG0
ATOM      7  G   UNL     1      87.021  32.173  65.543  1.00  0.00     0.000 G0
ENDBRANCH   4   6
ENDBRANCH   2   4
BRANCH   3   8
ATOM      8  C   UNL     1      84.565  32.040  64.864  1.00  0.00    -0.003 C 
ATOM      9  C   UNL     1      85.663  32.740  65.176  1.00  0.00    -0.020 C 
BRANCH   9  10
ATOM     10  C   UNL     1      87.014  32.174  65.541  1.00  0.00    -0.010 CG0
ATOM     11  C   UNL     1      86.993  31.654  66.997  1.00  0.00     0.016 C 
ATOM     12  C   UNL     1      88.055  33.313  65.456  1.00  0.00     0.016 C 
ATOM     13  G   UNL     1      87.413  31.082  64.524  1.00  0.00     0.000 G0
ENDBRANCH   9  10
ENDBRANCH   3   8
TORSDOF 0
ENDMDL
MODEL 6
REMARK VINA RESULT:    -1.743     15.292     16.497
REMARK INTER + INTRA:          -1.380
REMARK INTER:                  -2.393
REMARK INTRA:                   1.014
REMARK UNBOUND:                 0.771
REMARK SMILES CC1=CC=CC(C)(C)CC1=O
REMARK SMILES IDX 1 1 2 2 3 3 10 4 11 5 9 6 4 8 5 9 6 10 7 11 8 12
REMARK H PARENT
REMARK Flexibility Score: 80.00
ROOT
ATOM      1  C   UNL     1      81.367  32.590  50.477  1.00  0.00     0.048 C 
ATOM      2  C   UNL     1      80.243  33.589  50.610  1.00  0.00    -0.008 C 
ATOM      3  C   UNL     1      80.234  34.638  49.759  1.00  0.00     0.007 C 
ENDROOT
BRANCH   2   4
ATOM      4  C   UNL     1      79.193  33.296  51.618  1.00  0.00     0.159 C 
ATOM      5  O   UNL     1      79.424  32.426  52.501  1.00  0.00    -0.295 OA
BRANCH   4   6
ATOM      6  C   UNL     1      77.866  33.990  51.656  1.00  0.00     0.091 CG0
ATOM      7  G   UNL     1      77.986  35.522  51.820  1.00  0.00     0.000 G0
ENDBRANCH   4   6
ENDBRANCH   2   4
BRANCH   3   8
ATOM      8  C   UNL     1      79.262  35.749  49.630  1.00  0.00    -0.003 C 
ATOM      9  C   UNL     1      78.291  36.125  50.472  1.00  0.00    -0.020 C 
BRANCH   9  10
ATOM     10  C   UNL     1      77.970  35.497  51.807  1.00  0.00    -0.010 CG0
ATOM     11  C   UNL     1      76.670  36.109  52.378  1.00  0.00     0.016 C 
ATOM     12  C   UNL     1      79.122  35.825  52.785  1.00  0.00     0.016 C 
ATOM     13  G   UNL     1      77.890  33.962  51.656  1.00  0.00     0.000 G0
ENDBRANCH   9  10
ENDBRANCH   3   8
TORSDOF 0
ENDMDL
MODEL 7
REMARK VINA RESULT:    -1.557      1.918      3.699
REMARK INTER + INTRA:          -1.150
REMARK INTER:                  -2.178
REMARK INTRA:                   1.029
REMARK UNBOUND:                 0.771
REMARK SMILES CC1=CC=CC(C)(C)CC1=O
REMARK SMILES IDX 1 1 2 2 3 3 10 4 11 5 9 6 4 8 5 9 6 10 7 11 8 12
REMARK H PARENT
REMARK Flexibility Score: 80.00
ROOT
ATOM      1  C   UNL     1      88.116  30.035  66.090  1.00  0.00     0.048 C 
ATOM      2  C   UNL     1      86.657  30.303  65.808  1.00  0.00    -0.008 C 
ATOM      3  C   UNL     1      85.963  29.354  65.143  1.00  0.00     0.007 C 
ENDROOT
BRANCH   2   4
ATOM      4  C   UNL     1      86.082  31.559  66.354  1.00  0.00     0.159 C 
ATOM      5  O   UNL     1      86.865  32.472  66.733  1.00  0.00    -0.295 OA
BRANCH   4   6
ATOM      6  C   UNL     1      84.610  31.812  66.470  1.00  0.00     0.091 CG0
ATOM      7  G   UNL     1      83.879  31.782  65.110  1.00  0.00     0.000 G0
ENDBRANCH   4   6
ENDBRANCH   2   4
BRANCH   3   8
ATOM      8  C   UNL     1      84.535  29.320  64.750  1.00  0.00    -0.003 C 
ATOM      9  C   UNL     1      83.638  30.314  64.737  1.00  0.00    -0.020 C 
BRANCH   9  10
ATOM     10  C   UNL     1      83.893  31.757  65.106  1.00  0.00    -0.010 CG0
ATOM     11  C   UNL     1      82.561  32.541  65.116  1.00  0.00     0.016 C 
ATOM     12  C   UNL     1      84.804  32.379  64.023  1.00  0.00     0.016 C 
ATOM     13  G   UNL     1      84.636  31.826  66.458  1.00  0.00     0.000 G0
ENDBRANCH   9  10
ENDBRANCH   3   8
TORSDOF 0
ENDMDL
MODEL 8
REMARK VINA RESULT:    -1.419     15.122     16.399
REMARK INTER + INTRA:          -0.979
REMARK INTER:                  -1.737
REMARK INTRA:                   0.757
REMARK UNBOUND:                 0.771
REMARK SMILES CC1=CC=CC(C)(C)CC1=O
REMARK SMILES IDX 1 1 2 2 3 3 10 4 11 5 9 6 4 8 5 9 6 10 7 11 8 12
REMARK H PARENT
REMARK Flexibility Score: 80.00
ROOT
ATOM      1  C   UNL     1      81.483  33.215  48.688  1.00  0.00     0.048 C 
ATOM      2  C   UNL     1      80.586  33.586  49.845  1.00  0.00    -0.008 C 
ATOM      3  C   UNL     1      80.599  32.780  50.929  1.00  0.00     0.007 C 
ENDROOT
BRANCH   2   4
ATOM      4  C   UNL     1      79.818  34.851  49.727  1.00  0.00     0.159 C 
ATOM      5  O   UNL     1      80.111  35.656  48.802  1.00  0.00    -0.295 OA
BRANCH   4   6
ATOM      6  C   UNL     1      78.695  35.225  50.645  1.00  0.00     0.091 CG0
ATOM      7  G   UNL     1      79.133  35.360  52.120  1.00  0.00     0.000 G0
ENDBRANCH   4   6
ENDBRANCH   2   4
BRANCH   3   8
ATOM      8  C   UNL     1      79.860  32.897  52.209  1.00  0.00    -0.003 C 
ATOM      9  C   UNL     1      79.244  33.964  52.734  1.00  0.00    -0.020 C 
BRANCH   9  10
ATOM     10  C   UNL     1      79.132  35.333  52.109  1.00  0.00    -0.010 CG0
ATOM     11  C   UNL     1      80.469  36.095  52.264  1.00  0.00     0.016 C 
ATOM     12  C   UNL     1      78.041  36.124  52.867  1.00  0.00     0.016 C 
ATOM     13  G   UNL     1      78.690  35.199  50.635  1.00  0.00     0.000 G0
ENDBRANCH   9  10
ENDBRANCH   3   8
TORSDOF 0
ENDMDL
MODEL 9
REMARK VINA RESULT:    -1.320     14.776     15.657
REMARK INTER + INTRA:          -0.857
REMARK INTER:                  -1.612
REMARK INTRA:                   0.755
REMARK UNBOUND:                 0.771
REMARK SMILES CC1=CC=CC(C)(C)CC1=O
REMARK SMILES IDX 1 1 2 2 3 3 10 4 11 5 9 6 4 8 5 9 6 10 7 11 8 12
REMARK H PARENT
REMARK Flexibility Score: 80.00
ROOT
ATOM      1  C   UNL     1      76.479  31.627  52.335  1.00  0.00     0.048 C 
ATOM      2  C   UNL     1      77.703  32.512  52.328  1.00  0.00    -0.008 C 
ATOM      3  C   UNL     1      78.910  31.911  52.406  1.00  0.00     0.007 C 
ENDROOT
BRANCH   2   4
ATOM      4  C   UNL     1      77.481  33.971  52.158  1.00  0.00     0.159 C 
ATOM      5  O   UNL     1      76.329  34.378  51.849  1.00  0.00    -0.295 OA
BRANCH   4   6
ATOM      6  C   UNL     1      78.555  34.997  52.349  1.00  0.00     0.091 CG0
ATOM      7  G   UNL     1      79.752  34.812  51.391  1.00  0.00     0.000 G0
ENDBRANCH   4   6
ENDBRANCH   2   4
BRANCH   3   8
ATOM      8  C   UNL     1      80.268  32.503  52.394  1.00  0.00    -0.003 C 
ATOM      9  C   UNL     1      80.660  33.712  51.971  1.00  0.00    -0.020 C 
BRANCH   9  10
ATOM     10  C   UNL     1      79.771  34.799  51.414  1.00  0.00    -0.010 CG0
ATOM     11  C   UNL     1      79.375  34.461  49.958  1.00  0.00     0.016 C 
ATOM     12  C   UNL     1      80.575  36.119  51.396  1.00  0.00     0.016 C 
ATOM     13  G   UNL     1      78.547  34.993  52.336  1.00  0.00     0.000 G0
ENDBRANCH   9  10
ENDBRANCH   3   8
TORSDOF 0
ENDMDL
