MODEL 1
REMARK VINA RESULT:    -1.230      0.000      0.000
REMARK INTER + INTRA:          -1.230
REMARK INTER:                  -1.230
REMARK INTRA:                   0.000
REMARK UNBOUND:                 0.000
REMARK SMILES CC(C)=C1CC[C@@H](C)CC1=O
REMARK SMILES IDX 8 1 7 2 6 3 5 4 4 5 2 6 1 7 3 8 10 9 11 10 9 11
REMARK H PARENT
REMARK Flexibility Score: inf
ROOT
ATOM      1  C   UNL     1      12.282  13.363  -0.024  1.00  0.00     0.008 C 
ATOM      2  C   UNL     1      12.205  13.621   1.489  1.00  0.00    -0.006 C 
ATOM      3  C   UNL     1      10.955  12.986   2.124  1.00  0.00     0.008 C 
ATOM      4  C   UNL     1       9.645  13.638   1.656  1.00  0.00     0.039 C 
ATOM      5  C   UNL     1       9.671  15.157   1.750  1.00  0.00    -0.006 C 
ATOM      6  C   UNL     1       8.528  15.871   1.974  1.00  0.00    -0.070 C 
ATOM      7  C   UNL     1       8.546  17.376   2.125  1.00  0.00     0.039 C 
ATOM      8  C   UNL     1       7.191  15.184   2.121  1.00  0.00     0.039 C 
ATOM      9  C   UNL     1      10.980  15.816   1.465  1.00  0.00     0.159 C 
ATOM     10  O   UNL     1      11.039  16.950   0.919  1.00  0.00    -0.295 OA
ATOM     11  C   UNL     1      12.264  15.120   1.816  1.00  0.00     0.084 C 
ENDROOT
TORSDOF 0
ENDMDL
MODEL 2
REMARK VINA RESULT:    -0.480      1.667      4.224
REMARK INTER + INTRA:          -0.480
REMARK INTER:                  -0.480
REMARK INTRA:                   0.000
REMARK UNBOUND:                 0.000
REMARK SMILES CC(C)=C1CC[C@@H](C)CC1=O
REMARK SMILES IDX 8 1 7 2 6 3 5 4 4 5 2 6 1 7 3 8 10 9 11 10 9 11
REMARK H PARENT
REMARK Flexibility Score: inf
ROOT
ATOM      1  C   UNL     1       8.987  16.835   1.026  1.00  0.00     0.008 C 
ATOM      2  C   UNL     1       8.614  15.349   0.914  1.00  0.00    -0.006 C 
ATOM      3  C   UNL     1       9.155  14.523   2.095  1.00  0.00     0.008 C 
ATOM      4  C   UNL     1      10.688  14.432   2.114  1.00  0.00     0.039 C 
ATOM      5  C   UNL     1      11.277  14.029   0.769  1.00  0.00    -0.006 C 
ATOM      6  C   UNL     1      12.448  13.331   0.691  1.00  0.00    -0.070 C 
ATOM      7  C   UNL     1      13.016  12.875  -0.634  1.00  0.00     0.039 C 
ATOM      8  C   UNL     1      13.214  12.945   1.935  1.00  0.00     0.039 C 
ATOM      9  C   UNL     1      10.571  14.542  -0.442  1.00  0.00     0.159 C 
ATOM     10  O   UNL     1      11.200  14.825  -1.497  1.00  0.00    -0.295 OA
ATOM     11  C   UNL     1       9.083  14.742  -0.417  1.00  0.00     0.084 C 
ENDROOT
TORSDOF 0
ENDMDL
MODEL 3
REMARK VINA RESULT:     0.028      1.686      1.860
REMARK INTER + INTRA:           0.028
REMARK INTER:                   0.028
REMARK INTRA:                   0.000
REMARK UNBOUND:                 0.000
REMARK SMILES CC(C)=C1CC[C@@H](C)CC1=O
REMARK SMILES IDX 8 1 7 2 6 3 5 4 4 5 2 6 1 7 3 8 10 9 11 10 9 11
REMARK H PARENT
REMARK Flexibility Score: inf
ROOT
ATOM      1  C   UNL     1      12.868  13.028  -0.440  1.00  0.00     0.008 C 
ATOM      2  C   UNL     1      11.886  12.876   0.732  1.00  0.00    -0.006 C 
ATOM      3  C   UNL     1      10.428  13.125   0.305  1.00  0.00     0.008 C 
ATOM      4  C   UNL     1      10.161  14.582  -0.104  1.00  0.00     0.039 C 
ATOM      5  C   UNL     1      10.679  15.589   0.913  1.00  0.00    -0.006 C 
ATOM      6  C   UNL     1      10.070  16.801   1.080  1.00  0.00    -0.070 C 
ATOM      7  C   UNL     1      10.537  17.789   2.124  1.00  0.00     0.039 C 
ATOM      8  C   UNL     1       8.869  17.195   0.252  1.00  0.00     0.039 C 
ATOM      9  C   UNL     1      11.944  15.228   1.617  1.00  0.00     0.159 C 
ATOM     10  O   UNL     1      12.774  16.110   1.968  1.00  0.00    -0.295 OA
ATOM     11  C   UNL     1      12.257  13.789   1.910  1.00  0.00     0.084 C 
ENDROOT
TORSDOF 0
ENDMDL
MODEL 4
REMARK VINA RESULT:     0.532      1.807      2.839
REMARK INTER + INTRA:           0.532
REMARK INTER:                   0.532
REMARK INTRA:                   0.000
REMARK UNBOUND:                 0.000
REMARK SMILES CC(C)=C1CC[C@@H](C)CC1=O
REMARK SMILES IDX 8 1 7 2 6 3 5 4 4 5 2 6 1 7 3 8 10 9 11 10 9 11
REMARK H PARENT
REMARK Flexibility Score: inf
ROOT
ATOM      1  C   UNL     1      11.600  12.876   0.330  1.00  0.00     0.008 C 
ATOM      2  C   UNL     1      10.986  13.846  -0.692  1.00  0.00    -0.006 C 
ATOM      3  C   UNL     1      11.710  15.204  -0.713  1.00  0.00     0.008 C 
ATOM      4  C   UNL     1      11.528  16.004   0.585  1.00  0.00     0.039 C 
ATOM      5  C   UNL     1      10.074  16.096   1.027  1.00  0.00    -0.006 C 
ATOM      6  C   UNL     1       9.616  17.176   1.728  1.00  0.00    -0.070 C 
ATOM      7  C   UNL     1       8.163  17.308   2.125  1.00  0.00     0.039 C 
ATOM      8  C   UNL     1      10.537  18.312   2.107  1.00  0.00     0.039 C 
ATOM      9  C   UNL     1       9.223  14.900   0.757  1.00  0.00     0.159 C 
ATOM     10  O   UNL     1       8.287  14.573   1.535  1.00  0.00    -0.295 OA
ATOM     11  C   UNL     1       9.482  14.050  -0.453  1.00  0.00     0.084 C 
ENDROOT
TORSDOF 0
ENDMDL
MODEL 5
REMARK VINA RESULT:     0.825      1.899      4.273
REMARK INTER + INTRA:           0.825
REMARK INTER:                   0.825
REMARK INTRA:                   0.000
REMARK UNBOUND:                 0.000
REMARK SMILES CC(C)=C1CC[C@@H](C)CC1=O
REMARK SMILES IDX 8 1 7 2 6 3 5 4 4 5 2 6 1 7 3 8 10 9 11 10 9 11
REMARK H PARENT
REMARK Flexibility Score: inf
ROOT
ATOM      1  C   UNL     1       8.230  15.332   2.080  1.00  0.00     0.008 C 
ATOM      2  C   UNL     1       9.423  16.200   1.652  1.00  0.00    -0.006 C 
ATOM      3  C   UNL     1       9.455  16.435   0.131  1.00  0.00     0.008 C 
ATOM      4  C   UNL     1       9.731  15.154  -0.671  1.00  0.00     0.039 C 
ATOM      5  C   UNL     1      10.930  14.374  -0.150  1.00  0.00    -0.006 C 
ATOM      6  C   UNL     1      11.695  13.613  -0.987  1.00  0.00    -0.070 C 
ATOM      7  C   UNL     1      12.922  12.877  -0.497  1.00  0.00     0.039 C 
ATOM      8  C   UNL     1      11.372  13.501  -2.459  1.00  0.00     0.039 C 
ATOM      9  C   UNL     1      11.142  14.395   1.327  1.00  0.00     0.159 C 
ATOM     10  O   UNL     1      11.631  13.403   1.933  1.00  0.00    -0.295 OA
ATOM     11  C   UNL     1      10.759  15.608   2.125  1.00  0.00     0.084 C 
ENDROOT
TORSDOF 0
ENDMDL
MODEL 6
REMARK VINA RESULT:     1.491      1.520      4.310
REMARK INTER + INTRA:           1.491
REMARK INTER:                   1.491
REMARK INTRA:                   0.000
REMARK UNBOUND:                 0.000
REMARK SMILES CC(C)=C1CC[C@@H](C)CC1=O
REMARK SMILES IDX 8 1 7 2 6 3 5 4 4 5 2 6 1 7 3 8 10 9 11 10 9 11
REMARK H PARENT
REMARK Flexibility Score: inf
ROOT
ATOM      1  C   UNL     1       8.958  17.807  -0.055  1.00  0.00     0.008 C 
ATOM      2  C   UNL     1       8.927  17.508   1.452  1.00  0.00    -0.006 C 
ATOM      3  C   UNL     1      10.289  17.761   2.123  1.00  0.00     0.008 C 
ATOM      4  C   UNL     1      11.380  16.783   1.660  1.00  0.00     0.039 C 
ATOM      5  C   UNL     1      10.935  15.328   1.715  1.00  0.00    -0.006 C 
ATOM      6  C   UNL     1      11.832  14.323   1.939  1.00  0.00    -0.070 C 
ATOM      7  C   UNL     1      11.398  12.879   2.051  1.00  0.00     0.039 C 
ATOM      8  C   UNL     1      13.303  14.613   2.125  1.00  0.00     0.039 C 
ATOM      9  C   UNL     1       9.502  15.062   1.392  1.00  0.00     0.159 C 
ATOM     10  O   UNL     1       9.146  13.998   0.817  1.00  0.00    -0.295 OA
ATOM     11  C   UNL     1       8.451  16.076   1.740  1.00  0.00     0.084 C 
ENDROOT
TORSDOF 0
ENDMDL
MODEL 7
REMARK VINA RESULT:     1.641      1.992      3.309
REMARK INTER + INTRA:           1.641
REMARK INTER:                   1.641
REMARK INTRA:                   0.000
REMARK UNBOUND:                 0.000
REMARK SMILES CC(C)=C1CC[C@@H](C)CC1=O
REMARK SMILES IDX 8 1 7 2 6 3 5 4 4 5 2 6 1 7 3 8 10 9 11 10 9 11
REMARK H PARENT
REMARK Flexibility Score: inf
ROOT
ATOM      1  C   UNL     1      13.348  15.020   2.124  1.00  0.00     0.008 C 
ATOM      2  C   UNL     1      12.406  13.805   2.104  1.00  0.00    -0.006 C 
ATOM      3  C   UNL     1      12.680  12.876   0.908  1.00  0.00     0.008 C 
ATOM      4  C   UNL     1      12.344  13.521  -0.445  1.00  0.00     0.039 C 
ATOM      5  C   UNL     1      10.961  14.157  -0.472  1.00  0.00    -0.006 C 
ATOM      6  C   UNL     1      10.240  14.231  -1.631  1.00  0.00    -0.070 C 
ATOM      7  C   UNL     1       8.844  14.809  -1.663  1.00  0.00     0.039 C 
ATOM      8  C   UNL     1      10.793  13.701  -2.933  1.00  0.00     0.039 C 
ATOM      9  C   UNL     1      10.499  14.792   0.797  1.00  0.00     0.159 C 
ATOM     10  O   UNL     1       9.757  15.811   0.788  1.00  0.00    -0.295 OA
ATOM     11  C   UNL     1      10.929  14.228   2.120  1.00  0.00     0.084 C 
ENDROOT
TORSDOF 0
ENDMDL
