MODEL 1
REMARK VINA RESULT:    -3.013      0.000      0.000
REMARK INTER + INTRA:         -13.537
REMARK INTER:                  -7.592
REMARK INTRA:                  -5.945
REMARK UNBOUND:                -5.945
REMARK SMILES CCCCCCCCCCCCCCCCCCCCCCCCCCCC(=O)[O-]
REMARK SMILES IDX 15 1 16 2 17 3 18 4 19 5 20 6 21 7 22 8 23 9 24 10 25 11
REMARK SMILES IDX 26 12 27 13 28 14 29 15 30 16 14 17 13 18 12 19 11 20 10 21
REMARK SMILES IDX 9 22 8 23 7 24 6 25 5 26 4 27 3 28 2 29 1 30
REMARK H PARENT
REMARK Flexibility Score: inf
ROOT
ATOM      1  C   UNL     1      -3.539  -2.881  33.902  1.00  0.00     0.000 C 
ENDROOT
BRANCH   1   2
ATOM      2  C   UNL     1      -2.580  -1.895  34.593  1.00  0.00     0.000 C 
BRANCH   2   3
ATOM      3  C   UNL     1      -1.575  -2.530  35.571  1.00  0.00     0.000 C 
BRANCH   3   4
ATOM      4  C   UNL     1      -1.272  -1.640  36.787  1.00  0.00     0.000 C 
BRANCH   4   5
ATOM      5  C   UNL     1      -2.531  -0.968  37.368  1.00  0.00     0.000 C 
BRANCH   5   6
ATOM      6  C   UNL     1      -2.321   0.445  37.945  1.00  0.00     0.000 C 
BRANCH   6   7
ATOM      7  C   UNL     1      -0.904   0.992  37.699  1.00  0.00     0.000 C 
BRANCH   7   8
ATOM      8  C   UNL     1      -0.868   2.062  36.597  1.00  0.00     0.000 C 
BRANCH   8   9
ATOM      9  C   UNL     1       0.130   1.732  35.472  1.00  0.00     0.000 C 
BRANCH   9  10
ATOM     10  C   UNL     1      -0.536   1.038  34.271  1.00  0.00     0.000 C 
BRANCH  10  11
ATOM     11  C   UNL     1       0.436   0.127  33.502  1.00  0.00     0.000 C 
BRANCH  11  12
ATOM     12  C   UNL     1       1.719  -0.180  34.299  1.00  0.00     0.006 C 
BRANCH  12  13
ATOM     13  C   UNL     1       1.872  -1.654  34.705  1.00  0.00     0.053 C 
BRANCH  13  14
ATOM     14  C   UNL     1       3.306  -2.026  34.941  1.00  0.00     0.041 C 
ATOM     15  O   UNL     1       3.925  -2.732  34.100  1.00  0.00    -0.550 OA
ATOM     16  O   UNL     1       3.961  -1.580  36.080  1.00  0.00    -0.550 OA
ENDBRANCH  13  14
ENDBRANCH  12  13
ENDBRANCH  11  12
ENDBRANCH  10  11
ENDBRANCH   9  10
ENDBRANCH   8   9
ENDBRANCH   7   8
ENDBRANCH   6   7
ENDBRANCH   5   6
ENDBRANCH   4   5
ENDBRANCH   3   4
ENDBRANCH   2   3
ENDBRANCH   1   2
BRANCH   1  17
ATOM     17  C   UNL     1      -4.983  -2.780  34.419  1.00  0.00     0.000 C 
BRANCH  17  18
ATOM     18  C   UNL     1      -5.151  -3.530  35.750  1.00  0.00     0.000 C 
BRANCH  18  19
ATOM     19  C   UNL     1      -5.752  -2.645  36.864  1.00  0.00     0.000 C 
BRANCH  19  20
ATOM     20  C   UNL     1      -6.094  -1.215  36.410  1.00  0.00     0.000 C 
BRANCH  20  21
ATOM     21  C   UNL     1      -6.926  -0.437  37.442  1.00  0.00     0.000 C 
BRANCH  21  22
ATOM     22  C   UNL     1      -6.224   0.839  37.941  1.00  0.00    -0.000 C 
BRANCH  22  23
ATOM     23  C   UNL     1      -6.288   2.013  36.944  1.00  0.00    -0.000 C 
BRANCH  23  24
ATOM     24  C   UNL     1      -4.934   2.729  36.799  1.00  0.00    -0.000 C 
BRANCH  24  25
ATOM     25  C   UNL     1      -4.389   2.701  35.360  1.00  0.00    -0.000 C 
BRANCH  25  26
ATOM     26  C   UNL     1      -4.112   1.293  34.796  1.00  0.00    -0.000 C 
BRANCH  26  27
ATOM     27  C   UNL     1      -4.566   1.073  33.339  1.00  0.00    -0.000 C 
BRANCH  27  28
ATOM     28  C   UNL     1      -5.997   0.520  33.183  1.00  0.00    -0.000 C 
BRANCH  28  29
ATOM     29  C   UNL     1      -6.994   1.492  32.528  1.00  0.00    -0.003 C 
ATOM     30  C   UNL     1      -7.683   2.410  33.539  1.00  0.00     0.004 C 
ENDBRANCH  28  29
ENDBRANCH  27  28
ENDBRANCH  26  27
ENDBRANCH  25  26
ENDBRANCH  24  25
ENDBRANCH  23  24
ENDBRANCH  22  23
ENDBRANCH  21  22
ENDBRANCH  20  21
ENDBRANCH  19  20
ENDBRANCH  18  19
ENDBRANCH  17  18
ENDBRANCH   1  17
TORSDOF 26
ENDMDL
MODEL 2
REMARK VINA RESULT:    -2.960      3.579      6.432
REMARK INTER + INTRA:         -13.404
REMARK INTER:                  -8.029
REMARK INTRA:                  -5.375
REMARK UNBOUND:                -5.945
REMARK SMILES CCCCCCCCCCCCCCCCCCCCCCCCCCCC(=O)[O-]
REMARK SMILES IDX 15 1 16 2 17 3 18 4 19 5 20 6 21 7 22 8 23 9 24 10 25 11
REMARK SMILES IDX 26 12 27 13 28 14 29 15 30 16 14 17 13 18 12 19 11 20 10 21
REMARK SMILES IDX 9 22 8 23 7 24 6 25 5 26 4 27 3 28 2 29 1 30
REMARK H PARENT
REMARK Flexibility Score: inf
ROOT
ATOM      1  C   UNL     1      -3.882  -3.248  34.721  1.00  0.00     0.000 C 
ENDROOT
BRANCH   1   2
ATOM      2  C   UNL     1      -5.307  -3.281  35.302  1.00  0.00     0.000 C 
BRANCH   2   3
ATOM      3  C   UNL     1      -5.429  -2.839  36.771  1.00  0.00     0.000 C 
BRANCH   3   4
ATOM      4  C   UNL     1      -6.243  -1.546  36.947  1.00  0.00     0.000 C 
BRANCH   4   5
ATOM      5  C   UNL     1      -5.571  -0.539  37.899  1.00  0.00     0.000 C 
BRANCH   5   6
ATOM      6  C   UNL     1      -4.227  -0.992  38.500  1.00  0.00     0.000 C 
BRANCH   6   7
ATOM      7  C   UNL     1      -3.031  -0.162  38.001  1.00  0.00     0.000 C 
BRANCH   7   8
ATOM      8  C   UNL     1      -3.466   1.124  37.281  1.00  0.00     0.000 C 
BRANCH   8   9
ATOM      9  C   UNL     1      -2.524   1.515  36.128  1.00  0.00     0.000 C 
BRANCH   9  10
ATOM     10  C   UNL     1      -3.267   1.717  34.796  1.00  0.00     0.000 C 
BRANCH  10  11
ATOM     11  C   UNL     1      -3.523   0.394  34.056  1.00  0.00     0.000 C 
BRANCH  11  12
ATOM     12  C   UNL     1      -5.024   0.108  33.853  1.00  0.00     0.006 C 
BRANCH  12  13
ATOM     13  C   UNL     1      -5.909   1.365  33.837  1.00  0.00     0.053 C 
BRANCH  13  14
ATOM     14  C   UNL     1      -7.204   1.131  33.116  1.00  0.00     0.041 C 
ATOM     15  O   UNL     1      -7.356   1.547  31.936  1.00  0.00    -0.550 OA
ATOM     16  O   UNL     1      -8.233   0.442  33.742  1.00  0.00    -0.550 OA
ENDBRANCH  13  14
ENDBRANCH  12  13
ENDBRANCH  11  12
ENDBRANCH  10  11
ENDBRANCH   9  10
ENDBRANCH   8   9
ENDBRANCH   7   8
ENDBRANCH   6   7
ENDBRANCH   5   6
ENDBRANCH   4   5
ENDBRANCH   3   4
ENDBRANCH   2   3
ENDBRANCH   1   2
BRANCH   1  17
ATOM     17  C   UNL     1      -2.790  -3.245  35.802  1.00  0.00     0.000 C 
BRANCH  17  18
ATOM     18  C   UNL     1      -1.644  -2.289  35.431  1.00  0.00     0.000 C 
BRANCH  18  19
ATOM     19  C   UNL     1      -0.378  -2.514  36.285  1.00  0.00     0.000 C 
BRANCH  19  20
ATOM     20  C   UNL     1       0.939  -2.270  35.527  1.00  0.00     0.000 C 
BRANCH  20  21
ATOM     21  C   UNL     1       1.784  -1.138  36.133  1.00  0.00     0.000 C 
BRANCH  21  22
ATOM     22  C   UNL     1       1.069   0.224  36.110  1.00  0.00    -0.000 C 
BRANCH  22  23
ATOM     23  C   UNL     1       0.584   0.647  34.708  1.00  0.00    -0.000 C 
BRANCH  23  24
ATOM     24  C   UNL     1       1.601   1.549  33.987  1.00  0.00    -0.000 C 
BRANCH  24  25
ATOM     25  C   UNL     1       2.293   0.849  32.804  1.00  0.00    -0.000 C 
BRANCH  25  26
ATOM     26  C   UNL     1       1.575  -0.412  32.282  1.00  0.00    -0.000 C 
BRANCH  26  27
ATOM     27  C   UNL     1       0.629  -0.177  31.088  1.00  0.00    -0.000 C 
BRANCH  27  28
ATOM     28  C   UNL     1      -0.852   0.028  31.464  1.00  0.00    -0.000 C 
BRANCH  28  29
ATOM     29  C   UNL     1      -1.492   1.302  30.886  1.00  0.00    -0.003 C 
ATOM     30  C   UNL     1      -1.270   2.534  31.765  1.00  0.00     0.004 C 
ENDBRANCH  28  29
ENDBRANCH  27  28
ENDBRANCH  26  27
ENDBRANCH  25  26
ENDBRANCH  24  25
ENDBRANCH  23  24
ENDBRANCH  22  23
ENDBRANCH  21  22
ENDBRANCH  20  21
ENDBRANCH  19  20
ENDBRANCH  18  19
ENDBRANCH  17  18
ENDBRANCH   1  17
TORSDOF 26
ENDMDL
MODEL 3
REMARK VINA RESULT:    -2.952      1.971      3.973
REMARK INTER + INTRA:         -13.384
REMARK INTER:                  -7.224
REMARK INTRA:                  -6.160
REMARK UNBOUND:                -5.945
REMARK SMILES CCCCCCCCCCCCCCCCCCCCCCCCCCCC(=O)[O-]
REMARK SMILES IDX 15 1 16 2 17 3 18 4 19 5 20 6 21 7 22 8 23 9 24 10 25 11
REMARK SMILES IDX 26 12 27 13 28 14 29 15 30 16 14 17 13 18 12 19 11 20 10 21
REMARK SMILES IDX 9 22 8 23 7 24 6 25 5 26 4 27 3 28 2 29 1 30
REMARK H PARENT
REMARK Flexibility Score: inf
ROOT
ATOM      1  C   UNL     1      -1.090  -1.734  35.135  1.00  0.00     0.000 C 
ENDROOT
BRANCH   1   2
ATOM      2  C   UNL     1      -1.461  -2.881  36.092  1.00  0.00     0.000 C 
BRANCH   2   3
ATOM      3  C   UNL     1      -2.898  -3.416  35.952  1.00  0.00     0.000 C 
BRANCH   3   4
ATOM      4  C   UNL     1      -3.518  -3.123  34.575  1.00  0.00     0.000 C 
BRANCH   4   5
ATOM      5  C   UNL     1      -5.030  -2.834  34.648  1.00  0.00     0.000 C 
BRANCH   5   6
ATOM      6  C   UNL     1      -5.460  -1.431  34.177  1.00  0.00     0.000 C 
BRANCH   6   7
ATOM      7  C   UNL     1      -4.293  -0.430  34.121  1.00  0.00     0.000 C 
BRANCH   7   8
ATOM      8  C   UNL     1      -4.267   0.514  35.334  1.00  0.00     0.000 C 
BRANCH   8   9
ATOM      9  C   UNL     1      -3.779   1.931  34.982  1.00  0.00     0.000 C 
BRANCH   9  10
ATOM     10  C   UNL     1      -2.900   1.960  33.719  1.00  0.00     0.000 C 
BRANCH  10  11
ATOM     11  C   UNL     1      -1.515   2.575  33.978  1.00  0.00     0.000 C 
BRANCH  11  12
ATOM     12  C   UNL     1      -0.586   2.484  32.751  1.00  0.00     0.006 C 
BRANCH  12  13
ATOM     13  C   UNL     1       0.651   1.597  32.961  1.00  0.00     0.053 C 
BRANCH  13  14
ATOM     14  C   UNL     1       0.492   0.250  32.321  1.00  0.00     0.041 C 
ATOM     15  O   UNL     1       1.485  -0.519  32.205  1.00  0.00    -0.550 OA
ATOM     16  O   UNL     1      -0.753  -0.162  31.868  1.00  0.00    -0.550 OA
ENDBRANCH  13  14
ENDBRANCH  12  13
ENDBRANCH  11  12
ENDBRANCH  10  11
ENDBRANCH   9  10
ENDBRANCH   8   9
ENDBRANCH   7   8
ENDBRANCH   6   7
ENDBRANCH   5   6
ENDBRANCH   4   5
ENDBRANCH   3   4
ENDBRANCH   2   3
ENDBRANCH   1   2
BRANCH   1  17
ATOM     17  C   UNL     1      -0.692  -0.442  35.868  1.00  0.00     0.000 C 
BRANCH  17  18
ATOM     18  C   UNL     1      -1.215  -0.439  37.313  1.00  0.00     0.000 C 
BRANCH  18  19
ATOM     19  C   UNL     1      -1.574   0.976  37.815  1.00  0.00     0.000 C 
BRANCH  19  20
ATOM     20  C   UNL     1      -2.850   1.030  38.674  1.00  0.00     0.000 C 
BRANCH  20  21
ATOM     21  C   UNL     1      -3.482  -0.351  38.904  1.00  0.00     0.000 C 
BRANCH  21  22
ATOM     22  C   UNL     1      -5.021  -0.321  38.873  1.00  0.00    -0.000 C 
BRANCH  22  23
ATOM     23  C   UNL     1      -5.648  -1.467  38.054  1.00  0.00    -0.000 C 
BRANCH  23  24
ATOM     24  C   UNL     1      -6.977  -1.055  37.397  1.00  0.00    -0.000 C 
BRANCH  24  25
ATOM     25  C   UNL     1      -7.318   0.430  37.611  1.00  0.00    -0.000 C 
BRANCH  25  26
ATOM     26  C   UNL     1      -7.494   1.251  36.317  1.00  0.00    -0.000 C 
BRANCH  26  27
ATOM     27  C   UNL     1      -8.636   0.780  35.395  1.00  0.00    -0.000 C 
BRANCH  27  28
ATOM     28  C   UNL     1      -8.324   0.856  33.887  1.00  0.00    -0.000 C 
BRANCH  28  29
ATOM     29  C   UNL     1      -7.243   1.881  33.505  1.00  0.00    -0.003 C 
ATOM     30  C   UNL     1      -6.620   1.609  32.135  1.00  0.00     0.004 C 
ENDBRANCH  28  29
ENDBRANCH  27  28
ENDBRANCH  26  27
ENDBRANCH  25  26
ENDBRANCH  24  25
ENDBRANCH  23  24
ENDBRANCH  22  23
ENDBRANCH  21  22
ENDBRANCH  20  21
ENDBRANCH  19  20
ENDBRANCH  18  19
ENDBRANCH  17  18
ENDBRANCH   1  17
TORSDOF 26
ENDMDL
MODEL 4
REMARK VINA RESULT:    -2.941      3.331      6.773
REMARK INTER + INTRA:         -13.356
REMARK INTER:                  -7.880
REMARK INTRA:                  -5.476
REMARK UNBOUND:                -5.945
REMARK SMILES CCCCCCCCCCCCCCCCCCCCCCCCCCCC(=O)[O-]
REMARK SMILES IDX 15 1 16 2 17 3 18 4 19 5 20 6 21 7 22 8 23 9 24 10 25 11
REMARK SMILES IDX 26 12 27 13 28 14 29 15 30 16 14 17 13 18 12 19 11 20 10 21
REMARK SMILES IDX 9 22 8 23 7 24 6 25 5 26 4 27 3 28 2 29 1 30
REMARK H PARENT
REMARK Flexibility Score: inf
ROOT
ATOM      1  C   UNL     1      -0.919  -1.812  35.381  1.00  0.00     0.000 C 
ENDROOT
BRANCH   1   2
ATOM      2  C   UNL     1      -2.269  -2.534  35.221  1.00  0.00     0.000 C 
BRANCH   2   3
ATOM      3  C   UNL     1      -3.110  -2.095  34.009  1.00  0.00     0.000 C 
BRANCH   3   4
ATOM      4  C   UNL     1      -4.624  -2.216  34.250  1.00  0.00     0.000 C 
BRANCH   4   5
ATOM      5  C   UNL     1      -4.986  -3.337  35.243  1.00  0.00     0.000 C 
BRANCH   5   6
ATOM      6  C   UNL     1      -5.731  -2.882  36.512  1.00  0.00     0.000 C 
BRANCH   6   7
ATOM      7  C   UNL     1      -5.635  -1.366  36.757  1.00  0.00     0.000 C 
BRANCH   7   8
ATOM      8  C   UNL     1      -4.499  -0.995  37.723  1.00  0.00     0.000 C 
BRANCH   8   9
ATOM      9  C   UNL     1      -3.737   0.273  37.296  1.00  0.00     0.000 C 
BRANCH   9  10
ATOM     10  C   UNL     1      -4.495   1.093  36.238  1.00  0.00     0.000 C 
BRANCH  10  11
ATOM     11  C   UNL     1      -3.643   1.379  34.990  1.00  0.00     0.000 C 
BRANCH  11  12
ATOM     12  C   UNL     1      -4.410   2.177  33.917  1.00  0.00     0.006 C 
BRANCH  12  13
ATOM     13  C   UNL     1      -4.752   1.370  32.655  1.00  0.00     0.053 C 
BRANCH  13  14
ATOM     14  C   UNL     1      -6.224   1.108  32.538  1.00  0.00     0.041 C 
ATOM     15  O   UNL     1      -6.878   1.582  31.570  1.00  0.00    -0.550 OA
ATOM     16  O   UNL     1      -6.868   0.327  33.487  1.00  0.00    -0.550 OA
ENDBRANCH  13  14
ENDBRANCH  12  13
ENDBRANCH  11  12
ENDBRANCH  10  11
ENDBRANCH   9  10
ENDBRANCH   8   9
ENDBRANCH   7   8
ENDBRANCH   6   7
ENDBRANCH   5   6
ENDBRANCH   4   5
ENDBRANCH   3   4
ENDBRANCH   2   3
ENDBRANCH   1   2
BRANCH   1  17
ATOM     17  C   UNL     1       0.110  -2.628  36.180  1.00  0.00     0.000 C 
BRANCH  17  18
ATOM     18  C   UNL     1       1.451  -2.714  35.433  1.00  0.00     0.000 C 
BRANCH  18  19
ATOM     19  C   UNL     1       1.727  -1.475  34.555  1.00  0.00     0.000 C 
BRANCH  19  20
ATOM     20  C   UNL     1       2.946  -0.649  35.003  1.00  0.00     0.000 C 
BRANCH  20  21
ATOM     21  C   UNL     1       2.811  -0.101  36.432  1.00  0.00     0.000 C 
BRANCH  21  22
ATOM     22  C   UNL     1       2.113   1.270  36.488  1.00  0.00    -0.000 C 
BRANCH  22  23
ATOM     23  C   UNL     1       0.591   1.182  36.728  1.00  0.00    -0.000 C 
BRANCH  23  24
ATOM     24  C   UNL     1      -0.213   1.925  35.646  1.00  0.00    -0.000 C 
BRANCH  24  25
ATOM     25  C   UNL     1       0.667   2.458  34.502  1.00  0.00    -0.000 C 
BRANCH  25  26
ATOM     26  C   UNL     1       0.568   1.669  33.181  1.00  0.00    -0.000 C 
BRANCH  26  27
ATOM     27  C   UNL     1      -0.725   0.846  33.008  1.00  0.00    -0.000 C 
BRANCH  27  28
ATOM     28  C   UNL     1      -0.858   0.126  31.651  1.00  0.00    -0.000 C 
BRANCH  28  29
ATOM     29  C   UNL     1       0.268   0.432  30.648  1.00  0.00    -0.003 C 
ATOM     30  C   UNL     1       1.346  -0.652  30.613  1.00  0.00     0.004 C 
ENDBRANCH  28  29
ENDBRANCH  27  28
ENDBRANCH  26  27
ENDBRANCH  25  26
ENDBRANCH  24  25
ENDBRANCH  23  24
ENDBRANCH  22  23
ENDBRANCH  21  22
ENDBRANCH  20  21
ENDBRANCH  19  20
ENDBRANCH  18  19
ENDBRANCH  17  18
ENDBRANCH   1  17
TORSDOF 26
ENDMDL
MODEL 5
REMARK VINA RESULT:    -2.941      1.550      3.454
REMARK INTER + INTRA:         -13.355
REMARK INTER:                  -7.802
REMARK INTRA:                  -5.553
REMARK UNBOUND:                -5.945
REMARK SMILES CCCCCCCCCCCCCCCCCCCCCCCCCCCC(=O)[O-]
REMARK SMILES IDX 15 1 16 2 17 3 18 4 19 5 20 6 21 7 22 8 23 9 24 10 25 11
REMARK SMILES IDX 26 12 27 13 28 14 29 15 30 16 14 17 13 18 12 19 11 20 10 21
REMARK SMILES IDX 9 22 8 23 7 24 6 25 5 26 4 27 3 28 2 29 1 30
REMARK H PARENT
REMARK Flexibility Score: inf
ROOT
ATOM      1  C   UNL     1      -4.994  -3.239  35.527  1.00  0.00     0.000 C 
ENDROOT
BRANCH   1   2
ATOM      2  C   UNL     1      -5.751  -2.888  36.820  1.00  0.00     0.000 C 
BRANCH   2   3
ATOM      3  C   UNL     1      -6.296  -1.450  36.895  1.00  0.00     0.000 C 
BRANCH   3   4
ATOM      4  C   UNL     1      -6.064  -0.787  38.263  1.00  0.00     0.000 C 
BRANCH   4   5
ATOM      5  C   UNL     1      -4.799  -1.305  38.974  1.00  0.00     0.000 C 
BRANCH   5   6
ATOM      6  C   UNL     1      -3.545  -0.423  38.819  1.00  0.00     0.000 C 
BRANCH   6   7
ATOM      7  C   UNL     1      -3.857   0.980  38.270  1.00  0.00     0.000 C 
BRANCH   7   8
ATOM      8  C   UNL     1      -2.597   1.726  37.807  1.00  0.00     0.000 C 
BRANCH   8   9
ATOM      9  C   UNL     1      -1.295   0.980  38.154  1.00  0.00     0.000 C 
BRANCH   9  10
ATOM     10  C   UNL     1      -0.627   0.346  36.922  1.00  0.00     0.000 C 
BRANCH  10  11
ATOM     11  C   UNL     1       0.725   0.996  36.583  1.00  0.00     0.000 C 
BRANCH  11  12
ATOM     12  C   UNL     1       1.596   0.112  35.669  1.00  0.00     0.006 C 
BRANCH  12  13
ATOM     13  C   UNL     1       0.829  -1.020  34.968  1.00  0.00     0.053 C 
BRANCH  13  14
ATOM     14  C   UNL     1       1.403  -2.369  35.286  1.00  0.00     0.041 C 
ATOM     15  O   UNL     1       0.791  -3.152  36.060  1.00  0.00    -0.550 OA
ATOM     16  O   UNL     1       2.604  -2.764  34.715  1.00  0.00    -0.550 OA
ENDBRANCH  13  14
ENDBRANCH  12  13
ENDBRANCH  11  12
ENDBRANCH  10  11
ENDBRANCH   9  10
ENDBRANCH   8   9
ENDBRANCH   7   8
ENDBRANCH   6   7
ENDBRANCH   5   6
ENDBRANCH   4   5
ENDBRANCH   3   4
ENDBRANCH   2   3
ENDBRANCH   1   2
BRANCH   1  17
ATOM     17  C   UNL     1      -3.531  -3.640  35.775  1.00  0.00     0.000 C 
BRANCH  17  18
ATOM     18  C   UNL     1      -2.600  -2.419  35.700  1.00  0.00     0.000 C 
BRANCH  18  19
ATOM     19  C   UNL     1      -2.775  -1.612  34.395  1.00  0.00     0.000 C 
BRANCH  19  20
ATOM     20  C   UNL     1      -3.242  -0.162  34.615  1.00  0.00     0.000 C 
BRANCH  20  21
ATOM     21  C   UNL     1      -2.510   0.850  33.719  1.00  0.00     0.000 C 
BRANCH  21  22
ATOM     22  C   UNL     1      -2.740   2.310  34.149  1.00  0.00    -0.000 C 
BRANCH  22  23
ATOM     23  C   UNL     1      -3.624   3.113  33.172  1.00  0.00    -0.000 C 
BRANCH  23  24
ATOM     24  C   UNL     1      -4.252   2.221  32.088  1.00  0.00    -0.000 C 
BRANCH  24  25
ATOM     25  C   UNL     1      -5.661   2.681  31.673  1.00  0.00    -0.000 C 
BRANCH  25  26
ATOM     26  C   UNL     1      -6.795   1.690  32.007  1.00  0.00    -0.000 C 
BRANCH  26  27
ATOM     27  C   UNL     1      -6.499   0.729  33.175  1.00  0.00    -0.000 C 
BRANCH  27  28
ATOM     28  C   UNL     1      -7.143   1.125  34.519  1.00  0.00    -0.000 C 
BRANCH  28  29
ATOM     29  C   UNL     1      -6.202   1.857  35.492  1.00  0.00    -0.003 C 
ATOM     30  C   UNL     1      -6.944   2.539  36.642  1.00  0.00     0.004 C 
ENDBRANCH  28  29
ENDBRANCH  27  28
ENDBRANCH  26  27
ENDBRANCH  25  26
ENDBRANCH  24  25
ENDBRANCH  23  24
ENDBRANCH  22  23
ENDBRANCH  21  22
ENDBRANCH  20  21
ENDBRANCH  19  20
ENDBRANCH  18  19
ENDBRANCH  17  18
ENDBRANCH   1  17
TORSDOF 26
ENDMDL
MODEL 6
REMARK VINA RESULT:    -2.933      2.357      4.969
REMARK INTER + INTRA:         -13.336
REMARK INTER:                  -8.020
REMARK INTRA:                  -5.316
REMARK UNBOUND:                -5.945
REMARK SMILES CCCCCCCCCCCCCCCCCCCCCCCCCCCC(=O)[O-]
REMARK SMILES IDX 15 1 16 2 17 3 18 4 19 5 20 6 21 7 22 8 23 9 24 10 25 11
REMARK SMILES IDX 26 12 27 13 28 14 29 15 30 16 14 17 13 18 12 19 11 20 10 21
REMARK SMILES IDX 9 22 8 23 7 24 6 25 5 26 4 27 3 28 2 29 1 30
REMARK H PARENT
REMARK Flexibility Score: inf
ROOT
ATOM      1  C   UNL     1      -3.333   1.027  33.721  1.00  0.00     0.000 C 
ENDROOT
BRANCH   1   2
ATOM      2  C   UNL     1      -4.027  -0.030  34.599  1.00  0.00     0.000 C 
BRANCH   2   3
ATOM      3  C   UNL     1      -3.677  -1.493  34.269  1.00  0.00     0.000 C 
BRANCH   3   4
ATOM      4  C   UNL     1      -4.890  -2.434  34.342  1.00  0.00     0.000 C 
BRANCH   4   5
ATOM      5  C   UNL     1      -4.794  -3.447  35.499  1.00  0.00     0.000 C 
BRANCH   5   6
ATOM      6  C   UNL     1      -4.893  -2.846  36.915  1.00  0.00     0.000 C 
BRANCH   6   7
ATOM      7  C   UNL     1      -6.184  -2.040  37.140  1.00  0.00     0.000 C 
BRANCH   7   8
ATOM      8  C   UNL     1      -5.978  -0.850  38.089  1.00  0.00     0.000 C 
BRANCH   8   9
ATOM      9  C   UNL     1      -4.515  -0.689  38.543  1.00  0.00     0.000 C 
BRANCH   9  10
ATOM     10  C   UNL     1      -3.906   0.658  38.119  1.00  0.00     0.000 C 
BRANCH  10  11
ATOM     11  C   UNL     1      -2.385   0.578  37.905  1.00  0.00     0.000 C 
BRANCH  11  12
ATOM     12  C   UNL     1      -1.906  -0.848  37.570  1.00  0.00     0.006 C 
BRANCH  12  13
ATOM     13  C   UNL     1      -0.783  -0.906  36.523  1.00  0.00     0.053 C 
BRANCH  13  14
ATOM     14  C   UNL     1      -0.427  -2.317  36.159  1.00  0.00     0.041 C 
ATOM     15  O   UNL     1      -1.292  -3.230  36.237  1.00  0.00    -0.550 OA
ATOM     16  O   UNL     1       0.855  -2.619  35.720  1.00  0.00    -0.550 OA
ENDBRANCH  13  14
ENDBRANCH  12  13
ENDBRANCH  11  12
ENDBRANCH  10  11
ENDBRANCH   9  10
ENDBRANCH   8   9
ENDBRANCH   7   8
ENDBRANCH   6   7
ENDBRANCH   5   6
ENDBRANCH   4   5
ENDBRANCH   3   4
ENDBRANCH   2   3
ENDBRANCH   1   2
BRANCH   1  17
ATOM     17  C   UNL     1      -4.129   2.337  33.611  1.00  0.00     0.000 C 
BRANCH  17  18
ATOM     18  C   UNL     1      -4.690   2.529  32.193  1.00  0.00     0.000 C 
BRANCH  18  19
ATOM     19  C   UNL     1      -5.819   1.531  31.856  1.00  0.00     0.000 C 
BRANCH  19  20
ATOM     20  C   UNL     1      -7.113   1.756  32.657  1.00  0.00     0.000 C 
BRANCH  20  21
ATOM     21  C   UNL     1      -7.574   0.507  33.423  1.00  0.00     0.000 C 
BRANCH  21  22
ATOM     22  C   UNL     1      -7.368   0.623  34.944  1.00  0.00    -0.000 C 
BRANCH  22  23
ATOM     23  C   UNL     1      -7.349   2.078  35.458  1.00  0.00    -0.000 C 
BRANCH  23  24
ATOM     24  C   UNL     1      -7.541   2.160  36.982  1.00  0.00    -0.000 C 
BRANCH  24  25
ATOM     25  C   UNL     1      -9.015   2.324  37.394  1.00  0.00    -0.000 C 
BRANCH  25  26
ATOM     26  C   UNL     1      -9.597   1.154  38.212  1.00  0.00    -0.000 C 
BRANCH  26  27
ATOM     27  C   UNL     1      -9.624  -0.204  37.481  1.00  0.00    -0.000 C 
BRANCH  27  28
ATOM     28  C   UNL     1     -10.986  -0.928  37.508  1.00  0.00    -0.000 C 
BRANCH  28  29
ATOM     29  C   UNL     1     -11.729  -0.950  36.162  1.00  0.00    -0.003 C 
ATOM     30  C   UNL     1     -11.101  -0.026  35.118  1.00  0.00     0.004 C 
ENDBRANCH  28  29
ENDBRANCH  27  28
ENDBRANCH  26  27
ENDBRANCH  25  26
ENDBRANCH  24  25
ENDBRANCH  23  24
ENDBRANCH  22  23
ENDBRANCH  21  22
ENDBRANCH  20  21
ENDBRANCH  19  20
ENDBRANCH  18  19
ENDBRANCH  17  18
ENDBRANCH   1  17
TORSDOF 26
ENDMDL
MODEL 7
REMARK VINA RESULT:    -2.926      1.809      3.239
REMARK INTER + INTRA:         -13.317
REMARK INTER:                  -8.070
REMARK INTRA:                  -5.247
REMARK UNBOUND:                -5.945
REMARK SMILES CCCCCCCCCCCCCCCCCCCCCCCCCCCC(=O)[O-]
REMARK SMILES IDX 15 1 16 2 17 3 18 4 19 5 20 6 21 7 22 8 23 9 24 10 25 11
REMARK SMILES IDX 26 12 27 13 28 14 29 15 30 16 14 17 13 18 12 19 11 20 10 21
REMARK SMILES IDX 9 22 8 23 7 24 6 25 5 26 4 27 3 28 2 29 1 30
REMARK H PARENT
REMARK Flexibility Score: inf
ROOT
ATOM      1  C   UNL     1      -3.280  -2.447  34.248  1.00  0.00     0.000 C 
ENDROOT
BRANCH   1   2
ATOM      2  C   UNL     1      -1.966  -2.021  34.927  1.00  0.00     0.000 C 
BRANCH   2   3
ATOM      3  C   UNL     1      -1.569  -2.844  36.166  1.00  0.00     0.000 C 
BRANCH   3   4
ATOM      4  C   UNL     1      -0.067  -2.763  36.488  1.00  0.00     0.000 C 
BRANCH   4   5
ATOM      5  C   UNL     1       0.754  -2.110  35.360  1.00  0.00     0.000 C 
BRANCH   5   6
ATOM      6  C   UNL     1       2.146  -2.722  35.114  1.00  0.00     0.000 C 
BRANCH   6   7
ATOM      7  C   UNL     1       3.288  -1.701  35.253  1.00  0.00     0.000 C 
BRANCH   7   8
ATOM      8  C   UNL     1       3.004  -0.643  36.330  1.00  0.00     0.000 C 
BRANCH   8   9
ATOM      9  C   UNL     1       3.038   0.796  35.782  1.00  0.00     0.000 C 
BRANCH   9  10
ATOM     10  C   UNL     1       1.975   1.702  36.428  1.00  0.00     0.000 C 
BRANCH  10  11
ATOM     11  C   UNL     1       0.579   1.507  35.812  1.00  0.00     0.000 C 
BRANCH  11  12
ATOM     12  C   UNL     1       0.558   1.768  34.293  1.00  0.00     0.006 C 
BRANCH  12  13
ATOM     13  C   UNL     1      -0.480   0.935  33.525  1.00  0.00     0.053 C 
BRANCH  13  14
ATOM     14  C   UNL     1       0.145   0.145  32.413  1.00  0.00     0.041 C 
ATOM     15  O   UNL     1      -0.535  -0.175  31.402  1.00  0.00    -0.550 OA
ATOM     16  O   UNL     1       1.481  -0.223  32.488  1.00  0.00    -0.550 OA
ENDBRANCH  13  14
ENDBRANCH  12  13
ENDBRANCH  11  12
ENDBRANCH  10  11
ENDBRANCH   9  10
ENDBRANCH   8   9
ENDBRANCH   7   8
ENDBRANCH   6   7
ENDBRANCH   5   6
ENDBRANCH   4   5
ENDBRANCH   3   4
ENDBRANCH   2   3
ENDBRANCH   1   2
BRANCH   1  17
ATOM     17  C   UNL     1      -3.971  -3.623  34.956  1.00  0.00     0.000 C 
BRANCH  17  18
ATOM     18  C   UNL     1      -5.380  -3.235  35.433  1.00  0.00     0.000 C 
BRANCH  18  19
ATOM     19  C   UNL     1      -5.397  -2.724  36.890  1.00  0.00     0.000 C 
BRANCH  19  20
ATOM     20  C   UNL     1      -6.214  -1.436  37.092  1.00  0.00     0.000 C 
BRANCH  20  21
ATOM     21  C   UNL     1      -5.787  -0.638  38.334  1.00  0.00     0.000 C 
BRANCH  21  22
ATOM     22  C   UNL     1      -4.590  -1.266  39.069  1.00  0.00    -0.000 C 
BRANCH  22  23
ATOM     23  C   UNL     1      -3.233  -0.632  38.701  1.00  0.00    -0.000 C 
BRANCH  23  24
ATOM     24  C   UNL     1      -3.199   0.879  38.987  1.00  0.00    -0.000 C 
BRANCH  24  25
ATOM     25  C   UNL     1      -2.776   1.714  37.765  1.00  0.00    -0.000 C 
BRANCH  25  26
ATOM     26  C   UNL     1      -2.931   1.003  36.406  1.00  0.00    -0.000 C 
BRANCH  26  27
ATOM     27  C   UNL     1      -3.669   1.817  35.324  1.00  0.00    -0.000 C 
BRANCH  27  28
ATOM     28  C   UNL     1      -5.114   1.359  35.041  1.00  0.00    -0.000 C 
BRANCH  28  29
ATOM     29  C   UNL     1      -5.308   0.638  33.696  1.00  0.00    -0.003 C 
ATOM     30  C   UNL     1      -6.590  -0.193  33.644  1.00  0.00     0.004 C 
ENDBRANCH  28  29
ENDBRANCH  27  28
ENDBRANCH  26  27
ENDBRANCH  25  26
ENDBRANCH  24  25
ENDBRANCH  23  24
ENDBRANCH  22  23
ENDBRANCH  21  22
ENDBRANCH  20  21
ENDBRANCH  19  20
ENDBRANCH  18  19
ENDBRANCH  17  18
ENDBRANCH   1  17
TORSDOF 26
ENDMDL
MODEL 8
REMARK VINA RESULT:    -2.922      5.021      9.037
REMARK INTER + INTRA:         -13.307
REMARK INTER:                  -7.850
REMARK INTRA:                  -5.457
REMARK UNBOUND:                -5.945
REMARK SMILES CCCCCCCCCCCCCCCCCCCCCCCCCCCC(=O)[O-]
REMARK SMILES IDX 15 1 16 2 17 3 18 4 19 5 20 6 21 7 22 8 23 9 24 10 25 11
REMARK SMILES IDX 26 12 27 13 28 14 29 15 30 16 14 17 13 18 12 19 11 20 10 21
REMARK SMILES IDX 9 22 8 23 7 24 6 25 5 26 4 27 3 28 2 29 1 30
REMARK H PARENT
REMARK Flexibility Score: inf
ROOT
ATOM      1  C   UNL     1      -7.045   0.213  34.088  1.00  0.00     0.000 C 
ENDROOT
BRANCH   1   2
ATOM      2  C   UNL     1      -8.174   1.158  33.640  1.00  0.00     0.000 C 
BRANCH   2   3
ATOM      3  C   UNL     1      -8.651   2.164  34.703  1.00  0.00     0.000 C 
BRANCH   3   4
ATOM      4  C   UNL     1      -7.733   2.219  35.936  1.00  0.00     0.000 C 
BRANCH   4   5
ATOM      5  C   UNL     1      -8.511   2.357  37.258  1.00  0.00     0.000 C 
BRANCH   5   6
ATOM      6  C   UNL     1      -8.505   1.110  38.163  1.00  0.00     0.000 C 
BRANCH   6   7
ATOM      7  C   UNL     1      -8.713  -0.202  37.386  1.00  0.00     0.000 C 
BRANCH   7   8
ATOM      8  C   UNL     1     -10.155  -0.723  37.485  1.00  0.00     0.000 C 
BRANCH   8   9
ATOM      9  C   UNL     1     -11.163   0.149  36.714  1.00  0.00     0.000 C 
BRANCH   9  10
ATOM     10  C   UNL     1     -11.490  -0.412  35.320  1.00  0.00     0.000 C 
BRANCH  10  11
ATOM     11  C   UNL     1     -12.604   0.377  34.611  1.00  0.00     0.000 C 
BRANCH  11  12
ATOM     12  C   UNL     1     -12.203   1.836  34.316  1.00  0.00     0.006 C 
BRANCH  12  13
ATOM     13  C   UNL     1     -12.587   2.324  32.911  1.00  0.00     0.053 C 
BRANCH  13  14
ATOM     14  C   UNL     1     -12.349   1.274  31.867  1.00  0.00     0.041 C 
ATOM     15  O   UNL     1     -13.318   0.790  31.222  1.00  0.00    -0.550 OA
ATOM     16  O   UNL     1     -11.058   0.844  31.596  1.00  0.00    -0.550 OA
ENDBRANCH  13  14
ENDBRANCH  12  13
ENDBRANCH  11  12
ENDBRANCH  10  11
ENDBRANCH   9  10
ENDBRANCH   8   9
ENDBRANCH   7   8
ENDBRANCH   6   7
ENDBRANCH   5   6
ENDBRANCH   4   5
ENDBRANCH   3   4
ENDBRANCH   2   3
ENDBRANCH   1   2
BRANCH   1  17
ATOM     17  C   UNL     1      -5.812   0.269  33.172  1.00  0.00     0.000 C 
BRANCH  17  18
ATOM     18  C   UNL     1      -4.837   1.369  33.621  1.00  0.00     0.000 C 
BRANCH  18  19
ATOM     19  C   UNL     1      -3.899   0.910  34.758  1.00  0.00     0.000 C 
BRANCH  19  20
ATOM     20  C   UNL     1      -3.722   1.948  35.880  1.00  0.00     0.000 C 
BRANCH  20  21
ATOM     21  C   UNL     1      -4.241   1.461  37.242  1.00  0.00     0.000 C 
BRANCH  21  22
ATOM     22  C   UNL     1      -5.008   0.129  37.151  1.00  0.00    -0.000 C 
BRANCH  22  23
ATOM     23  C   UNL     1      -4.717  -0.836  38.319  1.00  0.00    -0.000 C 
BRANCH  23  24
ATOM     24  C   UNL     1      -5.022  -2.299  37.956  1.00  0.00    -0.000 C 
BRANCH  24  25
ATOM     25  C   UNL     1      -5.743  -2.446  36.604  1.00  0.00    -0.000 C 
BRANCH  25  26
ATOM     26  C   UNL     1      -5.105  -3.459  35.632  1.00  0.00    -0.000 C 
BRANCH  26  27
ATOM     27  C   UNL     1      -4.625  -2.866  34.292  1.00  0.00    -0.000 C 
BRANCH  27  28
ATOM     28  C   UNL     1      -3.124  -2.519  34.238  1.00  0.00    -0.000 C 
BRANCH  28  29
ATOM     29  C   UNL     1      -2.332  -2.888  35.504  1.00  0.00    -0.003 C 
ATOM     30  C   UNL     1      -1.805  -1.665  36.256  1.00  0.00     0.004 C 
ENDBRANCH  28  29
ENDBRANCH  27  28
ENDBRANCH  26  27
ENDBRANCH  25  26
ENDBRANCH  24  25
ENDBRANCH  23  24
ENDBRANCH  22  23
ENDBRANCH  21  22
ENDBRANCH  20  21
ENDBRANCH  19  20
ENDBRANCH  18  19
ENDBRANCH  17  18
ENDBRANCH   1  17
TORSDOF 26
ENDMDL
MODEL 9
REMARK VINA RESULT:    -2.878      3.712      7.451
REMARK INTER + INTRA:         -13.197
REMARK INTER:                  -7.859
REMARK INTRA:                  -5.338
REMARK UNBOUND:                -5.945
REMARK SMILES CCCCCCCCCCCCCCCCCCCCCCCCCCCC(=O)[O-]
REMARK SMILES IDX 15 1 16 2 17 3 18 4 19 5 20 6 21 7 22 8 23 9 24 10 25 11
REMARK SMILES IDX 26 12 27 13 28 14 29 15 30 16 14 17 13 18 12 19 11 20 10 21
REMARK SMILES IDX 9 22 8 23 7 24 6 25 5 26 4 27 3 28 2 29 1 30
REMARK H PARENT
REMARK Flexibility Score: inf
ROOT
ATOM      1  C   UNL     1      -2.448  -2.237  34.642  1.00  0.00     0.000 C 
ENDROOT
BRANCH   1   2
ATOM      2  C   UNL     1      -3.541  -3.093  33.978  1.00  0.00     0.000 C 
BRANCH   2   3
ATOM      3  C   UNL     1      -4.986  -2.731  34.365  1.00  0.00     0.000 C 
BRANCH   3   4
ATOM      4  C   UNL     1      -5.370  -3.209  35.776  1.00  0.00     0.000 C 
BRANCH   4   5
ATOM      5  C   UNL     1      -5.756  -2.051  36.717  1.00  0.00     0.000 C 
BRANCH   5   6
ATOM      6  C   UNL     1      -4.969  -1.983  38.039  1.00  0.00     0.000 C 
BRANCH   6   7
ATOM      7  C   UNL     1      -3.856  -0.920  38.025  1.00  0.00     0.000 C 
BRANCH   7   8
ATOM      8  C   UNL     1      -4.193   0.275  37.121  1.00  0.00     0.000 C 
BRANCH   8   9
ATOM      9  C   UNL     1      -2.995   0.746  36.276  1.00  0.00     0.000 C 
BRANCH   9  10
ATOM     10  C   UNL     1      -3.416   1.630  35.089  1.00  0.00     0.000 C 
BRANCH  10  11
ATOM     11  C   UNL     1      -4.261   0.868  34.055  1.00  0.00     0.000 C 
BRANCH  11  12
ATOM     12  C   UNL     1      -5.681   1.450  33.903  1.00  0.00     0.006 C 
BRANCH  12  13
ATOM     13  C   UNL     1      -6.807   0.417  34.067  1.00  0.00     0.053 C 
BRANCH  13  14
ATOM     14  C   UNL     1      -8.090   0.882  33.446  1.00  0.00     0.041 C 
ATOM     15  O   UNL     1      -8.071   1.602  32.412  1.00  0.00    -0.550 OA
ATOM     16  O   UNL     1      -9.306   0.507  34.000  1.00  0.00    -0.550 OA
ENDBRANCH  13  14
ENDBRANCH  12  13
ENDBRANCH  11  12
ENDBRANCH  10  11
ENDBRANCH   9  10
ENDBRANCH   8   9
ENDBRANCH   7   8
ENDBRANCH   6   7
ENDBRANCH   5   6
ENDBRANCH   4   5
ENDBRANCH   3   4
ENDBRANCH   2   3
ENDBRANCH   1   2
BRANCH   1  17
ATOM     17  C   UNL     1      -1.805  -2.918  35.861  1.00  0.00     0.000 C 
BRANCH  17  18
ATOM     18  C   UNL     1      -0.621  -2.097  36.396  1.00  0.00     0.000 C 
BRANCH  18  19
ATOM     19  C   UNL     1       0.699  -2.399  35.655  1.00  0.00     0.000 C 
BRANCH  19  20
ATOM     20  C   UNL     1       1.876  -1.505  36.085  1.00  0.00     0.000 C 
BRANCH  20  21
ATOM     21  C   UNL     1       3.172  -1.801  35.312  1.00  0.00     0.000 C 
BRANCH  21  22
ATOM     22  C   UNL     1       2.916  -2.322  33.887  1.00  0.00    -0.000 C 
BRANCH  22  23
ATOM     23  C   UNL     1       3.987  -1.887  32.866  1.00  0.00    -0.000 C 
BRANCH  23  24
ATOM     24  C   UNL     1       3.501  -0.737  31.967  1.00  0.00    -0.000 C 
BRANCH  24  25
ATOM     25  C   UNL     1       3.644   0.645  32.629  1.00  0.00    -0.000 C 
BRANCH  25  26
ATOM     26  C   UNL     1       2.354   1.489  32.660  1.00  0.00    -0.000 C 
BRANCH  26  27
ATOM     27  C   UNL     1       1.644   1.546  34.028  1.00  0.00    -0.000 C 
BRANCH  27  28
ATOM     28  C   UNL     1       0.189   1.036  34.025  1.00  0.00    -0.000 C 
BRANCH  28  29
ATOM     29  C   UNL     1      -0.121  -0.015  32.946  1.00  0.00    -0.003 C 
ATOM     30  C   UNL     1      -1.228   0.423  31.987  1.00  0.00     0.004 C 
ENDBRANCH  28  29
ENDBRANCH  27  28
ENDBRANCH  26  27
ENDBRANCH  25  26
ENDBRANCH  24  25
ENDBRANCH  23  24
ENDBRANCH  22  23
ENDBRANCH  21  22
ENDBRANCH  20  21
ENDBRANCH  19  20
ENDBRANCH  18  19
ENDBRANCH  17  18
ENDBRANCH   1  17
TORSDOF 26
ENDMDL
