MODEL 1
REMARK VINA RESULT:    -4.846      0.000      0.000
REMARK INTER + INTRA:         -16.354
REMARK INTER:                 -12.212
REMARK INTRA:                  -4.142
REMARK UNBOUND:                -4.142
REMARK SMILES CCCCCCCCCCCCCCCCCCCCCCCCCCCC(=O)[O-]
REMARK SMILES IDX 15 1 16 2 17 3 18 4 19 5 20 6 21 7 22 8 23 9 24 10 25 11
REMARK SMILES IDX 26 12 27 13 28 14 29 15 30 16 14 17 13 18 12 19 11 20 10 21
REMARK SMILES IDX 9 22 8 23 7 24 6 25 5 26 4 27 3 28 2 29 1 30
REMARK H PARENT
REMARK Flexibility Score: inf
ROOT
ATOM      1  C   UNL     1     -51.833  10.753 -32.328  1.00  0.00     0.000 C 
ENDROOT
BRANCH   1   2
ATOM      2  C   UNL     1     -52.589  11.700 -31.385  1.00  0.00     0.000 C 
BRANCH   2   3
ATOM      3  C   UNL     1     -52.931  11.051 -30.034  1.00  0.00     0.000 C 
BRANCH   3   4
ATOM      4  C   UNL     1     -53.767  11.969 -29.129  1.00  0.00     0.000 C 
BRANCH   4   5
ATOM      5  C   UNL     1     -53.531  13.446 -29.461  1.00  0.00     0.000 C 
BRANCH   5   6
ATOM      6  C   UNL     1     -53.535  14.302 -28.185  1.00  0.00     0.000 C 
BRANCH   6   7
ATOM      7  C   UNL     1     -52.553  15.481 -28.251  1.00  0.00     0.000 C 
BRANCH   7   8
ATOM      8  C   UNL     1     -52.609  16.378 -27.002  1.00  0.00     0.000 C 
BRANCH   8   9
ATOM      9  C   UNL     1     -52.923  17.839 -27.359  1.00  0.00     0.000 C 
BRANCH   9  10
ATOM     10  C   UNL     1     -53.925  17.951 -28.522  1.00  0.00     0.000 C 
BRANCH  10  11
ATOM     11  C   UNL     1     -53.673  19.196 -29.387  1.00  0.00     0.000 C 
BRANCH  11  12
ATOM     12  C   UNL     1     -53.349  18.829 -30.845  1.00  0.00     0.006 C 
BRANCH  12  13
ATOM     13  C   UNL     1     -52.069  17.988 -30.957  1.00  0.00     0.053 C 
BRANCH  13  14
ATOM     14  C   UNL     1     -52.317  16.658 -31.602  1.00  0.00     0.041 C 
ATOM     15  O   UNL     1     -53.461  16.136 -31.564  1.00  0.00    -0.550 OA
ATOM     16  O   UNL     1     -51.263  15.962 -32.183  1.00  0.00    -0.550 OA
ENDBRANCH  13  14
ENDBRANCH  12  13
ENDBRANCH  11  12
ENDBRANCH  10  11
ENDBRANCH   9  10
ENDBRANCH   8   9
ENDBRANCH   7   8
ENDBRANCH   6   7
ENDBRANCH   5   6
ENDBRANCH   4   5
ENDBRANCH   3   4
ENDBRANCH   2   3
ENDBRANCH   1   2
BRANCH   1  17
ATOM     17  C   UNL     1     -52.001   9.292 -31.892  1.00  0.00     0.000 C 
BRANCH  17  18
ATOM     18  C   UNL     1     -52.601   8.447 -33.023  1.00  0.00     0.000 C 
BRANCH  18  19
ATOM     19  C   UNL     1     -52.398   6.948 -32.758  1.00  0.00     0.000 C 
BRANCH  19  20
ATOM     20  C   UNL     1     -51.415   6.292 -33.747  1.00  0.00     0.000 C 
BRANCH  20  21
ATOM     21  C   UNL     1     -49.980   6.115 -33.216  1.00  0.00     0.000 C 
BRANCH  21  22
ATOM     22  C   UNL     1     -49.012   7.185 -33.747  1.00  0.00    -0.000 C 
BRANCH  22  23
ATOM     23  C   UNL     1     -48.502   8.130 -32.645  1.00  0.00    -0.000 C 
BRANCH  23  24
ATOM     24  C   UNL     1     -48.281   7.466 -31.272  1.00  0.00    -0.000 C 
BRANCH  24  25
ATOM     25  C   UNL     1     -49.035   8.158 -30.117  1.00  0.00    -0.000 C 
BRANCH  25  26
ATOM     26  C   UNL     1     -48.308   9.418 -29.621  1.00  0.00    -0.000 C 
BRANCH  26  27
ATOM     27  C   UNL     1     -49.210  10.655 -29.734  1.00  0.00    -0.000 C 
BRANCH  27  28
ATOM     28  C   UNL     1     -49.091  11.587 -28.519  1.00  0.00    -0.000 C 
BRANCH  28  29
ATOM     29  C   UNL     1     -49.984  12.832 -28.638  1.00  0.00    -0.003 C 
ATOM     30  C   UNL     1     -49.660  13.620 -29.904  1.00  0.00     0.004 C 
ENDBRANCH  28  29
ENDBRANCH  27  28
ENDBRANCH  26  27
ENDBRANCH  25  26
ENDBRANCH  24  25
ENDBRANCH  23  24
ENDBRANCH  22  23
ENDBRANCH  21  22
ENDBRANCH  20  21
ENDBRANCH  19  20
ENDBRANCH  18  19
ENDBRANCH  17  18
ENDBRANCH   1  17
TORSDOF 26
ENDMDL
MODEL 2
REMARK VINA RESULT:    -4.714      1.339      3.919
REMARK INTER + INTRA:         -16.022
REMARK INTER:                 -12.044
REMARK INTRA:                  -3.978
REMARK UNBOUND:                -4.142
REMARK SMILES CCCCCCCCCCCCCCCCCCCCCCCCCCCC(=O)[O-]
REMARK SMILES IDX 15 1 16 2 17 3 18 4 19 5 20 6 21 7 22 8 23 9 24 10 25 11
REMARK SMILES IDX 26 12 27 13 28 14 29 15 30 16 14 17 13 18 12 19 11 20 10 21
REMARK SMILES IDX 9 22 8 23 7 24 6 25 5 26 4 27 3 28 2 29 1 30
REMARK H PARENT
REMARK Flexibility Score: inf
ROOT
ATOM      1  C   UNL     1     -48.872  11.776 -28.855  1.00  0.00     0.000 C 
ENDROOT
BRANCH   1   2
ATOM      2  C   UNL     1     -50.003  12.766 -28.540  1.00  0.00     0.000 C 
BRANCH   2   3
ATOM      3  C   UNL     1     -50.139  13.874 -29.597  1.00  0.00     0.000 C 
BRANCH   3   4
ATOM      4  C   UNL     1     -51.107  13.500 -30.729  1.00  0.00     0.000 C 
BRANCH   4   5
ATOM      5  C   UNL     1     -52.003  14.684 -31.111  1.00  0.00     0.000 C 
BRANCH   5   6
ATOM      6  C   UNL     1     -53.478  14.371 -30.819  1.00  0.00     0.000 C 
BRANCH   6   7
ATOM      7  C   UNL     1     -53.661  13.188 -29.857  1.00  0.00     0.000 C 
BRANCH   7   8
ATOM      8  C   UNL     1     -53.735  13.620 -28.383  1.00  0.00     0.000 C 
BRANCH   8   9
ATOM      9  C   UNL     1     -54.047  15.118 -28.239  1.00  0.00     0.000 C 
BRANCH   9  10
ATOM     10  C   UNL     1     -52.867  15.902 -27.639  1.00  0.00     0.000 C 
BRANCH  10  11
ATOM     11  C   UNL     1     -52.604  17.218 -28.388  1.00  0.00     0.000 C 
BRANCH  11  12
ATOM     12  C   UNL     1     -53.858  17.723 -29.121  1.00  0.00     0.006 C 
BRANCH  12  13
ATOM     13  C   UNL     1     -53.632  19.095 -29.774  1.00  0.00     0.053 C 
BRANCH  13  14
ATOM     14  C   UNL     1     -53.398  18.990 -31.251  1.00  0.00     0.041 C 
ATOM     15  O   UNL     1     -53.193  17.870 -31.785  1.00  0.00    -0.550 OA
ATOM     16  O   UNL     1     -53.333  20.143 -32.026  1.00  0.00    -0.550 OA
ENDBRANCH  13  14
ENDBRANCH  12  13
ENDBRANCH  11  12
ENDBRANCH  10  11
ENDBRANCH   9  10
ENDBRANCH   8   9
ENDBRANCH   7   8
ENDBRANCH   6   7
ENDBRANCH   5   6
ENDBRANCH   4   5
ENDBRANCH   3   4
ENDBRANCH   2   3
ENDBRANCH   1   2
BRANCH   1  17
ATOM     17  C   UNL     1     -49.423  10.499 -29.502  1.00  0.00     0.000 C 
BRANCH  17  18
ATOM     18  C   UNL     1     -48.295   9.501 -29.794  1.00  0.00     0.000 C 
BRANCH  18  19
ATOM     19  C   UNL     1     -48.488   8.836 -31.165  1.00  0.00     0.000 C 
BRANCH  19  20
ATOM     20  C   UNL     1     -48.133   7.337 -31.160  1.00  0.00     0.000 C 
BRANCH  20  21
ATOM     21  C   UNL     1     -49.143   6.427 -31.884  1.00  0.00     0.000 C 
BRANCH  21  22
ATOM     22  C   UNL     1     -49.558   6.975 -33.260  1.00  0.00    -0.000 C 
BRANCH  22  23
ATOM     23  C   UNL     1     -50.611   6.099 -33.959  1.00  0.00    -0.000 C 
BRANCH  23  24
ATOM     24  C   UNL     1     -52.031   6.195 -33.369  1.00  0.00    -0.000 C 
BRANCH  24  25
ATOM     25  C   UNL     1     -52.951   7.183 -34.117  1.00  0.00    -0.000 C 
BRANCH  25  26
ATOM     26  C   UNL     1     -53.429   8.330 -33.212  1.00  0.00    -0.000 C 
BRANCH  26  27
ATOM     27  C   UNL     1     -52.271   9.276 -32.866  1.00  0.00    -0.000 C 
BRANCH  27  28
ATOM     28  C   UNL     1     -52.428   9.920 -31.479  1.00  0.00    -0.000 C 
BRANCH  28  29
ATOM     29  C   UNL     1     -53.016   8.953 -30.441  1.00  0.00    -0.003 C 
ATOM     30  C   UNL     1     -51.977   7.929 -29.995  1.00  0.00     0.004 C 
ENDBRANCH  28  29
ENDBRANCH  27  28
ENDBRANCH  26  27
ENDBRANCH  25  26
ENDBRANCH  24  25
ENDBRANCH  23  24
ENDBRANCH  22  23
ENDBRANCH  21  22
ENDBRANCH  20  21
ENDBRANCH  19  20
ENDBRANCH  18  19
ENDBRANCH  17  18
ENDBRANCH   1  17
TORSDOF 26
ENDMDL
MODEL 3
REMARK VINA RESULT:    -4.468      2.368      8.741
REMARK INTER + INTRA:         -15.400
REMARK INTER:                 -11.605
REMARK INTRA:                  -3.795
REMARK UNBOUND:                -4.142
REMARK SMILES CCCCCCCCCCCCCCCCCCCCCCCCCCCC(=O)[O-]
REMARK SMILES IDX 15 1 16 2 17 3 18 4 19 5 20 6 21 7 22 8 23 9 24 10 25 11
REMARK SMILES IDX 26 12 27 13 28 14 29 15 30 16 14 17 13 18 12 19 11 20 10 21
REMARK SMILES IDX 9 22 8 23 7 24 6 25 5 26 4 27 3 28 2 29 1 30
REMARK H PARENT
REMARK Flexibility Score: inf
ROOT
ATOM      1  C   UNL     1     -52.115  11.219 -31.383  1.00  0.00     0.000 C 
ENDROOT
BRANCH   1   2
ATOM      2  C   UNL     1     -52.506  10.647 -30.012  1.00  0.00     0.000 C 
BRANCH   2   3
ATOM      3  C   UNL     1     -53.719   9.707 -30.081  1.00  0.00     0.000 C 
BRANCH   3   4
ATOM      4  C   UNL     1     -53.677   8.769 -31.297  1.00  0.00     0.000 C 
BRANCH   4   5
ATOM      5  C   UNL     1     -54.120   7.350 -30.923  1.00  0.00     0.000 C 
BRANCH   5   6
ATOM      6  C   UNL     1     -53.914   6.384 -32.100  1.00  0.00     0.000 C 
BRANCH   6   7
ATOM      7  C   UNL     1     -53.854   7.098 -33.458  1.00  0.00     0.000 C 
BRANCH   7   8
ATOM      8  C   UNL     1     -52.486   6.960 -34.148  1.00  0.00     0.000 C 
BRANCH   8   9
ATOM      9  C   UNL     1     -51.430   6.352 -33.211  1.00  0.00     0.000 C 
BRANCH   9  10
ATOM     10  C   UNL     1     -50.397   7.393 -32.746  1.00  0.00     0.000 C 
BRANCH  10  11
ATOM     11  C   UNL     1     -50.287   7.457 -31.214  1.00  0.00     0.000 C 
BRANCH  11  12
ATOM     12  C   UNL     1     -48.907   7.958 -30.757  1.00  0.00     0.006 C 
BRANCH  12  13
ATOM     13  C   UNL     1     -48.898   9.472 -30.502  1.00  0.00     0.053 C 
BRANCH  13  14
ATOM     14  C   UNL     1     -47.988   9.855 -29.373  1.00  0.00     0.041 C 
ATOM     15  O   UNL     1     -48.168  10.933 -28.749  1.00  0.00    -0.550 OA
ATOM     16  O   UNL     1     -46.896   9.053 -29.061  1.00  0.00    -0.550 OA
ENDBRANCH  13  14
ENDBRANCH  12  13
ENDBRANCH  11  12
ENDBRANCH  10  11
ENDBRANCH   9  10
ENDBRANCH   8   9
ENDBRANCH   7   8
ENDBRANCH   6   7
ENDBRANCH   5   6
ENDBRANCH   4   5
ENDBRANCH   3   4
ENDBRANCH   2   3
ENDBRANCH   1   2
BRANCH   1  17
ATOM     17  C   UNL     1     -53.013  12.402 -31.762  1.00  0.00     0.000 C 
BRANCH  17  18
ATOM     18  C   UNL     1     -54.102  12.626 -30.705  1.00  0.00     0.000 C 
BRANCH  18  19
ATOM     19  C   UNL     1     -53.920  13.980 -30.003  1.00  0.00     0.000 C 
BRANCH  19  20
ATOM     20  C   UNL     1     -53.889  13.859 -28.467  1.00  0.00     0.000 C 
BRANCH  20  21
ATOM     21  C   UNL     1     -54.113  15.180 -27.707  1.00  0.00     0.000 C 
BRANCH  21  22
ATOM     22  C   UNL     1     -52.907  16.130 -27.796  1.00  0.00    -0.000 C 
BRANCH  22  23
ATOM     23  C   UNL     1     -53.299  17.610 -27.641  1.00  0.00    -0.000 C 
BRANCH  23  24
ATOM     24  C   UNL     1     -53.049  18.481 -28.886  1.00  0.00    -0.000 C 
BRANCH  24  25
ATOM     25  C   UNL     1     -53.548  17.847 -30.202  1.00  0.00    -0.000 C 
BRANCH  25  26
ATOM     26  C   UNL     1     -52.470  17.857 -31.297  1.00  0.00    -0.000 C 
BRANCH  26  27
ATOM     27  C   UNL     1     -51.899  16.450 -31.521  1.00  0.00    -0.000 C 
BRANCH  27  28
ATOM     28  C   UNL     1     -50.659  16.170 -30.658  1.00  0.00    -0.000 C 
BRANCH  28  29
ATOM     29  C   UNL     1     -50.231  14.696 -30.698  1.00  0.00    -0.003 C 
ATOM     30  C   UNL     1     -50.347  14.053 -29.319  1.00  0.00     0.004 C 
ENDBRANCH  28  29
ENDBRANCH  27  28
ENDBRANCH  26  27
ENDBRANCH  25  26
ENDBRANCH  24  25
ENDBRANCH  23  24
ENDBRANCH  22  23
ENDBRANCH  21  22
ENDBRANCH  20  21
ENDBRANCH  19  20
ENDBRANCH  18  19
ENDBRANCH  17  18
ENDBRANCH   1  17
TORSDOF 26
ENDMDL
MODEL 4
REMARK VINA RESULT:    -4.380      2.555      7.275
REMARK INTER + INTRA:         -15.180
REMARK INTER:                 -11.765
REMARK INTRA:                  -3.415
REMARK UNBOUND:                -4.142
REMARK SMILES CCCCCCCCCCCCCCCCCCCCCCCCCCCC(=O)[O-]
REMARK SMILES IDX 15 1 16 2 17 3 18 4 19 5 20 6 21 7 22 8 23 9 24 10 25 11
REMARK SMILES IDX 26 12 27 13 28 14 29 15 30 16 14 17 13 18 12 19 11 20 10 21
REMARK SMILES IDX 9 22 8 23 7 24 6 25 5 26 4 27 3 28 2 29 1 30
REMARK H PARENT
REMARK Flexibility Score: inf
ROOT
ATOM      1  C   UNL     1     -52.481  17.817 -28.034  1.00  0.00     0.000 C 
ENDROOT
BRANCH   1   2
ATOM      2  C   UNL     1     -53.768  18.457 -28.572  1.00  0.00     0.000 C 
BRANCH   2   3
ATOM      3  C   UNL     1     -53.632  18.949 -30.022  1.00  0.00     0.000 C 
BRANCH   3   4
ATOM      4  C   UNL     1     -52.343  18.457 -30.697  1.00  0.00     0.000 C 
BRANCH   4   5
ATOM      5  C   UNL     1     -52.651  17.513 -31.866  1.00  0.00     0.000 C 
BRANCH   5   6
ATOM      6  C   UNL     1     -52.966  16.098 -31.358  1.00  0.00     0.000 C 
BRANCH   6   7
ATOM      7  C   UNL     1     -51.846  15.091 -31.655  1.00  0.00     0.000 C 
BRANCH   7   8
ATOM      8  C   UNL     1     -50.480  15.534 -31.102  1.00  0.00     0.000 C 
BRANCH   8   9
ATOM      9  C   UNL     1     -50.013  14.639 -29.943  1.00  0.00     0.000 C 
BRANCH   9  10
ATOM     10  C   UNL     1     -49.878  13.165 -30.366  1.00  0.00     0.000 C 
BRANCH  10  11
ATOM     11  C   UNL     1     -49.988  12.206 -29.170  1.00  0.00     0.000 C 
BRANCH  11  12
ATOM     12  C   UNL     1     -49.524  10.784 -29.527  1.00  0.00     0.006 C 
BRANCH  12  13
ATOM     13  C   UNL     1     -48.081  10.518 -29.076  1.00  0.00     0.053 C 
BRANCH  13  14
ATOM     14  C   UNL     1     -47.616   9.139 -29.438  1.00  0.00     0.041 C 
ATOM     15  O   UNL     1     -48.451   8.243 -29.728  1.00  0.00    -0.550 OA
ATOM     16  O   UNL     1     -46.263   8.826 -29.381  1.00  0.00    -0.550 OA
ENDBRANCH  13  14
ENDBRANCH  12  13
ENDBRANCH  11  12
ENDBRANCH  10  11
ENDBRANCH   9  10
ENDBRANCH   8   9
ENDBRANCH   7   8
ENDBRANCH   6   7
ENDBRANCH   5   6
ENDBRANCH   4   5
ENDBRANCH   3   4
ENDBRANCH   2   3
ENDBRANCH   1   2
BRANCH   1  17
ATOM     17  C   UNL     1     -52.741  16.387 -27.541  1.00  0.00     0.000 C 
BRANCH  17  18
ATOM     18  C   UNL     1     -53.957  15.776 -28.247  1.00  0.00     0.000 C 
BRANCH  18  19
ATOM     19  C   UNL     1     -54.123  14.295 -27.878  1.00  0.00     0.000 C 
BRANCH  19  20
ATOM     20  C   UNL     1     -53.234  13.362 -28.724  1.00  0.00     0.000 C 
BRANCH  20  21
ATOM     21  C   UNL     1     -53.993  12.482 -29.734  1.00  0.00     0.000 C 
BRANCH  21  22
ATOM     22  C   UNL     1     -53.599  10.998 -29.644  1.00  0.00    -0.000 C 
BRANCH  22  23
ATOM     23  C   UNL     1     -52.859  10.499 -30.897  1.00  0.00    -0.000 C 
BRANCH  23  24
ATOM     24  C   UNL     1     -52.941   8.980 -31.138  1.00  0.00    -0.000 C 
BRANCH  24  25
ATOM     25  C   UNL     1     -53.069   8.590 -32.626  1.00  0.00    -0.000 C 
BRANCH  25  26
ATOM     26  C   UNL     1     -52.627   7.141 -32.887  1.00  0.00    -0.000 C 
BRANCH  26  27
ATOM     27  C   UNL     1     -51.136   7.076 -33.243  1.00  0.00    -0.000 C 
BRANCH  27  28
ATOM     28  C   UNL     1     -50.284   6.472 -32.115  1.00  0.00    -0.000 C 
BRANCH  28  29
ATOM     29  C   UNL     1     -48.820   6.262 -32.527  1.00  0.00    -0.003 C 
ATOM     30  C   UNL     1     -48.669   6.273 -34.045  1.00  0.00     0.004 C 
ENDBRANCH  28  29
ENDBRANCH  27  28
ENDBRANCH  26  27
ENDBRANCH  25  26
ENDBRANCH  24  25
ENDBRANCH  23  24
ENDBRANCH  22  23
ENDBRANCH  21  22
ENDBRANCH  20  21
ENDBRANCH  19  20
ENDBRANCH  18  19
ENDBRANCH  17  18
ENDBRANCH   1  17
TORSDOF 26
ENDMDL
MODEL 5
REMARK VINA RESULT:    -4.062      2.156      5.703
REMARK INTER + INTRA:         -14.379
REMARK INTER:                 -11.166
REMARK INTRA:                  -3.212
REMARK UNBOUND:                -4.142
REMARK SMILES CCCCCCCCCCCCCCCCCCCCCCCCCCCC(=O)[O-]
REMARK SMILES IDX 15 1 16 2 17 3 18 4 19 5 20 6 21 7 22 8 23 9 24 10 25 11
REMARK SMILES IDX 26 12 27 13 28 14 29 15 30 16 14 17 13 18 12 19 11 20 10 21
REMARK SMILES IDX 9 22 8 23 7 24 6 25 5 26 4 27 3 28 2 29 1 30
REMARK H PARENT
REMARK Flexibility Score: inf
ROOT
ATOM      1  C   UNL     1     -53.203  15.716 -31.675  1.00  0.00     0.000 C 
ENDROOT
BRANCH   1   2
ATOM      2  C   UNL     1     -53.932  17.028 -31.354  1.00  0.00     0.000 C 
BRANCH   2   3
ATOM      3  C   UNL     1     -52.981  18.147 -30.900  1.00  0.00     0.000 C 
BRANCH   3   4
ATOM      4  C   UNL     1     -53.560  18.992 -29.756  1.00  0.00     0.000 C 
BRANCH   4   5
ATOM      5  C   UNL     1     -53.853  18.133 -28.520  1.00  0.00     0.000 C 
BRANCH   5   6
ATOM      6  C   UNL     1     -52.550  17.735 -27.809  1.00  0.00     0.000 C 
BRANCH   6   7
ATOM      7  C   UNL     1     -52.629  16.355 -27.141  1.00  0.00     0.000 C 
BRANCH   7   8
ATOM      8  C   UNL     1     -52.598  15.197 -28.153  1.00  0.00     0.000 C 
BRANCH   8   9
ATOM      9  C   UNL     1     -51.161  14.790 -28.515  1.00  0.00     0.000 C 
BRANCH   9  10
ATOM     10  C   UNL     1     -50.776  15.224 -29.941  1.00  0.00     0.000 C 
BRANCH  10  11
ATOM     11  C   UNL     1     -49.660  14.349 -30.533  1.00  0.00     0.000 C 
BRANCH  11  12
ATOM     12  C   UNL     1     -49.335  13.145 -29.633  1.00  0.00     0.006 C 
BRANCH  12  13
ATOM     13  C   UNL     1     -49.649  11.809 -30.322  1.00  0.00     0.053 C 
BRANCH  13  14
ATOM     14  C   UNL     1     -49.269  10.630 -29.477  1.00  0.00     0.041 C 
ATOM     15  O   UNL     1     -48.339  10.724 -28.635  1.00  0.00    -0.550 OA
ATOM     16  O   UNL     1     -49.897   9.405 -29.675  1.00  0.00    -0.550 OA
ENDBRANCH  13  14
ENDBRANCH  12  13
ENDBRANCH  11  12
ENDBRANCH  10  11
ENDBRANCH   9  10
ENDBRANCH   8   9
ENDBRANCH   7   8
ENDBRANCH   6   7
ENDBRANCH   5   6
ENDBRANCH   4   5
ENDBRANCH   3   4
ENDBRANCH   2   3
ENDBRANCH   1   2
BRANCH   1  17
ATOM     17  C   UNL     1     -54.075  14.502 -31.330  1.00  0.00     0.000 C 
BRANCH  17  18
ATOM     18  C   UNL     1     -53.259  13.205 -31.391  1.00  0.00     0.000 C 
BRANCH  18  19
ATOM     19  C   UNL     1     -53.734  12.204 -30.328  1.00  0.00     0.000 C 
BRANCH  19  20
ATOM     20  C   UNL     1     -53.069  10.820 -30.466  1.00  0.00     0.000 C 
BRANCH  20  21
ATOM     21  C   UNL     1     -52.668  10.433 -31.902  1.00  0.00     0.000 C 
BRANCH  21  22
ATOM     22  C   UNL     1     -52.605   8.911 -32.113  1.00  0.00    -0.000 C 
BRANCH  22  23
ATOM     23  C   UNL     1     -53.063   8.482 -33.518  1.00  0.00    -0.000 C 
BRANCH  23  24
ATOM     24  C   UNL     1     -52.724   7.028 -33.895  1.00  0.00    -0.000 C 
BRANCH  24  25
ATOM     25  C   UNL     1     -51.846   6.302 -32.854  1.00  0.00    -0.000 C 
BRANCH  25  26
ATOM     26  C   UNL     1     -50.467   5.926 -33.418  1.00  0.00    -0.000 C 
BRANCH  26  27
ATOM     27  C   UNL     1     -49.488   7.103 -33.308  1.00  0.00    -0.000 C 
BRANCH  27  28
ATOM     28  C   UNL     1     -48.542   6.976 -32.103  1.00  0.00    -0.000 C 
BRANCH  28  29
ATOM     29  C   UNL     1     -49.176   6.213 -30.931  1.00  0.00    -0.003 C 
ATOM     30  C   UNL     1     -48.135   5.875 -29.868  1.00  0.00     0.004 C 
ENDBRANCH  28  29
ENDBRANCH  27  28
ENDBRANCH  26  27
ENDBRANCH  25  26
ENDBRANCH  24  25
ENDBRANCH  23  24
ENDBRANCH  22  23
ENDBRANCH  21  22
ENDBRANCH  20  21
ENDBRANCH  19  20
ENDBRANCH  18  19
ENDBRANCH  17  18
ENDBRANCH   1  17
TORSDOF 26
ENDMDL
MODEL 6
REMARK VINA RESULT:    -4.045      1.878      3.441
REMARK INTER + INTRA:         -14.336
REMARK INTER:                 -11.286
REMARK INTRA:                  -3.049
REMARK UNBOUND:                -4.142
REMARK SMILES CCCCCCCCCCCCCCCCCCCCCCCCCCCC(=O)[O-]
REMARK SMILES IDX 15 1 16 2 17 3 18 4 19 5 20 6 21 7 22 8 23 9 24 10 25 11
REMARK SMILES IDX 26 12 27 13 28 14 29 15 30 16 14 17 13 18 12 19 11 20 10 21
REMARK SMILES IDX 9 22 8 23 7 24 6 25 5 26 4 27 3 28 2 29 1 30
REMARK H PARENT
REMARK Flexibility Score: inf
ROOT
ATOM      1  C   UNL     1     -53.376  10.116 -30.241  1.00  0.00     0.000 C 
ENDROOT
BRANCH   1   2
ATOM      2  C   UNL     1     -54.047  11.229 -29.425  1.00  0.00     0.000 C 
BRANCH   2   3
ATOM      3  C   UNL     1     -53.053  12.291 -28.930  1.00  0.00     0.000 C 
BRANCH   3   4
ATOM      4  C   UNL     1     -52.505  13.169 -30.066  1.00  0.00     0.000 C 
BRANCH   4   5
ATOM      5  C   UNL     1     -51.133  12.676 -30.540  1.00  0.00     0.000 C 
BRANCH   5   6
ATOM      6  C   UNL     1     -50.099  13.811 -30.497  1.00  0.00     0.000 C 
BRANCH   6   7
ATOM      7  C   UNL     1     -50.652  15.103 -29.878  1.00  0.00     0.000 C 
BRANCH   7   8
ATOM      8  C   UNL     1     -50.572  16.307 -30.832  1.00  0.00     0.000 C 
BRANCH   8   9
ATOM      9  C   UNL     1     -51.762  16.350 -31.803  1.00  0.00     0.000 C 
BRANCH   9  10
ATOM     10  C   UNL     1     -53.105  16.518 -31.069  1.00  0.00     0.000 C 
BRANCH  10  11
ATOM     11  C   UNL     1     -53.477  17.995 -30.872  1.00  0.00     0.000 C 
BRANCH  11  12
ATOM     12  C   UNL     1     -53.762  18.325 -29.397  1.00  0.00     0.006 C 
BRANCH  12  13
ATOM     13  C   UNL     1     -52.524  18.121 -28.511  1.00  0.00     0.053 C 
BRANCH  13  14
ATOM     14  C   UNL     1     -52.777  17.153 -27.394  1.00  0.00     0.041 C 
ATOM     15  O   UNL     1     -53.548  16.173 -27.564  1.00  0.00    -0.550 OA
ATOM     16  O   UNL     1     -52.216  17.378 -26.142  1.00  0.00    -0.550 OA
ENDBRANCH  13  14
ENDBRANCH  12  13
ENDBRANCH  11  12
ENDBRANCH  10  11
ENDBRANCH   9  10
ENDBRANCH   8   9
ENDBRANCH   7   8
ENDBRANCH   6   7
ENDBRANCH   5   6
ENDBRANCH   4   5
ENDBRANCH   3   4
ENDBRANCH   2   3
ENDBRANCH   1   2
BRANCH   1  17
ATOM     17  C   UNL     1     -53.880   8.734 -29.806  1.00  0.00     0.000 C 
BRANCH  17  18
ATOM     18  C   UNL     1     -52.801   7.665 -30.018  1.00  0.00     0.000 C 
BRANCH  18  19
ATOM     19  C   UNL     1     -53.431   6.295 -30.310  1.00  0.00     0.000 C 
BRANCH  19  20
ATOM     20  C   UNL     1     -53.299   5.876 -31.787  1.00  0.00     0.000 C 
BRANCH  20  21
ATOM     21  C   UNL     1     -53.620   6.984 -32.808  1.00  0.00     0.000 C 
BRANCH  21  22
ATOM     22  C   UNL     1     -52.385   7.437 -33.604  1.00  0.00    -0.000 C 
BRANCH  22  23
ATOM     23  C   UNL     1     -51.731   8.703 -33.025  1.00  0.00    -0.000 C 
BRANCH  23  24
ATOM     24  C   UNL     1     -50.225   8.579 -32.731  1.00  0.00    -0.000 C 
BRANCH  24  25
ATOM     25  C   UNL     1     -49.670   7.150 -32.912  1.00  0.00    -0.000 C 
BRANCH  25  26
ATOM     26  C   UNL     1     -48.623   6.794 -31.845  1.00  0.00    -0.000 C 
BRANCH  26  27
ATOM     27  C   UNL     1     -48.964   7.448 -30.499  1.00  0.00    -0.000 C 
BRANCH  27  28
ATOM     28  C   UNL     1     -47.722   7.687 -29.625  1.00  0.00    -0.000 C 
BRANCH  28  29
ATOM     29  C   UNL     1     -47.079   9.059 -29.873  1.00  0.00    -0.003 C 
ATOM     30  C   UNL     1     -47.915  10.177 -29.256  1.00  0.00     0.004 C 
ENDBRANCH  28  29
ENDBRANCH  27  28
ENDBRANCH  26  27
ENDBRANCH  25  26
ENDBRANCH  24  25
ENDBRANCH  23  24
ENDBRANCH  22  23
ENDBRANCH  21  22
ENDBRANCH  20  21
ENDBRANCH  19  20
ENDBRANCH  18  19
ENDBRANCH  17  18
ENDBRANCH   1  17
TORSDOF 26
ENDMDL
MODEL 7
REMARK VINA RESULT:    -3.968      2.315      5.541
REMARK INTER + INTRA:         -14.140
REMARK INTER:                 -11.019
REMARK INTRA:                  -3.121
REMARK UNBOUND:                -4.142
REMARK SMILES CCCCCCCCCCCCCCCCCCCCCCCCCCCC(=O)[O-]
REMARK SMILES IDX 15 1 16 2 17 3 18 4 19 5 20 6 21 7 22 8 23 9 24 10 25 11
REMARK SMILES IDX 26 12 27 13 28 14 29 15 30 16 14 17 13 18 12 19 11 20 10 21
REMARK SMILES IDX 9 22 8 23 7 24 6 25 5 26 4 27 3 28 2 29 1 30
REMARK H PARENT
REMARK Flexibility Score: inf
ROOT
ATOM      1  C   UNL     1     -53.226  14.597 -31.070  1.00  0.00     0.000 C 
ENDROOT
BRANCH   1   2
ATOM      2  C   UNL     1     -51.999  15.335 -31.625  1.00  0.00     0.000 C 
BRANCH   2   3
ATOM      3  C   UNL     1     -52.254  16.833 -31.852  1.00  0.00     0.000 C 
BRANCH   3   4
ATOM      4  C   UNL     1     -51.963  17.682 -30.605  1.00  0.00     0.000 C 
BRANCH   4   5
ATOM      5  C   UNL     1     -53.133  18.618 -30.282  1.00  0.00     0.000 C 
BRANCH   5   6
ATOM      6  C   UNL     1     -53.584  18.449 -28.824  1.00  0.00     0.000 C 
BRANCH   6   7
ATOM      7  C   UNL     1     -53.754  16.978 -28.415  1.00  0.00     0.000 C 
BRANCH   7   8
ATOM      8  C   UNL     1     -52.506  16.400 -27.726  1.00  0.00     0.000 C 
BRANCH   8   9
ATOM      9  C   UNL     1     -52.380  14.884 -27.948  1.00  0.00     0.000 C 
BRANCH   9  10
ATOM     10  C   UNL     1     -50.964  14.479 -28.396  1.00  0.00     0.000 C 
BRANCH  10  11
ATOM     11  C   UNL     1     -50.897  13.012 -28.848  1.00  0.00     0.000 C 
BRANCH  11  12
ATOM     12  C   UNL     1     -49.681  12.743 -29.751  1.00  0.00     0.006 C 
BRANCH  12  13
ATOM     13  C   UNL     1     -49.385  11.242 -29.889  1.00  0.00     0.053 C 
BRANCH  13  14
ATOM     14  C   UNL     1     -48.385  10.764 -28.880  1.00  0.00     0.041 C 
ATOM     15  O   UNL     1     -47.467   9.974 -29.221  1.00  0.00    -0.550 OA
ATOM     16  O   UNL     1     -48.515  11.134 -27.546  1.00  0.00    -0.550 OA
ENDBRANCH  13  14
ENDBRANCH  12  13
ENDBRANCH  11  12
ENDBRANCH  10  11
ENDBRANCH   9  10
ENDBRANCH   8   9
ENDBRANCH   7   8
ENDBRANCH   6   7
ENDBRANCH   5   6
ENDBRANCH   4   5
ENDBRANCH   3   4
ENDBRANCH   2   3
ENDBRANCH   1   2
BRANCH   1  17
ATOM     17  C   UNL     1     -53.526  13.335 -31.888  1.00  0.00     0.000 C 
BRANCH  17  18
ATOM     18  C   UNL     1     -53.371  12.074 -31.029  1.00  0.00     0.000 C 
BRANCH  18  19
ATOM     19  C   UNL     1     -52.461  11.046 -31.717  1.00  0.00     0.000 C 
BRANCH  19  20
ATOM     20  C   UNL     1     -52.833   9.590 -31.373  1.00  0.00     0.000 C 
BRANCH  20  21
ATOM     21  C   UNL     1     -52.251   9.067 -30.046  1.00  0.00     0.000 C 
BRANCH  21  22
ATOM     22  C   UNL     1     -52.372   7.541 -29.903  1.00  0.00    -0.000 C 
BRANCH  22  23
ATOM     23  C   UNL     1     -51.089   6.799 -30.316  1.00  0.00    -0.000 C 
BRANCH  23  24
ATOM     24  C   UNL     1     -49.883   7.707 -30.621  1.00  0.00    -0.000 C 
BRANCH  24  25
ATOM     25  C   UNL     1     -48.810   7.043 -31.510  1.00  0.00    -0.000 C 
BRANCH  25  26
ATOM     26  C   UNL     1     -49.066   7.281 -33.006  1.00  0.00    -0.000 C 
BRANCH  26  27
ATOM     27  C   UNL     1     -50.546   7.588 -33.270  1.00  0.00    -0.000 C 
BRANCH  27  28
ATOM     28  C   UNL     1     -51.309   6.380 -33.835  1.00  0.00    -0.000 C 
BRANCH  28  29
ATOM     29  C   UNL     1     -52.807   6.414 -33.495  1.00  0.00    -0.003 C 
ATOM     30  C   UNL     1     -53.577   7.274 -34.493  1.00  0.00     0.004 C 
ENDBRANCH  28  29
ENDBRANCH  27  28
ENDBRANCH  26  27
ENDBRANCH  25  26
ENDBRANCH  24  25
ENDBRANCH  23  24
ENDBRANCH  22  23
ENDBRANCH  21  22
ENDBRANCH  20  21
ENDBRANCH  19  20
ENDBRANCH  18  19
ENDBRANCH  17  18
ENDBRANCH   1  17
TORSDOF 26
ENDMDL
MODEL 8
REMARK VINA RESULT:    -3.856      1.372      2.956
REMARK INTER + INTRA:         -13.859
REMARK INTER:                 -11.031
REMARK INTRA:                  -2.829
REMARK UNBOUND:                -4.142
REMARK SMILES CCCCCCCCCCCCCCCCCCCCCCCCCCCC(=O)[O-]
REMARK SMILES IDX 15 1 16 2 17 3 18 4 19 5 20 6 21 7 22 8 23 9 24 10 25 11
REMARK SMILES IDX 26 12 27 13 28 14 29 15 30 16 14 17 13 18 12 19 11 20 10 21
REMARK SMILES IDX 9 22 8 23 7 24 6 25 5 26 4 27 3 28 2 29 1 30
REMARK H PARENT
REMARK Flexibility Score: inf
ROOT
ATOM      1  C   UNL     1     -50.721  11.096 -30.475  1.00  0.00     0.000 C 
ENDROOT
BRANCH   1   2
ATOM      2  C   UNL     1     -51.513  11.997 -29.517  1.00  0.00     0.000 C 
BRANCH   2   3
ATOM      3  C   UNL     1     -53.034  11.821 -29.650  1.00  0.00     0.000 C 
BRANCH   3   4
ATOM      4  C   UNL     1     -53.825  12.797 -28.766  1.00  0.00     0.000 C 
BRANCH   4   5
ATOM      5  C   UNL     1     -52.962  13.991 -28.342  1.00  0.00     0.000 C 
BRANCH   5   6
ATOM      6  C   UNL     1     -53.835  15.134 -27.804  1.00  0.00     0.000 C 
BRANCH   6   7
ATOM      7  C   UNL     1     -53.021  16.372 -27.401  1.00  0.00     0.000 C 
BRANCH   7   8
ATOM      8  C   UNL     1     -53.859  17.662 -27.384  1.00  0.00     0.000 C 
BRANCH   8   9
ATOM      9  C   UNL     1     -53.438  18.634 -28.497  1.00  0.00     0.000 C 
BRANCH   9  10
ATOM     10  C   UNL     1     -53.660  18.042 -29.900  1.00  0.00     0.000 C 
BRANCH  10  11
ATOM     11  C   UNL     1     -52.564  18.468 -30.889  1.00  0.00     0.000 C 
BRANCH  11  12
ATOM     12  C   UNL     1     -51.191  17.889 -30.511  1.00  0.00     0.006 C 
BRANCH  12  13
ATOM     13  C   UNL     1     -51.260  16.383 -30.219  1.00  0.00     0.053 C 
BRANCH  13  14
ATOM     14  C   UNL     1     -51.499  15.573 -31.458  1.00  0.00     0.041 C 
ATOM     15  O   UNL     1     -52.439  14.737 -31.500  1.00  0.00    -0.550 OA
ATOM     16  O   UNL     1     -50.634  15.691 -32.541  1.00  0.00    -0.550 OA
ENDBRANCH  13  14
ENDBRANCH  12  13
ENDBRANCH  11  12
ENDBRANCH  10  11
ENDBRANCH   9  10
ENDBRANCH   8   9
ENDBRANCH   7   8
ENDBRANCH   6   7
ENDBRANCH   5   6
ENDBRANCH   4   5
ENDBRANCH   3   4
ENDBRANCH   2   3
ENDBRANCH   1   2
BRANCH   1  17
ATOM     17  C   UNL     1     -50.724   9.640 -29.991  1.00  0.00     0.000 C 
BRANCH  17  18
ATOM     18  C   UNL     1     -51.506   8.742 -30.957  1.00  0.00     0.000 C 
BRANCH  18  19
ATOM     19  C   UNL     1     -52.876   8.366 -30.374  1.00  0.00     0.000 C 
BRANCH  19  20
ATOM     20  C   UNL     1     -53.173   6.856 -30.466  1.00  0.00     0.000 C 
BRANCH  20  21
ATOM     21  C   UNL     1     -52.412   6.111 -31.579  1.00  0.00     0.000 C 
BRANCH  21  22
ATOM     22  C   UNL     1     -53.004   6.362 -32.976  1.00  0.00    -0.000 C 
BRANCH  22  23
ATOM     23  C   UNL     1     -51.927   6.629 -34.042  1.00  0.00    -0.000 C 
BRANCH  23  24
ATOM     24  C   UNL     1     -50.601   5.875 -33.828  1.00  0.00    -0.000 C 
BRANCH  24  25
ATOM     25  C   UNL     1     -49.385   6.801 -33.612  1.00  0.00    -0.000 C 
BRANCH  25  26
ATOM     26  C   UNL     1     -48.512   6.347 -32.432  1.00  0.00    -0.000 C 
BRANCH  26  27
ATOM     27  C   UNL     1     -48.242   7.511 -31.468  1.00  0.00    -0.000 C 
BRANCH  27  28
ATOM     28  C   UNL     1     -48.096   7.048 -30.009  1.00  0.00    -0.000 C 
BRANCH  28  29
ATOM     29  C   UNL     1     -46.949   7.759 -29.275  1.00  0.00    -0.003 C 
ATOM     30  C   UNL     1     -46.970   9.260 -29.548  1.00  0.00     0.004 C 
ENDBRANCH  28  29
ENDBRANCH  27  28
ENDBRANCH  26  27
ENDBRANCH  25  26
ENDBRANCH  24  25
ENDBRANCH  23  24
ENDBRANCH  22  23
ENDBRANCH  21  22
ENDBRANCH  20  21
ENDBRANCH  19  20
ENDBRANCH  18  19
ENDBRANCH  17  18
ENDBRANCH   1  17
TORSDOF 26
ENDMDL
MODEL 9
REMARK VINA RESULT:    -3.517      1.186      3.425
REMARK INTER + INTRA:         -13.004
REMARK INTER:                  -9.934
REMARK INTRA:                  -3.070
REMARK UNBOUND:                -4.142
REMARK SMILES CCCCCCCCCCCCCCCCCCCCCCCCCCCC(=O)[O-]
REMARK SMILES IDX 15 1 16 2 17 3 18 4 19 5 20 6 21 7 22 8 23 9 24 10 25 11
REMARK SMILES IDX 26 12 27 13 28 14 29 15 30 16 14 17 13 18 12 19 11 20 10 21
REMARK SMILES IDX 9 22 8 23 7 24 6 25 5 26 4 27 3 28 2 29 1 30
REMARK H PARENT
REMARK Flexibility Score: inf
ROOT
ATOM      1  C   UNL     1     -48.094  10.750 -28.551  1.00  0.00     0.000 C 
ENDROOT
BRANCH   1   2
ATOM      2  C   UNL     1     -49.276  11.665 -28.204  1.00  0.00     0.000 C 
BRANCH   2   3
ATOM      3  C   UNL     1     -50.296  11.785 -29.347  1.00  0.00     0.000 C 
BRANCH   3   4
ATOM      4  C   UNL     1     -51.318  12.909 -29.116  1.00  0.00     0.000 C 
BRANCH   4   5
ATOM      5  C   UNL     1     -50.839  14.232 -29.724  1.00  0.00     0.000 C 
BRANCH   5   6
ATOM      6  C   UNL     1     -51.452  15.429 -28.982  1.00  0.00     0.000 C 
BRANCH   6   7
ATOM      7  C   UNL     1     -52.492  15.014 -27.930  1.00  0.00     0.000 C 
BRANCH   7   8
ATOM      8  C   UNL     1     -53.106  16.214 -27.189  1.00  0.00     0.000 C 
BRANCH   8   9
ATOM      9  C   UNL     1     -52.819  17.541 -27.909  1.00  0.00     0.000 C 
BRANCH   9  10
ATOM     10  C   UNL     1     -54.107  18.224 -28.404  1.00  0.00     0.000 C 
BRANCH  10  11
ATOM     11  C   UNL     1     -53.859  19.105 -29.638  1.00  0.00     0.000 C 
BRANCH  11  12
ATOM     12  C   UNL     1     -52.470  18.860 -30.250  1.00  0.00     0.006 C 
BRANCH  12  13
ATOM     13  C   UNL     1     -52.558  18.368 -31.703  1.00  0.00     0.053 C 
BRANCH  13  14
ATOM     14  C   UNL     1     -52.697  16.879 -31.792  1.00  0.00     0.041 C 
ATOM     15  O   UNL     1     -51.816  16.191 -32.372  1.00  0.00    -0.550 OA
ATOM     16  O   UNL     1     -53.839  16.258 -31.298  1.00  0.00    -0.550 OA
ENDBRANCH  13  14
ENDBRANCH  12  13
ENDBRANCH  11  12
ENDBRANCH  10  11
ENDBRANCH   9  10
ENDBRANCH   8   9
ENDBRANCH   7   8
ENDBRANCH   6   7
ENDBRANCH   5   6
ENDBRANCH   4   5
ENDBRANCH   3   4
ENDBRANCH   2   3
ENDBRANCH   1   2
BRANCH   1  17
ATOM     17  C   UNL     1     -48.356   9.983 -29.854  1.00  0.00     0.000 C 
BRANCH  17  18
ATOM     18  C   UNL     1     -47.781   8.563 -29.780  1.00  0.00     0.000 C 
BRANCH  18  19
ATOM     19  C   UNL     1     -47.826   7.877 -31.154  1.00  0.00     0.000 C 
BRANCH  19  20
ATOM     20  C   UNL     1     -48.458   6.472 -31.102  1.00  0.00     0.000 C 
BRANCH  20  21
ATOM     21  C   UNL     1     -48.826   5.875 -32.473  1.00  0.00     0.000 C 
BRANCH  21  22
ATOM     22  C   UNL     1     -49.602   6.860 -33.363  1.00  0.00    -0.000 C 
BRANCH  22  23
ATOM     23  C   UNL     1     -51.127   6.745 -33.196  1.00  0.00    -0.000 C 
BRANCH  23  24
ATOM     24  C   UNL     1     -51.624   6.781 -31.739  1.00  0.00    -0.000 C 
BRANCH  24  25
ATOM     25  C   UNL     1     -53.159   6.689 -31.602  1.00  0.00    -0.000 C 
BRANCH  25  26
ATOM     26  C   UNL     1     -53.813   8.071 -31.456  1.00  0.00    -0.000 C 
BRANCH  26  27
ATOM     27  C   UNL     1     -52.871   9.054 -30.746  1.00  0.00    -0.000 C 
BRANCH  27  28
ATOM     28  C   UNL     1     -52.783  10.411 -31.463  1.00  0.00    -0.000 C 
BRANCH  28  29
ATOM     29  C   UNL     1     -52.018  10.329 -32.792  1.00  0.00    -0.003 C 
ATOM     30  C   UNL     1     -50.511  10.333 -32.559  1.00  0.00     0.004 C 
ENDBRANCH  28  29
ENDBRANCH  27  28
ENDBRANCH  26  27
ENDBRANCH  25  26
ENDBRANCH  24  25
ENDBRANCH  23  24
ENDBRANCH  22  23
ENDBRANCH  21  22
ENDBRANCH  20  21
ENDBRANCH  19  20
ENDBRANCH  18  19
ENDBRANCH  17  18
ENDBRANCH   1  17
TORSDOF 26
ENDMDL
