MODEL 1
REMARK VINA RESULT:    -4.328      0.000      0.000
REMARK INTER + INTRA:          -5.964
REMARK INTER:                  -6.098
REMARK INTRA:                   0.135
REMARK UNBOUND:                 0.135
REMARK SMILES CC1=CCC(=C(C)C)C(=O)CC(C)=CCC1
REMARK SMILES IDX 12 1 14 2 13 3 15 4 16 5 2 6 1 7 3 8 11 10 9 11 10 12 5 13
REMARK SMILES IDX 6 14 7 15 8 16 4 17
REMARK H PARENT
REMARK Flexibility Score: 60.00
ROOT
ATOM      1  C   UNL     1     -18.222  12.095 -29.749  1.00  0.00    -0.070 C 
ATOM      2  C   UNL     1     -18.040  10.966 -29.013  1.00  0.00    -0.027 C 
ATOM      3  C   UNL     1     -19.570  12.334 -30.382  1.00  0.00     0.039 C 
ENDROOT
BRANCH   2   4
ATOM      4  C   UNL     1     -16.741  10.516 -28.387  1.00  0.00     0.032 C 
BRANCH   4   5
ATOM      5  C   UNL     1     -15.772   9.879 -29.391  1.00  0.00     0.034 C 
BRANCH   5   6
ATOM      6  C   UNL     1     -14.366  10.400 -29.166  1.00  0.00    -0.077 C 
ATOM      7  C   UNL     1     -13.634   9.966 -27.921  1.00  0.00     0.039 C 
ATOM      8  C   UNL     1     -13.702  11.170 -30.061  1.00  0.00    -0.023 CG0
ATOM      9  G   UNL     1     -14.272  11.712 -31.351  1.00  0.00     0.000 G0
ENDBRANCH   5   6
ENDBRANCH   4   5
ENDBRANCH   2   4
BRANCH   1  10
ATOM     10  C   UNL     1     -17.199  13.217 -29.866  1.00  0.00     0.111 C 
BRANCH  10  11
ATOM     11  C   UNL     1     -16.412  13.197 -31.151  1.00  0.00     0.163 C 
ATOM     12  O   UNL     1     -17.054  13.312 -32.231  1.00  0.00    -0.294 OA
BRANCH  11  13
ATOM     13  C   UNL     1     -14.914  13.106 -31.184  1.00  0.00    -0.002 C 
ATOM     14  C   UNL     1     -14.142  14.235 -31.111  1.00  0.00    -0.069 C 
ATOM     15  C   UNL     1     -12.636  14.178 -31.241  1.00  0.00     0.039 C 
ATOM     16  C   UNL     1     -14.746  15.596 -30.846  1.00  0.00     0.039 C 
BRANCH  13  17
ATOM     17  C   UNL     1     -14.267  11.733 -31.360  1.00  0.00     0.066 CG0
ATOM     18  G   UNL     1     -13.716  11.193 -30.062  1.00  0.00     0.000 G0
ENDBRANCH  13  17
ENDBRANCH  11  13
ENDBRANCH  10  11
ENDBRANCH   1  10
TORSDOF 0
ENDMDL
MODEL 2
REMARK VINA RESULT:    -3.244      1.515      4.091
REMARK INTER + INTRA:          -4.437
REMARK INTER:                  -5.957
REMARK INTRA:                   1.520
REMARK UNBOUND:                 0.135
REMARK SMILES CC1=CCC(=C(C)C)C(=O)CC(C)=CCC1
REMARK SMILES IDX 12 1 14 2 13 3 15 4 16 5 2 6 1 7 3 8 11 10 9 11 10 12 5 13
REMARK SMILES IDX 6 14 7 15 8 16 4 17
REMARK H PARENT
REMARK Flexibility Score: 60.00
ROOT
ATOM      1  C   UNL     1     -15.187  13.548 -30.642  1.00  0.00    -0.070 C 
ATOM      2  C   UNL     1     -14.454  12.495 -31.092  1.00  0.00    -0.027 C 
ATOM      3  C   UNL     1     -14.656  14.943 -30.862  1.00  0.00     0.039 C 
ENDROOT
BRANCH   2   4
ATOM      4  C   UNL     1     -14.779  11.035 -30.880  1.00  0.00     0.032 C 
BRANCH   4   5
ATOM      5  C   UNL     1     -14.060  10.423 -29.671  1.00  0.00     0.034 C 
BRANCH   5   6
ATOM      6  C   UNL     1     -14.942  10.503 -28.440  1.00  0.00    -0.077 C 
ATOM      7  C   UNL     1     -14.295  10.815 -27.115  1.00  0.00     0.039 C 
ATOM      8  C   UNL     1     -16.292  10.386 -28.480  1.00  0.00    -0.023 CG0
ATOM      9  G   UNL     1     -17.112  10.063 -29.706  1.00  0.00     0.000 G0
ENDBRANCH   5   6
ENDBRANCH   4   5
ENDBRANCH   2   4
BRANCH   1  10
ATOM     10  C   UNL     1     -16.586  13.430 -30.051  1.00  0.00     0.111 C 
BRANCH  10  11
ATOM     11  C   UNL     1     -17.470  12.437 -30.763  1.00  0.00     0.163 C 
ATOM     12  O   UNL     1     -17.674  12.615 -31.995  1.00  0.00    -0.294 OA
BRANCH  11  13
ATOM     13  C   UNL     1     -18.055  11.236 -30.078  1.00  0.00    -0.002 C 
ATOM     14  C   UNL     1     -19.383  11.197 -29.748  1.00  0.00    -0.069 C 
ATOM     15  C   UNL     1     -19.976  10.041 -28.972  1.00  0.00     0.039 C 
ATOM     16  C   UNL     1     -20.344  12.281 -30.184  1.00  0.00     0.039 C 
BRANCH  13  17
ATOM     17  C   UNL     1     -17.127  10.081 -29.705  1.00  0.00     0.066 CG0
ATOM     18  G   UNL     1     -16.303  10.387 -28.477  1.00  0.00     0.000 G0
ENDBRANCH  13  17
ENDBRANCH  11  13
ENDBRANCH  10  11
ENDBRANCH   1  10
TORSDOF 0
ENDMDL
MODEL 3
REMARK VINA RESULT:    -3.098      9.215     11.512
REMARK INTER + INTRA:          -4.230
REMARK INTER:                  -5.070
REMARK INTRA:                   0.840
REMARK UNBOUND:                 0.135
REMARK SMILES CC1=CCC(=C(C)C)C(=O)CC(C)=CCC1
REMARK SMILES IDX 12 1 14 2 13 3 15 4 16 5 2 6 1 7 3 8 11 10 9 11 10 12 5 13
REMARK SMILES IDX 6 14 7 15 8 16 4 17
REMARK H PARENT
REMARK Flexibility Score: 60.00
ROOT
ATOM      1  C   UNL     1     -25.645  10.279 -28.453  1.00  0.00    -0.070 C 
ATOM      2  C   UNL     1     -26.846   9.882 -27.956  1.00  0.00    -0.027 C 
ATOM      3  C   UNL     1     -24.433  10.205 -27.558  1.00  0.00     0.039 C 
ENDROOT
BRANCH   2   4
ATOM      4  C   UNL     1     -28.175   9.973 -28.670  1.00  0.00     0.032 C 
BRANCH   4   5
ATOM      5  C   UNL     1     -28.834  11.353 -28.550  1.00  0.00     0.034 C 
BRANCH   5   6
ATOM      6  C   UNL     1     -28.853  12.044 -29.901  1.00  0.00    -0.077 C 
ATOM      7  C   UNL     1     -29.971  11.714 -30.856  1.00  0.00     0.039 C 
ATOM      8  C   UNL     1     -27.963  12.999 -30.263  1.00  0.00    -0.023 CG0
ATOM      9  G   UNL     1     -26.774  13.451 -29.448  1.00  0.00     0.000 G0
ENDBRANCH   5   6
ENDBRANCH   4   5
ENDBRANCH   2   4
BRANCH   1  10
ATOM     10  C   UNL     1     -25.403  10.664 -29.907  1.00  0.00     0.111 C 
BRANCH  10  11
ATOM     11  C   UNL     1     -24.709  11.990 -30.082  1.00  0.00     0.163 C 
ATOM     12  O   UNL     1     -23.453  11.981 -30.200  1.00  0.00    -0.294 OA
BRANCH  11  13
ATOM     13  C   UNL     1     -25.454  13.290 -30.175  1.00  0.00    -0.002 C 
ATOM     14  C   UNL     1     -24.933  14.347 -30.872  1.00  0.00    -0.069 C 
ATOM     15  C   UNL     1     -25.617  15.696 -30.900  1.00  0.00     0.039 C 
ATOM     16  C   UNL     1     -23.671  14.213 -31.697  1.00  0.00     0.039 C 
BRANCH  13  17
ATOM     17  C   UNL     1     -26.780  13.430 -29.429  1.00  0.00     0.066 CG0
ATOM     18  G   UNL     1     -27.957  13.002 -30.273  1.00  0.00     0.000 G0
ENDBRANCH  13  17
ENDBRANCH  11  13
ENDBRANCH  10  11
ENDBRANCH   1  10
TORSDOF 0
ENDMDL
MODEL 4
REMARK VINA RESULT:    -3.017      1.676      3.765
REMARK INTER + INTRA:          -4.117
REMARK INTER:                  -5.914
REMARK INTRA:                   1.797
REMARK UNBOUND:                 0.135
REMARK SMILES CC1=CCC(=C(C)C)C(=O)CC(C)=CCC1
REMARK SMILES IDX 12 1 14 2 13 3 15 4 16 5 2 6 1 7 3 8 11 10 9 11 10 12 5 13
REMARK SMILES IDX 6 14 7 15 8 16 4 17
REMARK H PARENT
REMARK Flexibility Score: 60.00
ROOT
ATOM      1  C   UNL     1     -18.632  12.313 -30.371  1.00  0.00    -0.070 C 
ATOM      2  C   UNL     1     -18.082  12.166 -31.606  1.00  0.00    -0.027 C 
ATOM      3  C   UNL     1     -20.135  12.297 -30.244  1.00  0.00     0.039 C 
ENDROOT
BRANCH   2   4
ATOM      4  C   UNL     1     -16.611  12.250 -31.936  1.00  0.00     0.032 C 
BRANCH   4   5
ATOM      5  C   UNL     1     -15.939  13.518 -31.394  1.00  0.00     0.034 C 
BRANCH   5   6
ATOM      6  C   UNL     1     -14.576  13.184 -30.818  1.00  0.00    -0.077 C 
ATOM      7  C   UNL     1     -13.519  14.259 -30.814  1.00  0.00     0.039 C 
ATOM      8  C   UNL     1     -14.283  11.997 -30.235  1.00  0.00    -0.023 CG0
ATOM      9  G   UNL     1     -15.204  10.802 -30.156  1.00  0.00     0.000 G0
ENDBRANCH   5   6
ENDBRANCH   4   5
ENDBRANCH   2   4
BRANCH   1  10
ATOM     10  C   UNL     1     -17.833  12.352 -29.075  1.00  0.00     0.111 C 
BRANCH  10  11
ATOM     11  C   UNL     1     -17.303  11.009 -28.642  1.00  0.00     0.163 C 
ATOM     12  O   UNL     1     -18.132  10.172 -28.190  1.00  0.00    -0.294 OA
BRANCH  11  13
ATOM     13  C   UNL     1     -15.859  10.623 -28.783  1.00  0.00    -0.002 C 
ATOM     14  C   UNL     1     -15.142  10.190 -27.700  1.00  0.00    -0.069 C 
ATOM     15  C   UNL     1     -13.662   9.889 -27.795  1.00  0.00     0.039 C 
ATOM     16  C   UNL     1     -15.797   9.940 -26.359  1.00  0.00     0.039 C 
BRANCH  13  17
ATOM     17  C   UNL     1     -15.190  10.777 -30.147  1.00  0.00     0.066 CG0
ATOM     18  G   UNL     1     -14.310  12.002 -30.215  1.00  0.00     0.000 G0
ENDBRANCH  13  17
ENDBRANCH  11  13
ENDBRANCH  10  11
ENDBRANCH   1  10
TORSDOF 0
ENDMDL
MODEL 5
REMARK VINA RESULT:    -2.920      1.732      3.213
REMARK INTER + INTRA:          -3.980
REMARK INTER:                  -4.607
REMARK INTRA:                   0.627
REMARK UNBOUND:                 0.135
REMARK SMILES CC1=CCC(=C(C)C)C(=O)CC(C)=CCC1
REMARK SMILES IDX 12 1 14 2 13 3 15 4 16 5 2 6 1 7 3 8 11 10 9 11 10 12 5 13
REMARK SMILES IDX 6 14 7 15 8 16 4 17
REMARK H PARENT
REMARK Flexibility Score: 60.00
ROOT
ATOM      1  C   UNL     1     -14.946  10.743 -30.615  1.00  0.00    -0.070 C 
ATOM      2  C   UNL     1     -15.570  10.241 -29.517  1.00  0.00    -0.027 C 
ATOM      3  C   UNL     1     -13.450  10.936 -30.570  1.00  0.00     0.039 C 
ENDROOT
BRANCH   2   4
ATOM      4  C   UNL     1     -17.061  10.070 -29.346  1.00  0.00     0.032 C 
BRANCH   4   5
ATOM      5  C   UNL     1     -17.851  11.365 -29.575  1.00  0.00     0.034 C 
BRANCH   5   6
ATOM      6  C   UNL     1     -17.214  12.510 -28.811  1.00  0.00    -0.077 C 
ATOM      7  C   UNL     1     -17.050  12.370 -27.319  1.00  0.00     0.039 C 
ATOM      8  C   UNL     1     -16.712  13.617 -29.408  1.00  0.00    -0.023 CG0
ATOM      9  G   UNL     1     -16.794  13.938 -30.882  1.00  0.00     0.000 G0
ENDBRANCH   5   6
ENDBRANCH   4   5
ENDBRANCH   2   4
BRANCH   1  10
ATOM     10  C   UNL     1     -15.632  10.996 -31.952  1.00  0.00     0.111 C 
BRANCH  10  11
ATOM     11  C   UNL     1     -15.423  12.387 -32.493  1.00  0.00     0.163 C 
ATOM     12  O   UNL     1     -15.259  12.511 -33.738  1.00  0.00    -0.294 OA
BRANCH  11  13
ATOM     13  C   UNL     1     -15.461  13.610 -31.624  1.00  0.00    -0.002 C 
ATOM     14  C   UNL     1     -14.341  14.377 -31.445  1.00  0.00    -0.069 C 
ATOM     15  C   UNL     1     -14.327  15.557 -30.498  1.00  0.00     0.039 C 
ATOM     16  C   UNL     1     -13.068  14.120 -32.221  1.00  0.00     0.039 C 
BRANCH  13  17
ATOM     17  C   UNL     1     -16.760  13.951 -30.895  1.00  0.00     0.066 CG0
ATOM     18  G   UNL     1     -16.691  13.621 -29.423  1.00  0.00     0.000 G0
ENDBRANCH  13  17
ENDBRANCH  11  13
ENDBRANCH  10  11
ENDBRANCH   1  10
TORSDOF 0
ENDMDL
MODEL 6
REMARK VINA RESULT:    -2.832      9.181     12.022
REMARK INTER + INTRA:          -3.856
REMARK INTER:                  -4.922
REMARK INTRA:                   1.067
REMARK UNBOUND:                 0.135
REMARK SMILES CC1=CCC(=C(C)C)C(=O)CC(C)=CCC1
REMARK SMILES IDX 12 1 14 2 13 3 15 4 16 5 2 6 1 7 3 8 11 10 9 11 10 12 5 13
REMARK SMILES IDX 6 14 7 15 8 16 4 17
REMARK H PARENT
REMARK Flexibility Score: 60.00
ROOT
ATOM      1  C   UNL     1     -29.333  11.924 -29.966  1.00  0.00    -0.070 C 
ATOM      2  C   UNL     1     -29.418  12.814 -30.991  1.00  0.00    -0.027 C 
ATOM      3  C   UNL     1     -29.976  10.569 -30.132  1.00  0.00     0.039 C 
ENDROOT
BRANCH   2   4
ATOM      4  C   UNL     1     -28.921  14.240 -30.969  1.00  0.00     0.032 C 
BRANCH   4   5
ATOM      5  C   UNL     1     -27.643  14.450 -31.792  1.00  0.00     0.034 C 
BRANCH   5   6
ATOM      6  C   UNL     1     -26.454  14.645 -30.872  1.00  0.00    -0.077 C 
ATOM      7  C   UNL     1     -26.054  16.052 -30.510  1.00  0.00     0.039 C 
ATOM      8  C   UNL     1     -25.780  13.621 -30.294  1.00  0.00    -0.023 CG0
ATOM      9  G   UNL     1     -26.027  12.152 -30.544  1.00  0.00     0.000 G0
ENDBRANCH   5   6
ENDBRANCH   4   5
ENDBRANCH   2   4
BRANCH   1  10
ATOM     10  C   UNL     1     -28.508  12.144 -28.705  1.00  0.00     0.111 C 
BRANCH  10  11
ATOM     11  C   UNL     1     -27.372  11.168 -28.538  1.00  0.00     0.163 C 
ATOM     12  O   UNL     1     -27.570  10.160 -27.805  1.00  0.00    -0.294 OA
BRANCH  11  13
ATOM     13  C   UNL     1     -26.059  11.322 -29.250  1.00  0.00    -0.002 C 
ATOM     14  C   UNL     1     -24.913  10.787 -28.726  1.00  0.00    -0.069 C 
ATOM     15  C   UNL     1     -23.563  11.012 -29.372  1.00  0.00     0.039 C 
ATOM     16  C   UNL     1     -24.935   9.900 -27.500  1.00  0.00     0.039 C 
BRANCH  13  17
ATOM     17  C   UNL     1     -26.017  12.136 -30.541  1.00  0.00     0.066 CG0
ATOM     18  G   UNL     1     -25.798  13.607 -30.280  1.00  0.00     0.000 G0
ENDBRANCH  13  17
ENDBRANCH  11  13
ENDBRANCH  10  11
ENDBRANCH   1  10
TORSDOF 0
ENDMDL
MODEL 7
REMARK VINA RESULT:    -2.749      1.756      4.440
REMARK INTER + INTRA:          -3.739
REMARK INTER:                  -4.962
REMARK INTRA:                   1.223
REMARK UNBOUND:                 0.135
REMARK SMILES CC1=CCC(=C(C)C)C(=O)CC(C)=CCC1
REMARK SMILES IDX 12 1 14 2 13 3 15 4 16 5 2 6 1 7 3 8 11 10 9 11 10 12 5 13
REMARK SMILES IDX 6 14 7 15 8 16 4 17
REMARK H PARENT
REMARK Flexibility Score: 60.00
ROOT
ATOM      1  C   UNL     1     -14.998  13.695 -30.951  1.00  0.00    -0.070 C 
ATOM      2  C   UNL     1     -16.338  13.873 -30.804  1.00  0.00    -0.027 C 
ATOM      3  C   UNL     1     -14.083  14.869 -30.702  1.00  0.00     0.039 C 
ENDROOT
BRANCH   2   4
ATOM      4  C   UNL     1     -17.405  12.846 -31.100  1.00  0.00     0.032 C 
BRANCH   4   5
ATOM      5  C   UNL     1     -18.524  12.815 -30.051  1.00  0.00     0.034 C 
BRANCH   5   6
ATOM      6  C   UNL     1     -18.589  11.450 -29.393  1.00  0.00    -0.077 C 
ATOM      7  C   UNL     1     -19.813  10.602 -29.625  1.00  0.00     0.039 C 
ATOM      8  C   UNL     1     -17.571  10.919 -28.674  1.00  0.00    -0.023 CG0
ATOM      9  G   UNL     1     -16.278  11.619 -28.327  1.00  0.00     0.000 G0
ENDBRANCH   5   6
ENDBRANCH   4   5
ENDBRANCH   2   4
BRANCH   1  10
ATOM     10  C   UNL     1     -14.334  12.349 -31.212  1.00  0.00     0.111 C 
BRANCH  10  11
ATOM     11  C   UNL     1     -15.013  11.189 -30.530  1.00  0.00     0.163 C 
ATOM     12  O   UNL     1     -15.496  10.282 -31.261  1.00  0.00    -0.294 OA
BRANCH  11  13
ATOM     13  C   UNL     1     -15.079  11.053 -29.036  1.00  0.00    -0.002 C 
ATOM     14  C   UNL     1     -14.102  10.382 -28.351  1.00  0.00    -0.069 C 
ATOM     15  C   UNL     1     -14.195  10.147 -26.859  1.00  0.00     0.039 C 
ATOM     16  C   UNL     1     -12.848   9.883 -29.035  1.00  0.00     0.039 C 
BRANCH  13  17
ATOM     17  C   UNL     1     -16.289  11.627 -28.301  1.00  0.00     0.066 CG0
ATOM     18  G   UNL     1     -17.569  10.914 -28.665  1.00  0.00     0.000 G0
ENDBRANCH  13  17
ENDBRANCH  11  13
ENDBRANCH  10  11
ENDBRANCH   1  10
TORSDOF 0
ENDMDL
MODEL 8
REMARK VINA RESULT:    -2.605      8.325     11.312
REMARK INTER + INTRA:          -3.536
REMARK INTER:                  -4.279
REMARK INTRA:                   0.743
REMARK UNBOUND:                 0.135
REMARK SMILES CC1=CCC(=C(C)C)C(=O)CC(C)=CCC1
REMARK SMILES IDX 12 1 14 2 13 3 15 4 16 5 2 6 1 7 3 8 11 10 9 11 10 12 5 13
REMARK SMILES IDX 6 14 7 15 8 16 4 17
REMARK H PARENT
REMARK Flexibility Score: 60.00
ROOT
ATOM      1  C   UNL     1     -28.472  13.545 -30.781  1.00  0.00    -0.070 C 
ATOM      2  C   UNL     1     -29.544  12.753 -30.509  1.00  0.00    -0.027 C 
ATOM      3  C   UNL     1     -28.551  14.486 -31.957  1.00  0.00     0.039 C 
ENDROOT
BRANCH   2   4
ATOM      4  C   UNL     1     -29.611  11.691 -29.437  1.00  0.00     0.032 C 
BRANCH   4   5
ATOM      5  C   UNL     1     -28.784  10.442 -29.769  1.00  0.00     0.034 C 
BRANCH   5   6
ATOM      6  C   UNL     1     -27.648  10.287 -28.776  1.00  0.00    -0.077 C 
ATOM      7  C   UNL     1     -27.984   9.885 -27.363  1.00  0.00     0.039 C 
ATOM      8  C   UNL     1     -26.341  10.413 -29.111  1.00  0.00    -0.023 CG0
ATOM      9  G   UNL     1     -25.814  10.821 -30.466  1.00  0.00     0.000 G0
ENDBRANCH   5   6
ENDBRANCH   4   5
ENDBRANCH   2   4
BRANCH   1  10
ATOM     10  C   UNL     1     -27.239  13.654 -29.894  1.00  0.00     0.111 C 
BRANCH  10  11
ATOM     11  C   UNL     1     -25.939  13.425 -30.621  1.00  0.00     0.163 C 
ATOM     12  O   UNL     1     -25.525  14.342 -31.383  1.00  0.00    -0.294 OA
BRANCH  11  13
ATOM     13  C   UNL     1     -25.108  12.189 -30.427  1.00  0.00    -0.002 C 
ATOM     14  C   UNL     1     -23.751  12.277 -30.271  1.00  0.00    -0.069 C 
ATOM     15  C   UNL     1     -22.881  11.042 -30.172  1.00  0.00     0.039 C 
ATOM     16  C   UNL     1     -23.049  13.610 -30.136  1.00  0.00     0.039 C 
BRANCH  13  17
ATOM     17  C   UNL     1     -25.800  10.828 -30.466  1.00  0.00     0.066 CG0
ATOM     18  G   UNL     1     -26.345  10.427 -29.115  1.00  0.00     0.000 G0
ENDBRANCH  13  17
ENDBRANCH  11  13
ENDBRANCH  10  11
ENDBRANCH   1  10
TORSDOF 0
ENDMDL
MODEL 9
REMARK VINA RESULT:    -2.406      8.928     11.562
REMARK INTER + INTRA:          -3.256
REMARK INTER:                  -4.551
REMARK INTRA:                   1.295
REMARK UNBOUND:                 0.135
REMARK SMILES CC1=CCC(=C(C)C)C(=O)CC(C)=CCC1
REMARK SMILES IDX 12 1 14 2 13 3 15 4 16 5 2 6 1 7 3 8 11 10 9 11 10 12 5 13
REMARK SMILES IDX 6 14 7 15 8 16 4 17
REMARK H PARENT
REMARK Flexibility Score: 60.00
ROOT
ATOM      1  C   UNL     1     -24.706  13.777 -30.452  1.00  0.00    -0.070 C 
ATOM      2  C   UNL     1     -23.596  12.992 -30.488  1.00  0.00    -0.027 C 
ATOM      3  C   UNL     1     -24.772  14.975 -31.367  1.00  0.00     0.039 C 
ENDROOT
BRANCH   2   4
ATOM      4  C   UNL     1     -23.315  11.814 -29.586  1.00  0.00     0.032 C 
BRANCH   4   5
ATOM      5  C   UNL     1     -24.077  10.545 -29.989  1.00  0.00     0.034 C 
BRANCH   5   6
ATOM      6  C   UNL     1     -25.143  10.224 -28.958  1.00  0.00    -0.077 C 
ATOM      7  C   UNL     1     -24.703   9.890 -27.556  1.00  0.00     0.039 C 
ATOM      8  C   UNL     1     -26.472  10.299 -29.211  1.00  0.00    -0.023 CG0
ATOM      9  G   UNL     1     -27.099  10.604 -30.551  1.00  0.00     0.000 G0
ENDBRANCH   5   6
ENDBRANCH   4   5
ENDBRANCH   2   4
BRANCH   1  10
ATOM     10  C   UNL     1     -25.960  13.454 -29.651  1.00  0.00     0.111 C 
BRANCH  10  11
ATOM     11  C   UNL     1     -27.186  13.226 -30.498  1.00  0.00     0.163 C 
ATOM     12  O   UNL     1     -27.567  14.171 -31.242  1.00  0.00    -0.294 OA
BRANCH  11  13
ATOM     13  C   UNL     1     -27.919  11.916 -30.528  1.00  0.00    -0.002 C 
ATOM     14  C   UNL     1     -29.287  11.878 -30.481  1.00  0.00    -0.069 C 
ATOM     15  C   UNL     1     -30.044  10.570 -30.411  1.00  0.00     0.039 C 
ATOM     16  C   UNL     1     -30.121  13.138 -30.549  1.00  0.00     0.039 C 
BRANCH  13  17
ATOM     17  C   UNL     1     -27.107  10.622 -30.553  1.00  0.00     0.066 CG0
ATOM     18  G   UNL     1     -26.490  10.310 -29.210  1.00  0.00     0.000 G0
ENDBRANCH  13  17
ENDBRANCH  11  13
ENDBRANCH  10  11
ENDBRANCH   1  10
TORSDOF 0
ENDMDL
