MODEL 1
REMARK VINA RESULT:    -6.815      0.000      0.000
REMARK INTER + INTRA:         -10.843
REMARK INTER:                  -9.006
REMARK INTRA:                  -1.837
REMARK UNBOUND:                -1.837
REMARK SMILES CC[C@H](C=C[C@@H](C)[C@@H]1CC[C@H]2[C@H]3CC=C4C[C@@H](O)CC[C@]4(C)[C@@H]3CC[C@]21C)C(C)C
REMARK SMILES IDX 6 1 7 2 5 3 4 4 3 5 2 6 1 7 28 8 29 9 30 10 8 11 9 12 26 13
REMARK SMILES IDX 10 14 11 15 25 16 27 17 12 18 24 19 23 20 13 21 21 22 14 23
REMARK SMILES IDX 15 24 20 25 22 26 16 27 19 28 17 29 18 30
REMARK H PARENT 18 31
REMARK Flexibility Score: inf
ROOT
ATOM      1  C   UNL     1     133.287 126.717 138.193  1.00  0.00     0.012 C 
ATOM      2  C   UNL     1     134.250 125.594 137.769  1.00  0.00     0.012 C 
ENDROOT
BRANCH   1   3
ATOM      3  C   UNL     1     132.764 127.501 137.000  1.00  0.00    -0.028 C 
ATOM      4  C   UNL     1     133.502 128.297 136.198  1.00  0.00    -0.027 C 
BRANCH   4   5
ATOM      5  C   UNL     1     134.995 128.558 136.317  1.00  0.00     0.014 C 
BRANCH   5   6
ATOM      6  C   UNL     1     135.750 127.784 135.210  1.00  0.00     0.004 C 
ATOM      7  C   UNL     1     134.858 127.500 133.999  1.00  0.00     0.004 C 
ENDBRANCH   5   6
BRANCH   5   8
ATOM      8  C   UNL     1     135.270 130.093 136.301  1.00  0.00    -0.011 C 
ATOM      9  C   UNL     1     134.056 130.937 135.877  1.00  0.00     0.008 C 
ATOM     10  C   UNL     1     136.490 130.448 135.435  1.00  0.00     0.008 C 
ENDBRANCH   5   8
ENDBRANCH   4   5
ENDBRANCH   1   3
BRANCH   1  11
ATOM     11  C   UNL     1     133.870 127.590 139.357  1.00  0.00     0.002 C 
ATOM     12  C   UNL     1     134.642 126.765 140.384  1.00  0.00     0.005 C 
ATOM     13  C   UNL     1     132.997 128.604 140.193  1.00  0.00    -0.026 C 
ATOM     14  C   UNL     1     134.929 127.740 141.508  1.00  0.00     0.005 C 
ATOM     15  C   UNL     1     133.661 128.594 141.616  1.00  0.00    -0.001 C 
ATOM     16  C   UNL     1     133.032 130.032 139.553  1.00  0.00     0.007 C 
ATOM     17  C   UNL     1     131.512 128.189 140.359  1.00  0.00     0.012 C 
ATOM     18  C   UNL     1     133.867 130.008 142.219  1.00  0.00     0.000 C 
ATOM     19  C   UNL     1     134.350 130.785 139.803  1.00  0.00     0.005 C 
ATOM     20  C   UNL     1     134.685 130.958 141.314  1.00  0.00     0.003 C 
ATOM     21  C   UNL     1     134.524 129.973 143.603  1.00  0.00     0.031 C 
ATOM     22  C   UNL     1     134.634 132.440 141.859  1.00  0.00    -0.008 C 
ATOM     23  C   UNL     1     134.625 131.361 144.168  1.00  0.00    -0.027 C 
ATOM     24  C   UNL     1     134.710 132.473 143.401  1.00  0.00    -0.065 C 
ATOM     25  C   UNL     1     133.309 133.169 141.451  1.00  0.00     0.014 C 
ATOM     26  C   UNL     1     135.857 133.200 141.282  1.00  0.00     0.016 C 
ATOM     27  C   UNL     1     134.587 133.822 144.075  1.00  0.00     0.063 C 
ATOM     28  C   UNL     1     133.125 134.547 142.123  1.00  0.00     0.033 C 
ATOM     29  C   UNL     1     133.257 134.467 143.657  1.00  0.00     0.118 C 
BRANCH  29  30
ATOM     30  O   UNL     1     133.119 135.741 144.234  1.00  0.00    -0.393 OA
ATOM     31  H   UNL     1     133.412 136.409 143.560  1.00  0.00     0.210 HD
ENDBRANCH  29  30
ENDBRANCH   1  11
TORSDOF 6
ENDMDL
MODEL 2
REMARK VINA RESULT:    -6.536      3.255      5.612
REMARK INTER + INTRA:         -10.475
REMARK INTER:                  -8.689
REMARK INTRA:                  -1.785
REMARK UNBOUND:                -1.837
REMARK SMILES CC[C@H](C=C[C@@H](C)[C@@H]1CC[C@H]2[C@H]3CC=C4C[C@@H](O)CC[C@]4(C)[C@@H]3CC[C@]21C)C(C)C
REMARK SMILES IDX 6 1 7 2 5 3 4 4 3 5 2 6 1 7 28 8 29 9 30 10 8 11 9 12 26 13
REMARK SMILES IDX 10 14 11 15 25 16 27 17 12 18 24 19 23 20 13 21 21 22 14 23
REMARK SMILES IDX 15 24 20 25 22 26 16 27 19 28 17 29 18 30
REMARK H PARENT 18 31
REMARK Flexibility Score: inf
ROOT
ATOM      1  C   UNL     1     132.479 131.835 137.190  1.00  0.00     0.012 C 
ATOM      2  C   UNL     1     131.266 132.754 137.418  1.00  0.00     0.012 C 
ENDROOT
BRANCH   1   3
ATOM      3  C   UNL     1     132.901 131.798 135.730  1.00  0.00    -0.028 C 
ATOM      4  C   UNL     1     133.920 131.072 135.226  1.00  0.00    -0.027 C 
BRANCH   4   5
ATOM      5  C   UNL     1     134.837 130.144 136.006  1.00  0.00     0.014 C 
BRANCH   5   6
ATOM      6  C   UNL     1     135.031 128.823 135.223  1.00  0.00     0.004 C 
ATOM      7  C   UNL     1     136.176 127.983 135.792  1.00  0.00     0.004 C 
ENDBRANCH   5   6
BRANCH   5   8
ATOM      8  C   UNL     1     136.176 130.873 136.337  1.00  0.00    -0.011 C 
ATOM      9  C   UNL     1     136.050 131.930 137.447  1.00  0.00     0.008 C 
ATOM     10  C   UNL     1     136.816 131.494 135.085  1.00  0.00     0.008 C 
ENDBRANCH   5   8
ENDBRANCH   4   5
ENDBRANCH   1   3
BRANCH   1  11
ATOM     11  C   UNL     1     132.295 130.433 137.865  1.00  0.00     0.002 C 
ATOM     12  C   UNL     1     130.873 129.894 137.730  1.00  0.00     0.005 C 
ATOM     13  C   UNL     1     132.726 130.130 139.353  1.00  0.00    -0.026 C 
ATOM     14  C   UNL     1     130.854 128.663 138.613  1.00  0.00     0.005 C 
ATOM     15  C   UNL     1     131.698 129.046 139.833  1.00  0.00    -0.001 C 
ATOM     16  C   UNL     1     134.196 129.594 139.411  1.00  0.00     0.007 C 
ATOM     17  C   UNL     1     132.621 131.344 140.312  1.00  0.00     0.012 C 
ATOM     18  C   UNL     1     132.350 127.855 140.584  1.00  0.00     0.000 C 
ATOM     19  C   UNL     1     134.335 128.131 138.954  1.00  0.00     0.005 C 
ATOM     20  C   UNL     1     133.459 127.142 139.776  1.00  0.00     0.003 C 
ATOM     21  C   UNL     1     131.328 126.807 141.035  1.00  0.00     0.031 C 
ATOM     22  C   UNL     1     134.252 126.122 140.686  1.00  0.00    -0.008 C 
ATOM     23  C   UNL     1     132.005 125.723 141.823  1.00  0.00    -0.027 C 
ATOM     24  C   UNL     1     133.304 125.380 141.654  1.00  0.00    -0.065 C 
ATOM     25  C   UNL     1     135.333 126.838 141.564  1.00  0.00     0.014 C 
ATOM     26  C   UNL     1     134.929 125.082 139.754  1.00  0.00     0.016 C 
ATOM     27  C   UNL     1     133.932 124.429 142.650  1.00  0.00     0.063 C 
ATOM     28  C   UNL     1     135.997 125.916 142.609  1.00  0.00     0.033 C 
ATOM     29  C   UNL     1     134.958 125.201 143.495  1.00  0.00     0.118 C 
BRANCH  29  30
ATOM     30  O   UNL     1     135.592 124.345 144.411  1.00  0.00    -0.393 OA
ATOM     31  H   UNL     1     136.477 124.101 144.031  1.00  0.00     0.210 HD
ENDBRANCH  29  30
ENDBRANCH   1  11
TORSDOF 6
ENDMDL
MODEL 3
REMARK VINA RESULT:    -6.361      3.104      7.439
REMARK INTER + INTRA:         -10.243
REMARK INTER:                  -8.944
REMARK INTRA:                  -1.299
REMARK UNBOUND:                -1.837
REMARK SMILES CC[C@H](C=C[C@@H](C)[C@@H]1CC[C@H]2[C@H]3CC=C4C[C@@H](O)CC[C@]4(C)[C@@H]3CC[C@]21C)C(C)C
REMARK SMILES IDX 6 1 7 2 5 3 4 4 3 5 2 6 1 7 28 8 29 9 30 10 8 11 9 12 26 13
REMARK SMILES IDX 10 14 11 15 25 16 27 17 12 18 24 19 23 20 13 21 21 22 14 23
REMARK SMILES IDX 15 24 20 25 22 26 16 27 19 28 17 29 18 30
REMARK H PARENT 18 31
REMARK Flexibility Score: inf
ROOT
ATOM      1  C   UNL     1     132.757 132.677 139.482  1.00  0.00     0.012 C 
ATOM      2  C   UNL     1     132.023 133.113 138.202  1.00  0.00     0.012 C 
ENDROOT
BRANCH   1   3
ATOM      3  C   UNL     1     133.668 133.769 140.018  1.00  0.00    -0.028 C 
ATOM      4  C   UNL     1     134.127 133.858 141.283  1.00  0.00    -0.027 C 
BRANCH   4   5
ATOM      5  C   UNL     1     133.840 132.885 142.415  1.00  0.00     0.014 C 
BRANCH   5   6
ATOM      6  C   UNL     1     134.962 131.821 142.486  1.00  0.00     0.004 C 
ATOM      7  C   UNL     1     134.944 131.058 143.812  1.00  0.00     0.004 C 
ENDBRANCH   5   6
BRANCH   5   8
ATOM      8  C   UNL     1     133.638 133.666 143.750  1.00  0.00    -0.011 C 
ATOM      9  C   UNL     1     132.317 133.338 144.468  1.00  0.00     0.008 C 
ATOM     10  C   UNL     1     133.770 135.184 143.553  1.00  0.00     0.008 C 
ENDBRANCH   5   8
ENDBRANCH   4   5
ENDBRANCH   1   3
BRANCH   1  11
ATOM     11  C   UNL     1     133.427 131.268 139.329  1.00  0.00     0.002 C 
ATOM     12  C   UNL     1     134.258 131.143 138.055  1.00  0.00     0.005 C 
ATOM     13  C   UNL     1     132.624 129.915 139.449  1.00  0.00    -0.026 C 
ATOM     14  C   UNL     1     134.631 129.676 137.993  1.00  0.00     0.005 C 
ATOM     15  C   UNL     1     133.382 128.936 138.485  1.00  0.00    -0.001 C 
ATOM     16  C   UNL     1     132.629 129.389 140.923  1.00  0.00     0.007 C 
ATOM     17  C   UNL     1     131.148 130.000 138.976  1.00  0.00     0.012 C 
ATOM     18  C   UNL     1     133.644 127.534 139.096  1.00  0.00     0.000 C 
ATOM     19  C   UNL     1     133.969 128.761 141.346  1.00  0.00     0.005 C 
ATOM     20  C   UNL     1     134.408 127.574 140.440  1.00  0.00     0.003 C 
ATOM     21  C   UNL     1     134.393 126.601 138.140  1.00  0.00     0.031 C 
ATOM     22  C   UNL     1     134.409 126.153 141.130  1.00  0.00    -0.008 C 
ATOM     23  C   UNL     1     134.547 125.239 138.754  1.00  0.00    -0.027 C 
ATOM     24  C   UNL     1     134.591 125.025 140.090  1.00  0.00    -0.065 C 
ATOM     25  C   UNL     1     133.068 125.867 141.885  1.00  0.00     0.014 C 
ATOM     26  C   UNL     1     135.599 126.111 142.126  1.00  0.00     0.016 C 
ATOM     27  C   UNL     1     134.528 123.599 140.592  1.00  0.00     0.063 C 
ATOM     28  C   UNL     1     132.944 124.419 142.407  1.00  0.00     0.033 C 
ATOM     29  C   UNL     1     133.179 123.379 141.295  1.00  0.00     0.118 C 
BRANCH  29  30
ATOM     30  O   UNL     1     133.094 122.074 141.809  1.00  0.00    -0.393 OA
ATOM     31  H   UNL     1     134.018 121.717 141.877  1.00  0.00     0.210 HD
ENDBRANCH  29  30
ENDBRANCH   1  11
TORSDOF 6
ENDMDL
MODEL 4
REMARK VINA RESULT:    -6.247      3.057      6.589
REMARK INTER + INTRA:         -10.092
REMARK INTER:                  -8.274
REMARK INTRA:                  -1.817
REMARK UNBOUND:                -1.837
REMARK SMILES CC[C@H](C=C[C@@H](C)[C@@H]1CC[C@H]2[C@H]3CC=C4C[C@@H](O)CC[C@]4(C)[C@@H]3CC[C@]21C)C(C)C
REMARK SMILES IDX 6 1 7 2 5 3 4 4 3 5 2 6 1 7 28 8 29 9 30 10 8 11 9 12 26 13
REMARK SMILES IDX 10 14 11 15 25 16 27 17 12 18 24 19 23 20 13 21 21 22 14 23
REMARK SMILES IDX 15 24 20 25 22 26 16 27 19 28 17 29 18 30
REMARK H PARENT 18 31
REMARK Flexibility Score: inf
ROOT
ATOM      1  C   UNL     1     132.390 131.493 136.673  1.00  0.00     0.012 C 
ATOM      2  C   UNL     1     133.114 132.243 135.541  1.00  0.00     0.012 C 
ENDROOT
BRANCH   1   3
ATOM      3  C   UNL     1     131.992 132.420 137.810  1.00  0.00    -0.028 C 
ATOM      4  C   UNL     1     132.738 132.690 138.901  1.00  0.00    -0.027 C 
BRANCH   4   5
ATOM      5  C   UNL     1     134.121 132.137 139.205  1.00  0.00     0.014 C 
BRANCH   5   6
ATOM      6  C   UNL     1     135.187 132.935 138.418  1.00  0.00     0.004 C 
ATOM      7  C   UNL     1     136.129 132.017 137.636  1.00  0.00     0.004 C 
ENDBRANCH   5   6
BRANCH   5   8
ATOM      8  C   UNL     1     134.364 132.127 140.746  1.00  0.00    -0.011 C 
ATOM      9  C   UNL     1     133.108 131.795 141.571  1.00  0.00     0.008 C 
ATOM     10  C   UNL     1     134.986 133.444 141.237  1.00  0.00     0.008 C 
ENDBRANCH   5   8
ENDBRANCH   4   5
ENDBRANCH   1   3
BRANCH   1  11
ATOM     11  C   UNL     1     133.156 130.197 137.110  1.00  0.00     0.002 C 
ATOM     12  C   UNL     1     134.103 129.679 136.030  1.00  0.00     0.005 C 
ATOM     13  C   UNL     1     132.430 128.921 137.689  1.00  0.00    -0.026 C 
ATOM     14  C   UNL     1     134.570 128.336 136.555  1.00  0.00     0.005 C 
ATOM     15  C   UNL     1     133.330 127.725 137.218  1.00  0.00    -0.001 C 
ATOM     16  C   UNL     1     132.337 128.990 139.250  1.00  0.00     0.007 C 
ATOM     17  C   UNL     1     131.000 128.688 137.134  1.00  0.00     0.012 C 
ATOM     18  C   UNL     1     133.622 126.686 138.332  1.00  0.00     0.000 C 
ATOM     19  C   UNL     1     133.670 128.692 139.958  1.00  0.00     0.005 C 
ATOM     20  C   UNL     1     134.260 127.297 139.601  1.00  0.00     0.003 C 
ATOM     21  C   UNL     1     134.509 125.533 137.850  1.00  0.00     0.031 C 
ATOM     22  C   UNL     1     134.287 126.246 140.781  1.00  0.00    -0.008 C 
ATOM     23  C   UNL     1     134.691 124.522 138.946  1.00  0.00    -0.027 C 
ATOM     24  C   UNL     1     134.630 124.831 140.263  1.00  0.00    -0.065 C 
ATOM     25  C   UNL     1     132.904 126.144 141.507  1.00  0.00     0.014 C 
ATOM     26  C   UNL     1     135.384 126.689 141.785  1.00  0.00     0.016 C 
ATOM     27  C   UNL     1     134.610 123.699 141.266  1.00  0.00     0.063 C 
ATOM     28  C   UNL     1     132.824 124.994 142.534  1.00  0.00     0.033 C 
ATOM     29  C   UNL     1     133.220 123.637 141.919  1.00  0.00     0.118 C 
BRANCH  29  30
ATOM     30  O   UNL     1     133.170 122.620 142.886  1.00  0.00    -0.393 OA
ATOM     31  H   UNL     1     133.056 123.053 143.773  1.00  0.00     0.210 HD
ENDBRANCH  29  30
ENDBRANCH   1  11
TORSDOF 6
ENDMDL
MODEL 5
REMARK VINA RESULT:    -6.067      3.082      8.124
REMARK INTER + INTRA:          -9.854
REMARK INTER:                  -9.232
REMARK INTRA:                  -0.622
REMARK UNBOUND:                -1.837
REMARK SMILES CC[C@H](C=C[C@@H](C)[C@@H]1CC[C@H]2[C@H]3CC=C4C[C@@H](O)CC[C@]4(C)[C@@H]3CC[C@]21C)C(C)C
REMARK SMILES IDX 6 1 7 2 5 3 4 4 3 5 2 6 1 7 28 8 29 9 30 10 8 11 9 12 26 13
REMARK SMILES IDX 10 14 11 15 25 16 27 17 12 18 24 19 23 20 13 21 21 22 14 23
REMARK SMILES IDX 15 24 20 25 22 26 16 27 19 28 17 29 18 30
REMARK H PARENT 18 31
REMARK Flexibility Score: inf
ROOT
ATOM      1  C   UNL     1     132.998 133.080 140.219  1.00  0.00     0.012 C 
ATOM      2  C   UNL     1     132.358 134.089 139.249  1.00  0.00     0.012 C 
ENDROOT
BRANCH   1   3
ATOM      3  C   UNL     1     134.354 133.550 140.719  1.00  0.00    -0.028 C 
ATOM      4  C   UNL     1     134.629 133.958 141.975  1.00  0.00    -0.027 C 
BRANCH   4   5
ATOM      5  C   UNL     1     133.651 134.017 143.137  1.00  0.00     0.014 C 
BRANCH   5   6
ATOM      6  C   UNL     1     133.935 132.853 144.117  1.00  0.00     0.004 C 
ATOM      7  C   UNL     1     133.153 131.591 143.749  1.00  0.00     0.004 C 
ENDBRANCH   5   6
BRANCH   5   8
ATOM      8  C   UNL     1     133.706 135.424 143.810  1.00  0.00    -0.011 C 
ATOM      9  C   UNL     1     134.870 135.593 144.801  1.00  0.00     0.008 C 
ATOM     10  C   UNL     1     132.376 135.788 144.488  1.00  0.00     0.008 C 
ENDBRANCH   5   8
ENDBRANCH   4   5
ENDBRANCH   1   3
BRANCH   1  11
ATOM     11  C   UNL     1     132.968 131.617 139.656  1.00  0.00     0.002 C 
ATOM     12  C   UNL     1     131.779 130.810 140.171  1.00  0.00     0.005 C 
ATOM     13  C   UNL     1     134.208 130.643 139.726  1.00  0.00    -0.026 C 
ATOM     14  C   UNL     1     132.050 129.399 139.692  1.00  0.00     0.005 C 
ATOM     15  C   UNL     1     133.563 129.217 139.851  1.00  0.00    -0.001 C 
ATOM     16  C   UNL     1     135.088 130.764 138.438  1.00  0.00     0.007 C 
ATOM     17  C   UNL     1     135.127 130.859 140.957  1.00  0.00     0.012 C 
ATOM     18  C   UNL     1     134.202 128.158 138.915  1.00  0.00     0.000 C 
ATOM     19  C   UNL     1     134.473 130.076 137.206  1.00  0.00     0.005 C 
ATOM     20  C   UNL     1     134.193 128.560 137.422  1.00  0.00     0.003 C 
ATOM     21  C   UNL     1     133.551 126.778 139.049  1.00  0.00     0.031 C 
ATOM     22  C   UNL     1     135.083 127.574 136.566  1.00  0.00    -0.008 C 
ATOM     23  C   UNL     1     134.261 125.779 138.180  1.00  0.00    -0.027 C 
ATOM     24  C   UNL     1     134.922 126.115 137.047  1.00  0.00    -0.065 C 
ATOM     25  C   UNL     1     136.606 127.922 136.665  1.00  0.00     0.014 C 
ATOM     26  C   UNL     1     134.611 127.669 135.091  1.00  0.00     0.016 C 
ATOM     27  C   UNL     1     135.778 125.063 136.376  1.00  0.00     0.063 C 
ATOM     28  C   UNL     1     137.529 126.872 136.009  1.00  0.00     0.033 C 
ATOM     29  C   UNL     1     137.256 125.450 136.536  1.00  0.00     0.118 C 
BRANCH  29  30
ATOM     30  O   UNL     1     138.087 124.516 135.894  1.00  0.00    -0.393 OA
ATOM     31  H   UNL     1     138.497 123.946 136.597  1.00  0.00     0.210 HD
ENDBRANCH  29  30
ENDBRANCH   1  11
TORSDOF 6
ENDMDL
MODEL 6
REMARK VINA RESULT:    -5.924      3.375      8.233
REMARK INTER + INTRA:          -9.666
REMARK INTER:                  -8.365
REMARK INTRA:                  -1.301
REMARK UNBOUND:                -1.837
REMARK SMILES CC[C@H](C=C[C@@H](C)[C@@H]1CC[C@H]2[C@H]3CC=C4C[C@@H](O)CC[C@]4(C)[C@@H]3CC[C@]21C)C(C)C
REMARK SMILES IDX 6 1 7 2 5 3 4 4 3 5 2 6 1 7 28 8 29 9 30 10 8 11 9 12 26 13
REMARK SMILES IDX 10 14 11 15 25 16 27 17 12 18 24 19 23 20 13 21 21 22 14 23
REMARK SMILES IDX 15 24 20 25 22 26 16 27 19 28 17 29 18 30
REMARK H PARENT 18 31
REMARK Flexibility Score: inf
ROOT
ATOM      1  C   UNL     1     132.604 132.507 138.867  1.00  0.00     0.012 C 
ATOM      2  C   UNL     1     131.516 133.437 138.302  1.00  0.00     0.012 C 
ENDROOT
BRANCH   1   3
ATOM      3  C   UNL     1     133.575 133.247 139.772  1.00  0.00    -0.028 C 
ATOM      4  C   UNL     1     133.829 132.947 141.063  1.00  0.00    -0.027 C 
BRANCH   4   5
ATOM      5  C   UNL     1     133.213 131.809 141.861  1.00  0.00     0.014 C 
BRANCH   5   6
ATOM      6  C   UNL     1     133.889 130.473 141.473  1.00  0.00     0.004 C 
ATOM      7  C   UNL     1     133.000 129.268 141.786  1.00  0.00     0.004 C 
ENDBRANCH   5   6
BRANCH   5   8
ATOM      8  C   UNL     1     133.290 132.126 143.386  1.00  0.00    -0.011 C 
ATOM      9  C   UNL     1     133.485 133.619 143.702  1.00  0.00     0.008 C 
ATOM     10  C   UNL     1     134.371 131.291 144.092  1.00  0.00     0.008 C 
ENDBRANCH   5   8
ENDBRANCH   4   5
ENDBRANCH   1   3
BRANCH   1  11
ATOM     11  C   UNL     1     133.272 131.631 137.751  1.00  0.00     0.002 C 
ATOM     12  C   UNL     1     132.915 132.097 136.342  1.00  0.00     0.005 C 
ATOM     13  C   UNL     1     133.173 130.056 137.718  1.00  0.00    -0.026 C 
ATOM     14  C   UNL     1     133.472 131.016 135.438  1.00  0.00     0.005 C 
ATOM     15  C   UNL     1     133.204 129.706 136.188  1.00  0.00    -0.001 C 
ATOM     16  C   UNL     1     134.372 129.404 138.482  1.00  0.00     0.007 C 
ATOM     17  C   UNL     1     131.858 129.483 138.310  1.00  0.00     0.012 C 
ATOM     18  C   UNL     1     134.159 128.536 135.835  1.00  0.00     0.000 C 
ATOM     19  C   UNL     1     135.697 129.450 137.699  1.00  0.00     0.005 C 
ATOM     20  C   UNL     1     135.615 128.756 136.308  1.00  0.00     0.003 C 
ATOM     21  C   UNL     1     134.180 128.219 134.336  1.00  0.00     0.031 C 
ATOM     22  C   UNL     1     136.465 127.433 136.154  1.00  0.00    -0.008 C 
ATOM     23  C   UNL     1     135.058 127.031 134.066  1.00  0.00    -0.027 C 
ATOM     24  C   UNL     1     136.106 126.686 134.851  1.00  0.00    -0.065 C 
ATOM     25  C   UNL     1     136.217 126.437 137.336  1.00  0.00     0.014 C 
ATOM     26  C   UNL     1     137.963 127.835 136.104  1.00  0.00     0.016 C 
ATOM     27  C   UNL     1     136.780 125.354 134.605  1.00  0.00     0.063 C 
ATOM     28  C   UNL     1     136.871 125.053 137.130  1.00  0.00     0.033 C 
ATOM     29  C   UNL     1     136.472 124.417 135.784  1.00  0.00     0.118 C 
BRANCH  29  30
ATOM     30  O   UNL     1     137.110 123.177 135.613  1.00  0.00    -0.393 OA
ATOM     31  H   UNL     1     136.539 122.484 136.037  1.00  0.00     0.210 HD
ENDBRANCH  29  30
ENDBRANCH   1  11
TORSDOF 6
ENDMDL
MODEL 7
REMARK VINA RESULT:    -5.812      3.277      7.734
REMARK INTER + INTRA:          -9.517
REMARK INTER:                  -7.740
REMARK INTRA:                  -1.777
REMARK UNBOUND:                -1.837
REMARK SMILES CC[C@H](C=C[C@@H](C)[C@@H]1CC[C@H]2[C@H]3CC=C4C[C@@H](O)CC[C@]4(C)[C@@H]3CC[C@]21C)C(C)C
REMARK SMILES IDX 6 1 7 2 5 3 4 4 3 5 2 6 1 7 28 8 29 9 30 10 8 11 9 12 26 13
REMARK SMILES IDX 10 14 11 15 25 16 27 17 12 18 24 19 23 20 13 21 21 22 14 23
REMARK SMILES IDX 15 24 20 25 22 26 16 27 19 28 17 29 18 30
REMARK H PARENT 18 31
REMARK Flexibility Score: inf
ROOT
ATOM      1  C   UNL     1     131.892 130.910 140.243  1.00  0.00     0.012 C 
ATOM      2  C   UNL     1     130.404 130.879 140.635  1.00  0.00     0.012 C 
ENDROOT
BRANCH   1   3
ATOM      3  C   UNL     1     132.279 132.218 139.574  1.00  0.00    -0.028 C 
ATOM      4  C   UNL     1     133.270 133.042 139.973  1.00  0.00    -0.027 C 
BRANCH   4   5
ATOM      5  C   UNL     1     134.202 132.822 141.154  1.00  0.00     0.014 C 
BRANCH   5   6
ATOM      6  C   UNL     1     135.483 133.670 140.972  1.00  0.00     0.004 C 
ATOM      7  C   UNL     1     135.636 134.177 139.537  1.00  0.00     0.004 C 
ENDBRANCH   5   6
BRANCH   5   8
ATOM      8  C   UNL     1     133.447 133.113 142.488  1.00  0.00    -0.011 C 
ATOM      9  C   UNL     1     133.909 134.400 143.195  1.00  0.00     0.008 C 
ATOM     10  C   UNL     1     133.516 131.923 143.458  1.00  0.00     0.008 C 
ENDBRANCH   5   8
ENDBRANCH   4   5
ENDBRANCH   1   3
BRANCH   1  11
ATOM     11  C   UNL     1     132.329 129.615 139.474  1.00  0.00     0.002 C 
ATOM     12  C   UNL     1     131.423 128.421 139.764  1.00  0.00     0.005 C 
ATOM     13  C   UNL     1     133.803 129.051 139.506  1.00  0.00    -0.026 C 
ATOM     14  C   UNL     1     132.128 127.250 139.110  1.00  0.00     0.005 C 
ATOM     15  C   UNL     1     133.618 127.499 139.368  1.00  0.00    -0.001 C 
ATOM     16  C   UNL     1     134.652 129.636 138.328  1.00  0.00     0.007 C 
ATOM     17  C   UNL     1     134.566 129.324 140.828  1.00  0.00     0.012 C 
ATOM     18  C   UNL     1     134.583 126.843 138.346  1.00  0.00     0.000 C 
ATOM     19  C   UNL     1     134.321 129.009 136.962  1.00  0.00     0.005 C 
ATOM     20  C   UNL     1     134.507 127.463 136.932  1.00  0.00     0.003 C 
ATOM     21  C   UNL     1     134.378 125.330 138.223  1.00  0.00     0.031 C 
ATOM     22  C   UNL     1     135.686 126.936 136.021  1.00  0.00    -0.008 C 
ATOM     23  C   UNL     1     135.389 124.740 137.282  1.00  0.00    -0.027 C 
ATOM     24  C   UNL     1     135.958 125.436 136.269  1.00  0.00    -0.065 C 
ATOM     25  C   UNL     1     137.026 127.696 136.298  1.00  0.00     0.014 C 
ATOM     26  C   UNL     1     135.262 127.128 134.540  1.00  0.00     0.016 C 
ATOM     27  C   UNL     1     137.117 124.808 135.528  1.00  0.00     0.063 C 
ATOM     28  C   UNL     1     138.248 127.087 135.576  1.00  0.00     0.033 C 
ATOM     29  C   UNL     1     138.402 125.581 135.867  1.00  0.00     0.118 C 
BRANCH  29  30
ATOM     30  O   UNL     1     139.500 125.051 135.169  1.00  0.00    -0.393 OA
ATOM     31  H   UNL     1     139.798 124.236 135.652  1.00  0.00     0.210 HD
ENDBRANCH  29  30
ENDBRANCH   1  11
TORSDOF 6
ENDMDL
MODEL 8
REMARK VINA RESULT:    -5.748      1.666      3.572
REMARK INTER + INTRA:          -9.433
REMARK INTER:                  -7.813
REMARK INTRA:                  -1.619
REMARK UNBOUND:                -1.837
REMARK SMILES CC[C@H](C=C[C@@H](C)[C@@H]1CC[C@H]2[C@H]3CC=C4C[C@@H](O)CC[C@]4(C)[C@@H]3CC[C@]21C)C(C)C
REMARK SMILES IDX 6 1 7 2 5 3 4 4 3 5 2 6 1 7 28 8 29 9 30 10 8 11 9 12 26 13
REMARK SMILES IDX 10 14 11 15 25 16 27 17 12 18 24 19 23 20 13 21 21 22 14 23
REMARK SMILES IDX 15 24 20 25 22 26 16 27 19 28 17 29 18 30
REMARK H PARENT 18 31
REMARK Flexibility Score: inf
ROOT
ATOM      1  C   UNL     1     134.609 128.633 134.829  1.00  0.00     0.012 C 
ATOM      2  C   UNL     1     133.758 127.639 134.019  1.00  0.00     0.012 C 
ENDROOT
BRANCH   1   3
ATOM      3  C   UNL     1     136.093 128.318 134.740  1.00  0.00    -0.028 C 
ATOM      4  C   UNL     1     136.670 127.148 135.085  1.00  0.00    -0.027 C 
BRANCH   4   5
ATOM      5  C   UNL     1     135.957 125.915 135.616  1.00  0.00     0.014 C 
BRANCH   5   6
ATOM      6  C   UNL     1     136.452 124.660 134.859  1.00  0.00     0.004 C 
ATOM      7  C   UNL     1     137.173 123.679 135.786  1.00  0.00     0.004 C 
ENDBRANCH   5   6
BRANCH   5   8
ATOM      8  C   UNL     1     136.137 125.820 137.163  1.00  0.00    -0.011 C 
ATOM      9  C   UNL     1     134.831 125.538 137.924  1.00  0.00     0.008 C 
ATOM     10  C   UNL     1     136.826 127.068 137.738  1.00  0.00     0.008 C 
ENDBRANCH   5   8
ENDBRANCH   4   5
ENDBRANCH   1   3
BRANCH   1  11
ATOM     11  C   UNL     1     134.059 128.836 136.283  1.00  0.00     0.002 C 
ATOM     12  C   UNL     1     132.843 127.963 136.582  1.00  0.00     0.005 C 
ATOM     13  C   UNL     1     133.723 130.256 136.885  1.00  0.00    -0.026 C 
ATOM     14  C   UNL     1     132.349 128.457 137.926  1.00  0.00     0.005 C 
ATOM     15  C   UNL     1     132.537 129.978 137.875  1.00  0.00    -0.001 C 
ATOM     16  C   UNL     1     134.963 130.855 137.629  1.00  0.00     0.007 C 
ATOM     17  C   UNL     1     133.239 131.298 135.843  1.00  0.00     0.012 C 
ATOM     18  C   UNL     1     132.698 130.669 139.254  1.00  0.00     0.000 C 
ATOM     19  C   UNL     1     135.228 130.210 139.000  1.00  0.00     0.005 C 
ATOM     20  C   UNL     1     134.020 130.318 139.976  1.00  0.00     0.003 C 
ATOM     21  C   UNL     1     131.533 130.376 140.204  1.00  0.00     0.031 C 
ATOM     22  C   UNL     1     134.240 131.247 141.235  1.00  0.00    -0.008 C 
ATOM     23  C   UNL     1     131.705 131.134 141.490  1.00  0.00    -0.027 C 
ATOM     24  C   UNL     1     132.912 131.500 141.982  1.00  0.00    -0.065 C 
ATOM     25  C   UNL     1     134.814 132.648 140.836  1.00  0.00     0.014 C 
ATOM     26  C   UNL     1     135.222 130.523 142.193  1.00  0.00     0.016 C 
ATOM     27  C   UNL     1     132.948 132.444 143.164  1.00  0.00     0.063 C 
ATOM     28  C   UNL     1     134.861 133.657 142.003  1.00  0.00     0.033 C 
ATOM     29  C   UNL     1     133.493 133.804 142.698  1.00  0.00     0.118 C 
BRANCH  29  30
ATOM     30  O   UNL     1     133.577 134.701 143.776  1.00  0.00    -0.393 OA
ATOM     31  H   UNL     1     132.651 134.924 144.055  1.00  0.00     0.210 HD
ENDBRANCH  29  30
ENDBRANCH   1  11
TORSDOF 6
ENDMDL
MODEL 9
REMARK VINA RESULT:    -5.606      2.824      7.835
REMARK INTER + INTRA:          -9.246
REMARK INTER:                  -8.567
REMARK INTRA:                  -0.679
REMARK UNBOUND:                -1.837
REMARK SMILES CC[C@H](C=C[C@@H](C)[C@@H]1CC[C@H]2[C@H]3CC=C4C[C@@H](O)CC[C@]4(C)[C@@H]3CC[C@]21C)C(C)C
REMARK SMILES IDX 6 1 7 2 5 3 4 4 3 5 2 6 1 7 28 8 29 9 30 10 8 11 9 12 26 13
REMARK SMILES IDX 10 14 11 15 25 16 27 17 12 18 24 19 23 20 13 21 21 22 14 23
REMARK SMILES IDX 15 24 20 25 22 26 16 27 19 28 17 29 18 30
REMARK H PARENT 18 31
REMARK Flexibility Score: inf
ROOT
ATOM      1  C   UNL     1     133.809 131.213 143.205  1.00  0.00     0.012 C 
ATOM      2  C   UNL     1     134.434 130.169 144.147  1.00  0.00     0.012 C 
ENDROOT
BRANCH   1   3
ATOM      3  C   UNL     1     132.770 132.070 143.911  1.00  0.00    -0.028 C 
ATOM      4  C   UNL     1     132.829 133.409 144.063  1.00  0.00    -0.027 C 
BRANCH   4   5
ATOM      5  C   UNL     1     133.928 134.326 143.551  1.00  0.00     0.014 C 
BRANCH   5   6
ATOM      6  C   UNL     1     133.896 134.366 142.005  1.00  0.00     0.004 C 
ATOM      7  C   UNL     1     135.209 133.879 141.391  1.00  0.00     0.004 C 
ENDBRANCH   5   6
BRANCH   5   8
ATOM      8  C   UNL     1     133.800 135.732 144.213  1.00  0.00    -0.011 C 
ATOM      9  C   UNL     1     134.906 136.040 145.237  1.00  0.00     0.008 C 
ATOM     10  C   UNL     1     132.417 135.944 144.849  1.00  0.00     0.008 C 
ENDBRANCH   5   8
ENDBRANCH   4   5
ENDBRANCH   1   3
BRANCH   1  11
ATOM     11  C   UNL     1     133.339 130.582 141.849  1.00  0.00     0.002 C 
ATOM     12  C   UNL     1     132.071 129.743 141.996  1.00  0.00     0.005 C 
ATOM     13  C   UNL     1     134.295 129.749 140.910  1.00  0.00    -0.026 C 
ATOM     14  C   UNL     1     131.914 129.066 140.650  1.00  0.00     0.005 C 
ATOM     15  C   UNL     1     133.342 128.707 140.225  1.00  0.00    -0.001 C 
ATOM     16  C   UNL     1     134.988 130.674 139.855  1.00  0.00     0.007 C 
ATOM     17  C   UNL     1     135.403 128.961 141.657  1.00  0.00     0.012 C 
ATOM     18  C   UNL     1     133.560 128.571 138.695  1.00  0.00     0.000 C 
ATOM     19  C   UNL     1     134.055 131.107 138.711  1.00  0.00     0.005 C 
ATOM     20  C   UNL     1     133.442 129.909 137.928  1.00  0.00     0.003 C 
ATOM     21  C   UNL     1     132.614 127.556 138.048  1.00  0.00     0.031 C 
ATOM     22  C   UNL     1     133.930 129.748 136.434  1.00  0.00    -0.008 C 
ATOM     23  C   UNL     1     132.925 127.410 136.586  1.00  0.00    -0.027 C 
ATOM     24  C   UNL     1     133.482 128.394 135.842  1.00  0.00    -0.065 C 
ATOM     25  C   UNL     1     135.490 129.804 136.318  1.00  0.00     0.014 C 
ATOM     26  C   UNL     1     133.294 130.893 135.602  1.00  0.00     0.016 C 
ATOM     27  C   UNL     1     133.948 128.059 134.442  1.00  0.00     0.063 C 
ATOM     28  C   UNL     1     136.022 129.456 134.911  1.00  0.00     0.033 C 
ATOM     29  C   UNL     1     135.483 128.103 134.405  1.00  0.00     0.118 C 
BRANCH  29  30
ATOM     30  O   UNL     1     135.958 127.833 133.111  1.00  0.00    -0.393 OA
ATOM     31  H   UNL     1     136.113 126.854 133.046  1.00  0.00     0.210 HD
ENDBRANCH  29  30
ENDBRANCH   1  11
TORSDOF 6
ENDMDL
