MODEL 1
REMARK VINA RESULT:     0.000      0.000      0.000
REMARK INTER + INTRA:          -0.878
REMARK INTER:                   0.000
REMARK INTRA:                  -0.878
REMARK UNBOUND:                -0.878
REMARK SMILES COc1ccc(-c2cc(=O)c3c(OC)c(OC)c(OC)c(OC)c3o2)cc1OC
REMARK SMILES IDX 7 1 8 2 9 3 10 4 11 5 24 6 25 7 21 8 18 9 15 10 12 11 6 12
REMARK SMILES IDX 3 13 27 14 4 15 26 16 5 17 2 18 1 19 28 20 29 21 22 22 23 23
REMARK SMILES IDX 13 24 14 25 19 26 20 27 16 28 17 29
REMARK H PARENT
REMARK Flexibility Score: inf
ROOT
ATOM      1  C   UNL     1       8.161  12.838  51.918  1.00  0.00     0.138 A 
ATOM      2  C   UNL     1       8.085  11.468  52.209  1.00  0.00     0.100 A 
ATOM      3  C   UNL     1       9.000  10.905  53.097  1.00  0.00     0.197 A 
ATOM      4  O   UNL     1       8.905   9.678  53.368  1.00  0.00    -0.289 OA
ATOM      5  C   UNL     1       9.995  11.716  53.685  1.00  0.00     0.115 A 
ATOM      6  C   UNL     1       9.979  13.093  53.376  1.00  0.00     0.188 A 
ATOM      7  O   UNL     1       9.087  13.581  52.518  1.00  0.00    -0.452 OA
ATOM      8  C   UNL     1      10.918  13.956  53.955  1.00  0.00     0.209 A 
ATOM      9  C   UNL     1      11.888  13.471  54.842  1.00  0.00     0.211 A 
ATOM     10  C   UNL     1      11.907  12.095  55.179  1.00  0.00     0.208 A 
ATOM     11  C   UNL     1      10.993  11.210  54.552  1.00  0.00     0.179 A 
ENDROOT
BRANCH   1  12
ATOM     12  C   UNL     1       7.223  13.490  50.966  1.00  0.00     0.021 A 
ATOM     13  C   UNL     1       5.488  14.770  49.142  1.00  0.00     0.160 A 
ATOM     14  C   UNL     1       6.529  15.493  49.742  1.00  0.00     0.161 A 
ATOM     15  C   UNL     1       5.324  13.407  49.446  1.00  0.00     0.051 A 
ATOM     16  C   UNL     1       7.392  14.849  50.649  1.00  0.00     0.062 A 
ATOM     17  C   UNL     1       6.186  12.773  50.344  1.00  0.00     0.016 A 
BRANCH  13  18
ATOM     18  O   UNL     1       4.640  15.441  48.245  1.00  0.00    -0.493 OA
ATOM     19  C   UNL     1       4.728  15.344  46.826  1.00  0.00     0.278 C 
ENDBRANCH  13  18
BRANCH  14  20
ATOM     20  O   UNL     1       6.675  16.850  49.412  1.00  0.00    -0.493 OA
ATOM     21  C   UNL     1       7.700  17.371  48.572  1.00  0.00     0.278 C 
ENDBRANCH  14  20
ENDBRANCH   1  12
BRANCH   8  22
ATOM     22  O   UNL     1      10.907  15.320  53.648  1.00  0.00    -0.490 OA
ATOM     23  C   UNL     1      10.036  16.233  54.305  1.00  0.00     0.278 C 
ENDBRANCH   8  22
BRANCH  11  24
ATOM     24  O   UNL     1      11.105   9.833  54.755  1.00  0.00    -0.492 OA
ATOM     25  C   UNL     1      12.144   9.084  54.136  1.00  0.00     0.278 C 
ENDBRANCH  11  24
BRANCH   9  26
ATOM     26  O   UNL     1      12.789  14.421  55.362  1.00  0.00    -0.490 OA
ATOM     27  C   UNL     1      12.705  15.079  56.621  1.00  0.00     0.279 C 
ENDBRANCH   9  26
BRANCH  10  28
ATOM     28  O   UNL     1      12.840  11.642  56.130  1.00  0.00    -0.490 OA
ATOM     29  C   UNL     1      12.587  11.438  57.516  1.00  0.00     0.278 C 
ENDBRANCH  10  28
TORSDOF 7
ENDMDL
MODEL 2
REMARK VINA RESULT:     0.000      4.941      8.234
REMARK INTER + INTRA:          -0.877
REMARK INTER:                   0.000
REMARK INTRA:                  -0.877
REMARK UNBOUND:                -0.878
REMARK SMILES COc1ccc(-c2cc(=O)c3c(OC)c(OC)c(OC)c(OC)c3o2)cc1OC
REMARK SMILES IDX 7 1 8 2 9 3 10 4 11 5 24 6 25 7 21 8 18 9 15 10 12 11 6 12
REMARK SMILES IDX 3 13 27 14 4 15 26 16 5 17 2 18 1 19 28 20 29 21 22 22 23 23
REMARK SMILES IDX 13 24 14 25 19 26 20 27 16 28 17 29
REMARK H PARENT
REMARK Flexibility Score: inf
ROOT
ATOM      1  C   UNL     1      14.206  17.022  52.719  1.00  0.00     0.138 A 
ATOM      2  C   UNL     1      13.110  16.759  51.885  1.00  0.00     0.100 A 
ATOM      3  C   UNL     1      12.449  15.536  51.988  1.00  0.00     0.197 A 
ATOM      4  O   UNL     1      11.450  15.323  51.250  1.00  0.00    -0.289 OA
ATOM      5  C   UNL     1      12.894  14.576  52.922  1.00  0.00     0.115 A 
ATOM      6  C   UNL     1      13.977  14.932  53.755  1.00  0.00     0.188 A 
ATOM      7  O   UNL     1      14.577  16.111  53.614  1.00  0.00    -0.452 OA
ATOM      8  C   UNL     1      14.443  14.036  54.726  1.00  0.00     0.209 A 
ATOM      9  C   UNL     1      13.851  12.777  54.884  1.00  0.00     0.211 A 
ATOM     10  C   UNL     1      12.751  12.409  54.070  1.00  0.00     0.208 A 
ATOM     11  C   UNL     1      12.313  13.292  53.050  1.00  0.00     0.179 A 
ENDROOT
BRANCH   1  12
ATOM     12  C   UNL     1      14.959  18.302  52.642  1.00  0.00     0.021 A 
ATOM     13  C   UNL     1      16.445  20.701  52.514  1.00  0.00     0.160 A 
ATOM     14  C   UNL     1      16.839  19.680  53.391  1.00  0.00     0.161 A 
ATOM     15  C   UNL     1      15.316  20.515  51.696  1.00  0.00     0.051 A 
ATOM     16  C   UNL     1      16.096  18.485  53.449  1.00  0.00     0.062 A 
ATOM     17  C   UNL     1      14.585  19.327  51.756  1.00  0.00     0.016 A 
BRANCH  13  18
ATOM     18  O   UNL     1      17.202  21.882  52.482  1.00  0.00    -0.493 OA
ATOM     19  C   UNL     1      18.159  22.201  51.475  1.00  0.00     0.278 C 
ENDBRANCH  13  18
BRANCH  14  20
ATOM     20  O   UNL     1      17.975  19.888  54.188  1.00  0.00    -0.493 OA
ATOM     21  C   UNL     1      19.239  19.268  53.972  1.00  0.00     0.278 C 
ENDBRANCH  14  20
ENDBRANCH   1  12
BRANCH   8  22
ATOM     22  O   UNL     1      15.517  14.385  55.551  1.00  0.00    -0.490 OA
ATOM     23  C   UNL     1      15.343  15.171  56.723  1.00  0.00     0.278 C 
ENDBRANCH   8  22
BRANCH  11  24
ATOM     24  O   UNL     1      11.338  12.877  52.141  1.00  0.00    -0.492 OA
ATOM     25  C   UNL     1      11.647  11.952  51.105  1.00  0.00     0.278 C 
ENDBRANCH  11  24
BRANCH   9  26
ATOM     26  O   UNL     1      14.401  11.950  55.884  1.00  0.00    -0.490 OA
ATOM     27  C   UNL     1      13.914  11.774  57.210  1.00  0.00     0.279 C 
ENDBRANCH   9  26
BRANCH  10  28
ATOM     28  O   UNL     1      12.123  11.171  54.296  1.00  0.00    -0.490 OA
ATOM     29  C   UNL     1      10.944  10.961  55.066  1.00  0.00     0.278 C 
ENDBRANCH  10  28
TORSDOF 7
ENDMDL
MODEL 3
REMARK VINA RESULT:     0.001      7.123      9.472
REMARK INTER + INTRA:          -0.876
REMARK INTER:                   0.000
REMARK INTRA:                  -0.876
REMARK UNBOUND:                -0.878
REMARK SMILES COc1ccc(-c2cc(=O)c3c(OC)c(OC)c(OC)c(OC)c3o2)cc1OC
REMARK SMILES IDX 7 1 8 2 9 3 10 4 11 5 24 6 25 7 21 8 18 9 15 10 12 11 6 12
REMARK SMILES IDX 3 13 27 14 4 15 26 16 5 17 2 18 1 19 28 20 29 21 22 22 23 23
REMARK SMILES IDX 13 24 14 25 19 26 20 27 16 28 17 29
REMARK H PARENT
REMARK Flexibility Score: inf
ROOT
ATOM      1  C   UNL     1      13.903  17.930  49.122  1.00  0.00     0.138 A 
ATOM      2  C   UNL     1      15.100  18.143  48.424  1.00  0.00     0.100 A 
ATOM      3  C   UNL     1      15.845  19.293  48.677  1.00  0.00     0.197 A 
ATOM      4  O   UNL     1      16.932  19.459  48.061  1.00  0.00    -0.289 OA
ATOM      5  C   UNL     1      15.384  20.232  49.626  1.00  0.00     0.115 A 
ATOM      6  C   UNL     1      14.193  19.926  50.318  1.00  0.00     0.188 A 
ATOM      7  O   UNL     1      13.515  18.816  50.036  1.00  0.00    -0.452 OA
ATOM      8  C   UNL     1      13.701  20.800  51.296  1.00  0.00     0.209 A 
ATOM      9  C   UNL     1      14.376  21.990  51.599  1.00  0.00     0.211 A 
ATOM     10  C   UNL     1      15.584  22.305  50.928  1.00  0.00     0.208 A 
ATOM     11  C   UNL     1      16.053  21.448  49.899  1.00  0.00     0.179 A 
ENDROOT
BRANCH   1  12
ATOM     12  C   UNL     1      13.058  16.730  48.881  1.00  0.00     0.021 A 
ATOM     13  C   UNL     1      11.403  14.482  48.452  1.00  0.00     0.160 A 
ATOM     14  C   UNL     1      11.144  15.347  49.525  1.00  0.00     0.161 A 
ATOM     15  C   UNL     1      12.481  14.750  47.591  1.00  0.00     0.051 A 
ATOM     16  C   UNL     1      11.971  16.467  49.733  1.00  0.00     0.062 A 
ATOM     17  C   UNL     1      13.296  15.865  47.800  1.00  0.00     0.016 A 
BRANCH  13  18
ATOM     18  O   UNL     1      10.564  13.371  48.273  1.00  0.00    -0.493 OA
ATOM     19  C   UNL     1      10.897  12.039  48.656  1.00  0.00     0.278 C 
ENDBRANCH  13  18
BRANCH  14  20
ATOM     20  O   UNL     1      10.054  15.061  50.363  1.00  0.00    -0.493 OA
ATOM     21  C   UNL     1      10.166  14.530  51.680  1.00  0.00     0.278 C 
ENDBRANCH  14  20
ENDBRANCH   1  12
BRANCH   8  22
ATOM     22  O   UNL     1      12.520  20.501  51.981  1.00  0.00    -0.490 OA
ATOM     23  C   UNL     1      12.503  19.638  53.112  1.00  0.00     0.278 C 
ENDBRANCH   8  22
BRANCH  11  24
ATOM     24  O   UNL     1      17.151  21.828  49.125  1.00  0.00    -0.492 OA
ATOM     25  C   UNL     1      17.033  22.837  48.129  1.00  0.00     0.278 C 
ENDBRANCH  11  24
BRANCH   9  26
ATOM     26  O   UNL     1      13.793  22.801  52.592  1.00  0.00    -0.490 OA
ATOM     27  C   UNL     1      14.158  22.864  53.967  1.00  0.00     0.279 C 
ENDBRANCH   9  26
BRANCH  10  28
ATOM     28  O   UNL     1      16.285  23.465  51.302  1.00  0.00    -0.490 OA
ATOM     29  C   UNL     1      17.393  23.521  52.193  1.00  0.00     0.278 C 
ENDBRANCH  10  28
TORSDOF 7
ENDMDL
MODEL 4
REMARK VINA RESULT:     0.002      6.259      9.453
REMARK INTER + INTRA:          -0.875
REMARK INTER:                   0.000
REMARK INTRA:                  -0.875
REMARK UNBOUND:                -0.878
REMARK SMILES COc1ccc(-c2cc(=O)c3c(OC)c(OC)c(OC)c(OC)c3o2)cc1OC
REMARK SMILES IDX 7 1 8 2 9 3 10 4 11 5 24 6 25 7 21 8 18 9 15 10 12 11 6 12
REMARK SMILES IDX 3 13 27 14 4 15 26 16 5 17 2 18 1 19 28 20 29 21 22 22 23 23
REMARK SMILES IDX 13 24 14 25 19 26 20 27 16 28 17 29
REMARK H PARENT
REMARK Flexibility Score: inf
ROOT
ATOM      1  C   UNL     1      11.031  22.252  51.904  1.00  0.00     0.138 A 
ATOM      2  C   UNL     1      11.643  23.513  51.960  1.00  0.00     0.100 A 
ATOM      3  C   UNL     1      12.548  23.789  52.983  1.00  0.00     0.197 A 
ATOM      4  O   UNL     1      13.109  24.918  53.008  1.00  0.00    -0.289 OA
ATOM      5  C   UNL     1      12.832  22.803  53.953  1.00  0.00     0.115 A 
ATOM      6  C   UNL     1      12.209  21.545  53.803  1.00  0.00     0.188 A 
ATOM      7  O   UNL     1      11.348  21.333  52.811  1.00  0.00    -0.452 OA
ATOM      8  C   UNL     1      12.477  20.514  54.712  1.00  0.00     0.209 A 
ATOM      9  C   UNL     1      13.357  20.711  55.783  1.00  0.00     0.211 A 
ATOM     10  C   UNL     1      14.007  21.962  55.939  1.00  0.00     0.208 A 
ATOM     11  C   UNL     1      13.695  23.024  55.052  1.00  0.00     0.179 A 
ENDROOT
BRANCH   1  12
ATOM     12  C   UNL     1      10.045  21.907  50.846  1.00  0.00     0.021 A 
ATOM     13  C   UNL     1       8.142  21.211  48.878  1.00  0.00     0.160 A 
ATOM     14  C   UNL     1       8.463  20.299  49.894  1.00  0.00     0.161 A 
ATOM     15  C   UNL     1       8.764  22.471  48.855  1.00  0.00     0.051 A 
ATOM     16  C   UNL     1       9.411  20.652  50.873  1.00  0.00     0.062 A 
ATOM     17  C   UNL     1       9.701  22.817  49.832  1.00  0.00     0.016 A 
BRANCH  13  18
ATOM     18  O   UNL     1       7.197  20.827  47.913  1.00  0.00    -0.493 OA
ATOM     19  C   UNL     1       5.835  21.247  47.906  1.00  0.00     0.278 C 
ENDBRANCH  13  18
BRANCH  14  20
ATOM     20  O   UNL     1       7.820  19.051  49.898  1.00  0.00    -0.493 OA
ATOM     21  C   UNL     1       6.796  18.674  50.813  1.00  0.00     0.278 C 
ENDBRANCH  14  20
ENDBRANCH   1  12
BRANCH   8  22
ATOM     22  O   UNL     1      11.859  19.268  54.568  1.00  0.00    -0.490 OA
ATOM     23  C   UNL     1      12.360  18.276  53.680  1.00  0.00     0.278 C 
ENDBRANCH   8  22
BRANCH  11  24
ATOM     24  O   UNL     1      14.206  24.302  55.289  1.00  0.00    -0.492 OA
ATOM     25  C   UNL     1      13.685  25.117  56.332  1.00  0.00     0.278 C 
ENDBRANCH  11  24
BRANCH   9  26
ATOM     26  O   UNL     1      13.551  19.612  56.643  1.00  0.00    -0.490 OA
ATOM     27  C   UNL     1      14.625  18.678  56.608  1.00  0.00     0.279 C 
ENDBRANCH   9  26
BRANCH  10  28
ATOM     28  O   UNL     1      14.946  22.114  56.975  1.00  0.00    -0.490 OA
ATOM     29  C   UNL     1      16.358  21.996  56.847  1.00  0.00     0.278 C 
ENDBRANCH  10  28
TORSDOF 7
ENDMDL
MODEL 5
REMARK VINA RESULT:     0.002      6.401     11.948
REMARK INTER + INTRA:          -0.875
REMARK INTER:                   0.000
REMARK INTRA:                  -0.875
REMARK UNBOUND:                -0.878
REMARK SMILES COc1ccc(-c2cc(=O)c3c(OC)c(OC)c(OC)c(OC)c3o2)cc1OC
REMARK SMILES IDX 7 1 8 2 9 3 10 4 11 5 24 6 25 7 21 8 18 9 15 10 12 11 6 12
REMARK SMILES IDX 3 13 27 14 4 15 26 16 5 17 2 18 1 19 28 20 29 21 22 22 23 23
REMARK SMILES IDX 13 24 14 25 19 26 20 27 16 28 17 29
REMARK H PARENT
REMARK Flexibility Score: inf
ROOT
ATOM      1  C   UNL     1       7.687  21.118  50.615  1.00  0.00     0.138 A 
ATOM      2  C   UNL     1       8.582  21.802  49.779  1.00  0.00     0.100 A 
ATOM      3  C   UNL     1       8.169  22.974  49.147  1.00  0.00     0.197 A 
ATOM      4  O   UNL     1       8.992  23.591  48.418  1.00  0.00    -0.289 OA
ATOM      5  C   UNL     1       6.857  23.455  49.350  1.00  0.00     0.115 A 
ATOM      6  C   UNL     1       6.031  22.735  50.239  1.00  0.00     0.188 A 
ATOM      7  O   UNL     1       6.470  21.618  50.814  1.00  0.00    -0.452 OA
ATOM      8  C   UNL     1       4.730  23.179  50.509  1.00  0.00     0.209 A 
ATOM      9  C   UNL     1       4.227  24.336  49.901  1.00  0.00     0.211 A 
ATOM     10  C   UNL     1       5.048  25.083  49.020  1.00  0.00     0.208 A 
ATOM     11  C   UNL     1       6.346  24.604  48.703  1.00  0.00     0.179 A 
ENDROOT
BRANCH   1  12
ATOM     12  C   UNL     1       8.066  19.855  51.301  1.00  0.00     0.021 A 
ATOM     13  C   UNL     1       8.723  17.435  52.601  1.00  0.00     0.160 A 
ATOM     14  C   UNL     1       7.432  17.970  52.729  1.00  0.00     0.161 A 
ATOM     15  C   UNL     1       9.677  18.105  51.816  1.00  0.00     0.051 A 
ATOM     16  C   UNL     1       7.110  19.175  52.076  1.00  0.00     0.062 A 
ATOM     17  C   UNL     1       9.350  19.299  51.168  1.00  0.00     0.016 A 
BRANCH  13  18
ATOM     18  O   UNL     1       9.016  16.234  53.267  1.00  0.00    -0.493 OA
ATOM     19  C   UNL     1       9.068  14.956  52.640  1.00  0.00     0.278 C 
ENDBRANCH  13  18
BRANCH  14  20
ATOM     20  O   UNL     1       6.497  17.274  53.511  1.00  0.00    -0.493 OA
ATOM     21  C   UNL     1       5.403  16.528  52.988  1.00  0.00     0.278 C 
ENDBRANCH  14  20
ENDBRANCH   1  12
BRANCH   8  22
ATOM     22  O   UNL     1       3.908  22.467  51.388  1.00  0.00    -0.490 OA
ATOM     23  C   UNL     1       3.987  22.636  52.797  1.00  0.00     0.278 C 
ENDBRANCH   8  22
BRANCH  11  24
ATOM     24  O   UNL     1       7.102  25.242  47.718  1.00  0.00    -0.492 OA
ATOM     25  C   UNL     1       6.788  25.089  46.339  1.00  0.00     0.278 C 
ENDBRANCH  11  24
BRANCH   9  26
ATOM     26  O   UNL     1       2.905  24.692  50.235  1.00  0.00    -0.490 OA
ATOM     27  C   UNL     1       2.497  25.650  51.206  1.00  0.00     0.279 C 
ENDBRANCH   9  26
BRANCH  10  28
ATOM     28  O   UNL     1       4.550  26.283  48.481  1.00  0.00    -0.490 OA
ATOM     29  C   UNL     1       4.806  27.592  48.978  1.00  0.00     0.278 C 
ENDBRANCH  10  28
TORSDOF 7
ENDMDL
MODEL 6
REMARK VINA RESULT:     0.002      9.897     12.674
REMARK INTER + INTRA:          -0.875
REMARK INTER:                   0.000
REMARK INTRA:                  -0.875
REMARK UNBOUND:                -0.878
REMARK SMILES COc1ccc(-c2cc(=O)c3c(OC)c(OC)c(OC)c(OC)c3o2)cc1OC
REMARK SMILES IDX 7 1 8 2 9 3 10 4 11 5 24 6 25 7 21 8 18 9 15 10 12 11 6 12
REMARK SMILES IDX 3 13 27 14 4 15 26 16 5 17 2 18 1 19 28 20 29 21 22 22 23 23
REMARK SMILES IDX 13 24 14 25 19 26 20 27 16 28 17 29
REMARK H PARENT
REMARK Flexibility Score: inf
ROOT
ATOM      1  C   UNL     1      15.005  21.931  51.937  1.00  0.00     0.138 A 
ATOM      2  C   UNL     1      15.691  20.717  51.781  1.00  0.00     0.100 A 
ATOM      3  C   UNL     1      15.857  20.184  50.504  1.00  0.00     0.197 A 
ATOM      4  O   UNL     1      16.497  19.106  50.375  1.00  0.00    -0.289 OA
ATOM      5  C   UNL     1      15.329  20.866  49.386  1.00  0.00     0.115 A 
ATOM      6  C   UNL     1      14.690  22.103  49.620  1.00  0.00     0.188 A 
ATOM      7  O   UNL     1      14.552  22.566  50.860  1.00  0.00    -0.452 OA
ATOM      8  C   UNL     1      14.176  22.845  48.549  1.00  0.00     0.209 A 
ATOM      9  C   UNL     1      14.281  22.373  47.234  1.00  0.00     0.211 A 
ATOM     10  C   UNL     1      14.936  21.143  46.977  1.00  0.00     0.208 A 
ATOM     11  C   UNL     1      15.408  20.365  48.065  1.00  0.00     0.179 A 
ENDROOT
BRANCH   1  12
ATOM     12  C   UNL     1      14.782  22.538  53.276  1.00  0.00     0.021 A 
ATOM     13  C   UNL     1      14.304  23.717  55.797  1.00  0.00     0.160 A 
ATOM     14  C   UNL     1      13.788  24.313  54.637  1.00  0.00     0.161 A 
ATOM     15  C   UNL     1      15.048  22.528  55.695  1.00  0.00     0.051 A 
ATOM     16  C   UNL     1      14.028  23.719  53.383  1.00  0.00     0.062 A 
ATOM     17  C   UNL     1      15.279  21.943  54.448  1.00  0.00     0.016 A 
BRANCH  13  18
ATOM     18  O   UNL     1      14.052  24.335  57.033  1.00  0.00    -0.493 OA
ATOM     19  C   UNL     1      13.065  23.901  57.965  1.00  0.00     0.278 C 
ENDBRANCH  13  18
BRANCH  14  20
ATOM     20  O   UNL     1      13.040  25.493  54.770  1.00  0.00    -0.493 OA
ATOM     21  C   UNL     1      11.625  25.574  54.627  1.00  0.00     0.278 C 
ENDBRANCH  14  20
ENDBRANCH   1  12
BRANCH   8  22
ATOM     22  O   UNL     1      13.540  24.068  48.778  1.00  0.00    -0.490 OA
ATOM     23  C   UNL     1      14.269  25.279  48.937  1.00  0.00     0.278 C 
ENDBRANCH   8  22
BRANCH  11  24
ATOM     24  O   UNL     1      15.911  19.082  47.837  1.00  0.00    -0.492 OA
ATOM     25  C   UNL     1      15.042  17.997  47.534  1.00  0.00     0.278 C 
ENDBRANCH  11  24
BRANCH   9  26
ATOM     26  O   UNL     1      13.724  23.192  46.232  1.00  0.00    -0.490 OA
ATOM     27  C   UNL     1      14.417  24.122  45.405  1.00  0.00     0.279 C 
ENDBRANCH   9  26
BRANCH  10  28
ATOM     28  O   UNL     1      15.098  20.726  45.644  1.00  0.00    -0.490 OA
ATOM     29  C   UNL     1      16.265  20.905  44.848  1.00  0.00     0.278 C 
ENDBRANCH  10  28
TORSDOF 7
ENDMDL
MODEL 7
REMARK VINA RESULT:     0.002      2.343      3.596
REMARK INTER + INTRA:          -0.875
REMARK INTER:                   0.000
REMARK INTRA:                  -0.875
REMARK UNBOUND:                -0.878
REMARK SMILES COc1ccc(-c2cc(=O)c3c(OC)c(OC)c(OC)c(OC)c3o2)cc1OC
REMARK SMILES IDX 7 1 8 2 9 3 10 4 11 5 24 6 25 7 21 8 18 9 15 10 12 11 6 12
REMARK SMILES IDX 3 13 27 14 4 15 26 16 5 17 2 18 1 19 28 20 29 21 22 22 23 23
REMARK SMILES IDX 13 24 14 25 19 26 20 27 16 28 17 29
REMARK H PARENT
REMARK Flexibility Score: inf
ROOT
ATOM      1  C   UNL     1       9.583  13.392  53.337  1.00  0.00     0.138 A 
ATOM      2  C   UNL     1       9.377  13.806  54.661  1.00  0.00     0.100 A 
ATOM      3  C   UNL     1      10.357  13.554  55.618  1.00  0.00     0.197 A 
ATOM      4  O   UNL     1      10.169  13.954  56.799  1.00  0.00    -0.289 OA
ATOM      5  C   UNL     1      11.542  12.880  55.247  1.00  0.00     0.115 A 
ATOM      6  C   UNL     1      11.694  12.534  53.887  1.00  0.00     0.188 A 
ATOM      7  O   UNL     1      10.725  12.792  53.013  1.00  0.00    -0.452 OA
ATOM      8  C   UNL     1      12.861  11.894  53.450  1.00  0.00     0.209 A 
ATOM      9  C   UNL     1      13.889  11.584  54.349  1.00  0.00     0.211 A 
ATOM     10  C   UNL     1      13.762  11.941  55.715  1.00  0.00     0.208 A 
ATOM     11  C   UNL     1      12.559  12.539  56.169  1.00  0.00     0.179 A 
ENDROOT
BRANCH   1  12
ATOM     12  C   UNL     1       8.565  13.618  52.277  1.00  0.00     0.021 A 
ATOM     13  C   UNL     1       6.651  13.994  50.235  1.00  0.00     0.160 A 
ATOM     14  C   UNL     1       7.842  13.307  49.959  1.00  0.00     0.161 A 
ATOM     15  C   UNL     1       6.415  14.480  51.532  1.00  0.00     0.051 A 
ATOM     16  C   UNL     1       8.792  13.121  50.982  1.00  0.00     0.062 A 
ATOM     17  C   UNL     1       7.359  14.290  52.543  1.00  0.00     0.016 A 
BRANCH  13  18
ATOM     18  O   UNL     1       5.726  14.168  49.193  1.00  0.00    -0.493 OA
ATOM     19  C   UNL     1       4.542  13.391  49.027  1.00  0.00     0.278 C 
ENDBRANCH  13  18
BRANCH  14  20
ATOM     20  O   UNL     1       8.047  12.824  48.657  1.00  0.00    -0.493 OA
ATOM     21  C   UNL     1       7.962  11.452  48.282  1.00  0.00     0.278 C 
ENDBRANCH  14  20
ENDBRANCH   1  12
BRANCH   8  22
ATOM     22  O   UNL     1      13.014  11.547  52.104  1.00  0.00    -0.490 OA
ATOM     23  C   UNL     1      13.464  12.482  51.132  1.00  0.00     0.278 C 
ENDBRANCH   8  22
BRANCH  11  24
ATOM     24  O   UNL     1      12.359  12.749  57.535  1.00  0.00    -0.492 OA
ATOM     25  C   UNL     1      12.064  11.665  58.409  1.00  0.00     0.278 C 
ENDBRANCH  11  24
BRANCH   9  26
ATOM     26  O   UNL     1      15.016  10.934  53.808  1.00  0.00    -0.490 OA
ATOM     27  C   UNL     1      16.243  11.539  53.413  1.00  0.00     0.279 C 
ENDBRANCH   9  26
BRANCH  10  28
ATOM     28  O   UNL     1      14.838  11.689  56.585  1.00  0.00    -0.490 OA
ATOM     29  C   UNL     1      15.831  12.630  56.979  1.00  0.00     0.278 C 
ENDBRANCH  10  28
TORSDOF 7
ENDMDL
MODEL 8
REMARK VINA RESULT:     0.002      7.996      8.715
REMARK INTER + INTRA:          -0.875
REMARK INTER:                   0.000
REMARK INTRA:                  -0.875
REMARK UNBOUND:                -0.878
REMARK SMILES COc1ccc(-c2cc(=O)c3c(OC)c(OC)c(OC)c(OC)c3o2)cc1OC
REMARK SMILES IDX 7 1 8 2 9 3 10 4 11 5 24 6 25 7 21 8 18 9 15 10 12 11 6 12
REMARK SMILES IDX 3 13 27 14 4 15 26 16 5 17 2 18 1 19 28 20 29 21 22 22 23 23
REMARK SMILES IDX 13 24 14 25 19 26 20 27 16 28 17 29
REMARK H PARENT
REMARK Flexibility Score: inf
ROOT
ATOM      1  C   UNL     1      10.540  21.468  52.109  1.00  0.00     0.138 A 
ATOM      2  C   UNL     1      11.416  20.595  51.448  1.00  0.00     0.100 A 
ATOM      3  C   UNL     1      12.531  20.101  52.123  1.00  0.00     0.197 A 
ATOM      4  O   UNL     1      13.296  19.298  51.524  1.00  0.00    -0.289 OA
ATOM      5  C   UNL     1      12.769  20.490  53.459  1.00  0.00     0.115 A 
ATOM      6  C   UNL     1      11.819  21.337  54.070  1.00  0.00     0.188 A 
ATOM      7  O   UNL     1      10.774  21.785  53.380  1.00  0.00    -0.452 OA
ATOM      8  C   UNL     1      11.981  21.731  55.404  1.00  0.00     0.209 A 
ATOM      9  C   UNL     1      13.084  21.299  56.151  1.00  0.00     0.211 A 
ATOM     10  C   UNL     1      14.039  20.433  55.561  1.00  0.00     0.208 A 
ATOM     11  C   UNL     1      13.906  20.078  54.194  1.00  0.00     0.179 A 
ENDROOT
BRANCH   1  12
ATOM     12  C   UNL     1       9.345  22.039  51.434  1.00  0.00     0.021 A 
ATOM     13  C   UNL     1       7.072  23.170  50.197  1.00  0.00     0.160 A 
ATOM     14  C   UNL     1       7.265  23.321  51.578  1.00  0.00     0.161 A 
ATOM     15  C   UNL     1       8.020  22.464  49.438  1.00  0.00     0.051 A 
ATOM     16  C   UNL     1       8.401  22.757  52.189  1.00  0.00     0.062 A 
ATOM     17  C   UNL     1       9.147  21.909  50.049  1.00  0.00     0.016 A 
BRANCH  13  18
ATOM     18  O   UNL     1       5.926  23.740  49.618  1.00  0.00    -0.493 OA
ATOM     19  C   UNL     1       4.755  23.010  49.263  1.00  0.00     0.278 C 
ENDBRANCH  13  18
BRANCH  14  20
ATOM     20  O   UNL     1       6.306  24.039  52.311  1.00  0.00    -0.493 OA
ATOM     21  C   UNL     1       5.344  23.449  53.179  1.00  0.00     0.278 C 
ENDBRANCH  14  20
ENDBRANCH   1  12
BRANCH   8  22
ATOM     22  O   UNL     1      11.043  22.572  56.011  1.00  0.00    -0.490 OA
ATOM     23  C   UNL     1       9.837  22.072  56.575  1.00  0.00     0.278 C 
ENDBRANCH   8  22
BRANCH  11  24
ATOM     24  O   UNL     1      14.920  19.358  53.560  1.00  0.00    -0.492 OA
ATOM     25  C   UNL     1      16.148  19.981  53.203  1.00  0.00     0.278 C 
ENDBRANCH  11  24
BRANCH   9  26
ATOM     26  O   UNL     1      13.156  21.758  57.481  1.00  0.00    -0.490 OA
ATOM     27  C   UNL     1      12.757  21.053  58.652  1.00  0.00     0.279 C 
ENDBRANCH   9  26
BRANCH  10  28
ATOM     28  O   UNL     1      15.097  19.949  56.352  1.00  0.00    -0.490 OA
ATOM     29  C   UNL     1      15.145  18.683  56.999  1.00  0.00     0.278 C 
ENDBRANCH  10  28
TORSDOF 7
ENDMDL
MODEL 9
REMARK VINA RESULT:     0.003     10.392     14.009
REMARK INTER + INTRA:          -0.874
REMARK INTER:                   0.000
REMARK INTRA:                  -0.874
REMARK UNBOUND:                -0.878
REMARK SMILES COc1ccc(-c2cc(=O)c3c(OC)c(OC)c(OC)c(OC)c3o2)cc1OC
REMARK SMILES IDX 7 1 8 2 9 3 10 4 11 5 24 6 25 7 21 8 18 9 15 10 12 11 6 12
REMARK SMILES IDX 3 13 27 14 4 15 26 16 5 17 2 18 1 19 28 20 29 21 22 22 23 23
REMARK SMILES IDX 13 24 14 25 19 26 20 27 16 28 17 29
REMARK H PARENT
REMARK Flexibility Score: inf
ROOT
ATOM      1  C   UNL     1      12.796  24.027  53.242  1.00  0.00     0.138 A 
ATOM      2  C   UNL     1      11.976  24.466  54.291  1.00  0.00     0.100 A 
ATOM      3  C   UNL     1      10.884  25.285  54.010  1.00  0.00     0.197 A 
ATOM      4  O   UNL     1      10.141  25.652  54.960  1.00  0.00    -0.289 OA
ATOM      5  C   UNL     1      10.621  25.669  52.677  1.00  0.00     0.115 A 
ATOM      6  C   UNL     1      11.466  25.151  51.672  1.00  0.00     0.188 A 
ATOM      7  O   UNL     1      12.499  24.376  51.993  1.00  0.00    -0.452 OA
ATOM      8  C   UNL     1      11.236  25.466  50.327  1.00  0.00     0.209 A 
ATOM      9  C   UNL     1      10.174  26.300  49.956  1.00  0.00     0.211 A 
ATOM     10  C   UNL     1       9.303  26.814  50.949  1.00  0.00     0.208 A 
ATOM     11  C   UNL     1       9.567  26.541  52.316  1.00  0.00     0.179 A 
ENDROOT
BRANCH   1  12
ATOM     12  C   UNL     1      13.984  23.165  53.484  1.00  0.00     0.021 A 
ATOM     13  C   UNL     1      16.263  21.547  53.884  1.00  0.00     0.160 A 
ATOM     14  C   UNL     1      15.799  21.791  52.584  1.00  0.00     0.161 A 
ATOM     15  C   UNL     1      15.594  22.121  54.979  1.00  0.00     0.051 A 
ATOM     16  C   UNL     1      14.663  22.601  52.390  1.00  0.00     0.062 A 
ATOM     17  C   UNL     1      14.470  22.925  54.780  1.00  0.00     0.016 A 
BRANCH  13  18
ATOM     18  O   UNL     1      17.395  20.731  54.046  1.00  0.00    -0.493 OA
ATOM     19  C   UNL     1      17.353  19.362  54.439  1.00  0.00     0.278 C 
ENDBRANCH  13  18
BRANCH  14  20
ATOM     20  O   UNL     1      16.492  21.214  51.508  1.00  0.00    -0.493 OA
ATOM     21  C   UNL     1      16.028  20.099  50.753  1.00  0.00     0.278 C 
ENDBRANCH  14  20
ENDBRANCH   1  12
BRANCH   8  22
ATOM     22  O   UNL     1      12.073  24.956  49.329  1.00  0.00    -0.490 OA
ATOM     23  C   UNL     1      11.893  23.654  48.787  1.00  0.00     0.278 C 
ENDBRANCH   8  22
BRANCH  11  24
ATOM     24  O   UNL     1       8.813  27.169  53.310  1.00  0.00    -0.492 OA
ATOM     25  C   UNL     1       9.013  28.543  53.622  1.00  0.00     0.278 C 
ENDBRANCH  11  24
BRANCH   9  26
ATOM     26  O   UNL     1      10.036  26.560  48.578  1.00  0.00    -0.490 OA
ATOM     27  C   UNL     1       9.150  25.913  47.671  1.00  0.00     0.279 C 
ENDBRANCH   9  26
BRANCH  10  28
ATOM     28  O   UNL     1       8.198  27.586  50.549  1.00  0.00    -0.490 OA
ATOM     29  C   UNL     1       6.864  27.115  50.387  1.00  0.00     0.278 C 
ENDBRANCH  10  28
TORSDOF 7
ENDMDL
