MODEL 1
REMARK VINA RESULT:    -5.049      0.000      0.000
REMARK INTER + INTRA:          -6.712
REMARK INTER:                  -7.115
REMARK INTRA:                   0.403
REMARK UNBOUND:                 0.403
REMARK SMILES CC1=CCC(=C(C)C)C(=O)CC(C)=CCC1
REMARK SMILES IDX 12 1 14 2 13 3 15 4 16 5 2 6 1 7 3 8 11 10 9 11 10 12 5 13
REMARK SMILES IDX 6 14 7 15 8 16 4 17
REMARK H PARENT
REMARK Flexibility Score: 60.00
ROOT
ATOM      1  C   UNL     1     -13.173 -16.904  31.686  1.00  0.00    -0.070 C 
ATOM      2  C   UNL     1     -13.667 -18.131  31.961  1.00  0.00    -0.027 C 
ATOM      3  C   UNL     1     -14.092 -15.718  31.854  1.00  0.00     0.039 C 
ENDROOT
BRANCH   2   4
ATOM      4  C   UNL     1     -12.880 -19.423  31.946  1.00  0.00     0.032 C 
BRANCH   4   5
ATOM      5  C   UNL     1     -12.087 -19.683  30.647  1.00  0.00     0.034 C 
BRANCH   5   6
ATOM      6  C   UNL     1     -12.970 -19.772  29.416  1.00  0.00    -0.077 C 
ATOM      7  C   UNL     1     -14.053 -20.821  29.404  1.00  0.00     0.039 C 
ATOM      8  C   UNL     1     -12.893 -18.927  28.359  1.00  0.00    -0.023 CG0
ATOM      9  G   UNL     1     -11.882 -17.818  28.145  1.00  0.00     0.000 G0
ENDBRANCH   5   6
ENDBRANCH   4   5
ENDBRANCH   2   4
BRANCH   1  10
ATOM     10  C   UNL     1     -11.727 -16.654  31.308  1.00  0.00     0.111 C 
BRANCH  10  11
ATOM     11  C   UNL     1     -11.610 -16.004  29.955  1.00  0.00     0.163 C 
ATOM     12  O   UNL     1     -10.810 -15.038  29.827  1.00  0.00    -0.294 OA
BRANCH  11  13
ATOM     13  C   UNL     1     -12.355 -16.500  28.760  1.00  0.00    -0.002 C 
ATOM     14  C   UNL     1     -13.355 -15.753  28.200  1.00  0.00    -0.069 C 
ATOM     15  C   UNL     1     -14.019 -16.153  26.900  1.00  0.00     0.039 C 
ATOM     16  C   UNL     1     -13.846 -14.482  28.856  1.00  0.00     0.039 C 
BRANCH  13  17
ATOM     17  C   UNL     1     -11.892 -17.812  28.147  1.00  0.00     0.066 CG0
ATOM     18  G   UNL     1     -12.894 -18.930  28.354  1.00  0.00     0.000 G0
ENDBRANCH  13  17
ENDBRANCH  11  13
ENDBRANCH  10  11
ENDBRANCH   1  10
TORSDOF 0
ENDMDL
MODEL 2
REMARK VINA RESULT:    -5.046      2.169      3.791
REMARK INTER + INTRA:          -6.708
REMARK INTER:                  -7.291
REMARK INTRA:                   0.583
REMARK UNBOUND:                 0.403
REMARK SMILES CC1=CCC(=C(C)C)C(=O)CC(C)=CCC1
REMARK SMILES IDX 12 1 14 2 13 3 15 4 16 5 2 6 1 7 3 8 11 10 9 11 10 12 5 13
REMARK SMILES IDX 6 14 7 15 8 16 4 17
REMARK H PARENT
REMARK Flexibility Score: 60.00
ROOT
ATOM      1  C   UNL     1     -10.961 -16.590  32.417  1.00  0.00    -0.070 C 
ATOM      2  C   UNL     1     -10.166 -16.084  31.448  1.00  0.00    -0.027 C 
ATOM      3  C   UNL     1     -11.199 -15.749  33.647  1.00  0.00     0.039 C 
ENDROOT
BRANCH   2   4
ATOM      4  C   UNL     1      -9.887 -16.729  30.108  1.00  0.00     0.032 C 
BRANCH   4   5
ATOM      5  C   UNL     1     -10.471 -15.976  28.893  1.00  0.00     0.034 C 
BRANCH   5   6
ATOM      6  C   UNL     1     -11.713 -16.637  28.322  1.00  0.00    -0.077 C 
ATOM      7  C   UNL     1     -11.541 -17.537  27.124  1.00  0.00     0.039 C 
ATOM      8  C   UNL     1     -12.952 -16.526  28.859  1.00  0.00    -0.023 CG0
ATOM      9  G   UNL     1     -13.364 -15.670  30.040  1.00  0.00     0.000 G0
ENDBRANCH   5   6
ENDBRANCH   4   5
ENDBRANCH   2   4
BRANCH   1  10
ATOM     10  C   UNL     1     -11.692 -17.910  32.288  1.00  0.00     0.111 C 
BRANCH  10  11
ATOM     11  C   UNL     1     -12.934 -17.779  31.446  1.00  0.00     0.163 C 
ATOM     12  O   UNL     1     -13.390 -18.817  30.896  1.00  0.00    -0.294 OA
BRANCH  11  13
ATOM     13  C   UNL     1     -13.667 -16.487  31.294  1.00  0.00    -0.002 C 
ATOM     14  C   UNL     1     -14.501 -16.037  32.280  1.00  0.00    -0.069 C 
ATOM     15  C   UNL     1     -15.132 -14.662  32.227  1.00  0.00     0.039 C 
ATOM     16  C   UNL     1     -14.835 -16.896  33.479  1.00  0.00     0.039 C 
BRANCH  13  17
ATOM     17  C   UNL     1     -13.370 -15.661  30.053  1.00  0.00     0.066 CG0
ATOM     18  G   UNL     1     -12.954 -16.521  28.875  1.00  0.00     0.000 G0
ENDBRANCH  13  17
ENDBRANCH  11  13
ENDBRANCH  10  11
ENDBRANCH   1  10
TORSDOF 0
ENDMDL
MODEL 3
REMARK VINA RESULT:    -4.986      1.867      3.861
REMARK INTER + INTRA:          -6.623
REMARK INTER:                  -7.022
REMARK INTRA:                   0.398
REMARK UNBOUND:                 0.403
REMARK SMILES CC1=CCC(=C(C)C)C(=O)CC(C)=CCC1
REMARK SMILES IDX 12 1 14 2 13 3 15 4 16 5 2 6 1 7 3 8 11 10 9 11 10 12 5 13
REMARK SMILES IDX 6 14 7 15 8 16 4 17
REMARK H PARENT
REMARK Flexibility Score: 60.00
ROOT
ATOM      1  C   UNL     1     -10.540 -16.457  32.221  1.00  0.00    -0.070 C 
ATOM      2  C   UNL     1     -10.046 -15.870  31.108  1.00  0.00    -0.027 C 
ATOM      3  C   UNL     1     -10.564 -15.647  33.494  1.00  0.00     0.039 C 
ENDROOT
BRANCH   2   4
ATOM      4  C   UNL     1     -10.027 -16.480  29.724  1.00  0.00     0.032 C 
BRANCH   4   5
ATOM      5  C   UNL     1     -11.051 -15.879  28.737  1.00  0.00     0.034 C 
BRANCH   5   6
ATOM      6  C   UNL     1     -11.749 -16.927  27.889  1.00  0.00    -0.077 C 
ATOM      7  C   UNL     1     -11.142 -17.262  26.549  1.00  0.00     0.039 C 
ATOM      8  C   UNL     1     -12.838 -17.629  28.285  1.00  0.00    -0.023 CG0
ATOM      9  G   UNL     1     -13.622 -17.453  29.571  1.00  0.00     0.000 G0
ENDBRANCH   5   6
ENDBRANCH   4   5
ENDBRANCH   2   4
BRANCH   1  10
ATOM     10  C   UNL     1     -11.150 -17.843  32.230  1.00  0.00     0.111 C 
BRANCH  10  11
ATOM     11  C   UNL     1     -12.621 -17.806  31.906  1.00  0.00     0.163 C 
ATOM     12  O   UNL     1     -13.389 -17.199  32.700  1.00  0.00    -0.294 OA
BRANCH  11  13
ATOM     13  C   UNL     1     -13.182 -18.405  30.659  1.00  0.00    -0.002 C 
ATOM     14  C   UNL     1     -13.366 -19.756  30.553  1.00  0.00    -0.069 C 
ATOM     15  C   UNL     1     -14.076 -20.376  29.370  1.00  0.00     0.039 C 
ATOM     16  C   UNL     1     -12.866 -20.702  31.623  1.00  0.00     0.039 C 
BRANCH  13  17
ATOM     17  C   UNL     1     -13.623 -17.446  29.565  1.00  0.00     0.066 CG0
ATOM     18  G   UNL     1     -12.835 -17.633  28.283  1.00  0.00     0.000 G0
ENDBRANCH  13  17
ENDBRANCH  11  13
ENDBRANCH  10  11
ENDBRANCH   1  10
TORSDOF 0
ENDMDL
MODEL 4
REMARK VINA RESULT:    -4.979      1.683      3.162
REMARK INTER + INTRA:          -6.613
REMARK INTER:                  -7.288
REMARK INTRA:                   0.675
REMARK UNBOUND:                 0.403
REMARK SMILES CC1=CCC(=C(C)C)C(=O)CC(C)=CCC1
REMARK SMILES IDX 12 1 14 2 13 3 15 4 16 5 2 6 1 7 3 8 11 10 9 11 10 12 5 13
REMARK SMILES IDX 6 14 7 15 8 16 4 17
REMARK H PARENT
REMARK Flexibility Score: 60.00
ROOT
ATOM      1  C   UNL     1     -13.204 -19.316  29.556  1.00  0.00    -0.070 C 
ATOM      2  C   UNL     1     -13.506 -19.618  30.839  1.00  0.00    -0.027 C 
ATOM      3  C   UNL     1     -14.305 -19.417  28.529  1.00  0.00     0.039 C 
ENDROOT
BRANCH   2   4
ATOM      4  C   UNL     1     -12.570 -19.485  32.020  1.00  0.00     0.032 C 
BRANCH   4   5
ATOM      5  C   UNL     1     -12.112 -18.043  32.325  1.00  0.00     0.034 C 
BRANCH   5   6
ATOM      6  C   UNL     1     -13.215 -17.015  32.142  1.00  0.00    -0.077 C 
ATOM      7  C   UNL     1     -14.375 -17.052  33.105  1.00  0.00     0.039 C 
ATOM      8  C   UNL     1     -13.190 -16.026  31.216  1.00  0.00    -0.023 CG0
ATOM      9  G   UNL     1     -12.144 -15.805  30.140  1.00  0.00     0.000 G0
ENDBRANCH   5   6
ENDBRANCH   4   5
ENDBRANCH   2   4
BRANCH   1  10
ATOM     10  C   UNL     1     -11.849 -18.799  29.120  1.00  0.00     0.111 C 
BRANCH  10  11
ATOM     11  C   UNL     1     -11.973 -17.564  28.265  1.00  0.00     0.163 C 
ATOM     12  O   UNL     1     -11.574 -17.626  27.072  1.00  0.00    -0.294 OA
BRANCH  11  13
ATOM     13  C   UNL     1     -12.603 -16.305  28.763  1.00  0.00    -0.002 C 
ATOM     14  C   UNL     1     -13.604 -15.697  28.057  1.00  0.00    -0.069 C 
ATOM     15  C   UNL     1     -14.369 -14.514  28.610  1.00  0.00     0.039 C 
ATOM     16  C   UNL     1     -13.999 -16.183  26.680  1.00  0.00     0.039 C 
BRANCH  13  17
ATOM     17  C   UNL     1     -12.152 -15.792  30.121  1.00  0.00     0.066 CG0
ATOM     18  G   UNL     1     -13.189 -16.031  31.201  1.00  0.00     0.000 G0
ENDBRANCH  13  17
ENDBRANCH  11  13
ENDBRANCH  10  11
ENDBRANCH   1  10
TORSDOF 0
ENDMDL
MODEL 5
REMARK VINA RESULT:    -4.734      1.318      3.690
REMARK INTER + INTRA:          -6.269
REMARK INTER:                  -6.796
REMARK INTRA:                   0.527
REMARK UNBOUND:                 0.403
REMARK SMILES CC1=CCC(=C(C)C)C(=O)CC(C)=CCC1
REMARK SMILES IDX 12 1 14 2 13 3 15 4 16 5 2 6 1 7 3 8 11 10 9 11 10 12 5 13
REMARK SMILES IDX 6 14 7 15 8 16 4 17
REMARK H PARENT
REMARK Flexibility Score: 60.00
ROOT
ATOM      1  C   UNL     1     -13.030 -15.884  31.088  1.00  0.00    -0.070 C 
ATOM      2  C   UNL     1     -13.767 -15.553  30.004  1.00  0.00    -0.027 C 
ATOM      3  C   UNL     1     -13.763 -16.249  32.355  1.00  0.00     0.039 C 
ENDROOT
BRANCH   2   4
ATOM      4  C   UNL     1     -13.223 -15.253  28.625  1.00  0.00     0.032 C 
BRANCH   4   5
ATOM      5  C   UNL     1     -13.641 -16.258  27.530  1.00  0.00     0.034 C 
BRANCH   5   6
ATOM      6  C   UNL     1     -12.526 -17.209  27.134  1.00  0.00    -0.077 C 
ATOM      7  C   UNL     1     -11.761 -16.906  25.871  1.00  0.00     0.039 C 
ATOM      8  C   UNL     1     -12.129 -18.270  27.877  1.00  0.00    -0.023 CG0
ATOM      9  G   UNL     1     -12.756 -18.774  29.162  1.00  0.00     0.000 G0
ENDBRANCH   5   6
ENDBRANCH   4   5
ENDBRANCH   2   4
BRANCH   1  10
ATOM     10  C   UNL     1     -11.519 -15.993  31.065  1.00  0.00     0.111 C 
BRANCH  10  11
ATOM     11  C   UNL     1     -11.063 -17.254  30.380  1.00  0.00     0.163 C 
ATOM     12  O   UNL     1      -9.931 -17.252  29.825  1.00  0.00    -0.294 OA
BRANCH  11  13
ATOM     13  C   UNL     1     -11.871 -18.510  30.390  1.00  0.00    -0.002 C 
ATOM     14  C   UNL     1     -11.887 -19.323  31.490  1.00  0.00    -0.069 C 
ATOM     15  C   UNL     1     -12.816 -20.513  31.591  1.00  0.00     0.039 C 
ATOM     16  C   UNL     1     -10.971 -19.068  32.667  1.00  0.00     0.039 C 
BRANCH  13  17
ATOM     17  C   UNL     1     -12.741 -18.786  29.173  1.00  0.00     0.066 CG0
ATOM     18  G   UNL     1     -12.119 -18.266  27.892  1.00  0.00     0.000 G0
ENDBRANCH  13  17
ENDBRANCH  11  13
ENDBRANCH  10  11
ENDBRANCH   1  10
TORSDOF 0
ENDMDL
MODEL 6
REMARK VINA RESULT:    -4.675      2.226      4.668
REMARK INTER + INTRA:          -6.185
REMARK INTER:                  -7.306
REMARK INTRA:                   1.122
REMARK UNBOUND:                 0.403
REMARK SMILES CC1=CCC(=C(C)C)C(=O)CC(C)=CCC1
REMARK SMILES IDX 12 1 14 2 13 3 15 4 16 5 2 6 1 7 3 8 11 10 9 11 10 12 5 13
REMARK SMILES IDX 6 14 7 15 8 16 4 17
REMARK H PARENT
REMARK Flexibility Score: 60.00
ROOT
ATOM      1  C   UNL     1     -12.789 -19.107  29.121  1.00  0.00    -0.070 C 
ATOM      2  C   UNL     1     -12.408 -18.146  28.250  1.00  0.00    -0.027 C 
ATOM      3  C   UNL     1     -13.913 -20.026  28.710  1.00  0.00     0.039 C 
ENDROOT
BRANCH   2   4
ATOM      4  C   UNL     1     -11.245 -17.196  28.437  1.00  0.00     0.032 C 
BRANCH   4   5
ATOM      5  C   UNL     1     -11.495 -16.059  29.452  1.00  0.00     0.034 C 
BRANCH   5   6
ATOM      6  C   UNL     1     -12.958 -15.673  29.568  1.00  0.00    -0.077 C 
ATOM      7  C   UNL     1     -13.669 -15.235  28.312  1.00  0.00     0.039 C 
ATOM      8  C   UNL     1     -13.683 -15.761  30.709  1.00  0.00    -0.023 CG0
ATOM      9  G   UNL     1     -13.181 -16.155  32.084  1.00  0.00     0.000 G0
ENDBRANCH   5   6
ENDBRANCH   4   5
ENDBRANCH   2   4
BRANCH   1  10
ATOM     10  C   UNL     1     -12.088 -19.361  30.439  1.00  0.00     0.111 C 
BRANCH  10  11
ATOM     11  C   UNL     1     -12.751 -18.626  31.574  1.00  0.00     0.163 C 
ATOM     12  O   UNL     1     -13.746 -19.165  32.129  1.00  0.00    -0.294 OA
BRANCH  11  13
ATOM     13  C   UNL     1     -12.237 -17.325  32.095  1.00  0.00    -0.002 C 
ATOM     14  C   UNL     1     -10.929 -17.189  32.468  1.00  0.00    -0.069 C 
ATOM     15  C   UNL     1     -10.341 -15.847  32.848  1.00  0.00     0.039 C 
ATOM     16  C   UNL     1      -9.999 -18.381  32.516  1.00  0.00     0.039 C 
BRANCH  13  17
ATOM     17  C   UNL     1     -13.201 -16.149  32.101  1.00  0.00     0.066 CG0
ATOM     18  G   UNL     1     -13.666 -15.779  30.706  1.00  0.00     0.000 G0
ENDBRANCH  13  17
ENDBRANCH  11  13
ENDBRANCH  10  11
ENDBRANCH   1  10
TORSDOF 0
ENDMDL
MODEL 7
REMARK VINA RESULT:    -4.675      1.861      3.845
REMARK INTER + INTRA:          -6.184
REMARK INTER:                  -7.167
REMARK INTRA:                   0.983
REMARK UNBOUND:                 0.403
REMARK SMILES CC1=CCC(=C(C)C)C(=O)CC(C)=CCC1
REMARK SMILES IDX 12 1 14 2 13 3 15 4 16 5 2 6 1 7 3 8 11 10 9 11 10 12 5 13
REMARK SMILES IDX 6 14 7 15 8 16 4 17
REMARK H PARENT
REMARK Flexibility Score: 60.00
ROOT
ATOM      1  C   UNL     1     -13.261 -15.445  29.694  1.00  0.00    -0.070 C 
ATOM      2  C   UNL     1     -14.005 -15.455  30.822  1.00  0.00    -0.027 C 
ATOM      3  C   UNL     1     -13.933 -15.028  28.409  1.00  0.00     0.039 C 
ENDROOT
BRANCH   2   4
ATOM      4  C   UNL     1     -13.493 -15.748  32.215  1.00  0.00     0.032 C 
BRANCH   4   5
ATOM      5  C   UNL     1     -12.811 -17.124  32.378  1.00  0.00     0.034 C 
BRANCH   5   6
ATOM      6  C   UNL     1     -11.317 -17.024  32.627  1.00  0.00    -0.077 C 
ATOM      7  C   UNL     1     -10.847 -16.079  33.704  1.00  0.00     0.039 C 
ATOM      8  C   UNL     1     -10.385 -17.778  31.994  1.00  0.00    -0.023 CG0
ATOM      9  G   UNL     1     -10.620 -18.772  30.874  1.00  0.00     0.000 G0
ENDBRANCH   5   6
ENDBRANCH   4   5
ENDBRANCH   2   4
BRANCH   1  10
ATOM     10  C   UNL     1     -11.776 -15.742  29.674  1.00  0.00     0.111 C 
BRANCH  10  11
ATOM     11  C   UNL     1     -11.489 -17.112  29.117  1.00  0.00     0.163 C 
ATOM     12  O   UNL     1     -10.993 -17.191  27.962  1.00  0.00    -0.294 OA
BRANCH  11  13
ATOM     13  C   UNL     1     -11.714 -18.360  29.905  1.00  0.00    -0.002 C 
ATOM     14  C   UNL     1     -12.828 -19.126  29.699  1.00  0.00    -0.069 C 
ATOM     15  C   UNL     1     -13.007 -20.473  30.364  1.00  0.00     0.039 C 
ATOM     16  C   UNL     1     -13.942 -18.661  28.787  1.00  0.00     0.039 C 
BRANCH  13  17
ATOM     17  C   UNL     1     -10.614 -18.784  30.866  1.00  0.00     0.066 CG0
ATOM     18  G   UNL     1     -10.398 -17.773  31.975  1.00  0.00     0.000 G0
ENDBRANCH  13  17
ENDBRANCH  11  13
ENDBRANCH  10  11
ENDBRANCH   1  10
TORSDOF 0
ENDMDL
MODEL 8
REMARK VINA RESULT:    -4.659      1.566      3.573
REMARK INTER + INTRA:          -6.162
REMARK INTER:                  -7.353
REMARK INTRA:                   1.191
REMARK UNBOUND:                 0.403
REMARK SMILES CC1=CCC(=C(C)C)C(=O)CC(C)=CCC1
REMARK SMILES IDX 12 1 14 2 13 3 15 4 16 5 2 6 1 7 3 8 11 10 9 11 10 12 5 13
REMARK SMILES IDX 6 14 7 15 8 16 4 17
REMARK H PARENT
REMARK Flexibility Score: 60.00
ROOT
ATOM      1  C   UNL     1     -12.697 -19.829  30.774  1.00  0.00    -0.070 C 
ATOM      2  C   UNL     1     -13.668 -19.913  29.837  1.00  0.00    -0.027 C 
ATOM      3  C   UNL     1     -12.775 -20.763  31.956  1.00  0.00     0.039 C 
ENDROOT
BRANCH   2   4
ATOM      4  C   UNL     1     -13.713 -19.135  28.540  1.00  0.00     0.032 C 
BRANCH   4   5
ATOM      5  C   UNL     1     -12.531 -18.164  28.327  1.00  0.00     0.034 C 
BRANCH   5   6
ATOM      6  C   UNL     1     -12.973 -16.755  27.974  1.00  0.00    -0.077 C 
ATOM      7  C   UNL     1     -13.779 -16.567  26.714  1.00  0.00     0.039 C 
ATOM      8  C   UNL     1     -12.750 -15.668  28.751  1.00  0.00    -0.023 CG0
ATOM      9  G   UNL     1     -11.954 -15.613  30.041  1.00  0.00     0.000 G0
ENDBRANCH   5   6
ENDBRANCH   4   5
ENDBRANCH   2   4
BRANCH   1  10
ATOM     10  C   UNL     1     -11.497 -18.914  30.649  1.00  0.00     0.111 C 
BRANCH  10  11
ATOM     11  C   UNL     1     -11.638 -17.688  31.512  1.00  0.00     0.163 C 
ATOM     12  O   UNL     1     -10.967 -17.631  32.577  1.00  0.00    -0.294 OA
BRANCH  11  13
ATOM     13  C   UNL     1     -12.491 -16.527  31.121  1.00  0.00    -0.002 C 
ATOM     14  C   UNL     1     -13.667 -16.272  31.771  1.00  0.00    -0.069 C 
ATOM     15  C   UNL     1     -14.472 -15.018  31.506  1.00  0.00     0.039 C 
ATOM     16  C   UNL     1     -14.223 -17.238  32.794  1.00  0.00     0.039 C 
BRANCH  13  17
ATOM     17  C   UNL     1     -11.950 -15.598  30.046  1.00  0.00     0.066 CG0
ATOM     18  G   UNL     1     -12.749 -15.678  28.760  1.00  0.00     0.000 G0
ENDBRANCH  13  17
ENDBRANCH  11  13
ENDBRANCH  10  11
ENDBRANCH   1  10
TORSDOF 0
ENDMDL
MODEL 9
REMARK VINA RESULT:    -4.167      2.230      3.210
REMARK INTER + INTRA:          -5.469
REMARK INTER:                  -6.001
REMARK INTRA:                   0.532
REMARK UNBOUND:                 0.403
REMARK SMILES CC1=CCC(=C(C)C)C(=O)CC(C)=CCC1
REMARK SMILES IDX 12 1 14 2 13 3 15 4 16 5 2 6 1 7 3 8 11 10 9 11 10 12 5 13
REMARK SMILES IDX 6 14 7 15 8 16 4 17
REMARK H PARENT
REMARK Flexibility Score: 60.00
ROOT
ATOM      1  C   UNL     1     -13.480 -16.467  32.407  1.00  0.00    -0.070 C 
ATOM      2  C   UNL     1     -12.332 -16.158  33.051  1.00  0.00    -0.027 C 
ATOM      3  C   UNL     1     -14.677 -16.848  33.243  1.00  0.00     0.039 C 
ENDROOT
BRANCH   2   4
ATOM      4  C   UNL     1     -11.061 -15.661  32.399  1.00  0.00     0.032 C 
BRANCH   4   5
ATOM      5  C   UNL     1      -9.875 -16.649  32.457  1.00  0.00     0.034 C 
BRANCH   5   6
ATOM      6  C   UNL     1     -10.288 -18.092  32.228  1.00  0.00    -0.077 C 
ATOM      7  C   UNL     1     -10.335 -19.006  33.427  1.00  0.00     0.039 C 
ATOM      8  C   UNL     1     -10.684 -18.593  31.033  1.00  0.00    -0.023 CG0
ATOM      9  G   UNL     1     -10.701 -17.872  29.699  1.00  0.00     0.000 G0
ENDBRANCH   5   6
ENDBRANCH   4   5
ENDBRANCH   2   4
BRANCH   1  10
ATOM     10  C   UNL     1     -13.646 -16.361  30.906  1.00  0.00     0.111 C 
BRANCH  10  11
ATOM     11  C   UNL     1     -13.226 -17.628  30.208  1.00  0.00     0.163 C 
ATOM     12  O   UNL     1     -13.861 -18.686  30.466  1.00  0.00    -0.294 OA
BRANCH  11  13
ATOM     13  C   UNL     1     -12.135 -17.658  29.189  1.00  0.00    -0.002 C 
ATOM     14  C   UNL     1     -12.403 -17.411  27.871  1.00  0.00    -0.069 C 
ATOM     15  C   UNL     1     -11.301 -17.278  26.843  1.00  0.00     0.039 C 
ATOM     16  C   UNL     1     -13.824 -17.257  27.375  1.00  0.00     0.039 C 
BRANCH  13  17
ATOM     17  C   UNL     1     -10.718 -17.877  29.694  1.00  0.00     0.066 CG0
ATOM     18  G   UNL     1     -10.686 -18.600  31.027  1.00  0.00     0.000 G0
ENDBRANCH  13  17
ENDBRANCH  11  13
ENDBRANCH  10  11
ENDBRANCH   1  10
TORSDOF 0
ENDMDL
