MODEL 1
REMARK VINA RESULT:    -5.902      0.000      0.000
REMARK INTER + INTRA:          -6.343
REMARK INTER:                  -6.247
REMARK INTRA:                  -0.096
REMARK UNBOUND:                -0.096
REMARK SMILES C=C(C)[C@@H]1CC=C(C)C(=O)C1
REMARK SMILES IDX 8 1 7 2 6 3 5 4 4 5 11 6 9 7 10 8 2 9 1 10 3 11
REMARK H PARENT
REMARK Flexibility Score: inf
ROOT
ATOM      1  C   UNL     1      80.379   7.459  26.894  1.00  0.00     0.048 C 
ATOM      2  C   UNL     1      81.296   6.330  27.275  1.00  0.00    -0.012 C 
ATOM      3  C   UNL     1      81.694   6.194  28.552  1.00  0.00    -0.019 C 
ATOM      4  C   UNL     1      82.597   5.070  28.990  1.00  0.00     0.036 C 
ATOM      5  C   UNL     1      83.575   4.675  27.869  1.00  0.00     0.025 C 
ATOM      6  C   UNL     1      82.804   4.333  26.581  1.00  0.00     0.089 C 
ATOM      7  C   UNL     1      81.855   5.445  26.223  1.00  0.00     0.158 C 
ATOM      8  O   UNL     1      81.510   5.593  25.020  1.00  0.00    -0.295 OA
ENDROOT
BRANCH   5   9
ATOM      9  C   UNL     1      84.480   3.527  28.297  1.00  0.00    -0.077 C 
ATOM     10  C   UNL     1      83.950   2.408  28.813  1.00  0.00     0.008 C 
ATOM     11  C   UNL     1      85.980   3.616  28.156  1.00  0.00     0.039 C 
ENDBRANCH   5   9
TORSDOF 1
ENDMDL
MODEL 2
REMARK VINA RESULT:    -5.471      2.007      4.619
REMARK INTER + INTRA:          -5.887
REMARK INTER:                  -5.791
REMARK INTRA:                  -0.096
REMARK UNBOUND:                -0.096
REMARK SMILES C=C(C)[C@@H]1CC=C(C)C(=O)C1
REMARK SMILES IDX 8 1 7 2 6 3 5 4 4 5 11 6 9 7 10 8 2 9 1 10 3 11
REMARK H PARENT
REMARK Flexibility Score: inf
ROOT
ATOM      1  C   UNL     1      86.041   3.047  28.703  1.00  0.00     0.048 C 
ATOM      2  C   UNL     1      84.844   3.711  28.078  1.00  0.00    -0.012 C 
ATOM      3  C   UNL     1      85.015   4.767  27.263  1.00  0.00    -0.019 C 
ATOM      4  C   UNL     1      83.853   5.456  26.597  1.00  0.00     0.036 C 
ATOM      5  C   UNL     1      82.597   5.410  27.486  1.00  0.00     0.025 C 
ATOM      6  C   UNL     1      82.268   3.956  27.872  1.00  0.00     0.089 C 
ATOM      7  C   UNL     1      83.476   3.278  28.458  1.00  0.00     0.158 C 
ATOM      8  O   UNL     1      83.314   2.311  29.250  1.00  0.00    -0.295 OA
ENDROOT
BRANCH   5   9
ATOM      9  C   UNL     1      81.412   6.089  26.812  1.00  0.00    -0.077 C 
ATOM     10  C   UNL     1      81.018   5.702  25.589  1.00  0.00     0.008 C 
ATOM     11  C   UNL     1      80.656   7.204  27.493  1.00  0.00     0.039 C 
ENDBRANCH   5   9
TORSDOF 1
ENDMDL
MODEL 3
REMARK VINA RESULT:    -5.455      1.736      3.254
REMARK INTER + INTRA:          -5.870
REMARK INTER:                  -5.774
REMARK INTRA:                  -0.096
REMARK UNBOUND:                -0.096
REMARK SMILES C=C(C)[C@@H]1CC=C(C)C(=O)C1
REMARK SMILES IDX 8 1 7 2 6 3 5 4 4 5 11 6 9 7 10 8 2 9 1 10 3 11
REMARK H PARENT
REMARK Flexibility Score: inf
ROOT
ATOM      1  C   UNL     1      84.152   4.860  25.008  1.00  0.00     0.048 C 
ATOM      2  C   UNL     1      83.643   4.665  26.410  1.00  0.00    -0.012 C 
ATOM      3  C   UNL     1      84.279   3.821  27.240  1.00  0.00    -0.019 C 
ATOM      4  C   UNL     1      83.822   3.603  28.659  1.00  0.00     0.036 C 
ATOM      5  C   UNL     1      82.293   3.737  28.777  1.00  0.00     0.025 C 
ATOM      6  C   UNL     1      81.830   5.094  28.218  1.00  0.00     0.089 C 
ATOM      7  C   UNL     1      82.374   5.309  26.831  1.00  0.00     0.158 C 
ATOM      8  O   UNL     1      81.757   6.073  26.042  1.00  0.00    -0.295 OA
ENDROOT
BRANCH   5   9
ATOM      9  C   UNL     1      81.824   3.536  30.211  1.00  0.00    -0.077 C 
ATOM     10  C   UNL     1      82.000   4.507  31.120  1.00  0.00     0.008 C 
ATOM     11  C   UNL     1      81.158   2.254  30.647  1.00  0.00     0.039 C 
ENDBRANCH   5   9
TORSDOF 1
ENDMDL
MODEL 4
REMARK VINA RESULT:    -5.380      2.553      3.793
REMARK INTER + INTRA:          -5.791
REMARK INTER:                  -5.703
REMARK INTRA:                  -0.087
REMARK UNBOUND:                -0.096
REMARK SMILES C=C(C)[C@@H]1CC=C(C)C(=O)C1
REMARK SMILES IDX 8 1 7 2 6 3 5 4 4 5 11 6 9 7 10 8 2 9 1 10 3 11
REMARK H PARENT
REMARK Flexibility Score: inf
ROOT
ATOM      1  C   UNL     1      81.615   4.076  31.716  1.00  0.00     0.048 C 
ATOM      2  C   UNL     1      82.090   4.299  30.306  1.00  0.00    -0.012 C 
ATOM      3  C   UNL     1      82.280   5.551  29.854  1.00  0.00    -0.019 C 
ATOM      4  C   UNL     1      82.772   5.829  28.458  1.00  0.00     0.036 C 
ATOM      5  C   UNL     1      82.270   4.760  27.470  1.00  0.00     0.025 C 
ATOM      6  C   UNL     1      82.664   3.353  27.957  1.00  0.00     0.089 C 
ATOM      7  C   UNL     1      82.228   3.146  29.382  1.00  0.00     0.158 C 
ATOM      8  O   UNL     1      82.015   1.974  29.793  1.00  0.00    -0.295 OA
ENDROOT
BRANCH   5   9
ATOM      9  C   UNL     1      82.778   5.022  26.059  1.00  0.00    -0.077 C 
ATOM     10  C   UNL     1      82.004   5.669  25.173  1.00  0.00     0.008 C 
ATOM     11  C   UNL     1      84.148   4.567  25.620  1.00  0.00     0.039 C 
ENDBRANCH   5   9
TORSDOF 1
ENDMDL
MODEL 5
REMARK VINA RESULT:    -4.792      1.651      2.309
REMARK INTER + INTRA:          -5.168
REMARK INTER:                  -5.079
REMARK INTRA:                  -0.090
REMARK UNBOUND:                -0.096
REMARK SMILES C=C(C)[C@@H]1CC=C(C)C(=O)C1
REMARK SMILES IDX 8 1 7 2 6 3 5 4 4 5 11 6 9 7 10 8 2 9 1 10 3 11
REMARK H PARENT
REMARK Flexibility Score: inf
ROOT
ATOM      1  C   UNL     1      80.317   7.696  26.809  1.00  0.00     0.048 C 
ATOM      2  C   UNL     1      81.177   6.486  27.055  1.00  0.00    -0.012 C 
ATOM      3  C   UNL     1      81.305   5.551  26.099  1.00  0.00    -0.019 C 
ATOM      4  C   UNL     1      82.168   4.330  26.287  1.00  0.00     0.036 C 
ATOM      5  C   UNL     1      82.182   3.882  27.759  1.00  0.00     0.025 C 
ATOM      6  C   UNL     1      82.613   5.047  28.670  1.00  0.00     0.089 C 
ATOM      7  C   UNL     1      81.781   6.270  28.393  1.00  0.00     0.158 C 
ATOM      8  O   UNL     1      81.633   7.129  29.303  1.00  0.00    -0.295 OA
ENDROOT
BRANCH   5   9
ATOM      9  C   UNL     1      83.066   2.660  27.962  1.00  0.00    -0.077 C 
ATOM     10  C   UNL     1      82.632   1.444  27.595  1.00  0.00     0.008 C 
ATOM     11  C   UNL     1      84.440   2.778  28.576  1.00  0.00     0.039 C 
ENDBRANCH   5   9
TORSDOF 1
ENDMDL
MODEL 6
REMARK VINA RESULT:    -4.693      2.724      4.127
REMARK INTER + INTRA:          -5.064
REMARK INTER:                  -4.966
REMARK INTRA:                  -0.098
REMARK UNBOUND:                -0.096
REMARK SMILES C=C(C)[C@@H]1CC=C(C)C(=O)C1
REMARK SMILES IDX 8 1 7 2 6 3 5 4 4 5 11 6 9 7 10 8 2 9 1 10 3 11
REMARK H PARENT
REMARK Flexibility Score: inf
ROOT
ATOM      1  C   UNL     1      81.341   1.879  30.916  1.00  0.00     0.048 C 
ATOM      2  C   UNL     1      81.870   2.737  29.800  1.00  0.00    -0.012 C 
ATOM      3  C   UNL     1      82.198   2.176  28.624  1.00  0.00    -0.019 C 
ATOM      4  C   UNL     1      82.715   2.992  27.467  1.00  0.00     0.036 C 
ATOM      5  C   UNL     1      83.536   4.196  27.962  1.00  0.00     0.025 C 
ATOM      6  C   UNL     1      82.708   5.042  28.947  1.00  0.00     0.089 C 
ATOM      7  C   UNL     1      82.143   4.176  30.040  1.00  0.00     0.158 C 
ATOM      8  O   UNL     1      81.869   4.697  31.154  1.00  0.00    -0.295 OA
ENDROOT
BRANCH   5   9
ATOM      9  C   UNL     1      84.048   5.038  26.800  1.00  0.00    -0.077 C 
ATOM     10  C   UNL     1      84.473   6.292  27.012  1.00  0.00     0.008 C 
ATOM     11  C   UNL     1      84.088   4.491  25.394  1.00  0.00     0.039 C 
ENDBRANCH   5   9
TORSDOF 1
ENDMDL
MODEL 7
REMARK VINA RESULT:    -4.577      2.338      3.466
REMARK INTER + INTRA:          -4.941
REMARK INTER:                  -4.845
REMARK INTRA:                  -0.097
REMARK UNBOUND:                -0.096
REMARK SMILES C=C(C)[C@@H]1CC=C(C)C(=O)C1
REMARK SMILES IDX 8 1 7 2 6 3 5 4 4 5 11 6 9 7 10 8 2 9 1 10 3 11
REMARK H PARENT
REMARK Flexibility Score: inf
ROOT
ATOM      1  C   UNL     1      84.436   5.744  25.645  1.00  0.00     0.048 C 
ATOM      2  C   UNL     1      83.716   5.029  26.755  1.00  0.00    -0.012 C 
ATOM      3  C   UNL     1      82.455   5.374  27.065  1.00  0.00    -0.019 C 
ATOM      4  C   UNL     1      81.683   4.678  28.155  1.00  0.00     0.036 C 
ATOM      5  C   UNL     1      82.617   4.214  29.287  1.00  0.00     0.025 C 
ATOM      6  C   UNL     1      83.747   3.334  28.722  1.00  0.00     0.089 C 
ATOM      7  C   UNL     1      84.440   4.032  27.583  1.00  0.00     0.158 C 
ATOM      8  O   UNL     1      85.635   3.733  27.316  1.00  0.00    -0.295 OA
ENDROOT
BRANCH   5   9
ATOM      9  C   UNL     1      81.847   3.492  30.385  1.00  0.00    -0.077 C 
ATOM     10  C   UNL     1      81.471   2.215  30.218  1.00  0.00     0.008 C 
ATOM     11  C   UNL     1      81.489   4.185  31.677  1.00  0.00     0.039 C 
ENDBRANCH   5   9
TORSDOF 1
ENDMDL
MODEL 8
REMARK VINA RESULT:    -4.165     17.958     19.026
REMARK INTER + INTRA:          -4.505
REMARK INTER:                  -4.407
REMARK INTRA:                  -0.099
REMARK UNBOUND:                -0.096
REMARK SMILES C=C(C)[C@@H]1CC=C(C)C(=O)C1
REMARK SMILES IDX 8 1 7 2 6 3 5 4 4 5 11 6 9 7 10 8 2 9 1 10 3 11
REMARK H PARENT
REMARK Flexibility Score: inf
ROOT
ATOM      1  C   UNL     1      78.836  -7.393  11.877  1.00  0.00     0.048 C 
ATOM      2  C   UNL     1      78.747  -7.827  13.314  1.00  0.00    -0.012 C 
ATOM      3  C   UNL     1      79.329  -7.087  14.273  1.00  0.00    -0.019 C 
ATOM      4  C   UNL     1      79.254  -7.467  15.729  1.00  0.00     0.036 C 
ATOM      5  C   UNL     1      79.215  -8.996  15.903  1.00  0.00     0.025 C 
ATOM      6  C   UNL     1      78.059  -9.599  15.084  1.00  0.00     0.089 C 
ATOM      7  C   UNL     1      78.124  -9.130  13.655  1.00  0.00     0.158 C 
ATOM      8  O   UNL     1      77.608  -9.843  12.752  1.00  0.00    -0.295 OA
ENDROOT
BRANCH   5   9
ATOM      9  C   UNL     1      79.121  -9.389  17.371  1.00  0.00    -0.077 C 
ATOM     10  C   UNL     1      78.077 -10.108  17.811  1.00  0.00     0.008 C 
ATOM     11  C   UNL     1      80.185  -8.984  18.361  1.00  0.00     0.039 C 
ENDBRANCH   5   9
TORSDOF 1
ENDMDL
