MODEL 1
REMARK VINA RESULT:     4.384      0.000      0.000
REMARK INTER + INTRA:           6.407
REMARK INTER:                   6.691
REMARK INTRA:                  -0.284
REMARK UNBOUND:                -0.284
REMARK SMILES CCCCCCCCCCC(=O)[O-]
REMARK SMILES IDX 7 1 8 2 9 3 10 4 11 5 12 6 13 7 6 8 5 9 4 10 3 11 2 12 1 13
REMARK H PARENT
REMARK Flexibility Score: inf
ROOT
ATOM      1  C   UNL     1      14.439 -14.090   7.205  1.00  0.00     0.000 C 
ENDROOT
BRANCH   1   2
ATOM      2  C   UNL     1      12.953 -13.695   7.175  1.00  0.00     0.000 C 
BRANCH   2   3
ATOM      3  C   UNL     1      12.502 -13.181   5.798  1.00  0.00     0.006 C 
BRANCH   3   4
ATOM      4  C   UNL     1      11.318 -12.219   5.934  1.00  0.00     0.053 C 
BRANCH   4   5
ATOM      5  C   UNL     1      10.054 -12.876   5.477  1.00  0.00     0.041 C 
ATOM      6  O   UNL     1       9.026 -12.184   5.255  1.00  0.00    -0.550 OA
ATOM      7  O   UNL     1      10.025 -14.246   5.248  1.00  0.00    -0.550 OA
ENDBRANCH   4   5
ENDBRANCH   3   4
ENDBRANCH   2   3
ENDBRANCH   1   2
BRANCH   1   8
ATOM      8  C   UNL     1      14.699 -15.460   6.555  1.00  0.00     0.000 C 
BRANCH   8   9
ATOM      9  C   UNL     1      15.967 -16.140   7.099  1.00  0.00    -0.000 C 
BRANCH   9  10
ATOM     10  C   UNL     1      17.257 -15.495   6.565  1.00  0.00    -0.000 C 
BRANCH  10  11
ATOM     11  C   UNL     1      18.465 -16.443   6.636  1.00  0.00    -0.000 C 
BRANCH  11  12
ATOM     12  C   UNL     1      19.125 -16.666   5.267  1.00  0.00    -0.003 C 
ATOM     13  C   UNL     1      19.119 -18.145   4.890  1.00  0.00     0.004 C 
ENDBRANCH  11  12
ENDBRANCH  10  11
ENDBRANCH   9  10
ENDBRANCH   8   9
ENDBRANCH   1   8
TORSDOF 9
ENDMDL
MODEL 2
REMARK VINA RESULT:     4.878      4.067      7.412
REMARK INTER + INTRA:           7.160
REMARK INTER:                   7.591
REMARK INTRA:                  -0.432
REMARK UNBOUND:                -0.284
REMARK SMILES CCCCCCCCCCC(=O)[O-]
REMARK SMILES IDX 7 1 8 2 9 3 10 4 11 5 12 6 13 7 6 8 5 9 4 10 3 11 2 12 1 13
REMARK H PARENT
REMARK Flexibility Score: inf
ROOT
ATOM      1  C   UNL     1      14.571 -14.043   7.233  1.00  0.00     0.000 C 
ENDROOT
BRANCH   1   2
ATOM      2  C   UNL     1      14.751 -15.439   6.614  1.00  0.00     0.000 C 
BRANCH   2   3
ATOM      3  C   UNL     1      16.062 -16.115   7.045  1.00  0.00     0.006 C 
BRANCH   3   4
ATOM      4  C   UNL     1      17.275 -15.341   6.522  1.00  0.00     0.053 C 
BRANCH   4   5
ATOM      5  C   UNL     1      18.459 -16.246   6.391  1.00  0.00     0.041 C 
ATOM      6  O   UNL     1      18.923 -16.832   7.404  1.00  0.00    -0.550 OA
ATOM      7  O   UNL     1      19.019 -16.482   5.141  1.00  0.00    -0.550 OA
ENDBRANCH   4   5
ENDBRANCH   3   4
ENDBRANCH   2   3
ENDBRANCH   1   2
BRANCH   1   8
ATOM      8  C   UNL     1      13.149 -13.489   7.036  1.00  0.00     0.000 C 
BRANCH   8   9
ATOM      9  C   UNL     1      12.499 -13.979   5.730  1.00  0.00    -0.000 C 
BRANCH   9  10
ATOM     10  C   UNL     1      11.191 -13.236   5.407  1.00  0.00    -0.000 C 
BRANCH  10  11
ATOM     11  C   UNL     1      10.970 -12.012   6.310  1.00  0.00    -0.000 C 
BRANCH  11  12
ATOM     12  C   UNL     1      11.100 -10.683   5.548  1.00  0.00    -0.003 C 
ATOM     13  C   UNL     1      12.356 -10.668   4.683  1.00  0.00     0.004 C 
ENDBRANCH  11  12
ENDBRANCH  10  11
ENDBRANCH   9  10
ENDBRANCH   8   9
ENDBRANCH   1   8
TORSDOF 9
ENDMDL
MODEL 3
REMARK VINA RESULT:     5.101      4.057      7.662
REMARK INTER + INTRA:           7.501
REMARK INTER:                   7.808
REMARK INTRA:                  -0.307
REMARK UNBOUND:                -0.284
REMARK SMILES CCCCCCCCCCC(=O)[O-]
REMARK SMILES IDX 7 1 8 2 9 3 10 4 11 5 12 6 13 7 6 8 5 9 4 10 3 11 2 12 1 13
REMARK H PARENT
REMARK Flexibility Score: inf
ROOT
ATOM      1  C   UNL     1      15.115 -15.663   6.609  1.00  0.00     0.000 C 
ENDROOT
BRANCH   1   2
ATOM      2  C   UNL     1      16.415 -16.253   7.178  1.00  0.00     0.000 C 
BRANCH   2   3
ATOM      3  C   UNL     1      17.674 -15.644   6.539  1.00  0.00     0.006 C 
BRANCH   3   4
ATOM      4  C   UNL     1      18.822 -16.658   6.519  1.00  0.00     0.053 C 
BRANCH   4   5
ATOM      5  C   UNL     1      19.014 -17.206   5.140  1.00  0.00     0.041 C 
ATOM      6  O   UNL     1      19.124 -16.426   4.159  1.00  0.00    -0.550 OA
ATOM      7  O   UNL     1      19.121 -18.577   4.945  1.00  0.00    -0.550 OA
ENDBRANCH   4   5
ENDBRANCH   3   4
ENDBRANCH   2   3
ENDBRANCH   1   2
BRANCH   1   8
ATOM      8  C   UNL     1      14.874 -14.214   7.066  1.00  0.00     0.000 C 
BRANCH   8   9
ATOM      9  C   UNL     1      13.380 -13.891   7.242  1.00  0.00    -0.000 C 
BRANCH   9  10
ATOM     10  C   UNL     1      12.802 -13.106   6.051  1.00  0.00    -0.000 C 
BRANCH  10  11
ATOM     11  C   UNL     1      11.357 -13.515   5.721  1.00  0.00    -0.000 C 
BRANCH  11  12
ATOM     12  C   UNL     1      10.391 -12.321   5.707  1.00  0.00    -0.003 C 
ATOM     13  C   UNL     1      11.152 -11.001   5.633  1.00  0.00     0.004 C 
ENDBRANCH  11  12
ENDBRANCH  10  11
ENDBRANCH   9  10
ENDBRANCH   8   9
ENDBRANCH   1   8
TORSDOF 9
ENDMDL
