MODEL 1
REMARK VINA RESULT:    -6.889      0.000      0.000
REMARK INTER + INTRA:          -8.600
REMARK INTER:                  -8.298
REMARK INTRA:                  -0.302
REMARK UNBOUND:                -0.302
REMARK SMILES O=c1c(O)c(-c2ccc(O)c(O)c2)oc2cc(O)cc(O)c12
REMARK SMILES IDX 5 1 3 2 2 3 1 4 22 5 20 6 19 7 17 8 16 9 15 10 14 11 6 12
REMARK SMILES IDX 7 13 8 14 9 15 13 16 11 17 10 18 12 20 4 22 21 24 18 26
REMARK H PARENT 10 19 12 21 4 23 21 25 18 27
REMARK Flexibility Score: inf
ROOT
ATOM      1  C   UNL     1      19.729  -2.661  21.167  1.00  0.00     0.180 A 
ATOM      2  C   UNL     1      19.006  -1.977  20.175  1.00  0.00     0.208 A 
ATOM      3  C   UNL     1      18.939  -0.576  20.226  1.00  0.00     0.238 A 
ATOM      4  O   UNL     1      18.335   0.035  19.304  1.00  0.00    -0.285 OA
ATOM      5  C   UNL     1      19.581   0.123  21.276  1.00  0.00     0.111 A 
ATOM      6  C   UNL     1      19.544   1.539  21.448  1.00  0.00     0.134 A 
ATOM      7  C   UNL     1      20.324   2.134  22.449  1.00  0.00     0.093 A 
ATOM      8  C   UNL     1      21.086   1.360  23.323  1.00  0.00     0.123 A 
ATOM      9  C   UNL     1      21.082  -0.030  23.200  1.00  0.00     0.094 A 
ATOM     10  C   UNL     1      20.344  -0.650  22.190  1.00  0.00     0.146 A 
ATOM     11  O   UNL     1      20.375  -1.974  22.102  1.00  0.00    -0.452 OA
ENDROOT
BRANCH   1  12
ATOM     12  C   UNL     1      19.825  -4.139  21.195  1.00  0.00     0.025 A 
ATOM     13  C   UNL     1      19.019  -4.908  22.053  1.00  0.00     0.016 A 
ATOM     14  C   UNL     1      19.145  -6.299  22.081  1.00  0.00     0.051 A 
ATOM     15  C   UNL     1      20.083  -6.942  21.264  1.00  0.00     0.157 A 
ATOM     16  C   UNL     1      20.779  -4.785  20.394  1.00  0.00     0.062 A 
ATOM     17  C   UNL     1      20.906  -6.180  20.418  1.00  0.00     0.158 A 
BRANCH  15  18
ATOM     18  O   UNL     1      20.204  -8.330  21.292  1.00  0.00    -0.504 OA
ATOM     19  H   UNL     1      20.874  -8.815  20.707  1.00  0.00     0.293 HD
ENDBRANCH  15  18
BRANCH  17  20
ATOM     20  O   UNL     1      21.856  -6.788  19.598  1.00  0.00    -0.504 OA
ATOM     21  H   UNL     1      22.129  -7.756  19.716  1.00  0.00     0.293 HD
ENDBRANCH  17  20
ENDBRANCH   1  12
BRANCH   2  22
ATOM     22  O   UNL     1      18.398  -2.685  19.134  1.00  0.00    -0.502 OA
ATOM     23  H   UNL     1      18.493  -3.688  19.031  1.00  0.00     0.293 HD
ENDBRANCH   2  22
BRANCH   6  24
ATOM     24  O   UNL     1      18.744   2.398  20.688  1.00  0.00    -0.507 OA
ATOM     25  H   UNL     1      18.010   2.980  21.061  1.00  0.00     0.293 HD
ENDBRANCH   6  24
BRANCH   8  26
ATOM     26  O   UNL     1      21.838   1.984  24.315  1.00  0.00    -0.508 OA
ATOM     27  H   UNL     1      21.495   2.072  25.265  1.00  0.00     0.293 HD
ENDBRANCH   8  26
TORSDOF 6
ENDMDL
MODEL 2
REMARK VINA RESULT:    -6.875      2.220      2.879
REMARK INTER + INTRA:          -8.584
REMARK INTER:                  -8.331
REMARK INTRA:                  -0.253
REMARK UNBOUND:                -0.302
REMARK SMILES O=c1c(O)c(-c2ccc(O)c(O)c2)oc2cc(O)cc(O)c12
REMARK SMILES IDX 5 1 3 2 2 3 1 4 22 5 20 6 19 7 17 8 16 9 15 10 14 11 6 12
REMARK SMILES IDX 7 13 8 14 9 15 13 16 11 17 10 18 12 20 4 22 21 24 18 26
REMARK H PARENT 10 19 12 21 4 23 21 25 18 27
REMARK Flexibility Score: inf
ROOT
ATOM      1  C   UNL     1      19.137  -3.402  21.362  1.00  0.00     0.180 A 
ATOM      2  C   UNL     1      20.010  -2.499  20.731  1.00  0.00     0.208 A 
ATOM      3  C   UNL     1      19.677  -1.136  20.704  1.00  0.00     0.238 A 
ATOM      4  O   UNL     1      20.488  -0.325  20.185  1.00  0.00    -0.285 OA
ATOM      5  C   UNL     1      18.468  -0.695  21.294  1.00  0.00     0.111 A 
ATOM      6  C   UNL     1      18.011   0.658  21.289  1.00  0.00     0.134 A 
ATOM      7  C   UNL     1      16.863   1.001  22.016  1.00  0.00     0.093 A 
ATOM      8  C   UNL     1      16.122   0.033  22.691  1.00  0.00     0.123 A 
ATOM      9  C   UNL     1      16.528  -1.301  22.653  1.00  0.00     0.094 A 
ATOM     10  C   UNL     1      17.687  -1.670  21.967  1.00  0.00     0.146 A 
ATOM     11  O   UNL     1      18.043  -2.948  21.963  1.00  0.00    -0.452 OA
ENDROOT
BRANCH   1  12
ATOM     12  C   UNL     1      19.408  -4.857  21.411  1.00  0.00     0.025 A 
ATOM     13  C   UNL     1      20.394  -5.390  22.259  1.00  0.00     0.016 A 
ATOM     14  C   UNL     1      20.649  -6.763  22.271  1.00  0.00     0.051 A 
ATOM     15  C   UNL     1      19.934  -7.623  21.429  1.00  0.00     0.157 A 
ATOM     16  C   UNL     1      18.707  -5.721  20.554  1.00  0.00     0.062 A 
ATOM     17  C   UNL     1      18.959  -7.098  20.564  1.00  0.00     0.158 A 
BRANCH  15  18
ATOM     18  O   UNL     1      20.188  -8.994  21.445  1.00  0.00    -0.504 OA
ATOM     19  H   UNL     1      20.878  -9.411  20.832  1.00  0.00     0.293 HD
ENDBRANCH  15  18
BRANCH  17  20
ATOM     20  O   UNL     1      18.234  -7.926  19.707  1.00  0.00    -0.504 OA
ATOM     21  H   UNL     1      17.257  -8.139  19.863  1.00  0.00     0.293 HD
ENDBRANCH  17  20
ENDBRANCH   1  12
BRANCH   2  22
ATOM     22  O   UNL     1      21.209  -2.954  20.175  1.00  0.00    -0.502 OA
ATOM     23  H   UNL     1      21.649  -3.819  20.463  1.00  0.00     0.293 HD
ENDBRANCH   2  22
BRANCH   6  24
ATOM     24  O   UNL     1      18.626   1.687  20.570  1.00  0.00    -0.507 OA
ATOM     25  H   UNL     1      19.617   1.871  20.564  1.00  0.00     0.293 HD
ENDBRANCH   6  24
BRANCH   8  26
ATOM     26  O   UNL     1      14.978   0.408  23.392  1.00  0.00    -0.508 OA
ATOM     27  H   UNL     1      14.095  -0.069  23.260  1.00  0.00     0.293 HD
ENDBRANCH   8  26
TORSDOF 6
ENDMDL
MODEL 3
REMARK VINA RESULT:    -6.670      1.679      3.579
REMARK INTER + INTRA:          -8.337
REMARK INTER:                  -8.038
REMARK INTRA:                  -0.299
REMARK UNBOUND:                -0.302
REMARK SMILES O=c1c(O)c(-c2ccc(O)c(O)c2)oc2cc(O)cc(O)c12
REMARK SMILES IDX 5 1 3 2 2 3 1 4 22 5 20 6 19 7 17 8 16 9 15 10 14 11 6 12
REMARK SMILES IDX 7 13 8 14 9 15 13 16 11 17 10 18 12 20 4 22 21 24 18 26
REMARK H PARENT 10 19 12 21 4 23 21 25 18 27
REMARK Flexibility Score: inf
ROOT
ATOM      1  C   UNL     1      20.197  -1.700  20.951  1.00  0.00     0.180 A 
ATOM      2  C   UNL     1      20.599  -0.782  21.935  1.00  0.00     0.208 A 
ATOM      3  C   UNL     1      20.125   0.537  21.871  1.00  0.00     0.238 A 
ATOM      4  O   UNL     1      20.446   1.341  22.786  1.00  0.00    -0.285 OA
ATOM      5  C   UNL     1      19.269   0.927  20.813  1.00  0.00     0.111 A 
ATOM      6  C   UNL     1      18.761   2.248  20.627  1.00  0.00     0.134 A 
ATOM      7  C   UNL     1      17.817   2.489  19.620  1.00  0.00     0.093 A 
ATOM      8  C   UNL     1      17.412   1.475  18.755  1.00  0.00     0.123 A 
ATOM      9  C   UNL     1      17.947   0.193  18.891  1.00  0.00     0.094 A 
ATOM     10  C   UNL     1      18.863  -0.088  19.907  1.00  0.00     0.146 A 
ATOM     11  O   UNL     1      19.341  -1.321  20.009  1.00  0.00    -0.452 OA
ENDROOT
BRANCH   1  12
ATOM     12  C   UNL     1      20.673  -3.103  20.937  1.00  0.00     0.025 A 
ATOM     13  C   UNL     1      21.708  -3.515  20.080  1.00  0.00     0.016 A 
ATOM     14  C   UNL     1      22.125  -4.849  20.066  1.00  0.00     0.051 A 
ATOM     15  C   UNL     1      21.508  -5.791  20.898  1.00  0.00     0.157 A 
ATOM     16  C   UNL     1      20.044  -4.055  21.754  1.00  0.00     0.062 A 
ATOM     17  C   UNL     1      20.460  -5.392  21.745  1.00  0.00     0.158 A 
BRANCH  15  18
ATOM     18  O   UNL     1      21.928  -7.121  20.885  1.00  0.00    -0.504 OA
ATOM     19  H   UNL     1      21.941  -7.663  20.029  1.00  0.00     0.293 HD
ENDBRANCH  15  18
BRANCH  17  20
ATOM     20  O   UNL     1      19.820  -6.307  22.580  1.00  0.00    -0.504 OA
ATOM     21  H   UNL     1      19.243  -6.014  23.359  1.00  0.00     0.293 HD
ENDBRANCH  17  20
ENDBRANCH   1  12
BRANCH   2  22
ATOM     22  O   UNL     1      21.429  -1.194  22.983  1.00  0.00    -0.502 OA
ATOM     23  H   UNL     1      21.578  -0.631  23.811  1.00  0.00     0.293 HD
ENDBRANCH   2  22
BRANCH   6  24
ATOM     24  O   UNL     1      19.169   3.355  21.378  1.00  0.00    -0.507 OA
ATOM     25  H   UNL     1      19.981   3.919  21.176  1.00  0.00     0.293 HD
ENDBRANCH   6  24
BRANCH   8  26
ATOM     26  O   UNL     1      16.482   1.754  17.756  1.00  0.00    -0.508 OA
ATOM     27  H   UNL     1      16.533   2.603  17.206  1.00  0.00     0.293 HD
ENDBRANCH   8  26
TORSDOF 6
ENDMDL
MODEL 4
REMARK VINA RESULT:    -6.618     14.405     17.002
REMARK INTER + INTRA:          -8.274
REMARK INTER:                  -7.989
REMARK INTRA:                  -0.285
REMARK UNBOUND:                -0.302
REMARK SMILES O=c1c(O)c(-c2ccc(O)c(O)c2)oc2cc(O)cc(O)c12
REMARK SMILES IDX 5 1 3 2 2 3 1 4 22 5 20 6 19 7 17 8 16 9 15 10 14 11 6 12
REMARK SMILES IDX 7 13 8 14 9 15 13 16 11 17 10 18 12 20 4 22 21 24 18 26
REMARK H PARENT 10 19 12 21 4 23 21 25 18 27
REMARK Flexibility Score: inf
ROOT
ATOM      1  C   UNL     1      10.655  -8.654  10.138  1.00  0.00     0.180 A 
ATOM      2  C   UNL     1       9.825  -9.788  10.147  1.00  0.00     0.208 A 
ATOM      3  C   UNL     1      10.413 -11.061  10.192  1.00  0.00     0.238 A 
ATOM      4  O   UNL     1       9.664 -12.072  10.254  1.00  0.00    -0.285 OA
ATOM      5  C   UNL     1      11.823 -11.186  10.209  1.00  0.00     0.111 A 
ATOM      6  C   UNL     1      12.527 -12.428  10.213  1.00  0.00     0.134 A 
ATOM      7  C   UNL     1      13.920 -12.432  10.363  1.00  0.00     0.093 A 
ATOM      8  C   UNL     1      14.639 -11.240  10.443  1.00  0.00     0.123 A 
ATOM      9  C   UNL     1      13.966 -10.020  10.380  1.00  0.00     0.094 A 
ATOM     10  C   UNL     1      12.574  -9.983  10.268  1.00  0.00     0.146 A 
ATOM     11  O   UNL     1      11.972  -8.802  10.221  1.00  0.00    -0.452 OA
ENDROOT
BRANCH   1  12
ATOM     12  C   UNL     1      10.110  -7.278  10.067  1.00  0.00     0.025 A 
ATOM     13  C   UNL     1       9.609  -6.751   8.864  1.00  0.00     0.016 A 
ATOM     14  C   UNL     1       9.123  -5.442   8.815  1.00  0.00     0.051 A 
ATOM     15  C   UNL     1       9.140  -4.637   9.961  1.00  0.00     0.157 A 
ATOM     16  C   UNL     1      10.145  -6.461  11.208  1.00  0.00     0.062 A 
ATOM     17  C   UNL     1       9.656  -5.149  11.163  1.00  0.00     0.158 A 
BRANCH  15  18
ATOM     18  O   UNL     1       8.651  -3.332   9.910  1.00  0.00    -0.504 OA
ATOM     19  H   UNL     1       9.143  -2.565  10.352  1.00  0.00     0.293 HD
ENDBRANCH  15  18
BRANCH  17  20
ATOM     20  O   UNL     1       9.696  -4.371  12.319  1.00  0.00    -0.504 OA
ATOM     21  H   UNL     1      10.329  -3.587  12.420  1.00  0.00     0.293 HD
ENDBRANCH  17  20
ENDBRANCH   1  12
BRANCH   2  22
ATOM     22  O   UNL     1       8.435  -9.641  10.152  1.00  0.00    -0.502 OA
ATOM     23  H   UNL     1       7.821 -10.268   9.645  1.00  0.00     0.293 HD
ENDBRANCH   2  22
BRANCH   6  24
ATOM     24  O   UNL     1      11.914 -13.673  10.047  1.00  0.00    -0.507 OA
ATOM     25  H   UNL     1      10.972 -13.893  10.334  1.00  0.00     0.293 HD
ENDBRANCH   6  24
BRANCH   8  26
ATOM     26  O   UNL     1      16.025 -11.281  10.577  1.00  0.00    -0.508 OA
ATOM     27  H   UNL     1      16.525 -12.160  10.640  1.00  0.00     0.293 HD
ENDBRANCH   8  26
TORSDOF 6
ENDMDL
MODEL 5
REMARK VINA RESULT:    -6.561      3.743      5.985
REMARK INTER + INTRA:          -8.206
REMARK INTER:                  -7.883
REMARK INTRA:                  -0.323
REMARK UNBOUND:                -0.302
REMARK SMILES O=c1c(O)c(-c2ccc(O)c(O)c2)oc2cc(O)cc(O)c12
REMARK SMILES IDX 5 1 3 2 2 3 1 4 22 5 20 6 19 7 17 8 16 9 15 10 14 11 6 12
REMARK SMILES IDX 7 13 8 14 9 15 13 16 11 17 10 18 12 20 4 22 21 24 18 26
REMARK H PARENT 10 19 12 21 4 23 21 25 18 27
REMARK Flexibility Score: inf
ROOT
ATOM      1  C   UNL     1      18.105  -0.054  22.952  1.00  0.00     0.180 A 
ATOM      2  C   UNL     1      19.345   0.441  23.390  1.00  0.00     0.208 A 
ATOM      3  C   UNL     1      19.492   0.812  24.736  1.00  0.00     0.238 A 
ATOM      4  O   UNL     1      20.620   1.204  25.136  1.00  0.00    -0.285 OA
ATOM      5  C   UNL     1      18.394   0.699  25.622  1.00  0.00     0.111 A 
ATOM      6  C   UNL     1      18.419   1.084  26.996  1.00  0.00     0.134 A 
ATOM      7  C   UNL     1      17.314   0.807  27.811  1.00  0.00     0.093 A 
ATOM      8  C   UNL     1      16.163   0.219  27.288  1.00  0.00     0.123 A 
ATOM      9  C   UNL     1      16.106  -0.107  25.933  1.00  0.00     0.094 A 
ATOM     10  C   UNL     1      17.205   0.124  25.102  1.00  0.00     0.146 A 
ATOM     11  O   UNL     1      17.114  -0.210  23.821  1.00  0.00    -0.452 OA
ENDROOT
BRANCH   1  12
ATOM     12  C   UNL     1      17.865  -0.443  21.543  1.00  0.00     0.025 A 
ATOM     13  C   UNL     1      18.092  -1.758  21.099  1.00  0.00     0.016 A 
ATOM     14  C   UNL     1      17.883  -2.097  19.760  1.00  0.00     0.051 A 
ATOM     15  C   UNL     1      17.456  -1.129  18.842  1.00  0.00     0.157 A 
ATOM     16  C   UNL     1      17.458   0.529  20.616  1.00  0.00     0.062 A 
ATOM     17  C   UNL     1      17.245   0.192  19.273  1.00  0.00     0.158 A 
BRANCH  15  18
ATOM     18  O   UNL     1      17.245  -1.470  17.508  1.00  0.00    -0.504 OA
ATOM     19  H   UNL     1      16.393  -1.213  17.024  1.00  0.00     0.293 HD
ENDBRANCH  15  18
BRANCH  17  20
ATOM     20  O   UNL     1      16.828   1.182  18.384  1.00  0.00    -0.504 OA
ATOM     21  H   UNL     1      15.954   1.680  18.503  1.00  0.00     0.293 HD
ENDBRANCH  17  20
ENDBRANCH   1  12
BRANCH   2  22
ATOM     22  O   UNL     1      20.423   0.523  22.504  1.00  0.00    -0.502 OA
ATOM     23  H   UNL     1      21.272  -0.014  22.629  1.00  0.00     0.293 HD
ENDBRANCH   2  22
BRANCH   6  24
ATOM     24  O   UNL     1      19.484   1.761  27.599  1.00  0.00    -0.507 OA
ATOM     25  H   UNL     1      19.939   2.574  27.214  1.00  0.00     0.293 HD
ENDBRANCH   6  24
BRANCH   8  26
ATOM     26  O   UNL     1      15.077  -0.030  28.125  1.00  0.00    -0.508 OA
ATOM     27  H   UNL     1      14.167   0.377  27.947  1.00  0.00     0.293 HD
ENDBRANCH   8  26
TORSDOF 6
ENDMDL
MODEL 6
REMARK VINA RESULT:    -6.554     10.636     12.735
REMARK INTER + INTRA:          -8.198
REMARK INTER:                  -7.890
REMARK INTRA:                  -0.308
REMARK UNBOUND:                -0.302
REMARK SMILES O=c1c(O)c(-c2ccc(O)c(O)c2)oc2cc(O)cc(O)c12
REMARK SMILES IDX 5 1 3 2 2 3 1 4 22 5 20 6 19 7 17 8 16 9 15 10 14 11 6 12
REMARK SMILES IDX 7 13 8 14 9 15 13 16 11 17 10 18 12 20 4 22 21 24 18 26
REMARK H PARENT 10 19 12 21 4 23 21 25 18 27
REMARK Flexibility Score: inf
ROOT
ATOM      1  C   UNL     1      12.193  -6.264  14.207  1.00  0.00     0.180 A 
ATOM      2  C   UNL     1      12.229  -4.936  13.749  1.00  0.00     0.208 A 
ATOM      3  C   UNL     1      11.286  -4.519  12.796  1.00  0.00     0.238 A 
ATOM      4  O   UNL     1      11.289  -3.314  12.429  1.00  0.00    -0.285 OA
ATOM      5  C   UNL     1      10.331  -5.438  12.301  1.00  0.00     0.111 A 
ATOM      6  C   UNL     1       9.356  -5.134  11.303  1.00  0.00     0.134 A 
ATOM      7  C   UNL     1       8.377  -6.084  10.984  1.00  0.00     0.093 A 
ATOM      8  C   UNL     1       8.377  -7.346  11.576  1.00  0.00     0.123 A 
ATOM      9  C   UNL     1       9.361  -7.674  12.508  1.00  0.00     0.094 A 
ATOM     10  C   UNL     1      10.330  -6.736  12.875  1.00  0.00     0.146 A 
ATOM     11  O   UNL     1      11.243  -7.084  13.772  1.00  0.00    -0.452 OA
ENDROOT
BRANCH   1  12
ATOM     12  C   UNL     1      13.167  -6.785  15.193  1.00  0.00     0.025 A 
ATOM     13  C   UNL     1      12.991  -6.582  16.573  1.00  0.00     0.016 A 
ATOM     14  C   UNL     1      13.936  -7.061  17.484  1.00  0.00     0.051 A 
ATOM     15  C   UNL     1      15.075  -7.738  17.031  1.00  0.00     0.157 A 
ATOM     16  C   UNL     1      14.321  -7.445  14.743  1.00  0.00     0.062 A 
ATOM     17  C   UNL     1      15.269  -7.929  15.653  1.00  0.00     0.158 A 
BRANCH  15  18
ATOM     18  O   UNL     1      16.015  -8.218  17.942  1.00  0.00    -0.504 OA
ATOM     19  H   UNL     1      16.235  -9.205  18.006  1.00  0.00     0.293 HD
ENDBRANCH  15  18
BRANCH  17  20
ATOM     20  O   UNL     1      16.397  -8.591  15.169  1.00  0.00    -0.504 OA
ATOM     21  H   UNL     1      16.436  -8.975  14.233  1.00  0.00     0.293 HD
ENDBRANCH  17  20
ENDBRANCH   1  12
BRANCH   2  22
ATOM     22  O   UNL     1      13.167  -4.039  14.268  1.00  0.00    -0.502 OA
ATOM     23  H   UNL     1      12.907  -3.126  14.624  1.00  0.00     0.293 HD
ENDBRANCH   2  22
BRANCH   6  24
ATOM     24  O   UNL     1       9.321  -3.936  10.584  1.00  0.00    -0.507 OA
ATOM     25  H   UNL     1       8.555  -3.639   9.999  1.00  0.00     0.293 HD
ENDBRANCH   6  24
BRANCH   8  26
ATOM     26  O   UNL     1       7.397  -8.271  11.223  1.00  0.00    -0.508 OA
ATOM     27  H   UNL     1       7.028  -8.934  11.894  1.00  0.00     0.293 HD
ENDBRANCH   8  26
TORSDOF 6
ENDMDL
MODEL 7
REMARK VINA RESULT:    -6.517      3.714      4.891
REMARK INTER + INTRA:          -8.152
REMARK INTER:                  -7.830
REMARK INTRA:                  -0.322
REMARK UNBOUND:                -0.302
REMARK SMILES O=c1c(O)c(-c2ccc(O)c(O)c2)oc2cc(O)cc(O)c12
REMARK SMILES IDX 5 1 3 2 2 3 1 4 22 5 20 6 19 7 17 8 16 9 15 10 14 11 6 12
REMARK SMILES IDX 7 13 8 14 9 15 13 16 11 17 10 18 12 20 4 22 21 24 18 26
REMARK H PARENT 10 19 12 21 4 23 21 25 18 27
REMARK Flexibility Score: inf
ROOT
ATOM      1  C   UNL     1      16.872  -2.032  19.460  1.00  0.00     0.180 A 
ATOM      2  C   UNL     1      16.960  -1.956  20.860  1.00  0.00     0.208 A 
ATOM      3  C   UNL     1      17.211  -0.711  21.460  1.00  0.00     0.238 A 
ATOM      4  O   UNL     1      17.236  -0.639  22.717  1.00  0.00    -0.285 OA
ATOM      5  C   UNL     1      17.387   0.437  20.651  1.00  0.00     0.111 A 
ATOM      6  C   UNL     1      17.687   1.741  21.150  1.00  0.00     0.134 A 
ATOM      7  C   UNL     1      17.711   2.828  20.268  1.00  0.00     0.093 A 
ATOM      8  C   UNL     1      17.512   2.651  18.899  1.00  0.00     0.123 A 
ATOM      9  C   UNL     1      17.277   1.372  18.394  1.00  0.00     0.094 A 
ATOM     10  C   UNL     1      17.211   0.272  19.252  1.00  0.00     0.146 A 
ATOM     11  O   UNL     1      16.976  -0.926  18.733  1.00  0.00    -0.452 OA
ENDROOT
BRANCH   1  12
ATOM     12  C   UNL     1      16.633  -3.312  18.754  1.00  0.00     0.025 A 
ATOM     13  C   UNL     1      17.686  -4.202  18.476  1.00  0.00     0.016 A 
ATOM     14  C   UNL     1      17.442  -5.392  17.787  1.00  0.00     0.051 A 
ATOM     15  C   UNL     1      16.148  -5.707  17.354  1.00  0.00     0.157 A 
ATOM     16  C   UNL     1      15.342  -3.622  18.300  1.00  0.00     0.062 A 
ATOM     17  C   UNL     1      15.093  -4.815  17.610  1.00  0.00     0.158 A 
BRANCH  15  18
ATOM     18  O   UNL     1      15.907  -6.896  16.669  1.00  0.00    -0.504 OA
ATOM     19  H   UNL     1      15.235  -7.575  17.006  1.00  0.00     0.293 HD
ENDBRANCH  15  18
BRANCH  17  20
ATOM     20  O   UNL     1      13.795  -5.094  17.185  1.00  0.00    -0.504 OA
ATOM     21  H   UNL     1      13.253  -5.857  17.573  1.00  0.00     0.293 HD
ENDBRANCH  17  20
ENDBRANCH   1  12
BRANCH   2  22
ATOM     22  O   UNL     1      16.761  -3.098  21.641  1.00  0.00    -0.502 OA
ATOM     23  H   UNL     1      17.259  -3.257  22.508  1.00  0.00     0.293 HD
ENDBRANCH   2  22
BRANCH   6  24
ATOM     24  O   UNL     1      17.993   2.014  22.486  1.00  0.00    -0.507 OA
ATOM     25  H   UNL     1      18.851   2.439  22.804  1.00  0.00     0.293 HD
ENDBRANCH   6  24
BRANCH   8  26
ATOM     26  O   UNL     1      17.557   3.753  18.049  1.00  0.00    -0.508 OA
ATOM     27  H   UNL     1      17.654   3.646  17.046  1.00  0.00     0.293 HD
ENDBRANCH   8  26
TORSDOF 6
ENDMDL
MODEL 8
REMARK VINA RESULT:    -6.467      4.104      4.809
REMARK INTER + INTRA:          -8.092
REMARK INTER:                  -7.768
REMARK INTRA:                  -0.324
REMARK UNBOUND:                -0.302
REMARK SMILES O=c1c(O)c(-c2ccc(O)c(O)c2)oc2cc(O)cc(O)c12
REMARK SMILES IDX 5 1 3 2 2 3 1 4 22 5 20 6 19 7 17 8 16 9 15 10 14 11 6 12
REMARK SMILES IDX 7 13 8 14 9 15 13 16 11 17 10 18 12 20 4 22 21 24 18 26
REMARK H PARENT 10 19 12 21 4 23 21 25 18 27
REMARK Flexibility Score: inf
ROOT
ATOM      1  C   UNL     1      16.461  -2.385  19.481  1.00  0.00     0.180 A 
ATOM      2  C   UNL     1      16.900  -1.187  18.894  1.00  0.00     0.208 A 
ATOM      3  C   UNL     1      17.090  -0.059  19.708  1.00  0.00     0.238 A 
ATOM      4  O   UNL     1      17.536   0.996  19.184  1.00  0.00    -0.285 OA
ATOM      5  C   UNL     1      16.823  -0.139  21.095  1.00  0.00     0.111 A 
ATOM      6  C   UNL     1      16.942   0.953  22.007  1.00  0.00     0.134 A 
ATOM      7  C   UNL     1      16.778   0.727  23.380  1.00  0.00     0.093 A 
ATOM      8  C   UNL     1      16.436  -0.534  23.866  1.00  0.00     0.123 A 
ATOM      9  C   UNL     1      16.259  -1.595  22.978  1.00  0.00     0.094 A 
ATOM     10  C   UNL     1      16.451  -1.410  21.607  1.00  0.00     0.146 A 
ATOM     11  O   UNL     1      16.282  -2.446  20.796  1.00  0.00    -0.452 OA
ENDROOT
BRANCH   1  12
ATOM     12  C   UNL     1      16.214  -3.610  18.686  1.00  0.00     0.025 A 
ATOM     13  C   UNL     1      17.233  -4.553  18.460  1.00  0.00     0.016 A 
ATOM     14  C   UNL     1      16.985  -5.689  17.686  1.00  0.00     0.051 A 
ATOM     15  C   UNL     1      15.722  -5.895  17.116  1.00  0.00     0.157 A 
ATOM     16  C   UNL     1      14.957  -3.811  18.095  1.00  0.00     0.062 A 
ATOM     17  C   UNL     1      14.704  -4.949  17.321  1.00  0.00     0.158 A 
BRANCH  15  18
ATOM     18  O   UNL     1      15.477  -7.031  16.347  1.00  0.00    -0.504 OA
ATOM     19  H   UNL     1      16.166  -7.769  16.256  1.00  0.00     0.293 HD
ENDBRANCH  15  18
BRANCH  17  20
ATOM     20  O   UNL     1      13.438  -5.121  16.761  1.00  0.00    -0.504 OA
ATOM     21  H   UNL     1      13.042  -6.038  16.595  1.00  0.00     0.293 HD
ENDBRANCH  17  20
ENDBRANCH   1  12
BRANCH   2  22
ATOM     22  O   UNL     1      17.179  -1.137  17.525  1.00  0.00    -0.502 OA
ATOM     23  H   UNL     1      18.049  -0.766  17.161  1.00  0.00     0.293 HD
ENDBRANCH   2  22
BRANCH   6  24
ATOM     24  O   UNL     1      17.191   2.272  21.618  1.00  0.00    -0.507 OA
ATOM     25  H   UNL     1      17.235   2.591  20.662  1.00  0.00     0.293 HD
ENDBRANCH   6  24
BRANCH   8  26
ATOM     26  O   UNL     1      16.266  -0.720  25.236  1.00  0.00    -0.508 OA
ATOM     27  H   UNL     1      15.576  -0.195  25.761  1.00  0.00     0.293 HD
ENDBRANCH   8  26
TORSDOF 6
ENDMDL
MODEL 9
REMARK VINA RESULT:    -6.373     15.728     16.599
REMARK INTER + INTRA:          -7.980
REMARK INTER:                  -7.653
REMARK INTRA:                  -0.326
REMARK UNBOUND:                -0.302
REMARK SMILES O=c1c(O)c(-c2ccc(O)c(O)c2)oc2cc(O)cc(O)c12
REMARK SMILES IDX 5 1 3 2 2 3 1 4 22 5 20 6 19 7 17 8 16 9 15 10 14 11 6 12
REMARK SMILES IDX 7 13 8 14 9 15 13 16 11 17 10 18 12 20 4 22 21 24 18 26
REMARK H PARENT 10 19 12 21 4 23 21 25 18 27
REMARK Flexibility Score: inf
ROOT
ATOM      1  C   UNL     1      11.362 -11.049  10.129  1.00  0.00     0.180 A 
ATOM      2  C   UNL     1      11.261 -10.173   9.035  1.00  0.00     0.208 A 
ATOM      3  C   UNL     1      10.399  -9.068   9.124  1.00  0.00     0.238 A 
ATOM      4  O   UNL     1      10.353  -8.257   8.162  1.00  0.00    -0.285 OA
ATOM      5  C   UNL     1       9.636  -8.864  10.299  1.00  0.00     0.111 A 
ATOM      6  C   UNL     1       8.701  -7.801  10.482  1.00  0.00     0.134 A 
ATOM      7  C   UNL     1       8.098  -7.620  11.734  1.00  0.00     0.093 A 
ATOM      8  C   UNL     1       8.347  -8.499  12.787  1.00  0.00     0.123 A 
ATOM      9  C   UNL     1       9.214  -9.576  12.600  1.00  0.00     0.094 A 
ATOM     10  C   UNL     1       9.858  -9.762  11.375  1.00  0.00     0.146 A 
ATOM     11  O   UNL     1      10.683 -10.793  11.241  1.00  0.00    -0.452 OA
ENDROOT
BRANCH   1  12
ATOM     12  C   UNL     1      12.231 -12.248  10.101  1.00  0.00     0.025 A 
ATOM     13  C   UNL     1      11.733 -13.503   9.707  1.00  0.00     0.016 A 
ATOM     14  C   UNL     1      12.565 -14.625   9.713  1.00  0.00     0.051 A 
ATOM     15  C   UNL     1      13.900 -14.516  10.123  1.00  0.00     0.157 A 
ATOM     16  C   UNL     1      13.563 -12.147  10.531  1.00  0.00     0.062 A 
ATOM     17  C   UNL     1      14.400 -13.270  10.536  1.00  0.00     0.158 A 
BRANCH  15  18
ATOM     18  O   UNL     1      14.728 -15.637  10.124  1.00  0.00    -0.504 OA
ATOM     19  H   UNL     1      14.886 -16.177  10.967  1.00  0.00     0.293 HD
ENDBRANCH  15  18
BRANCH  17  20
ATOM     20  O   UNL     1      15.722 -13.128  10.958  1.00  0.00    -0.504 OA
ATOM     21  H   UNL     1      16.385 -12.542  10.465  1.00  0.00     0.293 HD
ENDBRANCH  17  20
ENDBRANCH   1  12
BRANCH   2  22
ATOM     22  O   UNL     1      12.040 -10.381   7.893  1.00  0.00    -0.502 OA
ATOM     23  H   UNL     1      11.981  -9.783   7.078  1.00  0.00     0.293 HD
ENDBRANCH   2  22
BRANCH   6  24
ATOM     24  O   UNL     1       8.311  -6.920   9.469  1.00  0.00    -0.507 OA
ATOM     25  H   UNL     1       8.925  -6.556   8.756  1.00  0.00     0.293 HD
ENDBRANCH   6  24
BRANCH   8  26
ATOM     26  O   UNL     1       7.719  -8.297  14.014  1.00  0.00    -0.508 OA
ATOM     27  H   UNL     1       8.237  -7.994  14.830  1.00  0.00     0.293 HD
ENDBRANCH   8  26
TORSDOF 6
ENDMDL
