MODEL 1
REMARK VINA RESULT:    -4.239      0.000      0.000
REMARK INTER + INTRA:          -9.038
REMARK INTER:                  -7.708
REMARK INTRA:                  -1.330
REMARK UNBOUND:                -1.330
REMARK SMILES CCCCCCCCCCCCCCCC(=O)[O-]
REMARK SMILES IDX 9 1 10 2 11 3 12 4 13 5 14 6 15 7 16 8 17 9 18 10 8 11 7 12
REMARK SMILES IDX 6 13 5 14 4 15 3 16 2 17 1 18
REMARK H PARENT
REMARK Flexibility Score: inf
ROOT
ATOM      1  C   UNL     1      10.665  49.318  98.149  1.00  0.00     0.000 C 
ENDROOT
BRANCH   1   2
ATOM      2  C   UNL     1       9.253  49.923  98.145  1.00  0.00     0.000 C 
BRANCH   2   3
ATOM      3  C   UNL     1       8.470  49.571  96.868  1.00  0.00     0.000 C 
BRANCH   3   4
ATOM      4  C   UNL     1       7.755  50.788  96.252  1.00  0.00     0.000 C 
BRANCH   4   5
ATOM      5  C   UNL     1       7.633  50.769  94.715  1.00  0.00     0.000 C 
BRANCH   5   6
ATOM      6  C   UNL     1       8.181  49.500  94.030  1.00  0.00     0.006 C 
BRANCH   6   7
ATOM      7  C   UNL     1       8.812  49.746  92.652  1.00  0.00     0.053 C 
BRANCH   7   8
ATOM      8  C   UNL     1      10.147  50.418  92.757  1.00  0.00     0.041 C 
ATOM      9  O   UNL     1      10.270  51.631  92.442  1.00  0.00    -0.550 OA
ATOM     10  O   UNL     1      11.246  49.716  93.236  1.00  0.00    -0.550 OA
ENDBRANCH   7   8
ENDBRANCH   6   7
ENDBRANCH   5   6
ENDBRANCH   4   5
ENDBRANCH   3   4
ENDBRANCH   2   3
ENDBRANCH   1   2
BRANCH   1  11
ATOM     11  C   UNL     1      10.995  48.576  96.841  1.00  0.00     0.000 C 
BRANCH  11  12
ATOM     12  C   UNL     1      12.379  48.966  96.281  1.00  0.00    -0.000 C 
BRANCH  12  13
ATOM     13  C   UNL     1      13.354  49.495  97.352  1.00  0.00    -0.000 C 
BRANCH  13  14
ATOM     14  C   UNL     1      14.007  50.847  97.019  1.00  0.00    -0.000 C 
BRANCH  14  15
ATOM     15  C   UNL     1      14.252  51.034  95.512  1.00  0.00    -0.000 C 
BRANCH  15  16
ATOM     16  C   UNL     1      15.607  50.443  95.067  1.00  0.00    -0.000 C 
BRANCH  16  17
ATOM     17  C   UNL     1      15.475  49.307  94.038  1.00  0.00    -0.003 C 
ATOM     18  C   UNL     1      16.434  48.147  94.299  1.00  0.00     0.004 C 
ENDBRANCH  16  17
ENDBRANCH  15  16
ENDBRANCH  14  15
ENDBRANCH  13  14
ENDBRANCH  12  13
ENDBRANCH  11  12
ENDBRANCH   1  11
TORSDOF 14
ENDMDL
MODEL 2
REMARK VINA RESULT:    -4.099      4.404      5.851
REMARK INTER + INTRA:          -8.783
REMARK INTER:                  -7.564
REMARK INTRA:                  -1.219
REMARK UNBOUND:                -1.330
REMARK SMILES CCCCCCCCCCCCCCCC(=O)[O-]
REMARK SMILES IDX 9 1 10 2 11 3 12 4 13 5 14 6 15 7 16 8 17 9 18 10 8 11 7 12
REMARK SMILES IDX 6 13 5 14 4 15 3 16 2 17 1 18
REMARK H PARENT
REMARK Flexibility Score: inf
ROOT
ATOM      1  C   UNL     1       9.730  48.086  95.385  1.00  0.00     0.000 C 
ENDROOT
BRANCH   1   2
ATOM      2  C   UNL     1      10.605  47.310  94.390  1.00  0.00     0.000 C 
BRANCH   2   3
ATOM      3  C   UNL     1       9.989  45.954  94.003  1.00  0.00     0.000 C 
BRANCH   3   4
ATOM      4  C   UNL     1      10.920  44.766  94.307  1.00  0.00     0.000 C 
BRANCH   4   5
ATOM      5  C   UNL     1      10.550  43.946  95.559  1.00  0.00     0.000 C 
BRANCH   5   6
ATOM      6  C   UNL     1      10.903  42.447  95.489  1.00  0.00     0.006 C 
BRANCH   6   7
ATOM      7  C   UNL     1      11.981  42.001  96.488  1.00  0.00     0.053 C 
BRANCH   7   8
ATOM      8  C   UNL     1      13.365  42.260  95.974  1.00  0.00     0.041 C 
ATOM      9  O   UNL     1      14.340  42.284  96.770  1.00  0.00    -0.550 OA
ATOM     10  O   UNL     1      13.581  42.440  94.614  1.00  0.00    -0.550 OA
ENDBRANCH   7   8
ENDBRANCH   6   7
ENDBRANCH   5   6
ENDBRANCH   4   5
ENDBRANCH   3   4
ENDBRANCH   2   3
ENDBRANCH   1   2
BRANCH   1  11
ATOM     11  C   UNL     1       9.520  47.327  96.707  1.00  0.00     0.000 C 
BRANCH  11  12
ATOM     12  C   UNL     1      10.460  47.829  97.824  1.00  0.00    -0.000 C 
BRANCH  12  13
ATOM     13  C   UNL     1      10.730  49.345  97.771  1.00  0.00    -0.000 C 
BRANCH  13  14
ATOM     14  C   UNL     1      12.217  49.738  97.831  1.00  0.00    -0.000 C 
BRANCH  14  15
ATOM     15  C   UNL     1      13.028  49.175  96.651  1.00  0.00    -0.000 C 
BRANCH  15  16
ATOM     16  C   UNL     1      14.266  50.041  96.333  1.00  0.00    -0.000 C 
BRANCH  16  17
ATOM     17  C   UNL     1      14.359  50.464  94.856  1.00  0.00    -0.003 C 
ATOM     18  C   UNL     1      15.245  49.541  94.023  1.00  0.00     0.004 C 
ENDBRANCH  16  17
ENDBRANCH  15  16
ENDBRANCH  14  15
ENDBRANCH  13  14
ENDBRANCH  12  13
ENDBRANCH  11  12
ENDBRANCH   1  11
TORSDOF 14
ENDMDL
MODEL 3
REMARK VINA RESULT:    -4.015      2.178      5.734
REMARK INTER + INTRA:          -8.631
REMARK INTER:                  -6.688
REMARK INTRA:                  -1.943
REMARK UNBOUND:                -1.330
REMARK SMILES CCCCCCCCCCCCCCCC(=O)[O-]
REMARK SMILES IDX 9 1 10 2 11 3 12 4 13 5 14 6 15 7 16 8 17 9 18 10 8 11 7 12
REMARK SMILES IDX 6 13 5 14 4 15 3 16 2 17 1 18
REMARK H PARENT
REMARK Flexibility Score: inf
ROOT
ATOM      1  C   UNL     1       9.091  50.078  98.275  1.00  0.00     0.000 C 
ENDROOT
BRANCH   1   2
ATOM      2  C   UNL     1      10.551  49.614  98.387  1.00  0.00     0.000 C 
BRANCH   2   3
ATOM      3  C   UNL     1      10.883  48.486  97.394  1.00  0.00     0.000 C 
BRANCH   3   4
ATOM      4  C   UNL     1      12.049  48.842  96.454  1.00  0.00     0.000 C 
BRANCH   4   5
ATOM      5  C   UNL     1      13.289  49.442  97.147  1.00  0.00     0.000 C 
BRANCH   5   6
ATOM      6  C   UNL     1      13.909  50.664  96.439  1.00  0.00     0.006 C 
BRANCH   6   7
ATOM      7  C   UNL     1      15.349  50.451  95.950  1.00  0.00     0.053 C 
BRANCH   7   8
ATOM      8  C   UNL     1      15.453  49.308  94.986  1.00  0.00     0.041 C 
ATOM      9  O   UNL     1      16.345  48.433  95.137  1.00  0.00    -0.550 OA
ATOM     10  O   UNL     1      14.543  49.192  93.943  1.00  0.00    -0.550 OA
ENDBRANCH   7   8
ENDBRANCH   6   7
ENDBRANCH   5   6
ENDBRANCH   4   5
ENDBRANCH   3   4
ENDBRANCH   2   3
ENDBRANCH   1   2
BRANCH   1  11
ATOM     11  C   UNL     1       8.316  49.335  97.173  1.00  0.00     0.000 C 
BRANCH  11  12
ATOM     12  C   UNL     1       7.692  50.302  96.143  1.00  0.00    -0.000 C 
BRANCH  12  13
ATOM     13  C   UNL     1       7.772  49.794  94.690  1.00  0.00    -0.000 C 
BRANCH  13  14
ATOM     14  C   UNL     1       9.189  49.429  94.212  1.00  0.00    -0.000 C 
BRANCH  14  15
ATOM     15  C   UNL     1       9.217  48.148  93.360  1.00  0.00    -0.000 C 
BRANCH  15  16
ATOM     16  C   UNL     1       9.899  46.976  94.099  1.00  0.00    -0.000 C 
BRANCH  16  17
ATOM     17  C   UNL     1       8.963  46.230  95.064  1.00  0.00    -0.003 C 
ATOM     18  C   UNL     1       7.549  46.056  94.514  1.00  0.00     0.004 C 
ENDBRANCH  16  17
ENDBRANCH  15  16
ENDBRANCH  14  15
ENDBRANCH  13  14
ENDBRANCH  12  13
ENDBRANCH  11  12
ENDBRANCH   1  11
TORSDOF 14
ENDMDL
MODEL 4
REMARK VINA RESULT:    -3.996      3.512      6.796
REMARK INTER + INTRA:          -8.597
REMARK INTER:                  -7.474
REMARK INTRA:                  -1.122
REMARK UNBOUND:                -1.330
REMARK SMILES CCCCCCCCCCCCCCCC(=O)[O-]
REMARK SMILES IDX 9 1 10 2 11 3 12 4 13 5 14 6 15 7 16 8 17 9 18 10 8 11 7 12
REMARK SMILES IDX 6 13 5 14 4 15 3 16 2 17 1 18
REMARK H PARENT
REMARK Flexibility Score: inf
ROOT
ATOM      1  C   UNL     1      13.393  49.330  97.260  1.00  0.00     0.000 C 
ENDROOT
BRANCH   1   2
ATOM      2  C   UNL     1      13.863  50.740  96.871  1.00  0.00     0.000 C 
BRANCH   2   3
ATOM      3  C   UNL     1      14.621  50.754  95.532  1.00  0.00     0.000 C 
BRANCH   3   4
ATOM      4  C   UNL     1      14.431  49.457  94.725  1.00  0.00     0.000 C 
BRANCH   4   5
ATOM      5  C   UNL     1      15.364  49.299  93.508  1.00  0.00     0.000 C 
BRANCH   5   6
ATOM      6  C   UNL     1      16.381  48.144  93.606  1.00  0.00     0.006 C 
BRANCH   6   7
ATOM      7  C   UNL     1      16.884  47.860  95.029  1.00  0.00     0.053 C 
BRANCH   7   8
ATOM      8  C   UNL     1      17.695  46.602  95.097  1.00  0.00     0.041 C 
ATOM      9  O   UNL     1      18.261  46.273  96.173  1.00  0.00    -0.550 OA
ATOM     10  O   UNL     1      17.797  45.776  93.985  1.00  0.00    -0.550 OA
ENDBRANCH   7   8
ENDBRANCH   6   7
ENDBRANCH   5   6
ENDBRANCH   4   5
ENDBRANCH   3   4
ENDBRANCH   2   3
ENDBRANCH   1   2
BRANCH   1  11
ATOM     11  C   UNL     1      11.860  49.223  97.355  1.00  0.00     0.000 C 
BRANCH  11  12
ATOM     12  C   UNL     1      11.223  48.767  96.025  1.00  0.00    -0.000 C 
BRANCH  12  13
ATOM     13  C   UNL     1       9.691  48.614  96.093  1.00  0.00    -0.000 C 
BRANCH  13  14
ATOM     14  C   UNL     1       9.175  47.837  97.317  1.00  0.00    -0.000 C 
BRANCH  14  15
ATOM     15  C   UNL     1       9.454  46.327  97.224  1.00  0.00    -0.000 C 
BRANCH  15  16
ATOM     16  C   UNL     1       9.087  45.754  95.838  1.00  0.00    -0.000 C 
BRANCH  16  17
ATOM     17  C   UNL     1       9.979  44.578  95.403  1.00  0.00    -0.003 C 
ATOM     18  C   UNL     1      10.853  44.903  94.195  1.00  0.00     0.004 C 
ENDBRANCH  16  17
ENDBRANCH  15  16
ENDBRANCH  14  15
ENDBRANCH  13  14
ENDBRANCH  12  13
ENDBRANCH  11  12
ENDBRANCH   1  11
TORSDOF 14
ENDMDL
MODEL 5
REMARK VINA RESULT:    -3.854      7.664     10.569
REMARK INTER + INTRA:          -8.338
REMARK INTER:                  -7.453
REMARK INTRA:                  -0.885
REMARK UNBOUND:                -1.330
REMARK SMILES CCCCCCCCCCCCCCCC(=O)[O-]
REMARK SMILES IDX 9 1 10 2 11 3 12 4 13 5 14 6 15 7 16 8 17 9 18 10 8 11 7 12
REMARK SMILES IDX 6 13 5 14 4 15 3 16 2 17 1 18
REMARK H PARENT
REMARK Flexibility Score: inf
ROOT
ATOM      1  C   UNL     1      13.711  42.464  94.985  1.00  0.00     0.000 C 
ENDROOT
BRANCH   1   2
ATOM      2  C   UNL     1      13.212  42.488  93.532  1.00  0.00     0.000 C 
BRANCH   2   3
ATOM      3  C   UNL     1      14.293  42.033  92.536  1.00  0.00     0.000 C 
BRANCH   3   4
ATOM      4  C   UNL     1      15.665  41.818  93.201  1.00  0.00     0.000 C 
BRANCH   4   5
ATOM      5  C   UNL     1      16.108  40.347  93.327  1.00  0.00     0.000 C 
BRANCH   5   6
ATOM      6  C   UNL     1      16.460  39.888  94.757  1.00  0.00     0.006 C 
BRANCH   6   7
ATOM      7  C   UNL     1      16.474  38.365  94.950  1.00  0.00     0.053 C 
BRANCH   7   8
ATOM      8  C   UNL     1      17.724  37.896  95.631  1.00  0.00     0.041 C 
ATOM      9  O   UNL     1      18.762  37.664  94.956  1.00  0.00    -0.550 OA
ATOM     10  O   UNL     1      17.753  37.750  97.011  1.00  0.00    -0.550 OA
ENDBRANCH   7   8
ENDBRANCH   6   7
ENDBRANCH   5   6
ENDBRANCH   4   5
ENDBRANCH   3   4
ENDBRANCH   2   3
ENDBRANCH   1   2
BRANCH   1  11
ATOM     11  C   UNL     1      12.572  42.254  95.998  1.00  0.00     0.000 C 
BRANCH  11  12
ATOM     12  C   UNL     1      11.178  42.387  95.348  1.00  0.00    -0.000 C 
BRANCH  12  13
ATOM     13  C   UNL     1      10.431  43.676  95.744  1.00  0.00    -0.000 C 
BRANCH  13  14
ATOM     14  C   UNL     1      10.515  44.813  94.711  1.00  0.00    -0.000 C 
BRANCH  14  15
ATOM     15  C   UNL     1       9.593  45.996  95.052  1.00  0.00    -0.000 C 
BRANCH  15  16
ATOM     16  C   UNL     1      10.376  47.320  95.189  1.00  0.00    -0.000 C 
BRANCH  16  17
ATOM     17  C   UNL     1       9.777  48.284  96.227  1.00  0.00    -0.003 C 
ATOM     18  C   UNL     1      10.443  48.178  97.597  1.00  0.00     0.004 C 
ENDBRANCH  16  17
ENDBRANCH  15  16
ENDBRANCH  14  15
ENDBRANCH  13  14
ENDBRANCH  12  13
ENDBRANCH  11  12
ENDBRANCH   1  11
TORSDOF 14
ENDMDL
MODEL 6
REMARK VINA RESULT:    -3.811      2.570      5.351
REMARK INTER + INTRA:          -8.261
REMARK INTER:                  -6.294
REMARK INTRA:                  -1.966
REMARK UNBOUND:                -1.330
REMARK SMILES CCCCCCCCCCCCCCCC(=O)[O-]
REMARK SMILES IDX 9 1 10 2 11 3 12 4 13 5 14 6 15 7 16 8 17 9 18 10 8 11 7 12
REMARK SMILES IDX 6 13 5 14 4 15 3 16 2 17 1 18
REMARK H PARENT
REMARK Flexibility Score: inf
ROOT
ATOM      1  C   UNL     1       6.577  48.736  96.685  1.00  0.00     0.000 C 
ENDROOT
BRANCH   1   2
ATOM      2  C   UNL     1       7.544  49.264  97.754  1.00  0.00     0.000 C 
BRANCH   2   3
ATOM      3  C   UNL     1       8.922  49.624  97.169  1.00  0.00     0.000 C 
BRANCH   3   4
ATOM      4  C   UNL     1      10.051  48.723  97.702  1.00  0.00     0.000 C 
BRANCH   4   5
ATOM      5  C   UNL     1      11.369  49.450  98.032  1.00  0.00     0.000 C 
BRANCH   5   6
ATOM      6  C   UNL     1      12.546  49.135  97.087  1.00  0.00     0.006 C 
BRANCH   6   7
ATOM      7  C   UNL     1      13.725  50.114  97.192  1.00  0.00     0.053 C 
BRANCH   7   8
ATOM      8  C   UNL     1      14.531  50.161  95.930  1.00  0.00     0.041 C 
ATOM      9  O   UNL     1      14.354  51.092  95.101  1.00  0.00    -0.550 OA
ATOM     10  O   UNL     1      15.501  49.197  95.685  1.00  0.00    -0.550 OA
ENDBRANCH   7   8
ENDBRANCH   6   7
ENDBRANCH   5   6
ENDBRANCH   4   5
ENDBRANCH   3   4
ENDBRANCH   2   3
ENDBRANCH   1   2
BRANCH   1  11
ATOM     11  C   UNL     1       7.241  48.592  95.304  1.00  0.00     0.000 C 
BRANCH  11  12
ATOM     12  C   UNL     1       6.673  47.401  94.503  1.00  0.00    -0.000 C 
BRANCH  12  13
ATOM     13  C   UNL     1       7.563  46.143  94.549  1.00  0.00    -0.000 C 
BRANCH  13  14
ATOM     14  C   UNL     1       8.688  46.188  95.598  1.00  0.00    -0.000 C 
BRANCH  14  15
ATOM     15  C   UNL     1      10.075  45.908  94.995  1.00  0.00    -0.000 C 
BRANCH  15  16
ATOM     16  C   UNL     1      10.308  46.696  93.687  1.00  0.00    -0.000 C 
BRANCH  16  17
ATOM     17  C   UNL     1      11.271  47.885  93.849  1.00  0.00    -0.003 C 
ATOM     18  C   UNL     1      10.577  49.239  93.724  1.00  0.00     0.004 C 
ENDBRANCH  16  17
ENDBRANCH  15  16
ENDBRANCH  14  15
ENDBRANCH  13  14
ENDBRANCH  12  13
ENDBRANCH  11  12
ENDBRANCH   1  11
TORSDOF 14
ENDMDL
MODEL 7
REMARK VINA RESULT:    -3.803      3.408      6.800
REMARK INTER + INTRA:          -8.246
REMARK INTER:                  -7.403
REMARK INTRA:                  -0.843
REMARK UNBOUND:                -1.330
REMARK SMILES CCCCCCCCCCCCCCCC(=O)[O-]
REMARK SMILES IDX 9 1 10 2 11 3 12 4 13 5 14 6 15 7 16 8 17 9 18 10 8 11 7 12
REMARK SMILES IDX 6 13 5 14 4 15 3 16 2 17 1 18
REMARK H PARENT
REMARK Flexibility Score: inf
ROOT
ATOM      1  C   UNL     1      13.362  49.403  97.219  1.00  0.00     0.000 C 
ENDROOT
BRANCH   1   2
ATOM      2  C   UNL     1      14.049  50.762  97.020  1.00  0.00     0.000 C 
BRANCH   2   3
ATOM      3  C   UNL     1      14.461  51.000  95.556  1.00  0.00     0.000 C 
BRANCH   3   4
ATOM      4  C   UNL     1      14.402  49.719  94.704  1.00  0.00     0.000 C 
BRANCH   4   5
ATOM      5  C   UNL     1      15.768  49.070  94.402  1.00  0.00     0.000 C 
BRANCH   5   6
ATOM      6  C   UNL     1      15.909  48.465  92.991  1.00  0.00     0.006 C 
BRANCH   6   7
ATOM      7  C   UNL     1      16.742  47.176  92.932  1.00  0.00     0.053 C 
BRANCH   7   8
ATOM      8  C   UNL     1      17.652  47.149  91.742  1.00  0.00     0.041 C 
ATOM      9  O   UNL     1      18.897  47.043  91.900  1.00  0.00    -0.550 OA
ATOM     10  O   UNL     1      17.123  47.204  90.459  1.00  0.00    -0.550 OA
ENDBRANCH   7   8
ENDBRANCH   6   7
ENDBRANCH   5   6
ENDBRANCH   4   5
ENDBRANCH   3   4
ENDBRANCH   2   3
ENDBRANCH   1   2
BRANCH   1  11
ATOM     11  C   UNL     1      11.888  49.540  97.640  1.00  0.00     0.000 C 
BRANCH  11  12
ATOM     12  C   UNL     1      10.956  48.632  96.810  1.00  0.00    -0.000 C 
BRANCH  12  13
ATOM     13  C   UNL     1      11.430  48.421  95.358  1.00  0.00    -0.000 C 
BRANCH  13  14
ATOM     14  C   UNL     1      10.681  47.317  94.590  1.00  0.00    -0.000 C 
BRANCH  14  15
ATOM     15  C   UNL     1       9.387  46.875  95.294  1.00  0.00    -0.000 C 
BRANCH  15  16
ATOM     16  C   UNL     1       9.595  45.603  96.144  1.00  0.00    -0.000 C 
BRANCH  16  17
ATOM     17  C   UNL     1       9.046  45.723  97.576  1.00  0.00    -0.003 C 
ATOM     18  C   UNL     1       7.846  46.662  97.681  1.00  0.00     0.004 C 
ENDBRANCH  16  17
ENDBRANCH  15  16
ENDBRANCH  14  15
ENDBRANCH  13  14
ENDBRANCH  12  13
ENDBRANCH  11  12
ENDBRANCH   1  11
TORSDOF 14
ENDMDL
MODEL 8
REMARK VINA RESULT:    -3.757      3.372      5.532
REMARK INTER + INTRA:          -8.162
REMARK INTER:                  -6.452
REMARK INTRA:                  -1.710
REMARK UNBOUND:                -1.330
REMARK SMILES CCCCCCCCCCCCCCCC(=O)[O-]
REMARK SMILES IDX 9 1 10 2 11 3 12 4 13 5 14 6 15 7 16 8 17 9 18 10 8 11 7 12
REMARK SMILES IDX 6 13 5 14 4 15 3 16 2 17 1 18
REMARK H PARENT
REMARK Flexibility Score: inf
ROOT
ATOM      1  C   UNL     1       8.018  49.238  93.813  1.00  0.00     0.000 C 
ENDROOT
BRANCH   1   2
ATOM      2  C   UNL     1       8.175  50.295  94.917  1.00  0.00     0.000 C 
BRANCH   2   3
ATOM      3  C   UNL     1       7.516  49.862  96.239  1.00  0.00     0.000 C 
BRANCH   3   4
ATOM      4  C   UNL     1       8.385  50.177  97.471  1.00  0.00     0.000 C 
BRANCH   4   5
ATOM      5  C   UNL     1       9.322  49.039  97.920  1.00  0.00     0.000 C 
BRANCH   5   6
ATOM      6  C   UNL     1      10.826  49.379  97.895  1.00  0.00     0.006 C 
BRANCH   6   7
ATOM      7  C   UNL     1      11.586  48.805  96.691  1.00  0.00     0.053 C 
BRANCH   7   8
ATOM      8  C   UNL     1      12.966  49.378  96.572  1.00  0.00     0.041 C 
ATOM      9  O   UNL     1      13.593  49.295  95.483  1.00  0.00    -0.550 OA
ATOM     10  O   UNL     1      13.543  50.035  97.651  1.00  0.00    -0.550 OA
ENDBRANCH   7   8
ENDBRANCH   6   7
ENDBRANCH   5   6
ENDBRANCH   4   5
ENDBRANCH   3   4
ENDBRANCH   2   3
ENDBRANCH   1   2
BRANCH   1  11
ATOM     11  C   UNL     1       8.963  48.039  94.003  1.00  0.00     0.000 C 
BRANCH  11  12
ATOM     12  C   UNL     1       8.201  46.744  94.358  1.00  0.00    -0.000 C 
BRANCH  12  13
ATOM     13  C   UNL     1       8.452  46.253  95.798  1.00  0.00    -0.000 C 
BRANCH  13  14
ATOM     14  C   UNL     1       9.809  45.561  96.015  1.00  0.00    -0.000 C 
BRANCH  14  15
ATOM     15  C   UNL     1       9.856  44.143  95.420  1.00  0.00    -0.000 C 
BRANCH  15  16
ATOM     16  C   UNL     1      11.117  43.917  94.559  1.00  0.00    -0.000 C 
BRANCH  16  17
ATOM     17  C   UNL     1      11.895  42.642  94.930  1.00  0.00    -0.003 C 
ATOM     18  C   UNL     1      11.659  42.195  96.370  1.00  0.00     0.004 C 
ENDBRANCH  16  17
ENDBRANCH  15  16
ENDBRANCH  14  15
ENDBRANCH  13  14
ENDBRANCH  12  13
ENDBRANCH  11  12
ENDBRANCH   1  11
TORSDOF 14
ENDMDL
MODEL 9
REMARK VINA RESULT:    -3.695      2.239      6.098
REMARK INTER + INTRA:          -8.049
REMARK INTER:                  -6.120
REMARK INTRA:                  -1.929
REMARK UNBOUND:                -1.330
REMARK SMILES CCCCCCCCCCCCCCCC(=O)[O-]
REMARK SMILES IDX 9 1 10 2 11 3 12 4 13 5 14 6 15 7 16 8 17 9 18 10 8 11 7 12
REMARK SMILES IDX 6 13 5 14 4 15 3 16 2 17 1 18
REMARK H PARENT
REMARK Flexibility Score: inf
ROOT
ATOM      1  C   UNL     1       9.039  46.473  95.517  1.00  0.00     0.000 C 
ENDROOT
BRANCH   1   2
ATOM      2  C   UNL     1       9.953  47.364  94.661  1.00  0.00     0.000 C 
BRANCH   2   3
ATOM      3  C   UNL     1      11.155  47.903  95.458  1.00  0.00     0.000 C 
BRANCH   3   4
ATOM      4  C   UNL     1      10.757  48.987  96.477  1.00  0.00     0.000 C 
BRANCH   4   5
ATOM      5  C   UNL     1      11.797  49.262  97.581  1.00  0.00     0.000 C 
BRANCH   5   6
ATOM      6  C   UNL     1      13.268  49.222  97.120  1.00  0.00     0.006 C 
BRANCH   6   7
ATOM      7  C   UNL     1      13.926  50.602  96.976  1.00  0.00     0.053 C 
BRANCH   7   8
ATOM      8  C   UNL     1      14.453  50.831  95.592  1.00  0.00     0.041 C 
ATOM      9  O   UNL     1      15.694  50.823  95.379  1.00  0.00    -0.550 OA
ATOM     10  O   UNL     1      13.573  51.019  94.534  1.00  0.00    -0.550 OA
ENDBRANCH   7   8
ENDBRANCH   6   7
ENDBRANCH   5   6
ENDBRANCH   4   5
ENDBRANCH   3   4
ENDBRANCH   2   3
ENDBRANCH   1   2
BRANCH   1  11
ATOM     11  C   UNL     1       7.571  46.517  95.055  1.00  0.00     0.000 C 
BRANCH  11  12
ATOM     12  C   UNL     1       6.634  47.091  96.140  1.00  0.00    -0.000 C 
BRANCH  12  13
ATOM     13  C   UNL     1       7.377  47.616  97.384  1.00  0.00    -0.000 C 
BRANCH  13  14
ATOM     14  C   UNL     1       6.810  48.921  97.970  1.00  0.00    -0.000 C 
BRANCH  14  15
ATOM     15  C   UNL     1       7.886  50.005  98.160  1.00  0.00    -0.000 C 
BRANCH  15  16
ATOM     16  C   UNL     1       7.694  51.189  97.189  1.00  0.00    -0.000 C 
BRANCH  16  17
ATOM     17  C   UNL     1       6.940  50.814  95.902  1.00  0.00    -0.003 C 
ATOM     18  C   UNL     1       7.870  50.443  94.749  1.00  0.00     0.004 C 
ENDBRANCH  16  17
ENDBRANCH  15  16
ENDBRANCH  14  15
ENDBRANCH  13  14
ENDBRANCH  12  13
ENDBRANCH  11  12
ENDBRANCH   1  11
TORSDOF 14
ENDMDL
