MODEL 1
REMARK VINA RESULT:    -4.525      0.000      0.000
REMARK INTER + INTRA:          -4.949
REMARK INTER:                  -4.921
REMARK INTRA:                  -0.027
REMARK UNBOUND:                -0.027
REMARK SMILES COc1ccccc1O
REMARK SMILES IDX 3 1 4 2 5 3 6 4 7 5 8 6 2 7 1 8 9 9
REMARK H PARENT 9 10
REMARK Flexibility Score: inf
ROOT
ATOM      1  C   UNL     1     -32.813  10.978 -34.734  1.00  0.00     0.160 A 
ATOM      2  C   UNL     1     -33.572  11.477 -33.656  1.00  0.00     0.050 A 
ATOM      3  C   UNL     1     -33.394  10.958 -32.369  1.00  0.00     0.004 A 
ATOM      4  C   UNL     1     -32.463   9.943 -32.145  1.00  0.00     0.004 A 
ATOM      5  C   UNL     1     -31.706   9.442 -33.207  1.00  0.00     0.050 A 
ATOM      6  C   UNL     1     -31.876   9.954 -34.499  1.00  0.00     0.157 A 
ENDROOT
BRANCH   1   7
ATOM      7  O   UNL     1     -32.964  11.474 -36.040  1.00  0.00    -0.493 OA
ATOM      8  C   UNL     1     -34.184  11.976 -36.576  1.00  0.00     0.278 C 
ENDBRANCH   1   7
BRANCH   6   9
ATOM      9  O   UNL     1     -31.103   9.431 -35.536  1.00  0.00    -0.504 OA
ATOM     10  H   UNL     1     -30.692  10.019 -36.251  1.00  0.00     0.293 HD
ENDBRANCH   6   9
TORSDOF 2
ENDMDL
MODEL 2
REMARK VINA RESULT:    -4.426      2.581      3.590
REMARK INTER + INTRA:          -4.842
REMARK INTER:                  -4.823
REMARK INTRA:                  -0.018
REMARK UNBOUND:                -0.027
REMARK SMILES COc1ccccc1O
REMARK SMILES IDX 3 1 4 2 5 3 6 4 7 5 8 6 2 7 1 8 9 9
REMARK H PARENT 9 10
REMARK Flexibility Score: inf
ROOT
ATOM      1  C   UNL     1     -33.718  11.001 -33.023  1.00  0.00     0.160 A 
ATOM      2  C   UNL     1     -33.526  11.645 -34.263  1.00  0.00     0.050 A 
ATOM      3  C   UNL     1     -33.590  10.914 -35.454  1.00  0.00     0.004 A 
ATOM      4  C   UNL     1     -33.843   9.543 -35.422  1.00  0.00     0.004 A 
ATOM      5  C   UNL     1     -34.034   8.896 -34.199  1.00  0.00     0.050 A 
ATOM      6  C   UNL     1     -33.973   9.617 -33.001  1.00  0.00     0.157 A 
ENDROOT
BRANCH   1   7
ATOM      7  O   UNL     1     -33.661  11.701 -31.807  1.00  0.00    -0.493 OA
ATOM      8  C   UNL     1     -32.494  11.822 -31.000  1.00  0.00     0.278 C 
ENDBRANCH   1   7
BRANCH   6   9
ATOM      9  O   UNL     1     -34.169   8.939 -31.797  1.00  0.00    -0.504 OA
ATOM     10  H   UNL     1     -34.128   7.929 -31.735  1.00  0.00     0.293 HD
ENDBRANCH   6   9
TORSDOF 2
ENDMDL
MODEL 3
REMARK VINA RESULT:    -4.423      1.577      2.485
REMARK INTER + INTRA:          -4.838
REMARK INTER:                  -4.813
REMARK INTRA:                  -0.025
REMARK UNBOUND:                -0.027
REMARK SMILES COc1ccccc1O
REMARK SMILES IDX 3 1 4 2 5 3 6 4 7 5 8 6 2 7 1 8 9 9
REMARK H PARENT 9 10
REMARK Flexibility Score: inf
ROOT
ATOM      1  C   UNL     1     -33.314  11.172 -34.161  1.00  0.00     0.160 A 
ATOM      2  C   UNL     1     -32.455  10.200 -34.712  1.00  0.00     0.050 A 
ATOM      3  C   UNL     1     -31.776   9.305 -33.879  1.00  0.00     0.004 A 
ATOM      4  C   UNL     1     -31.945   9.369 -32.496  1.00  0.00     0.004 A 
ATOM      5  C   UNL     1     -32.794  10.329 -31.940  1.00  0.00     0.050 A 
ATOM      6  C   UNL     1     -33.479  11.229 -32.764  1.00  0.00     0.157 A 
ENDROOT
BRANCH   1   7
ATOM      7  O   UNL     1     -34.013  12.088 -34.965  1.00  0.00    -0.493 OA
ATOM      8  C   UNL     1     -34.088  12.020 -36.386  1.00  0.00     0.278 C 
ENDBRANCH   1   7
BRANCH   6   9
ATOM      9  O   UNL     1     -34.319  12.174 -32.174  1.00  0.00    -0.504 OA
ATOM     10  H   UNL     1     -35.315  12.199 -32.358  1.00  0.00     0.293 HD
ENDBRANCH   6   9
TORSDOF 2
ENDMDL
MODEL 4
REMARK VINA RESULT:    -4.256      1.773      3.013
REMARK INTER + INTRA:          -4.657
REMARK INTER:                  -4.626
REMARK INTRA:                  -0.031
REMARK UNBOUND:                -0.027
REMARK SMILES COc1ccccc1O
REMARK SMILES IDX 3 1 4 2 5 3 6 4 7 5 8 6 2 7 1 8 9 9
REMARK H PARENT 9 10
REMARK Flexibility Score: inf
ROOT
ATOM      1  C   UNL     1     -32.890  11.053 -33.840  1.00  0.00     0.160 A 
ATOM      2  C   UNL     1     -33.633  11.672 -34.866  1.00  0.00     0.050 A 
ATOM      3  C   UNL     1     -33.624  11.143 -36.161  1.00  0.00     0.004 A 
ATOM      4  C   UNL     1     -32.879   9.998 -36.445  1.00  0.00     0.004 A 
ATOM      5  C   UNL     1     -32.140   9.377 -35.435  1.00  0.00     0.050 A 
ATOM      6  C   UNL     1     -32.141   9.898 -34.136  1.00  0.00     0.157 A 
ENDROOT
BRANCH   1   7
ATOM      7  O   UNL     1     -32.874  11.555 -32.528  1.00  0.00    -0.493 OA
ATOM      8  C   UNL     1     -34.031  11.971 -31.810  1.00  0.00     0.278 C 
ENDBRANCH   1   7
BRANCH   6   9
ATOM      9  O   UNL     1     -31.392   9.252 -33.152  1.00  0.00    -0.504 OA
ATOM     10  H   UNL     1     -31.396   8.245 -33.046  1.00  0.00     0.293 HD
ENDBRANCH   6   9
TORSDOF 2
ENDMDL
MODEL 5
REMARK VINA RESULT:    -4.236      2.203      3.489
REMARK INTER + INTRA:          -4.635
REMARK INTER:                  -4.589
REMARK INTRA:                  -0.046
REMARK UNBOUND:                -0.027
REMARK SMILES COc1ccccc1O
REMARK SMILES IDX 3 1 4 2 5 3 6 4 7 5 8 6 2 7 1 8 9 9
REMARK H PARENT 9 10
REMARK Flexibility Score: inf
ROOT
ATOM      1  C   UNL     1     -33.947  10.432 -37.019  1.00  0.00     0.160 A 
ATOM      2  C   UNL     1     -33.358   9.500 -36.141  1.00  0.00     0.050 A 
ATOM      3  C   UNL     1     -33.012   9.878 -34.840  1.00  0.00     0.004 A 
ATOM      4  C   UNL     1     -33.248  11.181 -34.403  1.00  0.00     0.004 A 
ATOM      5  C   UNL     1     -33.832  12.112 -35.265  1.00  0.00     0.050 A 
ATOM      6  C   UNL     1     -34.182  11.745 -36.570  1.00  0.00     0.157 A 
ENDROOT
BRANCH   1   7
ATOM      7  O   UNL     1     -34.307  10.089 -38.333  1.00  0.00    -0.493 OA
ATOM      8  C   UNL     1     -35.527   9.447 -38.694  1.00  0.00     0.278 C 
ENDBRANCH   1   7
BRANCH   6   9
ATOM      9  O   UNL     1     -34.763  12.700 -37.404  1.00  0.00    -0.504 OA
ATOM     10  H   UNL     1     -34.335  13.603 -37.569  1.00  0.00     0.293 HD
ENDBRANCH   6   9
TORSDOF 2
ENDMDL
MODEL 6
REMARK VINA RESULT:    -4.132      1.311      2.414
REMARK INTER + INTRA:          -4.521
REMARK INTER:                  -4.475
REMARK INTRA:                  -0.046
REMARK UNBOUND:                -0.027
REMARK SMILES COc1ccccc1O
REMARK SMILES IDX 3 1 4 2 5 3 6 4 7 5 8 6 2 7 1 8 9 9
REMARK H PARENT 9 10
REMARK Flexibility Score: inf
ROOT
ATOM      1  C   UNL     1     -32.596  10.102 -34.809  1.00  0.00     0.160 A 
ATOM      2  C   UNL     1     -31.997   9.299 -33.816  1.00  0.00     0.050 A 
ATOM      3  C   UNL     1     -32.173   9.604 -32.462  1.00  0.00     0.004 A 
ATOM      4  C   UNL     1     -32.943  10.704 -32.086  1.00  0.00     0.004 A 
ATOM      5  C   UNL     1     -33.541  11.505 -33.062  1.00  0.00     0.050 A 
ATOM      6  C   UNL     1     -33.372  11.210 -34.419  1.00  0.00     0.157 A 
ENDROOT
BRANCH   1   7
ATOM      7  O   UNL     1     -32.442   9.828 -36.178  1.00  0.00    -0.493 OA
ATOM      8  C   UNL     1     -33.215   8.875 -36.902  1.00  0.00     0.278 C 
ENDBRANCH   1   7
BRANCH   6   9
ATOM      9  O   UNL     1     -33.983  12.031 -35.367  1.00  0.00    -0.504 OA
ATOM     10  H   UNL     1     -33.979  13.041 -35.288  1.00  0.00     0.293 HD
ENDBRANCH   6   9
TORSDOF 2
ENDMDL
MODEL 7
REMARK VINA RESULT:    -4.071      2.038      2.363
REMARK INTER + INTRA:          -4.455
REMARK INTER:                  -4.440
REMARK INTRA:                  -0.015
REMARK UNBOUND:                -0.027
REMARK SMILES COc1ccccc1O
REMARK SMILES IDX 3 1 4 2 5 3 6 4 7 5 8 6 2 7 1 8 9 9
REMARK H PARENT 9 10
REMARK Flexibility Score: inf
ROOT
ATOM      1  C   UNL     1     -33.688  10.334 -32.891  1.00  0.00     0.160 A 
ATOM      2  C   UNL     1     -34.364  11.467 -32.395  1.00  0.00     0.050 A 
ATOM      3  C   UNL     1     -33.794  12.238 -31.377  1.00  0.00     0.004 A 
ATOM      4  C   UNL     1     -32.553  11.888 -30.843  1.00  0.00     0.004 A 
ATOM      5  C   UNL     1     -31.876  10.766 -31.328  1.00  0.00     0.050 A 
ATOM      6  C   UNL     1     -32.436   9.988 -32.348  1.00  0.00     0.157 A 
ENDROOT
BRANCH   1   7
ATOM      7  O   UNL     1     -34.228   9.536 -33.913  1.00  0.00    -0.493 OA
ATOM      8  C   UNL     1     -33.934   9.691 -35.298  1.00  0.00     0.278 C 
ENDBRANCH   1   7
BRANCH   6   9
ATOM      9  O   UNL     1     -31.733   8.875 -32.808  1.00  0.00    -0.504 OA
ATOM     10  H   UNL     1     -31.756   7.985 -32.325  1.00  0.00     0.293 HD
ENDBRANCH   6   9
TORSDOF 2
ENDMDL
MODEL 8
REMARK VINA RESULT:    -4.043      2.745      4.203
REMARK INTER + INTRA:          -4.425
REMARK INTER:                  -4.537
REMARK INTRA:                   0.112
REMARK UNBOUND:                -0.027
REMARK SMILES COc1ccccc1O
REMARK SMILES IDX 3 1 4 2 5 3 6 4 7 5 8 6 2 7 1 8 9 9
REMARK H PARENT 9 10
REMARK Flexibility Score: inf
ROOT
ATOM      1  C   UNL     1     -32.563  10.750 -31.717  1.00  0.00     0.160 A 
ATOM      2  C   UNL     1     -31.645   9.955 -32.432  1.00  0.00     0.050 A 
ATOM      3  C   UNL     1     -31.936   9.542 -33.736  1.00  0.00     0.004 A 
ATOM      4  C   UNL     1     -33.139   9.913 -34.337  1.00  0.00     0.004 A 
ATOM      5  C   UNL     1     -34.055  10.701 -33.637  1.00  0.00     0.050 A 
ATOM      6  C   UNL     1     -33.775  11.121 -32.332  1.00  0.00     0.157 A 
ENDROOT
BRANCH   1   7
ATOM      7  O   UNL     1     -32.306  11.185 -30.406  1.00  0.00    -0.493 OA
ATOM      8  C   UNL     1     -32.038  12.536 -30.042  1.00  0.00     0.278 C 
ENDBRANCH   1   7
BRANCH   6   9
ATOM      9  O   UNL     1     -34.713  11.907 -31.662  1.00  0.00    -0.504 OA
ATOM     10  H   UNL     1     -35.656  12.032 -32.007  1.00  0.00     0.293 HD
ENDBRANCH   6   9
TORSDOF 2
ENDMDL
MODEL 9
REMARK VINA RESULT:    -3.925      2.458      3.875
REMARK INTER + INTRA:          -4.297
REMARK INTER:                  -4.250
REMARK INTRA:                  -0.046
REMARK UNBOUND:                -0.027
REMARK SMILES COc1ccccc1O
REMARK SMILES IDX 3 1 4 2 5 3 6 4 7 5 8 6 2 7 1 8 9 9
REMARK H PARENT 9 10
REMARK Flexibility Score: inf
ROOT
ATOM      1  C   UNL     1     -33.960   9.798 -33.857  1.00  0.00     0.160 A 
ATOM      2  C   UNL     1     -34.007   9.118 -35.091  1.00  0.00     0.050 A 
ATOM      3  C   UNL     1     -33.759   9.803 -36.284  1.00  0.00     0.004 A 
ATOM      4  C   UNL     1     -33.463  11.167 -36.261  1.00  0.00     0.004 A 
ATOM      5  C   UNL     1     -33.414  11.850 -35.043  1.00  0.00     0.050 A 
ATOM      6  C   UNL     1     -33.660  11.174 -33.842  1.00  0.00     0.157 A 
ENDROOT
BRANCH   1   7
ATOM      7  O   UNL     1     -34.203   9.144 -32.638  1.00  0.00    -0.493 OA
ATOM      8  C   UNL     1     -35.499   8.875 -32.111  1.00  0.00     0.278 C 
ENDBRANCH   1   7
BRANCH   6   9
ATOM      9  O   UNL     1     -33.602  11.887 -32.645  1.00  0.00    -0.504 OA
ATOM     10  H   UNL     1     -34.053  12.787 -32.531  1.00  0.00     0.293 HD
ENDBRANCH   6   9
TORSDOF 2
ENDMDL
