MODEL 1
REMARK VINA RESULT:    -3.957      0.000      0.000
REMARK INTER + INTRA:          -6.270
REMARK INTER:                  -5.576
REMARK INTRA:                  -0.693
REMARK UNBOUND:                -0.693
REMARK SMILES CCCCCCCCC(=O)[O-]
REMARK SMILES IDX 6 1 7 2 8 3 9 4 10 5 11 6 5 7 4 8 3 9 2 10 1 11
REMARK H PARENT
REMARK Flexibility Score: inf
ROOT
ATOM      1  C   UNL     1       3.053   1.582  16.306  1.00  0.00     0.000 C 
ENDROOT
BRANCH   1   2
ATOM      2  C   UNL     1       4.379   1.740  17.071  1.00  0.00     0.006 C 
BRANCH   2   3
ATOM      3  C   UNL     1       5.223   0.459  17.037  1.00  0.00     0.053 C 
BRANCH   3   4
ATOM      4  C   UNL     1       5.388  -0.137  18.402  1.00  0.00     0.041 C 
ATOM      5  O   UNL     1       4.774   0.353  19.386  1.00  0.00    -0.550 OA
ATOM      6  O   UNL     1       6.243  -1.216  18.592  1.00  0.00    -0.550 OA
ENDBRANCH   3   4
ENDBRANCH   2   3
ENDBRANCH   1   2
BRANCH   1   7
ATOM      7  C   UNL     1       2.923   2.558  15.123  1.00  0.00     0.000 C 
BRANCH   7   8
ATOM      8  C   UNL     1       4.172   3.413  14.837  1.00  0.00    -0.000 C 
BRANCH   8   9
ATOM      9  C   UNL     1       4.787   3.132  13.455  1.00  0.00    -0.000 C 
BRANCH   9  10
ATOM     10  C   UNL     1       4.818   1.632  13.120  1.00  0.00    -0.003 C 
ATOM     11  C   UNL     1       6.171   0.985  13.419  1.00  0.00     0.004 C 
ENDBRANCH   9  10
ENDBRANCH   8   9
ENDBRANCH   7   8
ENDBRANCH   1   7
TORSDOF 7
ENDMDL
MODEL 2
REMARK VINA RESULT:    -3.957      1.830      2.872
REMARK INTER + INTRA:          -6.269
REMARK INTER:                  -5.572
REMARK INTRA:                  -0.697
REMARK UNBOUND:                -0.693
REMARK SMILES CCCCCCCCC(=O)[O-]
REMARK SMILES IDX 6 1 7 2 8 3 9 4 10 5 11 6 5 7 4 8 3 9 2 10 1 11
REMARK H PARENT
REMARK Flexibility Score: inf
ROOT
ATOM      1  C   UNL     1       4.702   2.367  15.831  1.00  0.00     0.000 C 
ENDROOT
BRANCH   1   2
ATOM      2  C   UNL     1       5.653   1.229  16.243  1.00  0.00     0.006 C 
BRANCH   2   3
ATOM      3  C   UNL     1       5.166   0.494  17.500  1.00  0.00     0.053 C 
BRANCH   3   4
ATOM      4  C   UNL     1       5.595  -0.941  17.509  1.00  0.00     0.041 C 
ATOM      5  O   UNL     1       5.414  -1.662  16.493  1.00  0.00    -0.550 OA
ATOM      6  O   UNL     1       6.170  -1.489  18.649  1.00  0.00    -0.550 OA
ENDBRANCH   3   4
ENDBRANCH   2   3
ENDBRANCH   1   2
BRANCH   1   7
ATOM      7  C   UNL     1       3.899   2.045  14.558  1.00  0.00     0.000 C 
BRANCH   7   8
ATOM      8  C   UNL     1       4.294   0.739  13.845  1.00  0.00    -0.000 C 
BRANCH   8   9
ATOM      9  C   UNL     1       3.123  -0.252  13.718  1.00  0.00    -0.000 C 
BRANCH   9  10
ATOM     10  C   UNL     1       2.357  -0.429  15.039  1.00  0.00    -0.003 C 
ATOM     11  C   UNL     1       0.847  -0.250  14.878  1.00  0.00     0.004 C 
ENDBRANCH   9  10
ENDBRANCH   8   9
ENDBRANCH   7   8
ENDBRANCH   1   7
TORSDOF 7
ENDMDL
MODEL 3
REMARK VINA RESULT:    -3.941      2.853      4.400
REMARK INTER + INTRA:          -6.247
REMARK INTER:                  -5.547
REMARK INTRA:                  -0.700
REMARK UNBOUND:                -0.693
REMARK SMILES CCCCCCCCC(=O)[O-]
REMARK SMILES IDX 6 1 7 2 8 3 9 4 10 5 11 6 5 7 4 8 3 9 2 10 1 11
REMARK H PARENT
REMARK Flexibility Score: inf
ROOT
ATOM      1  C   UNL     1       3.238   1.792  15.325  1.00  0.00     0.000 C 
ENDROOT
BRANCH   1   2
ATOM      2  C   UNL     1       3.900   0.814  14.338  1.00  0.00     0.006 C 
BRANCH   2   3
ATOM      3  C   UNL     1       2.896  -0.193  13.760  1.00  0.00     0.053 C 
BRANCH   3   4
ATOM      4  C   UNL     1       1.975  -0.729  14.813  1.00  0.00     0.041 C 
ATOM      5  O   UNL     1       2.390  -1.577  15.646  1.00  0.00    -0.550 OA
ATOM      6  O   UNL     1       0.650  -0.313  14.855  1.00  0.00    -0.550 OA
ENDBRANCH   3   4
ENDBRANCH   2   3
ENDBRANCH   1   2
BRANCH   1   7
ATOM      7  C   UNL     1       3.958   1.850  16.685  1.00  0.00     0.000 C 
BRANCH   7   8
ATOM      8  C   UNL     1       5.246   1.012  16.782  1.00  0.00    -0.000 C 
BRANCH   8   9
ATOM      9  C   UNL     1       5.319   0.171  18.068  1.00  0.00    -0.000 C 
BRANCH   9  10
ATOM     10  C   UNL     1       5.223  -1.338  17.789  1.00  0.00    -0.003 C 
ATOM     11  C   UNL     1       5.816  -1.730  16.436  1.00  0.00     0.004 C 
ENDBRANCH   9  10
ENDBRANCH   8   9
ENDBRANCH   7   8
ENDBRANCH   1   7
TORSDOF 7
ENDMDL
MODEL 4
REMARK VINA RESULT:    -3.895      2.018      3.220
REMARK INTER + INTRA:          -6.182
REMARK INTER:                  -5.411
REMARK INTRA:                  -0.771
REMARK UNBOUND:                -0.693
REMARK SMILES CCCCCCCCC(=O)[O-]
REMARK SMILES IDX 6 1 7 2 8 3 9 4 10 5 11 6 5 7 4 8 3 9 2 10 1 11
REMARK H PARENT
REMARK Flexibility Score: inf
ROOT
ATOM      1  C   UNL     1       3.686   2.453  14.535  1.00  0.00     0.000 C 
ENDROOT
BRANCH   1   2
ATOM      2  C   UNL     1       4.360   2.772  15.880  1.00  0.00     0.006 C 
BRANCH   2   3
ATOM      3  C   UNL     1       3.808   1.910  17.024  1.00  0.00     0.053 C 
BRANCH   3   4
ATOM      4  C   UNL     1       4.867   1.040  17.629  1.00  0.00     0.041 C 
ATOM      5  O   UNL     1       5.821   0.621  16.923  1.00  0.00    -0.550 OA
ATOM      6  O   UNL     1       4.784   0.669  18.965  1.00  0.00    -0.550 OA
ENDBRANCH   3   4
ENDBRANCH   2   3
ENDBRANCH   1   2
BRANCH   1   7
ATOM      7  C   UNL     1       4.412   1.348  13.746  1.00  0.00     0.000 C 
BRANCH   7   8
ATOM      8  C   UNL     1       3.570   0.095  13.446  1.00  0.00    -0.000 C 
BRANCH   8   9
ATOM      9  C   UNL     1       3.474  -0.864  14.646  1.00  0.00    -0.000 C 
BRANCH   9  10
ATOM     10  C   UNL     1       2.036  -1.341  14.903  1.00  0.00    -0.003 C 
ATOM     11  C   UNL     1       1.016  -0.202  14.864  1.00  0.00     0.004 C 
ENDBRANCH   9  10
ENDBRANCH   8   9
ENDBRANCH   7   8
ENDBRANCH   1   7
TORSDOF 7
ENDMDL
MODEL 5
REMARK VINA RESULT:    -3.878      2.707      4.601
REMARK INTER + INTRA:          -6.158
REMARK INTER:                  -5.543
REMARK INTRA:                  -0.615
REMARK UNBOUND:                -0.693
REMARK SMILES CCCCCCCCC(=O)[O-]
REMARK SMILES IDX 6 1 7 2 8 3 9 4 10 5 11 6 5 7 4 8 3 9 2 10 1 11
REMARK H PARENT
REMARK Flexibility Score: inf
ROOT
ATOM      1  C   UNL     1       5.508   1.037  13.684  1.00  0.00     0.000 C 
ENDROOT
BRANCH   1   2
ATOM      2  C   UNL     1       4.046   0.805  13.265  1.00  0.00     0.006 C 
BRANCH   2   3
ATOM      3  C   UNL     1       3.340  -0.217  14.167  1.00  0.00     0.053 C 
BRANCH   3   4
ATOM      4  C   UNL     1       2.250   0.414  14.980  1.00  0.00     0.041 C 
ATOM      5  O   UNL     1       1.125  -0.142  15.071  1.00  0.00    -0.550 OA
ATOM      6  O   UNL     1       2.470   1.632  15.612  1.00  0.00    -0.550 OA
ENDBRANCH   3   4
ENDBRANCH   2   3
ENDBRANCH   1   2
BRANCH   1   7
ATOM      7  C   UNL     1       5.878   0.317  14.994  1.00  0.00     0.000 C 
BRANCH   7   8
ATOM      8  C   UNL     1       5.920   1.213  16.245  1.00  0.00    -0.000 C 
BRANCH   8   9
ATOM      9  C   UNL     1       5.310   0.538  17.487  1.00  0.00    -0.000 C 
BRANCH   9  10
ATOM     10  C   UNL     1       5.425  -0.994  17.439  1.00  0.00    -0.003 C 
ATOM     11  C   UNL     1       6.165  -1.571  18.646  1.00  0.00     0.004 C 
ENDBRANCH   9  10
ENDBRANCH   8   9
ENDBRANCH   7   8
ENDBRANCH   1   7
TORSDOF 7
ENDMDL
MODEL 6
REMARK VINA RESULT:    -3.824      2.563      4.815
REMARK INTER + INTRA:          -6.083
REMARK INTER:                  -5.478
REMARK INTRA:                  -0.604
REMARK UNBOUND:                -0.693
REMARK SMILES CCCCCCCCC(=O)[O-]
REMARK SMILES IDX 6 1 7 2 8 3 9 4 10 5 11 6 5 7 4 8 3 9 2 10 1 11
REMARK H PARENT
REMARK Flexibility Score: inf
ROOT
ATOM      1  C   UNL     1       5.911   0.823  14.264  1.00  0.00     0.000 C 
ENDROOT
BRANCH   1   2
ATOM      2  C   UNL     1       4.850   1.292  13.253  1.00  0.00     0.006 C 
BRANCH   2   3
ATOM      3  C   UNL     1       4.489   2.773  13.437  1.00  0.00     0.053 C 
BRANCH   3   4
ATOM      4  C   UNL     1       3.945   3.049  14.806  1.00  0.00     0.041 C 
ATOM      5  O   UNL     1       4.553   3.830  15.584  1.00  0.00    -0.550 OA
ATOM      6  O   UNL     1       2.781   2.421  15.231  1.00  0.00    -0.550 OA
ENDBRANCH   3   4
ENDBRANCH   2   3
ENDBRANCH   1   2
BRANCH   1   7
ATOM      7  C   UNL     1       5.559  -0.524  14.921  1.00  0.00     0.000 C 
BRANCH   7   8
ATOM      8  C   UNL     1       4.653  -0.433  16.162  1.00  0.00    -0.000 C 
BRANCH   8   9
ATOM      9  C   UNL     1       5.208   0.514  17.241  1.00  0.00    -0.000 C 
BRANCH   9  10
ATOM     10  C   UNL     1       5.445  -0.199  18.582  1.00  0.00    -0.003 C 
ATOM     11  C   UNL     1       5.986  -1.619  18.412  1.00  0.00     0.004 C 
ENDBRANCH   9  10
ENDBRANCH   8   9
ENDBRANCH   7   8
ENDBRANCH   1   7
TORSDOF 7
ENDMDL
MODEL 7
REMARK VINA RESULT:    -3.803      1.926      3.501
REMARK INTER + INTRA:          -6.053
REMARK INTER:                  -5.173
REMARK INTRA:                  -0.880
REMARK UNBOUND:                -0.693
REMARK SMILES CCCCCCCCC(=O)[O-]
REMARK SMILES IDX 6 1 7 2 8 3 9 4 10 5 11 6 5 7 4 8 3 9 2 10 1 11
REMARK H PARENT
REMARK Flexibility Score: inf
ROOT
ATOM      1  C   UNL     1       4.741   2.968  13.227  1.00  0.00     0.000 C 
ENDROOT
BRANCH   1   2
ATOM      2  C   UNL     1       3.774   3.213  14.398  1.00  0.00     0.006 C 
BRANCH   2   3
ATOM      3  C   UNL     1       4.456   3.032  15.761  1.00  0.00     0.053 C 
BRANCH   3   4
ATOM      4  C   UNL     1       3.705   2.078  16.639  1.00  0.00     0.041 C 
ATOM      5  O   UNL     1       4.097   1.857  17.815  1.00  0.00    -0.550 OA
ATOM      6  O   UNL     1       2.589   1.412  16.148  1.00  0.00    -0.550 OA
ENDBRANCH   3   4
ENDBRANCH   2   3
ENDBRANCH   1   2
BRANCH   1   7
ATOM      7  C   UNL     1       5.218   1.506  13.139  1.00  0.00     0.000 C 
BRANCH   7   8
ATOM      8  C   UNL     1       4.097   0.453  13.086  1.00  0.00    -0.000 C 
BRANCH   8   9
ATOM      9  C   UNL     1       4.385  -0.773  13.970  1.00  0.00    -0.000 C 
BRANCH   9  10
ATOM     10  C   UNL     1       5.607  -0.567  14.880  1.00  0.00    -0.003 C 
ATOM     11  C   UNL     1       5.433  -1.203  16.260  1.00  0.00     0.004 C 
ENDBRANCH   9  10
ENDBRANCH   8   9
ENDBRANCH   7   8
ENDBRANCH   1   7
TORSDOF 7
ENDMDL
MODEL 8
REMARK VINA RESULT:    -3.802      0.773      2.621
REMARK INTER + INTRA:          -6.052
REMARK INTER:                  -5.338
REMARK INTRA:                  -0.714
REMARK UNBOUND:                -0.693
REMARK SMILES CCCCCCCCC(=O)[O-]
REMARK SMILES IDX 6 1 7 2 8 3 9 4 10 5 11 6 5 7 4 8 3 9 2 10 1 11
REMARK H PARENT
REMARK Flexibility Score: inf
ROOT
ATOM      1  C   UNL     1       6.267   0.464  14.663  1.00  0.00     0.000 C 
ENDROOT
BRANCH   1   2
ATOM      2  C   UNL     1       5.363  -0.113  15.766  1.00  0.00     0.006 C 
BRANCH   2   3
ATOM      3  C   UNL     1       5.549   0.612  17.106  1.00  0.00     0.053 C 
BRANCH   3   4
ATOM      4  C   UNL     1       5.560  -0.342  18.260  1.00  0.00     0.041 C 
ATOM      5  O   UNL     1       6.088  -1.478  18.138  1.00  0.00    -0.550 OA
ATOM      6  O   UNL     1       4.961   0.013  19.463  1.00  0.00    -0.550 OA
ENDBRANCH   3   4
ENDBRANCH   2   3
ENDBRANCH   1   2
BRANCH   1   7
ATOM      7  C   UNL     1       5.590   0.480  13.280  1.00  0.00     0.000 C 
BRANCH   7   8
ATOM      8  C   UNL     1       4.367   1.407  13.159  1.00  0.00    -0.000 C 
BRANCH   8   9
ATOM      9  C   UNL     1       4.708   2.886  13.416  1.00  0.00    -0.000 C 
BRANCH   9  10
ATOM     10  C   UNL     1       3.993   3.446  14.656  1.00  0.00    -0.003 C 
ATOM     11  C   UNL     1       2.878   2.531  15.163  1.00  0.00     0.004 C 
ENDBRANCH   9  10
ENDBRANCH   8   9
ENDBRANCH   7   8
ENDBRANCH   1   7
TORSDOF 7
ENDMDL
MODEL 9
REMARK VINA RESULT:    -3.793      1.692      3.002
REMARK INTER + INTRA:          -6.039
REMARK INTER:                  -5.221
REMARK INTRA:                  -0.818
REMARK UNBOUND:                -0.693
REMARK SMILES CCCCCCCCC(=O)[O-]
REMARK SMILES IDX 6 1 7 2 8 3 9 4 10 5 11 6 5 7 4 8 3 9 2 10 1 11
REMARK H PARENT
REMARK Flexibility Score: inf
ROOT
ATOM      1  C   UNL     1       5.595  -1.171  14.641  1.00  0.00     0.000 C 
ENDROOT
BRANCH   1   2
ATOM      2  C   UNL     1       5.828  -1.774  16.037  1.00  0.00     0.006 C 
BRANCH   2   3
ATOM      3  C   UNL     1       4.767  -1.320  17.049  1.00  0.00     0.053 C 
BRANCH   3   4
ATOM      4  C   UNL     1       5.327  -0.354  18.048  1.00  0.00     0.041 C 
ATOM      5  O   UNL     1       4.963   0.852  18.035  1.00  0.00    -0.550 OA
ATOM      6  O   UNL     1       6.272  -0.779  18.974  1.00  0.00    -0.550 OA
ENDBRANCH   3   4
ENDBRANCH   2   3
ENDBRANCH   1   2
BRANCH   1   7
ATOM      7  C   UNL     1       6.229   0.223  14.476  1.00  0.00     0.000 C 
BRANCH   7   8
ATOM      8  C   UNL     1       5.236   1.399  14.470  1.00  0.00    -0.000 C 
BRANCH   8   9
ATOM      9  C   UNL     1       3.812   0.978  14.065  1.00  0.00    -0.000 C 
BRANCH   9  10
ATOM     10  C   UNL     1       2.784   1.237  15.178  1.00  0.00    -0.003 C 
ATOM     11  C   UNL     1       1.649   0.212  15.187  1.00  0.00     0.004 C 
ENDBRANCH   9  10
ENDBRANCH   8   9
ENDBRANCH   7   8
ENDBRANCH   1   7
TORSDOF 7
ENDMDL
