MODEL 1
REMARK VINA RESULT:    -3.588      0.000      0.000
REMARK INTER + INTRA:          -4.528
REMARK INTER:                  -4.427
REMARK INTRA:                  -0.102
REMARK UNBOUND:                -0.102
REMARK SMILES CCCCCC(=O)[O-]
REMARK SMILES IDX 4 1 5 2 6 3 7 4 8 5 3 6 2 7 1 8
REMARK H PARENT
REMARK Flexibility Score: inf
ROOT
ATOM      1  C   UNL     1      -2.676   9.236  -9.455  1.00  0.00     0.006 C 
ENDROOT
BRANCH   1   2
ATOM      2  C   UNL     1      -3.840   8.300  -9.108  1.00  0.00     0.053 C 
BRANCH   2   3
ATOM      3  C   UNL     1      -5.064   8.681  -9.881  1.00  0.00     0.041 C 
ATOM      4  O   UNL     1      -5.877   7.796 -10.256  1.00  0.00    -0.550 OA
ATOM      5  O   UNL     1      -5.330  10.018 -10.147  1.00  0.00    -0.550 OA
ENDBRANCH   2   3
ENDBRANCH   1   2
BRANCH   1   6
ATOM      6  C   UNL     1      -1.317   8.519  -9.445  1.00  0.00     0.000 C 
BRANCH   6   7
ATOM      7  C   UNL     1      -1.383   7.136  -8.781  1.00  0.00    -0.003 C 
ATOM      8  C   UNL     1       0.014   6.616  -8.454  1.00  0.00     0.004 C 
ENDBRANCH   6   7
ENDBRANCH   1   6
TORSDOF 4
ENDMDL
MODEL 2
REMARK VINA RESULT:    -3.407      2.919      4.289
REMARK INTER + INTRA:          -4.305
REMARK INTER:                  -4.077
REMARK INTRA:                  -0.229
REMARK UNBOUND:                -0.102
REMARK SMILES CCCCCC(=O)[O-]
REMARK SMILES IDX 4 1 5 2 6 3 7 4 8 5 3 6 2 7 1 8
REMARK H PARENT
REMARK Flexibility Score: inf
ROOT
ATOM      1  C   UNL     1      -0.963   9.811  -8.734  1.00  0.00     0.006 C 
ENDROOT
BRANCH   1   2
ATOM      2  C   UNL     1      -0.494   8.567  -9.500  1.00  0.00     0.053 C 
BRANCH   2   3
ATOM      3  C   UNL     1      -0.862   7.325  -8.751  1.00  0.00     0.041 C 
ATOM      4  O   UNL     1      -2.068   7.072  -8.495  1.00  0.00    -0.550 OA
ATOM      5  O   UNL     1       0.125   6.420  -8.379  1.00  0.00    -0.550 OA
ENDBRANCH   2   3
ENDBRANCH   1   2
BRANCH   1   6
ATOM      6  C   UNL     1      -2.069  10.579  -9.474  1.00  0.00     0.000 C 
BRANCH   6   7
ATOM      7  C   UNL     1      -3.470  10.268  -8.928  1.00  0.00    -0.003 C 
ATOM      8  C   UNL     1      -4.264   9.410  -9.910  1.00  0.00     0.004 C 
ENDBRANCH   6   7
ENDBRANCH   1   6
TORSDOF 4
ENDMDL
MODEL 3
REMARK VINA RESULT:    -3.386     18.306     20.523
REMARK INTER + INTRA:          -4.279
REMARK INTER:                  -4.210
REMARK INTRA:                  -0.069
REMARK UNBOUND:                -0.102
REMARK SMILES CCCCCC(=O)[O-]
REMARK SMILES IDX 4 1 5 2 6 3 7 4 8 5 3 6 2 7 1 8
REMARK H PARENT
REMARK Flexibility Score: inf
ROOT
ATOM      1  C   UNL     1     -17.120  17.268 -21.500  1.00  0.00     0.006 C 
ENDROOT
BRANCH   1   2
ATOM      2  C   UNL     1     -15.986  17.054 -20.490  1.00  0.00     0.053 C 
BRANCH   2   3
ATOM      3  C   UNL     1     -15.063  15.975 -20.961  1.00  0.00     0.041 C 
ATOM      4  O   UNL     1     -14.473  15.238 -20.129  1.00  0.00    -0.550 OA
ATOM      5  O   UNL     1     -14.893  15.752 -22.322  1.00  0.00    -0.550 OA
ENDBRANCH   2   3
ENDBRANCH   1   2
BRANCH   1   6
ATOM      6  C   UNL     1     -18.318  18.016 -20.895  1.00  0.00     0.000 C 
BRANCH   6   7
ATOM      7  C   UNL     1     -19.665  17.497 -21.419  1.00  0.00    -0.003 C 
ATOM      8  C   UNL     1     -19.637  17.330 -22.935  1.00  0.00     0.004 C 
ENDBRANCH   6   7
ENDBRANCH   1   6
TORSDOF 4
ENDMDL
MODEL 4
REMARK VINA RESULT:    -3.350      2.600      4.482
REMARK INTER + INTRA:          -4.235
REMARK INTER:                  -4.155
REMARK INTRA:                  -0.080
REMARK UNBOUND:                -0.102
REMARK SMILES CCCCCC(=O)[O-]
REMARK SMILES IDX 4 1 5 2 6 3 7 4 8 5 3 6 2 7 1 8
REMARK H PARENT
REMARK Flexibility Score: inf
ROOT
ATOM      1  C   UNL     1      -3.972   8.675  -9.420  1.00  0.00     0.006 C 
ENDROOT
BRANCH   1   2
ATOM      2  C   UNL     1      -2.606   9.253  -9.032  1.00  0.00     0.053 C 
BRANCH   2   3
ATOM      3  C   UNL     1      -1.539   8.214  -9.175  1.00  0.00     0.041 C 
ATOM      4  O   UNL     1      -0.459   8.490  -9.759  1.00  0.00    -0.550 OA
ATOM      5  O   UNL     1      -1.718   6.953  -8.620  1.00  0.00    -0.550 OA
ENDBRANCH   2   3
ENDBRANCH   1   2
BRANCH   1   6
ATOM      6  C   UNL     1      -4.850   9.686 -10.174  1.00  0.00     0.000 C 
BRANCH   6   7
ATOM      7  C   UNL     1      -6.172   9.074 -10.660  1.00  0.00    -0.003 C 
ATOM      8  C   UNL     1      -6.251   7.590 -10.313  1.00  0.00     0.004 C 
ENDBRANCH   6   7
ENDBRANCH   1   6
TORSDOF 4
ENDMDL
MODEL 5
REMARK VINA RESULT:    -3.248     16.774     18.136
REMARK INTER + INTRA:          -4.110
REMARK INTER:                  -3.944
REMARK INTRA:                  -0.166
REMARK UNBOUND:                -0.102
REMARK SMILES CCCCCC(=O)[O-]
REMARK SMILES IDX 4 1 5 2 6 3 7 4 8 5 3 6 2 7 1 8
REMARK H PARENT
REMARK Flexibility Score: inf
ROOT
ATOM      1  C   UNL     1     -12.725  20.686 -16.462  1.00  0.00     0.006 C 
ENDROOT
BRANCH   1   2
ATOM      2  C   UNL     1     -12.253  20.241 -17.852  1.00  0.00     0.053 C 
BRANCH   2   3
ATOM      3  C   UNL     1     -12.792  18.884 -18.178  1.00  0.00     0.041 C 
ATOM      4  O   UNL     1     -12.658  18.410 -19.336  1.00  0.00    -0.550 OA
ATOM      5  O   UNL     1     -13.399  18.121 -17.188  1.00  0.00    -0.550 OA
ENDBRANCH   2   3
ENDBRANCH   1   2
BRANCH   1   6
ATOM      6  C   UNL     1     -13.460  22.035 -16.490  1.00  0.00     0.000 C 
BRANCH   6   7
ATOM      7  C   UNL     1     -14.345  22.200 -17.735  1.00  0.00    -0.003 C 
ATOM      8  C   UNL     1     -15.694  21.513 -17.545  1.00  0.00     0.004 C 
ENDBRANCH   6   7
ENDBRANCH   1   6
TORSDOF 4
ENDMDL
MODEL 6
REMARK VINA RESULT:    -3.240     18.982     20.427
REMARK INTER + INTRA:          -4.099
REMARK INTER:                  -3.987
REMARK INTRA:                  -0.112
REMARK UNBOUND:                -0.102
REMARK SMILES CCCCCC(=O)[O-]
REMARK SMILES IDX 4 1 5 2 6 3 7 4 8 5 3 6 2 7 1 8
REMARK H PARENT
REMARK Flexibility Score: inf
ROOT
ATOM      1  C   UNL     1     -17.047  17.457 -21.312  1.00  0.00     0.006 C 
ENDROOT
BRANCH   1   2
ATOM      2  C   UNL     1     -18.564  17.616 -21.148  1.00  0.00     0.053 C 
BRANCH   2   3
ATOM      3  C   UNL     1     -18.875  18.816 -20.309  1.00  0.00     0.041 C 
ATOM      4  O   UNL     1     -19.997  18.923 -19.749  1.00  0.00    -0.550 OA
ATOM      5  O   UNL     1     -17.908  19.792 -20.107  1.00  0.00    -0.550 OA
ENDBRANCH   2   3
ENDBRANCH   1   2
BRANCH   1   6
ATOM      6  C   UNL     1     -16.415  16.622 -20.188  1.00  0.00     0.000 C 
BRANCH   6   7
ATOM      7  C   UNL     1     -15.026  16.085 -20.560  1.00  0.00    -0.003 C 
ATOM      8  C   UNL     1     -14.937  15.778 -22.053  1.00  0.00     0.004 C 
ENDBRANCH   6   7
ENDBRANCH   1   6
TORSDOF 4
ENDMDL
MODEL 7
REMARK VINA RESULT:    -3.200     16.231     17.382
REMARK INTER + INTRA:          -4.050
REMARK INTER:                  -3.780
REMARK INTRA:                  -0.270
REMARK UNBOUND:                -0.102
REMARK SMILES CCCCCC(=O)[O-]
REMARK SMILES IDX 4 1 5 2 6 3 7 4 8 5 3 6 2 7 1 8
REMARK H PARENT
REMARK Flexibility Score: inf
ROOT
ATOM      1  C   UNL     1     -12.165  20.014 -16.804  1.00  0.00     0.006 C 
ENDROOT
BRANCH   1   2
ATOM      2  C   UNL     1     -12.886  20.965 -17.767  1.00  0.00     0.053 C 
BRANCH   2   3
ATOM      3  C   UNL     1     -13.837  21.844 -17.017  1.00  0.00     0.041 C 
ATOM      4  O   UNL     1     -15.060  21.853 -17.315  1.00  0.00    -0.550 OA
ATOM      5  O   UNL     1     -13.381  22.617 -15.957  1.00  0.00    -0.550 OA
ENDBRANCH   2   3
ENDBRANCH   1   2
BRANCH   1   6
ATOM      6  C   UNL     1     -13.111  18.978 -16.177  1.00  0.00     0.000 C 
BRANCH   6   7
ATOM      7  C   UNL     1     -12.968  18.895 -14.650  1.00  0.00    -0.003 C 
ATOM      8  C   UNL     1     -11.876  19.837 -14.149  1.00  0.00     0.004 C 
ENDBRANCH   6   7
ENDBRANCH   1   6
TORSDOF 4
ENDMDL
MODEL 8
REMARK VINA RESULT:    -3.186      3.291      4.257
REMARK INTER + INTRA:          -4.033
REMARK INTER:                  -3.920
REMARK INTRA:                  -0.112
REMARK UNBOUND:                -0.102
REMARK SMILES CCCCCC(=O)[O-]
REMARK SMILES IDX 4 1 5 2 6 3 7 4 8 5 3 6 2 7 1 8
REMARK H PARENT
REMARK Flexibility Score: inf
ROOT
ATOM      1  C   UNL     1      -0.118   9.449  -9.517  1.00  0.00     0.006 C 
ENDROOT
BRANCH   1   2
ATOM      2  C   UNL     1       0.125  10.906  -9.106  1.00  0.00     0.053 C 
BRANCH   2   3
ATOM      3  C   UNL     1      -0.346  11.836 -10.180  1.00  0.00     0.041 C 
ATOM      4  O   UNL     1      -0.210  13.080 -10.044  1.00  0.00    -0.550 OA
ATOM      5  O   UNL     1      -0.890  11.327 -11.352  1.00  0.00    -0.550 OA
ENDBRANCH   2   3
ENDBRANCH   1   2
BRANCH   1   6
ATOM      6  C   UNL     1      -1.308   8.816  -8.780  1.00  0.00     0.000 C 
BRANCH   6   7
ATOM      7  C   UNL     1      -1.321   7.284  -8.883  1.00  0.00    -0.003 C 
ATOM      8  C   UNL     1       0.039   6.697  -8.514  1.00  0.00     0.004 C 
ENDBRANCH   6   7
ENDBRANCH   1   6
TORSDOF 4
ENDMDL
MODEL 9
REMARK VINA RESULT:    -3.143     14.616     16.004
REMARK INTER + INTRA:          -3.980
REMARK INTER:                  -3.820
REMARK INTRA:                  -0.160
REMARK UNBOUND:                -0.102
REMARK SMILES CCCCCC(=O)[O-]
REMARK SMILES IDX 4 1 5 2 6 3 7 4 8 5 3 6 2 7 1 8
REMARK H PARENT
REMARK Flexibility Score: inf
ROOT
ATOM      1  C   UNL     1     -16.012  11.624 -14.916  1.00  0.00     0.006 C 
ENDROOT
BRANCH   1   2
ATOM      2  C   UNL     1     -16.815  12.586 -14.032  1.00  0.00     0.053 C 
BRANCH   2   3
ATOM      3  C   UNL     1     -16.445  14.005 -14.334  1.00  0.00     0.041 C 
ATOM      4  O   UNL     1     -15.403  14.261 -14.993  1.00  0.00    -0.550 OA
ATOM      5  O   UNL     1     -17.277  15.041 -13.930  1.00  0.00    -0.550 OA
ENDBRANCH   2   3
ENDBRANCH   1   2
BRANCH   1   6
ATOM      6  C   UNL     1     -16.718  11.313 -16.244  1.00  0.00     0.000 C 
BRANCH   6   7
ATOM      7  C   UNL     1     -18.240  11.183 -16.089  1.00  0.00    -0.003 C 
ATOM      8  C   UNL     1     -18.972  12.106 -17.059  1.00  0.00     0.004 C 
ENDBRANCH   6   7
ENDBRANCH   1   6
TORSDOF 4
ENDMDL
