MODEL 1
REMARK VINA RESULT:    -5.808      0.000      0.000
REMARK INTER + INTRA:          -6.317
REMARK INTER:                  -6.317
REMARK INTRA:                   0.000
REMARK UNBOUND:                 0.000
REMARK SMILES Cc1cc(O)c2c(c1)C(=O)c1cc(O)cc(O)c1C2=O
REMARK SMILES IDX 1 1 2 2 8 3 7 4 6 5 4 6 3 7 19 8 20 9 18 10 11 11 9 12 10 13
REMARK SMILES IDX 12 14 13 15 15 16 16 17 5 18 17 20 14 22
REMARK H PARENT 5 19 17 21 14 23
REMARK Flexibility Score: inf
ROOT
ATOM      1  C   UNL     1      -9.968  -9.125  -0.119  1.00  0.00     0.044 C 
ATOM      2  C   UNL     1     -11.280  -8.819  -0.779  1.00  0.00    -0.047 A 
ATOM      3  C   UNL     1     -11.402  -8.893  -2.171  1.00  0.00     0.016 A 
ATOM      4  C   UNL     1     -12.619  -8.580  -2.800  1.00  0.00     0.038 A 
ATOM      5  C   UNL     1     -13.732  -8.185  -2.023  1.00  0.00     0.076 A 
ATOM      6  C   UNL     1     -13.576  -8.030  -0.622  1.00  0.00     0.127 A 
ATOM      7  C   UNL     1     -12.363  -8.367  -0.016  1.00  0.00     0.050 A 
ATOM      8  C   UNL     1     -15.038  -8.008  -2.708  1.00  0.00     0.201 C 
ATOM      9  O   UNL     1     -16.109  -8.225  -2.080  1.00  0.00    -0.288 OA
ATOM     10  C   UNL     1     -15.077  -7.758  -4.172  1.00  0.00     0.076 A 
ATOM     11  C   UNL     1     -13.961  -8.152  -4.946  1.00  0.00     0.041 A 
ATOM     12  C   UNL     1     -12.738  -8.655  -4.276  1.00  0.00     0.194 C 
ATOM     13  O   UNL     1     -11.789  -9.125  -4.963  1.00  0.00    -0.289 OA
ATOM     14  C   UNL     1     -14.014  -8.059  -6.347  1.00  0.00     0.059 A 
ATOM     15  C   UNL     1     -15.154  -7.568  -6.982  1.00  0.00     0.120 A 
ATOM     16  C   UNL     1     -16.243  -7.139  -6.220  1.00  0.00     0.093 A 
ATOM     17  C   UNL     1     -16.208  -7.202  -4.824  1.00  0.00     0.131 A 
ENDROOT
BRANCH   6  18
ATOM     18  O   UNL     1     -14.583  -7.513   0.196  1.00  0.00    -0.507 OA
ATOM     19  H   UNL     1     -14.636  -7.684   1.192  1.00  0.00     0.293 HD
ENDBRANCH   6  18
BRANCH  17  20
ATOM     20  O   UNL     1     -17.296  -6.673  -4.127  1.00  0.00    -0.507 OA
ATOM     21  H   UNL     1     -17.814  -7.185  -3.426  1.00  0.00     0.293 HD
ENDBRANCH  17  20
BRANCH  15  22
ATOM     22  O   UNL     1     -15.188  -7.498  -8.373  1.00  0.00    -0.508 OA
ATOM     23  H   UNL     1     -15.045  -8.319  -8.949  1.00  0.00     0.293 HD
ENDBRANCH  15  22
TORSDOF 3
ENDMDL
MODEL 2
REMARK VINA RESULT:    -5.764      1.457      6.224
REMARK INTER + INTRA:          -6.269
REMARK INTER:                  -6.269
REMARK INTRA:                   0.000
REMARK UNBOUND:                 0.000
REMARK SMILES Cc1cc(O)c2c(c1)C(=O)c1cc(O)cc(O)c1C2=O
REMARK SMILES IDX 1 1 2 2 8 3 7 4 6 5 4 6 3 7 19 8 20 9 18 10 11 11 9 12 10 13
REMARK SMILES IDX 12 14 13 15 15 16 16 17 5 18 17 20 14 22
REMARK H PARENT 5 19 17 21 14 23
REMARK Flexibility Score: inf
ROOT
ATOM      1  C   UNL     1     -18.249  -6.183  -4.875  1.00  0.00     0.044 C 
ATOM      2  C   UNL     1     -16.876  -6.759  -4.688  1.00  0.00    -0.047 A 
ATOM      3  C   UNL     1     -16.436  -7.130  -3.413  1.00  0.00     0.016 A 
ATOM      4  C   UNL     1     -15.142  -7.644  -3.224  1.00  0.00     0.038 A 
ATOM      5  C   UNL     1     -14.274  -7.789  -4.329  1.00  0.00     0.076 A 
ATOM      6  C   UNL     1     -14.696  -7.333  -5.604  1.00  0.00     0.127 A 
ATOM      7  C   UNL     1     -15.995  -6.843  -5.772  1.00  0.00     0.050 A 
ATOM      8  C   UNL     1     -12.972  -8.472  -4.115  1.00  0.00     0.201 C 
ATOM      9  O   UNL     1     -12.444  -9.122  -5.056  1.00  0.00    -0.288 OA
ATOM     10  C   UNL     1     -12.392  -8.543  -2.749  1.00  0.00     0.076 A 
ATOM     11  C   UNL     1     -13.262  -8.395  -1.645  1.00  0.00     0.041 A 
ATOM     12  C   UNL     1     -14.681  -8.028  -1.868  1.00  0.00     0.194 C 
ATOM     13  O   UNL     1     -15.490  -8.018  -0.900  1.00  0.00    -0.289 OA
ATOM     14  C   UNL     1     -12.778  -8.593  -0.341  1.00  0.00     0.059 A 
ATOM     15  C   UNL     1     -11.440  -8.919  -0.125  1.00  0.00     0.120 A 
ATOM     16  C   UNL     1     -10.566  -9.026  -1.209  1.00  0.00     0.093 A 
ATOM     17  C   UNL     1     -11.018  -8.815  -2.515  1.00  0.00     0.131 A 
ENDROOT
BRANCH   6  18
ATOM     18  O   UNL     1     -13.852  -7.312  -6.716  1.00  0.00    -0.507 OA
ATOM     19  H   UNL     1     -14.185  -7.337  -7.671  1.00  0.00     0.293 HD
ENDBRANCH   6  18
BRANCH  17  20
ATOM     20  O   UNL     1     -10.070  -8.850  -3.539  1.00  0.00    -0.507 OA
ATOM     21  H   UNL     1     -10.306  -8.800  -4.521  1.00  0.00     0.293 HD
ENDBRANCH  17  20
BRANCH  15  22
ATOM     22  O   UNL     1     -10.985  -9.124   1.177  1.00  0.00    -0.508 OA
ATOM     23  H   UNL     1     -10.035  -8.899   1.448  1.00  0.00     0.293 HD
ENDBRANCH  15  22
TORSDOF 3
ENDMDL
MODEL 3
REMARK VINA RESULT:    -5.400      1.679      2.181
REMARK INTER + INTRA:          -5.874
REMARK INTER:                  -5.874
REMARK INTRA:                   0.000
REMARK UNBOUND:                 0.000
REMARK SMILES Cc1cc(O)c2c(c1)C(=O)c1cc(O)cc(O)c1C2=O
REMARK SMILES IDX 1 1 2 2 8 3 7 4 6 5 4 6 3 7 19 8 20 9 18 10 11 11 9 12 10 13
REMARK SMILES IDX 12 14 13 15 15 16 16 17 5 18 17 20 14 22
REMARK H PARENT 5 19 17 21 14 23
REMARK Flexibility Score: inf
ROOT
ATOM      1  C   UNL     1     -10.148  -9.125  -0.677  1.00  0.00     0.044 C 
ATOM      2  C   UNL     1     -11.629  -8.909  -0.772  1.00  0.00    -0.047 A 
ATOM      3  C   UNL     1     -12.233  -8.705  -2.017  1.00  0.00     0.016 A 
ATOM      4  C   UNL     1     -13.615  -8.474  -2.113  1.00  0.00     0.038 A 
ATOM      5  C   UNL     1     -14.407  -8.443  -0.943  1.00  0.00     0.076 A 
ATOM      6  C   UNL     1     -13.776  -8.565   0.321  1.00  0.00     0.127 A 
ATOM      7  C   UNL     1     -12.402  -8.815   0.392  1.00  0.00     0.050 A 
ATOM      8  C   UNL     1     -15.882  -8.344  -1.095  1.00  0.00     0.201 C 
ATOM      9  O   UNL     1     -16.636  -8.864  -0.231  1.00  0.00    -0.288 OA
ATOM     10  C   UNL     1     -16.460  -7.800  -2.350  1.00  0.00     0.076 A 
ATOM     11  C   UNL     1     -15.665  -7.829  -3.519  1.00  0.00     0.041 A 
ATOM     12  C   UNL     1     -14.246  -8.253  -3.437  1.00  0.00     0.194 C 
ATOM     13  O   UNL     1     -13.569  -8.402  -4.491  1.00  0.00    -0.289 OA
ATOM     14  C   UNL     1     -16.221  -7.452  -4.753  1.00  0.00     0.059 A 
ATOM     15  C   UNL     1     -17.548  -7.034  -4.833  1.00  0.00     0.120 A 
ATOM     16  C   UNL     1     -18.326  -6.964  -3.676  1.00  0.00     0.093 A 
ATOM     17  C   UNL     1     -17.791  -7.315  -2.433  1.00  0.00     0.131 A 
ENDROOT
BRANCH   6  18
ATOM     18  O   UNL     1     -14.464  -8.407   1.527  1.00  0.00    -0.507 OA
ATOM     19  H   UNL     1     -15.463  -8.267   1.586  1.00  0.00     0.293 HD
ENDBRANCH   6  18
BRANCH  17  20
ATOM     20  O   UNL     1     -18.599  -7.133  -1.308  1.00  0.00    -0.507 OA
ATOM     21  H   UNL     1     -18.255  -6.789  -0.422  1.00  0.00     0.293 HD
ENDBRANCH  17  20
BRANCH  15  22
ATOM     22  O   UNL     1     -18.082  -6.678  -6.070  1.00  0.00    -0.508 OA
ATOM     23  H   UNL     1     -18.504  -7.365  -6.684  1.00  0.00     0.293 HD
ENDBRANCH  15  22
TORSDOF 3
ENDMDL
MODEL 4
REMARK VINA RESULT:    -5.314      1.449      3.356
REMARK INTER + INTRA:          -5.780
REMARK INTER:                  -5.780
REMARK INTRA:                   0.000
REMARK UNBOUND:                 0.000
REMARK SMILES Cc1cc(O)c2c(c1)C(=O)c1cc(O)cc(O)c1C2=O
REMARK SMILES IDX 1 1 2 2 8 3 7 4 6 5 4 6 3 7 19 8 20 9 18 10 11 11 9 12 10 13
REMARK SMILES IDX 12 14 13 15 15 16 16 17 5 18 17 20 14 22
REMARK H PARENT 5 19 17 21 14 23
REMARK Flexibility Score: inf
ROOT
ATOM      1  C   UNL     1     -11.922  -8.755   0.780  1.00  0.00     0.044 C 
ATOM      2  C   UNL     1     -12.341  -8.679  -0.659  1.00  0.00    -0.047 A 
ATOM      3  C   UNL     1     -13.691  -8.531  -0.993  1.00  0.00     0.016 A 
ATOM      4  C   UNL     1     -14.096  -8.488  -2.337  1.00  0.00     0.038 A 
ATOM      5  C   UNL     1     -13.133  -8.596  -3.366  1.00  0.00     0.076 A 
ATOM      6  C   UNL     1     -11.778  -8.831  -3.021  1.00  0.00     0.127 A 
ATOM      7  C   UNL     1     -11.395  -8.849  -1.677  1.00  0.00     0.050 A 
ATOM      8  C   UNL     1     -13.579  -8.396  -4.769  1.00  0.00     0.201 C 
ATOM      9  O   UNL     1     -12.780  -7.922  -5.619  1.00  0.00    -0.288 OA
ATOM     10  C   UNL     1     -15.010  -8.580  -5.122  1.00  0.00     0.076 A 
ATOM     11  C   UNL     1     -15.971  -8.475  -4.090  1.00  0.00     0.041 A 
ATOM     12  C   UNL     1     -15.530  -8.337  -2.681  1.00  0.00     0.194 C 
ATOM     13  O   UNL     1     -16.378  -8.116  -1.773  1.00  0.00    -0.289 OA
ATOM     14  C   UNL     1     -17.341  -8.505  -4.404  1.00  0.00     0.059 A 
ATOM     15  C   UNL     1     -17.761  -8.655  -5.725  1.00  0.00     0.120 A 
ATOM     16  C   UNL     1     -16.817  -8.801  -6.743  1.00  0.00     0.093 A 
ATOM     17  C   UNL     1     -15.449  -8.794  -6.455  1.00  0.00     0.131 A 
ENDROOT
BRANCH   6  18
ATOM     18  O   UNL     1     -10.790  -9.086  -3.975  1.00  0.00    -0.507 OA
ATOM     19  H   UNL     1     -10.990  -9.375  -4.923  1.00  0.00     0.293 HD
ENDBRANCH   6  18
BRANCH  17  20
ATOM     20  O   UNL     1     -14.566  -9.035  -7.510  1.00  0.00    -0.507 OA
ATOM     21  H   UNL     1     -13.588  -8.782  -7.490  1.00  0.00     0.293 HD
ENDBRANCH  17  20
BRANCH  15  22
ATOM     22  O   UNL     1     -19.125  -8.669  -6.014  1.00  0.00    -0.508 OA
ATOM     23  H   UNL     1     -19.466  -8.831  -6.954  1.00  0.00     0.293 HD
ENDBRANCH  15  22
TORSDOF 3
ENDMDL
MODEL 5
REMARK VINA RESULT:    -5.276      1.254      1.494
REMARK INTER + INTRA:          -5.739
REMARK INTER:                  -5.739
REMARK INTRA:                   0.000
REMARK UNBOUND:                 0.000
REMARK SMILES Cc1cc(O)c2c(c1)C(=O)c1cc(O)cc(O)c1C2=O
REMARK SMILES IDX 1 1 2 2 8 3 7 4 6 5 4 6 3 7 19 8 20 9 18 10 11 11 9 12 10 13
REMARK SMILES IDX 12 14 13 15 15 16 16 17 5 18 17 20 14 22
REMARK H PARENT 5 19 17 21 14 23
REMARK Flexibility Score: inf
ROOT
ATOM      1  C   UNL     1     -12.011  -8.771   0.589  1.00  0.00     0.044 C 
ATOM      2  C   UNL     1     -13.125  -8.701  -0.414  1.00  0.00    -0.047 A 
ATOM      3  C   UNL     1     -12.837  -8.591  -1.779  1.00  0.00     0.016 A 
ATOM      4  C   UNL     1     -13.872  -8.496  -2.724  1.00  0.00     0.038 A 
ATOM      5  C   UNL     1     -15.218  -8.509  -2.296  1.00  0.00     0.076 A 
ATOM      6  C   UNL     1     -15.502  -8.535  -0.907  1.00  0.00     0.127 A 
ATOM      7  C   UNL     1     -14.456  -8.650   0.014  1.00  0.00     0.050 A 
ATOM      8  C   UNL     1     -16.284  -8.558  -3.331  1.00  0.00     0.201 C 
ATOM      9  O   UNL     1     -17.379  -9.123  -3.075  1.00  0.00    -0.288 OA
ATOM     10  C   UNL     1     -15.989  -8.106  -4.715  1.00  0.00     0.076 A 
ATOM     11  C   UNL     1     -14.641  -8.091  -5.140  1.00  0.00     0.041 A 
ATOM     12  C   UNL     1     -13.557  -8.374  -4.168  1.00  0.00     0.194 C 
ATOM     13  O   UNL     1     -12.365  -8.486  -4.566  1.00  0.00    -0.289 OA
ATOM     14  C   UNL     1     -14.332  -7.804  -6.480  1.00  0.00     0.059 A 
ATOM     15  C   UNL     1     -15.346  -7.518  -7.394  1.00  0.00     0.120 A 
ATOM     16  C   UNL     1     -16.676  -7.491  -6.971  1.00  0.00     0.093 A 
ATOM     17  C   UNL     1     -17.008  -7.754  -5.638  1.00  0.00     0.131 A 
ENDROOT
BRANCH   6  18
ATOM     18  O   UNL     1     -16.796  -8.411  -0.398  1.00  0.00    -0.507 OA
ATOM     19  H   UNL     1     -17.454  -9.178  -0.352  1.00  0.00     0.293 HD
ENDBRANCH   6  18
BRANCH  17  20
ATOM     20  O   UNL     1     -18.348  -7.620  -5.269  1.00  0.00    -0.507 OA
ATOM     21  H   UNL     1     -19.101  -8.138  -5.700  1.00  0.00     0.293 HD
ENDBRANCH  17  20
BRANCH  15  22
ATOM     22  O   UNL     1     -15.017  -7.249  -8.722  1.00  0.00    -0.508 OA
ATOM     23  H   UNL     1     -14.980  -6.301  -9.077  1.00  0.00     0.293 HD
ENDBRANCH  15  22
TORSDOF 3
ENDMDL
MODEL 6
REMARK VINA RESULT:    -5.275      1.816      5.693
REMARK INTER + INTRA:          -5.738
REMARK INTER:                  -5.738
REMARK INTRA:                   0.000
REMARK UNBOUND:                 0.000
REMARK SMILES Cc1cc(O)c2c(c1)C(=O)c1cc(O)cc(O)c1C2=O
REMARK SMILES IDX 1 1 2 2 8 3 7 4 6 5 4 6 3 7 19 8 20 9 18 10 11 11 9 12 10 13
REMARK SMILES IDX 12 14 13 15 15 16 16 17 5 18 17 20 14 22
REMARK H PARENT 5 19 17 21 14 23
REMARK Flexibility Score: inf
ROOT
ATOM      1  C   UNL     1     -15.689  -9.125  -9.236  1.00  0.00     0.044 C 
ATOM      2  C   UNL     1     -15.823  -8.482  -7.887  1.00  0.00    -0.047 A 
ATOM      3  C   UNL     1     -14.846  -8.689  -6.907  1.00  0.00     0.016 A 
ATOM      4  C   UNL     1     -14.977  -8.114  -5.632  1.00  0.00     0.038 A 
ATOM      5  C   UNL     1     -16.106  -7.319  -5.331  1.00  0.00     0.076 A 
ATOM      6  C   UNL     1     -17.133  -7.183  -6.300  1.00  0.00     0.127 A 
ATOM      7  C   UNL     1     -16.971  -7.747  -7.569  1.00  0.00     0.050 A 
ATOM      8  C   UNL     1     -16.138  -6.608  -4.027  1.00  0.00     0.201 C 
ATOM      9  O   UNL     1     -16.750  -5.512  -3.926  1.00  0.00    -0.288 OA
ATOM     10  C   UNL     1     -15.298  -7.094  -2.902  1.00  0.00     0.076 A 
ATOM     11  C   UNL     1     -14.171  -7.891  -3.205  1.00  0.00     0.041 A 
ATOM     12  C   UNL     1     -13.941  -8.345  -4.598  1.00  0.00     0.194 C 
ATOM     13  O   UNL     1     -12.874  -8.948  -4.896  1.00  0.00    -0.289 OA
ATOM     14  C   UNL     1     -13.276  -8.254  -2.184  1.00  0.00     0.059 A 
ATOM     15  C   UNL     1     -13.498  -7.847  -0.870  1.00  0.00     0.120 A 
ATOM     16  C   UNL     1     -14.632  -7.094  -0.557  1.00  0.00     0.093 A 
ATOM     17  C   UNL     1     -15.548  -6.736  -1.551  1.00  0.00     0.131 A 
ENDROOT
BRANCH   6  18
ATOM     18  O   UNL     1     -18.340  -6.532  -6.035  1.00  0.00    -0.507 OA
ATOM     19  H   UNL     1     -18.747  -6.465  -5.111  1.00  0.00     0.293 HD
ENDBRANCH   6  18
BRANCH  17  20
ATOM     20  O   UNL     1     -16.703  -6.061  -1.150  1.00  0.00    -0.507 OA
ATOM     21  H   UNL     1     -16.705  -5.309  -0.474  1.00  0.00     0.293 HD
ENDBRANCH  17  20
BRANCH  15  22
ATOM     22  O   UNL     1     -12.590  -8.208   0.124  1.00  0.00    -0.508 OA
ATOM     23  H   UNL     1     -12.420  -7.617   0.929  1.00  0.00     0.293 HD
ENDBRANCH  15  22
TORSDOF 3
ENDMDL
MODEL 7
REMARK VINA RESULT:    -5.029      2.761      4.230
REMARK INTER + INTRA:          -5.470
REMARK INTER:                  -5.470
REMARK INTRA:                   0.000
REMARK UNBOUND:                 0.000
REMARK SMILES Cc1cc(O)c2c(c1)C(=O)c1cc(O)cc(O)c1C2=O
REMARK SMILES IDX 1 1 2 2 8 3 7 4 6 5 4 6 3 7 19 8 20 9 18 10 11 11 9 12 10 13
REMARK SMILES IDX 12 14 13 15 15 16 16 17 5 18 17 20 14 22
REMARK H PARENT 5 19 17 21 14 23
REMARK Flexibility Score: inf
ROOT
ATOM      1  C   UNL     1     -17.947  -9.123   0.484  1.00  0.00     0.044 C 
ATOM      2  C   UNL     1     -17.273  -8.600  -0.750  1.00  0.00    -0.047 A 
ATOM      3  C   UNL     1     -17.896  -8.720  -1.997  1.00  0.00     0.016 A 
ATOM      4  C   UNL     1     -17.260  -8.260  -3.162  1.00  0.00     0.038 A 
ATOM      5  C   UNL     1     -15.979  -7.670  -3.078  1.00  0.00     0.076 A 
ATOM      6  C   UNL     1     -15.318  -7.628  -1.824  1.00  0.00     0.127 A 
ATOM      7  C   UNL     1     -15.979  -8.074  -0.675  1.00  0.00     0.050 A 
ATOM      8  C   UNL     1     -15.404  -7.061  -4.305  1.00  0.00     0.201 C 
ATOM      9  O   UNL     1     -14.618  -6.081  -4.209  1.00  0.00    -0.288 OA
ATOM     10  C   UNL     1     -15.898  -7.486  -5.640  1.00  0.00     0.076 A 
ATOM     11  C   UNL     1     -17.178  -8.078  -5.721  1.00  0.00     0.041 A 
ATOM     12  C   UNL     1     -17.924  -8.397  -4.480  1.00  0.00     0.194 C 
ATOM     13  O   UNL     1     -19.116  -8.807  -4.547  1.00  0.00    -0.289 OA
ATOM     14  C   UNL     1     -17.738  -8.367  -6.978  1.00  0.00     0.059 A 
ATOM     15  C   UNL     1     -17.032  -8.088  -8.147  1.00  0.00     0.120 A 
ATOM     16  C   UNL     1     -15.750  -7.541  -8.072  1.00  0.00     0.093 A 
ATOM     17  C   UNL     1     -15.163  -7.262  -6.835  1.00  0.00     0.131 A 
ENDROOT
BRANCH   6  18
ATOM     18  O   UNL     1     -14.000  -7.190  -1.678  1.00  0.00    -0.507 OA
ATOM     19  H   UNL     1     -13.194  -7.767  -1.880  1.00  0.00     0.293 HD
ENDBRANCH   6  18
BRANCH  17  20
ATOM     20  O   UNL     1     -13.845  -6.801  -6.835  1.00  0.00    -0.507 OA
ATOM     21  H   UNL     1     -13.050  -7.380  -6.600  1.00  0.00     0.293 HD
ENDBRANCH  17  20
BRANCH  15  22
ATOM     22  O   UNL     1     -17.613  -8.371  -9.383  1.00  0.00    -0.508 OA
ATOM     23  H   UNL     1     -17.812  -7.640 -10.055  1.00  0.00     0.293 HD
ENDBRANCH  15  22
TORSDOF 3
ENDMDL
MODEL 8
REMARK VINA RESULT:    -4.948      1.492      5.606
REMARK INTER + INTRA:          -5.382
REMARK INTER:                  -5.382
REMARK INTRA:                   0.000
REMARK UNBOUND:                 0.000
REMARK SMILES Cc1cc(O)c2c(c1)C(=O)c1cc(O)cc(O)c1C2=O
REMARK SMILES IDX 1 1 2 2 8 3 7 4 6 5 4 6 3 7 19 8 20 9 18 10 11 11 9 12 10 13
REMARK SMILES IDX 12 14 13 15 15 16 16 17 5 18 17 20 14 22
REMARK H PARENT 5 19 17 21 14 23
REMARK Flexibility Score: inf
ROOT
ATOM      1  C   UNL     1     -16.876  -8.185  -8.952  1.00  0.00     0.044 C 
ATOM      2  C   UNL     1     -16.608  -7.993  -7.488  1.00  0.00    -0.047 A 
ATOM      3  C   UNL     1     -15.325  -8.208  -6.973  1.00  0.00     0.016 A 
ATOM      4  C   UNL     1     -15.071  -8.059  -5.599  1.00  0.00     0.038 A 
ATOM      5  C   UNL     1     -16.118  -7.688  -4.726  1.00  0.00     0.076 A 
ATOM      6  C   UNL     1     -17.433  -7.555  -5.241  1.00  0.00     0.127 A 
ATOM      7  C   UNL     1     -17.658  -7.688  -6.615  1.00  0.00     0.050 A 
ATOM      8  C   UNL     1     -15.781  -7.395  -3.309  1.00  0.00     0.201 C 
ATOM      9  O   UNL     1     -16.467  -6.560  -2.662  1.00  0.00    -0.288 OA
ATOM     10  C   UNL     1     -14.532  -7.942  -2.719  1.00  0.00     0.076 A 
ATOM     11  C   UNL     1     -13.487  -8.315  -3.595  1.00  0.00     0.041 A 
ATOM     12  C   UNL     1     -13.710  -8.295  -5.061  1.00  0.00     0.194 C 
ATOM     13  O   UNL     1     -12.747  -8.504  -5.849  1.00  0.00    -0.289 OA
ATOM     14  C   UNL     1     -12.243  -8.706  -3.073  1.00  0.00     0.059 A 
ATOM     15  C   UNL     1     -12.034  -8.746  -1.695  1.00  0.00     0.120 A 
ATOM     16  C   UNL     1     -13.076  -8.419  -0.824  1.00  0.00     0.093 A 
ATOM     17  C   UNL     1     -14.329  -8.045  -1.318  1.00  0.00     0.131 A 
ENDROOT
BRANCH   6  18
ATOM     18  O   UNL     1     -18.544  -7.328  -4.426  1.00  0.00    -0.507 OA
ATOM     19  H   UNL     1     -19.209  -6.582  -4.582  1.00  0.00     0.293 HD
ENDBRANCH   6  18
BRANCH  17  20
ATOM     20  O   UNL     1     -15.347  -7.820  -0.389  1.00  0.00    -0.507 OA
ATOM     21  H   UNL     1     -15.204  -7.352   0.495  1.00  0.00     0.293 HD
ENDBRANCH  17  20
BRANCH  15  22
ATOM     22  O   UNL     1     -10.787  -9.125  -1.200  1.00  0.00    -0.508 OA
ATOM     23  H   UNL     1      -9.929  -8.727  -1.563  1.00  0.00     0.293 HD
ENDBRANCH  15  22
TORSDOF 3
ENDMDL
MODEL 9
REMARK VINA RESULT:    -4.864      1.764      5.320
REMARK INTER + INTRA:          -5.291
REMARK INTER:                  -5.291
REMARK INTRA:                   0.000
REMARK UNBOUND:                 0.000
REMARK SMILES Cc1cc(O)c2c(c1)C(=O)c1cc(O)cc(O)c1C2=O
REMARK SMILES IDX 1 1 2 2 8 3 7 4 6 5 4 6 3 7 19 8 20 9 18 10 11 11 9 12 10 13
REMARK SMILES IDX 12 14 13 15 15 16 16 17 5 18 17 20 14 22
REMARK H PARENT 5 19 17 21 14 23
REMARK Flexibility Score: inf
ROOT
ATOM      1  C   UNL     1     -18.749  -8.623  -5.459  1.00  0.00     0.044 C 
ATOM      2  C   UNL     1     -17.695  -8.470  -4.402  1.00  0.00    -0.047 A 
ATOM      3  C   UNL     1     -16.340  -8.536  -4.744  1.00  0.00     0.016 A 
ATOM      4  C   UNL     1     -15.346  -8.423  -3.757  1.00  0.00     0.038 A 
ATOM      5  C   UNL     1     -15.714  -8.242  -2.405  1.00  0.00     0.076 A 
ATOM      6  C   UNL     1     -17.088  -8.261  -2.055  1.00  0.00     0.127 A 
ATOM      7  C   UNL     1     -18.060  -8.354  -3.056  1.00  0.00     0.050 A 
ATOM      8  C   UNL     1     -14.639  -7.978  -1.414  1.00  0.00     0.201 C 
ATOM      9  O   UNL     1     -14.885  -7.277  -0.397  1.00  0.00    -0.288 OA
ATOM     10  C   UNL     1     -13.242  -8.381  -1.715  1.00  0.00     0.076 A 
ATOM     11  C   UNL     1     -12.877  -8.565  -3.069  1.00  0.00     0.041 A 
ATOM     12  C   UNL     1     -13.913  -8.501  -4.128  1.00  0.00     0.194 C 
ATOM     13  O   UNL     1     -13.576  -8.538  -5.343  1.00  0.00    -0.289 OA
ATOM     14  C   UNL     1     -11.535  -8.811  -3.404  1.00  0.00     0.059 A 
ATOM     15  C   UNL     1     -10.560  -8.891  -2.411  1.00  0.00     0.120 A 
ATOM     16  C   UNL     1     -10.922  -8.752  -1.069  1.00  0.00     0.093 A 
ATOM     17  C   UNL     1     -12.253  -8.526  -0.707  1.00  0.00     0.131 A 
ENDROOT
BRANCH   6  18
ATOM     18  O   UNL     1     -17.531  -8.228  -0.730  1.00  0.00    -0.507 OA
ATOM     19  H   UNL     1     -17.364  -7.451  -0.105  1.00  0.00     0.293 HD
ENDBRANCH   6  18
BRANCH  17  20
ATOM     20  O   UNL     1     -12.553  -8.488   0.656  1.00  0.00    -0.507 OA
ATOM     21  H   UNL     1     -13.115  -9.186   1.124  1.00  0.00     0.293 HD
ENDBRANCH  17  20
BRANCH  15  22
ATOM     22  O   UNL     1      -9.233  -9.123  -2.768  1.00  0.00    -0.508 OA
ATOM     23  H   UNL     1      -8.932 -10.017  -3.139  1.00  0.00     0.293 HD
ENDBRANCH  15  22
TORSDOF 3
ENDMDL
