MODEL 1
REMARK VINA RESULT:    -2.015      0.000      0.000
REMARK INTER + INTRA:          -2.015
REMARK INTER:                  -2.015
REMARK INTRA:                   0.000
REMARK UNBOUND:                 0.000
REMARK SMILES CC(=O)[O-]
REMARK SMILES IDX 1 1 2 2 3 3 4 4
REMARK H PARENT
REMARK Flexibility Score: inf
ROOT
ATOM      1  C   UNL     1     -17.296 -19.056  12.475  1.00  0.00     0.063 C 
ATOM      2  C   UNL     1     -17.099 -19.989  13.621  1.00  0.00     0.038 C 
ATOM      3  O   UNL     1     -17.187 -21.232  13.446  1.00  0.00    -0.550 OA
ATOM      4  O   UNL     1     -16.764 -19.492  14.874  1.00  0.00    -0.550 OA
ENDROOT
TORSDOF 0
ENDMDL
MODEL 2
REMARK VINA RESULT:    -1.985     13.247     13.670
REMARK INTER + INTRA:          -1.985
REMARK INTER:                  -1.985
REMARK INTRA:                   0.000
REMARK UNBOUND:                 0.000
REMARK SMILES CC(=O)[O-]
REMARK SMILES IDX 1 1 2 2 3 3 4 4
REMARK H PARENT
REMARK Flexibility Score: inf
ROOT
ATOM      1  C   UNL     1     -19.647  -8.081   5.852  1.00  0.00     0.063 C 
ATOM      2  C   UNL     1     -20.488  -8.677   6.929  1.00  0.00     0.038 C 
ATOM      3  O   UNL     1     -20.094  -8.656   8.124  1.00  0.00    -0.550 OA
ATOM      4  O   UNL     1     -21.734  -9.210   6.624  1.00  0.00    -0.550 OA
ENDROOT
TORSDOF 0
ENDMDL
MODEL 3
REMARK VINA RESULT:    -1.973      2.238      2.402
REMARK INTER + INTRA:          -1.973
REMARK INTER:                  -1.973
REMARK INTRA:                   0.000
REMARK UNBOUND:                 0.000
REMARK SMILES CC(=O)[O-]
REMARK SMILES IDX 1 1 2 2 3 3 4 4
REMARK H PARENT
REMARK Flexibility Score: inf
ROOT
ATOM      1  C   UNL     1     -17.016 -19.860  14.120  1.00  0.00     0.063 C 
ATOM      2  C   UNL     1     -16.032 -18.810  14.508  1.00  0.00     0.038 C 
ATOM      3  O   UNL     1     -15.754 -17.878  13.708  1.00  0.00    -0.550 OA
ATOM      4  O   UNL     1     -15.461 -18.824  15.774  1.00  0.00    -0.550 OA
ENDROOT
TORSDOF 0
ENDMDL
MODEL 4
REMARK VINA RESULT:    -1.960     13.155     13.614
REMARK INTER + INTRA:          -1.960
REMARK INTER:                  -1.960
REMARK INTRA:                   0.000
REMARK UNBOUND:                 0.000
REMARK SMILES CC(=O)[O-]
REMARK SMILES IDX 1 1 2 2 3 3 4 4
REMARK H PARENT
REMARK Flexibility Score: inf
ROOT
ATOM      1  C   UNL     1     -21.625  -9.353   6.618  1.00  0.00     0.063 C 
ATOM      2  C   UNL     1     -20.376  -8.643   7.015  1.00  0.00     0.038 C 
ATOM      3  O   UNL     1     -19.952  -8.723   8.198  1.00  0.00    -0.550 OA
ATOM      4  O   UNL     1     -19.646  -7.936   6.068  1.00  0.00    -0.550 OA
ENDROOT
TORSDOF 0
ENDMDL
MODEL 5
REMARK VINA RESULT:    -1.959      1.314      1.883
REMARK INTER + INTRA:          -1.959
REMARK INTER:                  -1.959
REMARK INTRA:                   0.000
REMARK UNBOUND:                 0.000
REMARK SMILES CC(=O)[O-]
REMARK SMILES IDX 1 1 2 2 3 3 4 4
REMARK H PARENT
REMARK Flexibility Score: inf
ROOT
ATOM      1  C   UNL     1     -17.078 -21.350  13.097  1.00  0.00     0.063 C 
ATOM      2  C   UNL     1     -17.032 -19.981  13.685  1.00  0.00     0.038 C 
ATOM      3  O   UNL     1     -17.246 -19.812  14.914  1.00  0.00    -0.550 OA
ATOM      4  O   UNL     1     -16.698 -18.892  12.889  1.00  0.00    -0.550 OA
ENDROOT
TORSDOF 0
ENDMDL
MODEL 6
REMARK VINA RESULT:    -1.959      1.413      2.006
REMARK INTER + INTRA:          -1.959
REMARK INTER:                  -1.959
REMARK INTRA:                   0.000
REMARK UNBOUND:                 0.000
REMARK SMILES CC(=O)[O-]
REMARK SMILES IDX 1 1 2 2 3 3 4 4
REMARK H PARENT
REMARK Flexibility Score: inf
ROOT
ATOM      1  C   UNL     1     -16.243 -19.141  14.655  1.00  0.00     0.063 C 
ATOM      2  C   UNL     1     -17.021 -19.781  13.556  1.00  0.00     0.038 C 
ATOM      3  O   UNL     1     -17.492 -19.080  12.622  1.00  0.00    -0.550 OA
ATOM      4  O   UNL     1     -17.183 -21.161  13.530  1.00  0.00    -0.550 OA
ENDROOT
TORSDOF 0
ENDMDL
MODEL 7
REMARK VINA RESULT:    -1.955      2.010      2.653
REMARK INTER + INTRA:          -1.955
REMARK INTER:                  -1.955
REMARK INTRA:                   0.000
REMARK UNBOUND:                 0.000
REMARK SMILES CC(=O)[O-]
REMARK SMILES IDX 1 1 2 2 3 3 4 4
REMARK H PARENT
REMARK Flexibility Score: inf
ROOT
ATOM      1  C   UNL     1     -15.501 -17.622  13.944  1.00  0.00     0.063 C 
ATOM      2  C   UNL     1     -15.865 -18.726  14.877  1.00  0.00     0.038 C 
ATOM      3  O   UNL     1     -15.295 -18.824  15.995  1.00  0.00    -0.550 OA
ATOM      4  O   UNL     1     -16.873 -19.620  14.538  1.00  0.00    -0.550 OA
ENDROOT
TORSDOF 0
ENDMDL
MODEL 8
REMARK VINA RESULT:    -1.873     16.118     16.476
REMARK INTER + INTRA:          -1.873
REMARK INTER:                  -1.873
REMARK INTRA:                   0.000
REMARK UNBOUND:                 0.000
REMARK SMILES CC(=O)[O-]
REMARK SMILES IDX 1 1 2 2 3 3 4 4
REMARK H PARENT
REMARK Flexibility Score: inf
ROOT
ATOM      1  C   UNL     1     -19.893  -9.341   0.611  1.00  0.00     0.063 C 
ATOM      2  C   UNL     1     -20.818 -10.509   0.659  1.00  0.00     0.038 C 
ATOM      3  O   UNL     1     -20.797 -11.370  -0.259  1.00  0.00    -0.550 OA
ATOM      4  O   UNL     1     -21.667 -10.681   1.745  1.00  0.00    -0.550 OA
ENDROOT
TORSDOF 0
ENDMDL
MODEL 9
REMARK VINA RESULT:    -1.705      5.754      6.209
REMARK INTER + INTRA:          -1.705
REMARK INTER:                  -1.705
REMARK INTRA:                   0.000
REMARK UNBOUND:                 0.000
REMARK SMILES CC(=O)[O-]
REMARK SMILES IDX 1 1 2 2 3 3 4 4
REMARK H PARENT
REMARK Flexibility Score: inf
ROOT
ATOM      1  C   UNL     1     -11.022 -18.405  16.765  1.00  0.00     0.063 C 
ATOM      2  C   UNL     1     -11.887 -19.563  16.400  1.00  0.00     0.038 C 
ATOM      3  O   UNL     1     -13.141 -19.453  16.437  1.00  0.00    -0.550 OA
ATOM      4  O   UNL     1     -11.313 -20.751  15.964  1.00  0.00    -0.550 OA
ENDROOT
TORSDOF 0
ENDMDL
