MODEL 1
REMARK VINA RESULT:    -3.866      0.000      0.000
REMARK INTER + INTRA:          -5.211
REMARK INTER:                  -5.448
REMARK INTRA:                   0.238
REMARK UNBOUND:                 0.238
REMARK SMILES CC1=CCC(=C(C)C)C(=O)CC(C)=CCC1
REMARK SMILES IDX 12 1 14 2 13 3 15 4 16 5 2 6 1 7 3 8 11 10 9 11 10 12 5 13
REMARK SMILES IDX 6 14 7 15 8 16 4 17
REMARK H PARENT
REMARK Flexibility Score: 60.00
ROOT
ATOM      1  C   UNL     1      13.977  20.540  59.163  1.00  0.00    -0.070 C 
ATOM      2  C   UNL     1      14.947  19.750  58.647  1.00  0.00    -0.027 C 
ATOM      3  C   UNL     1      14.251  21.237  60.471  1.00  0.00     0.039 C 
ENDROOT
BRANCH   2   4
ATOM      4  C   UNL     1      14.822  18.931  57.382  1.00  0.00     0.032 C 
BRANCH   4   5
ATOM      5  C   UNL     1      15.233  19.738  56.141  1.00  0.00     0.034 C 
BRANCH   5   6
ATOM      6  C   UNL     1      14.245  19.627  54.989  1.00  0.00    -0.077 C 
ATOM      7  C   UNL     1      14.153  18.325  54.231  1.00  0.00     0.039 C 
ATOM      8  C   UNL     1      13.450  20.646  54.589  1.00  0.00    -0.023 CG0
ATOM      9  G   UNL     1      13.349  21.995  55.262  1.00  0.00     0.000 G0
ENDBRANCH   5   6
ENDBRANCH   4   5
ENDBRANCH   2   4
BRANCH   1  10
ATOM     10  C   UNL     1      12.638  20.754  58.484  1.00  0.00     0.111 C 
BRANCH  10  11
ATOM     11  C   UNL     1      12.614  22.055  57.731  1.00  0.00     0.163 C 
ATOM     12  O   UNL     1      12.902  23.123  58.335  1.00  0.00    -0.294 OA
BRANCH  11  13
ATOM     13  C   UNL     1      12.235  22.109  56.296  1.00  0.00    -0.002 C 
ATOM     14  C   UNL     1      10.930  22.250  55.935  1.00  0.00    -0.069 C 
ATOM     15  C   UNL     1      10.531  22.359  54.482  1.00  0.00     0.039 C 
ATOM     16  C   UNL     1       9.828  22.259  56.971  1.00  0.00     0.039 C 
BRANCH  13  17
ATOM     17  C   UNL     1      13.326  22.004  55.236  1.00  0.00     0.066 CG0
ATOM     18  G   UNL     1      13.429  20.636  54.603  1.00  0.00     0.000 G0
ENDBRANCH  13  17
ENDBRANCH  11  13
ENDBRANCH  10  11
ENDBRANCH   1  10
TORSDOF 0
ENDMDL
MODEL 2
REMARK VINA RESULT:    -3.828      1.908      3.715
REMARK INTER + INTRA:          -5.157
REMARK INTER:                  -5.590
REMARK INTRA:                   0.433
REMARK UNBOUND:                 0.238
REMARK SMILES CC1=CCC(=C(C)C)C(=O)CC(C)=CCC1
REMARK SMILES IDX 12 1 14 2 13 3 15 4 16 5 2 6 1 7 3 8 11 10 9 11 10 12 5 13
REMARK SMILES IDX 6 14 7 15 8 16 4 17
REMARK H PARENT
REMARK Flexibility Score: 60.00
ROOT
ATOM      1  C   UNL     1      15.457  21.010  56.875  1.00  0.00    -0.070 C 
ATOM      2  C   UNL     1      15.504  20.311  58.033  1.00  0.00    -0.027 C 
ATOM      3  C   UNL     1      16.709  21.716  56.422  1.00  0.00     0.039 C 
ENDROOT
BRANCH   2   4
ATOM      4  C   UNL     1      14.332  19.595  58.667  1.00  0.00     0.032 C 
BRANCH   4   5
ATOM      5  C   UNL     1      13.967  20.203  60.029  1.00  0.00     0.034 C 
BRANCH   5   6
ATOM      6  C   UNL     1      13.900  21.723  60.018  1.00  0.00    -0.077 C 
ATOM      7  C   UNL     1      14.930  22.503  60.799  1.00  0.00     0.039 C 
ATOM      8  C   UNL     1      12.949  22.422  59.356  1.00  0.00    -0.023 CG0
ATOM      9  G   UNL     1      11.882  21.826  58.469  1.00  0.00     0.000 G0
ENDBRANCH   5   6
ENDBRANCH   4   5
ENDBRANCH   2   4
BRANCH   1  10
ATOM     10  C   UNL     1      14.209  21.109  56.021  1.00  0.00     0.111 C 
BRANCH  10  11
ATOM     11  C   UNL     1      13.392  22.315  56.392  1.00  0.00     0.163 C 
ATOM     12  O   UNL     1      13.879  23.465  56.227  1.00  0.00    -0.294 OA
BRANCH  11  13
ATOM     13  C   UNL     1      12.031  22.176  56.972  1.00  0.00    -0.002 C 
ATOM     14  C   UNL     1      10.931  22.360  56.192  1.00  0.00    -0.069 C 
ATOM     15  C   UNL     1       9.539  22.173  56.750  1.00  0.00     0.039 C 
ATOM     16  C   UNL     1      11.058  22.801  54.750  1.00  0.00     0.039 C 
BRANCH  13  17
ATOM     17  C   UNL     1      11.885  21.827  58.448  1.00  0.00     0.066 CG0
ATOM     18  G   UNL     1      12.953  22.437  59.326  1.00  0.00     0.000 G0
ENDBRANCH  13  17
ENDBRANCH  11  13
ENDBRANCH  10  11
ENDBRANCH   1  10
TORSDOF 0
ENDMDL
MODEL 3
REMARK VINA RESULT:    -3.803      1.529      4.042
REMARK INTER + INTRA:          -5.122
REMARK INTER:                  -5.687
REMARK INTRA:                   0.565
REMARK UNBOUND:                 0.238
REMARK SMILES CC1=CCC(=C(C)C)C(=O)CC(C)=CCC1
REMARK SMILES IDX 12 1 14 2 13 3 15 4 16 5 2 6 1 7 3 8 11 10 9 11 10 12 5 13
REMARK SMILES IDX 6 14 7 15 8 16 4 17
REMARK H PARENT
REMARK Flexibility Score: 60.00
ROOT
ATOM      1  C   UNL     1      13.780  21.754  59.639  1.00  0.00    -0.070 C 
ATOM      2  C   UNL     1      12.652  22.243  59.075  1.00  0.00    -0.027 C 
ATOM      3  C   UNL     1      14.502  22.614  60.644  1.00  0.00     0.039 C 
ENDROOT
BRANCH   2   4
ATOM      4  C   UNL     1      11.838  21.546  58.008  1.00  0.00     0.032 C 
BRANCH   4   5
ATOM      5  C   UNL     1      11.693  22.414  56.749  1.00  0.00     0.034 C 
BRANCH   5   6
ATOM      6  C   UNL     1      13.021  22.735  56.076  1.00  0.00    -0.077 C 
ATOM      7  C   UNL     1      13.376  24.178  55.818  1.00  0.00     0.039 C 
ATOM      8  C   UNL     1      13.900  21.788  55.675  1.00  0.00    -0.023 CG0
ATOM      9  G   UNL     1      13.754  20.302  55.906  1.00  0.00     0.000 G0
ENDBRANCH   5   6
ENDBRANCH   4   5
ENDBRANCH   2   4
BRANCH   1  10
ATOM     10  C   UNL     1      14.343  20.386  59.306  1.00  0.00     0.111 C 
BRANCH  10  11
ATOM     11  C   UNL     1      15.191  20.436  58.066  1.00  0.00     0.163 C 
ATOM     12  O   UNL     1      16.242  21.132  58.064  1.00  0.00    -0.294 OA
BRANCH  11  13
ATOM     13  C   UNL     1      14.803  19.700  56.835  1.00  0.00    -0.002 C 
ATOM     14  C   UNL     1      15.384  18.506  56.538  1.00  0.00    -0.069 C 
ATOM     15  C   UNL     1      14.966  17.717  55.318  1.00  0.00     0.039 C 
ATOM     16  C   UNL     1      16.500  17.944  57.391  1.00  0.00     0.039 C 
BRANCH  13  17
ATOM     17  C   UNL     1      13.748  20.301  55.913  1.00  0.00     0.066 CG0
ATOM     18  G   UNL     1      13.903  21.788  55.700  1.00  0.00     0.000 G0
ENDBRANCH  13  17
ENDBRANCH  11  13
ENDBRANCH  10  11
ENDBRANCH   1  10
TORSDOF 0
ENDMDL
MODEL 4
REMARK VINA RESULT:    -3.796      2.437      4.419
REMARK INTER + INTRA:          -5.112
REMARK INTER:                  -5.446
REMARK INTRA:                   0.334
REMARK UNBOUND:                 0.238
REMARK SMILES CC1=CCC(=C(C)C)C(=O)CC(C)=CCC1
REMARK SMILES IDX 12 1 14 2 13 3 15 4 16 5 2 6 1 7 3 8 11 10 9 11 10 12 5 13
REMARK SMILES IDX 6 14 7 15 8 16 4 17
REMARK H PARENT
REMARK Flexibility Score: 60.00
ROOT
ATOM      1  C   UNL     1      16.529  22.721  59.717  1.00  0.00    -0.070 C 
ATOM      2  C   UNL     1      15.675  22.715  60.766  1.00  0.00    -0.027 C 
ATOM      3  C   UNL     1      18.008  22.744  60.007  1.00  0.00     0.039 C 
ENDROOT
BRANCH   2   4
ATOM      4  C   UNL     1      14.166  22.754  60.662  1.00  0.00     0.032 C 
BRANCH   4   5
ATOM      5  C   UNL     1      13.594  21.396  60.227  1.00  0.00     0.034 C 
BRANCH   5   6
ATOM      6  C   UNL     1      12.639  21.489  59.045  1.00  0.00    -0.077 C 
ATOM      7  C   UNL     1      11.410  22.356  59.168  1.00  0.00     0.039 C 
ATOM      8  C   UNL     1      12.823  20.817  57.886  1.00  0.00    -0.023 CG0
ATOM      9  G   UNL     1      14.021  19.959  57.550  1.00  0.00     0.000 G0
ENDBRANCH   5   6
ENDBRANCH   4   5
ENDBRANCH   2   4
BRANCH   1  10
ATOM     10  C   UNL     1      16.064  22.702  58.274  1.00  0.00     0.111 C 
BRANCH  10  11
ATOM     11  C   UNL     1      16.223  21.334  57.672  1.00  0.00     0.163 C 
ATOM     12  O   UNL     1      17.295  20.697  57.857  1.00  0.00    -0.294 OA
BRANCH  11  13
ATOM     13  C   UNL     1      15.150  20.727  56.842  1.00  0.00    -0.002 C 
ATOM     14  C   UNL     1      15.170  20.862  55.488  1.00  0.00    -0.069 C 
ATOM     15  C   UNL     1      14.117  20.208  54.623  1.00  0.00     0.039 C 
ATOM     16  C   UNL     1      16.220  21.706  54.801  1.00  0.00     0.039 C 
BRANCH  13  17
ATOM     17  C   UNL     1      14.030  19.954  57.528  1.00  0.00     0.066 CG0
ATOM     18  G   UNL     1      12.829  20.802  57.875  1.00  0.00     0.000 G0
ENDBRANCH  13  17
ENDBRANCH  11  13
ENDBRANCH  10  11
ENDBRANCH   1  10
TORSDOF 0
ENDMDL
MODEL 5
REMARK VINA RESULT:    -3.784     10.212     11.658
REMARK INTER + INTRA:          -5.095
REMARK INTER:                  -5.408
REMARK INTRA:                   0.313
REMARK UNBOUND:                 0.238
REMARK SMILES CC1=CCC(=C(C)C)C(=O)CC(C)=CCC1
REMARK SMILES IDX 12 1 14 2 13 3 15 4 16 5 2 6 1 7 3 8 11 10 9 11 10 12 5 13
REMARK SMILES IDX 6 14 7 15 8 16 4 17
REMARK H PARENT
REMARK Flexibility Score: 60.00
ROOT
ATOM      1  C   UNL     1       6.990  31.229  54.151  1.00  0.00    -0.070 C 
ATOM      2  C   UNL     1       8.213  31.709  53.829  1.00  0.00    -0.027 C 
ATOM      3  C   UNL     1       6.024  32.157  54.843  1.00  0.00     0.039 C 
ENDROOT
BRANCH   2   4
ATOM      4  C   UNL     1       9.324  30.904  53.189  1.00  0.00     0.032 C 
BRANCH   4   5
ATOM      5  C   UNL     1       9.081  30.699  51.687  1.00  0.00     0.034 C 
BRANCH   5   6
ATOM      6  C   UNL     1       9.195  29.246  51.246  1.00  0.00    -0.077 C 
ATOM      7  C   UNL     1      10.508  28.529  51.437  1.00  0.00     0.039 C 
ATOM      8  C   UNL     1       8.180  28.562  50.669  1.00  0.00    -0.023 CG0
ATOM      9  G   UNL     1       6.778  29.084  50.459  1.00  0.00     0.000 G0
ENDBRANCH   5   6
ENDBRANCH   4   5
ENDBRANCH   2   4
BRANCH   1  10
ATOM     10  C   UNL     1       6.552  29.811  53.843  1.00  0.00     0.111 C 
BRANCH  10  11
ATOM     11  C   UNL     1       5.625  29.774  52.660  1.00  0.00     0.163 C 
ATOM     12  O   UNL     1       4.670  30.593  52.598  1.00  0.00    -0.294 OA
BRANCH  11  13
ATOM     13  C   UNL     1       5.801  28.777  51.574  1.00  0.00    -0.002 C 
ATOM     14  C   UNL     1       5.105  27.607  51.597  1.00  0.00    -0.069 C 
ATOM     15  C   UNL     1       5.231  26.602  50.474  1.00  0.00     0.039 C 
ATOM     16  C   UNL     1       4.215  27.249  52.766  1.00  0.00     0.039 C 
BRANCH  13  17
ATOM     17  C   UNL     1       6.769  29.081  50.436  1.00  0.00     0.066 CG0
ATOM     18  G   UNL     1       8.173  28.579  50.682  1.00  0.00     0.000 G0
ENDBRANCH  13  17
ENDBRANCH  11  13
ENDBRANCH  10  11
ENDBRANCH   1  10
TORSDOF 0
ENDMDL
MODEL 6
REMARK VINA RESULT:    -3.781      1.836      2.415
REMARK INTER + INTRA:          -5.091
REMARK INTER:                  -5.785
REMARK INTRA:                   0.694
REMARK UNBOUND:                 0.238
REMARK SMILES CC1=CCC(=C(C)C)C(=O)CC(C)=CCC1
REMARK SMILES IDX 12 1 14 2 13 3 15 4 16 5 2 6 1 7 3 8 11 10 9 11 10 12 5 13
REMARK SMILES IDX 6 14 7 15 8 16 4 17
REMARK H PARENT
REMARK Flexibility Score: 60.00
ROOT
ATOM      1  C   UNL     1      14.590  22.269  60.324  1.00  0.00    -0.070 C 
ATOM      2  C   UNL     1      15.798  22.474  59.749  1.00  0.00    -0.027 C 
ATOM      3  C   UNL     1      14.548  21.548  61.646  1.00  0.00     0.039 C 
ENDROOT
BRANCH   2   4
ATOM      4  C   UNL     1      16.022  23.123  58.401  1.00  0.00     0.032 C 
BRANCH   4   5
ATOM      5  C   UNL     1      16.861  22.229  57.475  1.00  0.00     0.034 C 
BRANCH   5   6
ATOM      6  C   UNL     1      16.116  20.995  56.984  1.00  0.00    -0.077 C 
ATOM      7  C   UNL     1      16.804  19.653  57.056  1.00  0.00     0.039 C 
ATOM      8  C   UNL     1      14.868  21.036  56.464  1.00  0.00    -0.023 CG0
ATOM      9  G   UNL     1      13.997  22.267  56.374  1.00  0.00     0.000 G0
ENDBRANCH   5   6
ENDBRANCH   4   5
ENDBRANCH   2   4
BRANCH   1  10
ATOM     10  C   UNL     1      13.289  22.733  59.699  1.00  0.00     0.111 C 
BRANCH  10  11
ATOM     11  C   UNL     1      12.815  21.765  58.652  1.00  0.00     0.163 C 
ATOM     12  O   UNL     1      12.518  20.587  58.988  1.00  0.00    -0.294 OA
BRANCH  11  13
ATOM     13  C   UNL     1      12.713  22.162  57.224  1.00  0.00    -0.002 C 
ATOM     14  C   UNL     1      11.497  22.422  56.670  1.00  0.00    -0.069 C 
ATOM     15  C   UNL     1      11.376  22.877  55.233  1.00  0.00     0.039 C 
ATOM     16  C   UNL     1      10.220  22.224  57.455  1.00  0.00     0.039 C 
BRANCH  13  17
ATOM     17  C   UNL     1      13.985  22.272  56.391  1.00  0.00     0.066 CG0
ATOM     18  G   UNL     1      14.855  21.039  56.444  1.00  0.00     0.000 G0
ENDBRANCH  13  17
ENDBRANCH  11  13
ENDBRANCH  10  11
ENDBRANCH   1  10
TORSDOF 0
ENDMDL
MODEL 7
REMARK VINA RESULT:    -3.663     11.684     12.946
REMARK INTER + INTRA:          -4.925
REMARK INTER:                  -5.527
REMARK INTRA:                   0.602
REMARK UNBOUND:                 0.238
REMARK SMILES CC1=CCC(=C(C)C)C(=O)CC(C)=CCC1
REMARK SMILES IDX 12 1 14 2 13 3 15 4 16 5 2 6 1 7 3 8 11 10 9 11 10 12 5 13
REMARK SMILES IDX 6 14 7 15 8 16 4 17
REMARK H PARENT
REMARK Flexibility Score: 60.00
ROOT
ATOM      1  C   UNL     1       4.798  31.704  53.741  1.00  0.00    -0.070 C 
ATOM      2  C   UNL     1       5.726  31.746  54.726  1.00  0.00    -0.027 C 
ATOM      3  C   UNL     1       3.523  30.944  54.001  1.00  0.00     0.039 C 
ENDROOT
BRANCH   2   4
ATOM      4  C   UNL     1       7.082  32.408  54.617  1.00  0.00     0.032 C 
BRANCH   4   5
ATOM      5  C   UNL     1       8.219  31.376  54.652  1.00  0.00     0.034 C 
BRANCH   5   6
ATOM      6  C   UNL     1       8.896  31.171  53.304  1.00  0.00    -0.077 C 
ATOM      7  C   UNL     1      10.185  31.902  53.018  1.00  0.00     0.039 C 
ATOM      8  C   UNL     1       8.392  30.377  52.331  1.00  0.00    -0.023 CG0
ATOM      9  G   UNL     1       7.157  29.516  52.455  1.00  0.00     0.000 G0
ENDBRANCH   5   6
ENDBRANCH   4   5
ENDBRANCH   2   4
BRANCH   1  10
ATOM     10  C   UNL     1       4.986  32.386  52.400  1.00  0.00     0.111 C 
BRANCH  10  11
ATOM     11  C   UNL     1       5.831  31.549  51.481  1.00  0.00     0.163 C 
ATOM     12  O   UNL     1       6.432  32.101  50.520  1.00  0.00    -0.294 OA
BRANCH  11  13
ATOM     13  C   UNL     1       5.954  30.081  51.669  1.00  0.00    -0.002 C 
ATOM     14  C   UNL     1       5.016  29.242  51.151  1.00  0.00    -0.069 C 
ATOM     15  C   UNL     1       5.151  27.742  51.286  1.00  0.00     0.039 C 
ATOM     16  C   UNL     1       3.783  29.778  50.458  1.00  0.00     0.039 C 
BRANCH  13  17
ATOM     17  C   UNL     1       7.142  29.529  52.448  1.00  0.00     0.066 CG0
ATOM     18  G   UNL     1       8.388  30.378  52.341  1.00  0.00     0.000 G0
ENDBRANCH  13  17
ENDBRANCH  11  13
ENDBRANCH  10  11
ENDBRANCH   1  10
TORSDOF 0
ENDMDL
MODEL 8
REMARK VINA RESULT:    -3.658      1.873      4.016
REMARK INTER + INTRA:          -4.918
REMARK INTER:                  -5.535
REMARK INTRA:                   0.617
REMARK UNBOUND:                 0.238
REMARK SMILES CC1=CCC(=C(C)C)C(=O)CC(C)=CCC1
REMARK SMILES IDX 12 1 14 2 13 3 15 4 16 5 2 6 1 7 3 8 11 10 9 11 10 12 5 13
REMARK SMILES IDX 6 14 7 15 8 16 4 17
REMARK H PARENT
REMARK Flexibility Score: 60.00
ROOT
ATOM      1  C   UNL     1      14.179  19.774  57.272  1.00  0.00    -0.070 C 
ATOM      2  C   UNL     1      14.102  20.008  55.942  1.00  0.00    -0.027 C 
ATOM      3  C   UNL     1      15.333  18.949  57.781  1.00  0.00     0.039 C 
ENDROOT
BRANCH   2   4
ATOM      4  C   UNL     1      12.984  20.760  55.253  1.00  0.00     0.032 C 
BRANCH   4   5
ATOM      5  C   UNL     1      13.509  21.996  54.507  1.00  0.00     0.034 C 
BRANCH   5   6
ATOM      6  C   UNL     1      13.190  23.309  55.207  1.00  0.00    -0.077 C 
ATOM      7  C   UNL     1      12.043  24.146  54.696  1.00  0.00     0.039 C 
ATOM      8  C   UNL     1      13.895  23.782  56.260  1.00  0.00    -0.023 CG0
ATOM      9  G   UNL     1      15.027  23.059  56.952  1.00  0.00     0.000 G0
ENDBRANCH   5   6
ENDBRANCH   4   5
ENDBRANCH   2   4
BRANCH   1  10
ATOM     10  C   UNL     1      13.162  20.304  58.264  1.00  0.00     0.111 C 
BRANCH  10  11
ATOM     11  C   UNL     1      13.304  21.790  58.442  1.00  0.00     0.163 C 
ATOM     12  O   UNL     1      12.279  22.484  58.682  1.00  0.00    -0.294 OA
BRANCH  11  13
ATOM     13  C   UNL     1      14.624  22.460  58.318  1.00  0.00    -0.002 C 
ATOM     14  C   UNL     1      15.459  22.535  59.390  1.00  0.00    -0.069 C 
ATOM     15  C   UNL     1      16.827  23.166  59.270  1.00  0.00     0.039 C 
ATOM     16  C   UNL     1      15.033  22.030  60.751  1.00  0.00     0.039 C 
BRANCH  13  17
ATOM     17  C   UNL     1      15.028  23.061  56.976  1.00  0.00     0.066 CG0
ATOM     18  G   UNL     1      13.903  23.778  56.268  1.00  0.00     0.000 G0
ENDBRANCH  13  17
ENDBRANCH  11  13
ENDBRANCH  10  11
ENDBRANCH   1  10
TORSDOF 0
ENDMDL
MODEL 9
REMARK VINA RESULT:    -3.624      3.010      5.434
REMARK INTER + INTRA:          -4.869
REMARK INTER:                  -5.372
REMARK INTRA:                   0.503
REMARK UNBOUND:                 0.238
REMARK SMILES CC1=CCC(=C(C)C)C(=O)CC(C)=CCC1
REMARK SMILES IDX 12 1 14 2 13 3 15 4 16 5 2 6 1 7 3 8 11 10 9 11 10 12 5 13
REMARK SMILES IDX 6 14 7 15 8 16 4 17
REMARK H PARENT
REMARK Flexibility Score: 60.00
ROOT
ATOM      1  C   UNL     1      11.808  23.600  55.315  1.00  0.00    -0.070 C 
ATOM      2  C   UNL     1      12.107  24.390  54.258  1.00  0.00    -0.027 C 
ATOM      3  C   UNL     1      10.825  22.477  55.105  1.00  0.00     0.039 C 
ENDROOT
BRANCH   2   4
ATOM      4  C   UNL     1      13.022  25.595  54.303  1.00  0.00     0.032 C 
BRANCH   4   5
ATOM      5  C   UNL     1      14.491  25.198  54.098  1.00  0.00     0.034 C 
BRANCH   5   6
ATOM      6  C   UNL     1      15.397  25.606  55.250  1.00  0.00    -0.077 C 
ATOM      7  C   UNL     1      15.748  27.064  55.420  1.00  0.00     0.039 C 
ATOM      8  C   UNL     1      15.927  24.724  56.129  1.00  0.00    -0.023 CG0
ATOM      9  G   UNL     1      15.639  23.241  56.164  1.00  0.00     0.000 G0
ENDBRANCH   5   6
ENDBRANCH   4   5
ENDBRANCH   2   4
BRANCH   1  10
ATOM     10  C   UNL     1      12.419  23.793  56.689  1.00  0.00     0.111 C 
BRANCH  10  11
ATOM     11  C   UNL     1      13.290  22.626  57.064  1.00  0.00     0.163 C 
ATOM     12  O   UNL     1      12.772  21.484  57.187  1.00  0.00    -0.294 OA
BRANCH  11  13
ATOM     13  C   UNL     1      14.744  22.797  57.314  1.00  0.00    -0.002 C 
ATOM     14  C   UNL     1      15.258  22.568  58.553  1.00  0.00    -0.069 C 
ATOM     15  C   UNL     1      16.743  22.687  58.816  1.00  0.00     0.039 C 
ATOM     16  C   UNL     1      14.362  22.230  59.724  1.00  0.00     0.039 C 
BRANCH  13  17
ATOM     17  C   UNL     1      15.648  23.233  56.167  1.00  0.00     0.066 CG0
ATOM     18  G   UNL     1      15.924  24.718  56.140  1.00  0.00     0.000 G0
ENDBRANCH  13  17
ENDBRANCH  11  13
ENDBRANCH  10  11
ENDBRANCH   1  10
TORSDOF 0
ENDMDL
