MODEL 1
REMARK VINA RESULT:    -2.753      0.000      0.000
REMARK INTER + INTRA:          -3.298
REMARK INTER:                  -2.913
REMARK INTRA:                  -0.385
REMARK UNBOUND:                -0.385
REMARK SMILES CC1=CC[C@H]2[C@@H]3[C@@H](C(C)C)CC[C@@]2(C)[C@H]13
REMARK SMILES IDX 1 1 2 2 3 3 4 4 5 5 6 6 15 7 13 8 12 9 11 10 7 11 14 12 8 13
REMARK SMILES IDX 9 14 10 15
REMARK H PARENT
REMARK Flexibility Score: inf
ROOT
ATOM      1  C   UNL     1     167.278 170.796 140.278  1.00  0.00     0.039 C 
ATOM      2  C   UNL     1     167.624 171.815 139.235  1.00  0.00    -0.073 C 
ATOM      3  C   UNL     1     167.861 171.453 137.946  1.00  0.00    -0.027 C 
ATOM      4  C   UNL     1     168.231 172.538 136.928  1.00  0.00     0.031 C 
ATOM      5  C   UNL     1     168.231 173.947 137.609  1.00  0.00     0.003 C 
ATOM      6  C   UNL     1     166.939 174.056 138.452  1.00  0.00     0.004 C 
ATOM      7  C   UNL     1     167.711 173.308 139.566  1.00  0.00     0.024 C 
ATOM      8  C   UNL     1     168.995 173.923 138.952  1.00  0.00    -0.022 C 
ATOM      9  C   UNL     1     169.197 175.387 139.434  1.00  0.00     0.008 C 
ATOM     10  C   UNL     1     167.854 176.124 139.666  1.00  0.00     0.005 C 
ATOM     11  C   UNL     1     166.666 175.548 138.827  1.00  0.00    -0.005 C 
ATOM     12  C   UNL     1     170.319 173.127 139.041  1.00  0.00     0.012 C 
ENDROOT
BRANCH  11  13
ATOM     13  C   UNL     1     165.300 175.744 139.563  1.00  0.00    -0.014 C 
ATOM     14  C   UNL     1     164.437 174.470 139.483  1.00  0.00     0.007 C 
ATOM     15  C   UNL     1     165.481 176.125 141.044  1.00  0.00     0.007 C 
ENDBRANCH  11  13
TORSDOF 1
ENDMDL
MODEL 2
REMARK VINA RESULT:    -2.748     13.302     16.699
REMARK INTER + INTRA:          -3.293
REMARK INTER:                  -2.904
REMARK INTRA:                  -0.390
REMARK UNBOUND:                -0.385
REMARK SMILES CC1=CC[C@H]2[C@@H]3[C@@H](C(C)C)CC[C@@]2(C)[C@H]13
REMARK SMILES IDX 1 1 2 2 3 3 4 4 5 5 6 6 15 7 13 8 12 9 11 10 7 11 14 12 8 13
REMARK SMILES IDX 9 14 10 15
REMARK H PARENT
REMARK Flexibility Score: inf
ROOT
ATOM      1  C   UNL     1     164.782 161.204 140.171  1.00  0.00     0.039 C 
ATOM      2  C   UNL     1     164.412 160.159 139.160  1.00  0.00    -0.073 C 
ATOM      3  C   UNL     1     164.192 160.484 137.859  1.00  0.00    -0.027 C 
ATOM      4  C   UNL     1     163.796 159.376 136.876  1.00  0.00     0.031 C 
ATOM      5  C   UNL     1     163.753 157.992 137.604  1.00  0.00     0.003 C 
ATOM      6  C   UNL     1     165.037 157.875 138.457  1.00  0.00     0.004 C 
ATOM      7  C   UNL     1     164.282 158.682 139.541  1.00  0.00     0.024 C 
ATOM      8  C   UNL     1     162.983 158.083 138.941  1.00  0.00    -0.022 C 
ATOM      9  C   UNL     1     162.737 156.642 139.471  1.00  0.00     0.008 C 
ATOM     10  C   UNL     1     164.058 155.876 139.736  1.00  0.00     0.005 C 
ATOM     11  C   UNL     1     165.266 156.390 138.884  1.00  0.00    -0.005 C 
ATOM     12  C   UNL     1     161.681 158.918 138.995  1.00  0.00     0.012 C 
ENDROOT
BRANCH  11  13
ATOM     13  C   UNL     1     166.621 156.180 139.634  1.00  0.00    -0.014 C 
ATOM     14  C   UNL     1     167.530 157.418 139.499  1.00  0.00     0.007 C 
ATOM     15  C   UNL     1     166.424 155.875 141.131  1.00  0.00     0.007 C 
ENDBRANCH  11  13
TORSDOF 1
ENDMDL
MODEL 3
REMARK VINA RESULT:    -2.553     14.253     16.778
REMARK INTER + INTRA:          -3.087
REMARK INTER:                  -2.653
REMARK INTRA:                  -0.434
REMARK UNBOUND:                -0.385
REMARK SMILES CC1=CC[C@H]2[C@@H]3[C@@H](C(C)C)CC[C@@]2(C)[C@H]13
REMARK SMILES IDX 1 1 2 2 3 3 4 4 5 5 6 6 15 7 13 8 12 9 11 10 7 11 14 12 8 13
REMARK SMILES IDX 9 14 10 15
REMARK H PARENT
REMARK Flexibility Score: inf
ROOT
ATOM      1  C   UNL     1     167.433 159.918 140.450  1.00  0.00     0.039 C 
ATOM      2  C   UNL     1     166.708 158.640 140.748  1.00  0.00    -0.073 C 
ATOM      3  C   UNL     1     166.875 157.993 141.932  1.00  0.00    -0.027 C 
ATOM      4  C   UNL     1     166.123 156.679 142.171  1.00  0.00     0.031 C 
ATOM      5  C   UNL     1     165.224 156.334 140.938  1.00  0.00     0.003 C 
ATOM      6  C   UNL     1     164.467 157.622 140.540  1.00  0.00     0.004 C 
ATOM      7  C   UNL     1     165.735 158.014 139.744  1.00  0.00     0.024 C 
ATOM      8  C   UNL     1     166.003 156.492 139.612  1.00  0.00    -0.022 C 
ATOM      9  C   UNL     1     165.155 155.875 138.464  1.00  0.00     0.008 C 
ATOM     10  C   UNL     1     163.785 156.579 138.296  1.00  0.00     0.005 C 
ATOM     11  C   UNL     1     163.269 157.272 139.600  1.00  0.00    -0.005 C 
ATOM     12  C   UNL     1     167.466 155.994 139.544  1.00  0.00     0.012 C 
ENDROOT
BRANCH  11  13
ATOM     13  C   UNL     1     162.378 158.515 139.271  1.00  0.00    -0.014 C 
ATOM     14  C   UNL     1     162.561 159.625 140.323  1.00  0.00     0.007 C 
ATOM     15  C   UNL     1     162.679 159.100 137.878  1.00  0.00     0.007 C 
ENDBRANCH  11  13
TORSDOF 1
ENDMDL
MODEL 4
REMARK VINA RESULT:    -2.534     14.265     15.725
REMARK INTER + INTRA:          -3.067
REMARK INTER:                  -2.631
REMARK INTRA:                  -0.435
REMARK UNBOUND:                -0.385
REMARK SMILES CC1=CC[C@H]2[C@@H]3[C@@H](C(C)C)CC[C@@]2(C)[C@H]13
REMARK SMILES IDX 1 1 2 2 3 3 4 4 5 5 6 6 15 7 13 8 12 9 11 10 7 11 14 12 8 13
REMARK SMILES IDX 9 14 10 15
REMARK H PARENT
REMARK Flexibility Score: inf
ROOT
ATOM      1  C   UNL     1     164.092 158.481 141.849  1.00  0.00     0.039 C 
ATOM      2  C   UNL     1     164.038 158.094 140.401  1.00  0.00    -0.073 C 
ATOM      3  C   UNL     1     164.340 156.833 139.996  1.00  0.00    -0.027 C 
ATOM      4  C   UNL     1     164.287 156.502 138.501  1.00  0.00     0.031 C 
ATOM      5  C   UNL     1     163.834 157.755 137.681  1.00  0.00     0.003 C 
ATOM      6  C   UNL     1     162.610 158.365 138.403  1.00  0.00     0.004 C 
ATOM      7  C   UNL     1     163.625 159.094 139.316  1.00  0.00     0.024 C 
ATOM      8  C   UNL     1     164.606 159.022 138.117  1.00  0.00    -0.022 C 
ATOM      9  C   UNL     1     164.316 160.155 137.092  1.00  0.00     0.008 C 
ATOM     10  C   UNL     1     162.811 160.519 137.021  1.00  0.00     0.005 C 
ATOM     11  C   UNL     1     161.861 159.353 137.452  1.00  0.00    -0.005 C 
ATOM     12  C   UNL     1     166.123 158.909 138.398  1.00  0.00     0.012 C 
ENDROOT
BRANCH  11  13
ATOM     13  C   UNL     1     160.535 159.900 138.074  1.00  0.00    -0.014 C 
ATOM     14  C   UNL     1     159.993 158.946 139.157  1.00  0.00     0.007 C 
ATOM     15  C   UNL     1     160.710 161.299 138.694  1.00  0.00     0.007 C 
ENDBRANCH  11  13
TORSDOF 1
ENDMDL
MODEL 5
REMARK VINA RESULT:    -2.528      1.583      4.708
REMARK INTER + INTRA:          -3.061
REMARK INTER:                  -2.626
REMARK INTRA:                  -0.435
REMARK UNBOUND:                -0.385
REMARK SMILES CC1=CC[C@H]2[C@@H]3[C@@H](C(C)C)CC[C@@]2(C)[C@H]13
REMARK SMILES IDX 1 1 2 2 3 3 4 4 5 5 6 6 15 7 13 8 12 9 11 10 7 11 14 12 8 13
REMARK SMILES IDX 9 14 10 15
REMARK H PARENT
REMARK Flexibility Score: inf
ROOT
ATOM      1  C   UNL     1     167.895 173.504 141.838  1.00  0.00     0.039 C 
ATOM      2  C   UNL     1     167.962 173.886 140.390  1.00  0.00    -0.073 C 
ATOM      3  C   UNL     1     167.677 175.151 139.980  1.00  0.00    -0.027 C 
ATOM      4  C   UNL     1     167.743 175.478 138.485  1.00  0.00     0.031 C 
ATOM      5  C   UNL     1     168.187 174.217 137.671  1.00  0.00     0.003 C 
ATOM      6  C   UNL     1     169.399 173.595 138.402  1.00  0.00     0.004 C 
ATOM      7  C   UNL     1     168.370 172.880 139.310  1.00  0.00     0.024 C 
ATOM      8  C   UNL     1     167.398 172.961 138.104  1.00  0.00    -0.022 C 
ATOM      9  C   UNL     1     167.681 171.822 137.083  1.00  0.00     0.008 C 
ATOM     10  C   UNL     1     169.182 171.441 137.023  1.00  0.00     0.005 C 
ATOM     11  C   UNL     1     170.143 172.597 137.457  1.00  0.00    -0.005 C 
ATOM     12  C   UNL     1     165.881 173.092 138.375  1.00  0.00     0.012 C 
ENDROOT
BRANCH  11  13
ATOM     13  C   UNL     1     171.459 172.036 138.089  1.00  0.00    -0.014 C 
ATOM     14  C   UNL     1     172.021 173.000 139.152  1.00  0.00     0.007 C 
ATOM     15  C   UNL     1     171.256 170.653 138.736  1.00  0.00     0.007 C 
ENDBRANCH  11  13
TORSDOF 1
ENDMDL
MODEL 6
REMARK VINA RESULT:    -2.351      1.917      4.585
REMARK INTER + INTRA:          -2.874
REMARK INTER:                  -2.448
REMARK INTRA:                  -0.425
REMARK UNBOUND:                -0.385
REMARK SMILES CC1=CC[C@H]2[C@@H]3[C@@H](C(C)C)CC[C@@]2(C)[C@H]13
REMARK SMILES IDX 1 1 2 2 3 3 4 4 5 5 6 6 15 7 13 8 12 9 11 10 7 11 14 12 8 13
REMARK SMILES IDX 9 14 10 15
REMARK H PARENT
REMARK Flexibility Score: inf
ROOT
ATOM      1  C   UNL     1     167.654 173.604 143.491  1.00  0.00     0.039 C 
ATOM      2  C   UNL     1     166.639 174.179 142.548  1.00  0.00    -0.073 C 
ATOM      3  C   UNL     1     165.758 175.130 142.955  1.00  0.00    -0.027 C 
ATOM      4  C   UNL     1     164.730 175.665 141.952  1.00  0.00     0.031 C 
ATOM      5  C   UNL     1     164.932 174.991 140.554  1.00  0.00     0.003 C 
ATOM      6  C   UNL     1     166.445 175.024 140.236  1.00  0.00     0.004 C 
ATOM      7  C   UNL     1     166.560 173.735 141.085  1.00  0.00     0.024 C 
ATOM      8  C   UNL     1     165.087 173.459 140.685  1.00  0.00    -0.022 C 
ATOM      9  C   UNL     1     165.003 172.829 139.266  1.00  0.00     0.008 C 
ATOM     10  C   UNL     1     166.124 173.340 138.325  1.00  0.00     0.005 C 
ATOM     11  C   UNL     1     166.680 174.749 138.716  1.00  0.00    -0.005 C 
ATOM     12  C   UNL     1     164.174 172.701 141.678  1.00  0.00     0.012 C 
ENDROOT
BRANCH  11  13
ATOM     13  C   UNL     1     168.180 174.904 138.301  1.00  0.00    -0.014 C 
ATOM     14  C   UNL     1     168.967 175.714 139.350  1.00  0.00     0.007 C 
ATOM     15  C   UNL     1     168.878 173.546 138.102  1.00  0.00     0.007 C 
ENDBRANCH  11  13
TORSDOF 1
ENDMDL
MODEL 7
REMARK VINA RESULT:    -2.303     14.786     16.989
REMARK INTER + INTRA:          -2.823
REMARK INTER:                  -2.413
REMARK INTRA:                  -0.410
REMARK UNBOUND:                -0.385
REMARK SMILES CC1=CC[C@H]2[C@@H]3[C@@H](C(C)C)CC[C@@]2(C)[C@H]13
REMARK SMILES IDX 1 1 2 2 3 3 4 4 5 5 6 6 15 7 13 8 12 9 11 10 7 11 14 12 8 13
REMARK SMILES IDX 9 14 10 15
REMARK H PARENT
REMARK Flexibility Score: inf
ROOT
ATOM      1  C   UNL     1     165.356 159.570 137.319  1.00  0.00     0.039 C 
ATOM      2  C   UNL     1     164.801 158.517 138.231  1.00  0.00    -0.073 C 
ATOM      3  C   UNL     1     163.808 157.684 137.825  1.00  0.00    -0.027 C 
ATOM      4  C   UNL     1     163.267 156.641 138.809  1.00  0.00     0.031 C 
ATOM      5  C   UNL     1     164.039 156.722 140.167  1.00  0.00     0.003 C 
ATOM      6  C   UNL     1     165.548 156.799 139.840  1.00  0.00     0.004 C 
ATOM      7  C   UNL     1     165.338 158.320 139.652  1.00  0.00     0.024 C 
ATOM      8  C   UNL     1     164.165 158.183 140.657  1.00  0.00    -0.022 C 
ATOM      9  C   UNL     1     164.684 158.171 142.122  1.00  0.00     0.008 C 
ATOM     10  C   UNL     1     166.079 157.507 142.250  1.00  0.00     0.005 C 
ATOM     11  C   UNL     1     166.392 156.476 141.116  1.00  0.00    -0.005 C 
ATOM     12  C   UNL     1     162.944 159.123 140.513  1.00  0.00     0.012 C 
ENDROOT
BRANCH  11  13
ATOM     13  C   UNL     1     167.925 156.402 140.821  1.00  0.00    -0.014 C 
ATOM     14  C   UNL     1     168.194 155.877 139.397  1.00  0.00     0.007 C 
ATOM     15  C   UNL     1     168.621 157.767 140.983  1.00  0.00     0.007 C 
ENDBRANCH  11  13
TORSDOF 1
ENDMDL
MODEL 8
REMARK VINA RESULT:    -2.208      1.502      2.542
REMARK INTER + INTRA:          -2.722
REMARK INTER:                  -2.297
REMARK INTRA:                  -0.425
REMARK UNBOUND:                -0.385
REMARK SMILES CC1=CC[C@H]2[C@@H]3[C@@H](C(C)C)CC[C@@]2(C)[C@H]13
REMARK SMILES IDX 1 1 2 2 3 3 4 4 5 5 6 6 15 7 13 8 12 9 11 10 7 11 14 12 8 13
REMARK SMILES IDX 9 14 10 15
REMARK H PARENT
REMARK Flexibility Score: inf
ROOT
ATOM      1  C   UNL     1     169.564 172.205 141.299  1.00  0.00     0.039 C 
ATOM      2  C   UNL     1     168.946 172.767 140.053  1.00  0.00    -0.073 C 
ATOM      3  C   UNL     1     169.561 172.651 138.847  1.00  0.00    -0.027 C 
ATOM      4  C   UNL     1     168.890 173.263 137.612  1.00  0.00     0.031 C 
ATOM      5  C   UNL     1     167.523 173.916 138.002  1.00  0.00     0.003 C 
ATOM      6  C   UNL     1     166.767 172.909 138.899  1.00  0.00     0.004 C 
ATOM      7  C   UNL     1     167.591 173.479 140.079  1.00  0.00     0.024 C 
ATOM      8  C   UNL     1     167.660 174.797 139.264  1.00  0.00    -0.022 C 
ATOM      9  C   UNL     1     166.355 175.626 139.434  1.00  0.00     0.008 C 
ATOM     10  C   UNL     1     165.104 174.729 139.616  1.00  0.00     0.005 C 
ATOM     11  C   UNL     1     165.257 173.302 138.994  1.00  0.00    -0.005 C 
ATOM     12  C   UNL     1     168.908 175.700 139.410  1.00  0.00     0.012 C 
ENDROOT
BRANCH  11  13
ATOM     13  C   UNL     1     164.408 172.247 139.776  1.00  0.00    -0.014 C 
ATOM     14  C   UNL     1     165.140 170.893 139.858  1.00  0.00     0.007 C 
ATOM     15  C   UNL     1     164.066 172.710 141.204  1.00  0.00     0.007 C 
ENDBRANCH  11  13
TORSDOF 1
ENDMDL
