MODEL 1
REMARK VINA RESULT:    -1.374      0.000      0.000
REMARK INTER + INTRA:          -5.016
REMARK INTER:                  -2.539
REMARK INTRA:                  -2.477
REMARK UNBOUND:                -2.477
REMARK SMILES CCCCCCCCCCCCCCCCO
REMARK SMILES IDX 9 1 8 2 7 3 6 4 5 5 4 6 3 7 2 8 1 9 10 10 11 11 12 12 13 13
REMARK SMILES IDX 14 14 15 15 16 16 17 17
REMARK H PARENT 17 18
REMARK Flexibility Score: inf
ROOT
ATOM      1  C   UNL     1     123.345 112.744 135.789  1.00  0.00     0.000 C 
ENDROOT
BRANCH   1   2
ATOM      2  C   UNL     1     123.236 112.468 137.298  1.00  0.00    -0.000 C 
BRANCH   2   3
ATOM      3  C   UNL     1     124.194 113.335 138.135  1.00  0.00    -0.000 C 
BRANCH   3   4
ATOM      4  C   UNL     1     125.164 112.551 139.037  1.00  0.00    -0.000 C 
BRANCH   4   5
ATOM      5  C   UNL     1     126.603 112.541 138.502  1.00  0.00    -0.000 C 
BRANCH   5   6
ATOM      6  C   UNL     1     127.123 111.102 138.355  1.00  0.00    -0.000 C 
BRANCH   6   7
ATOM      7  C   UNL     1     126.025 110.050 138.576  1.00  0.00    -0.000 C 
BRANCH   7   8
ATOM      8  C   UNL     1     125.873 109.095 137.383  1.00  0.00    -0.003 C 
ATOM      9  C   UNL     1     124.403 108.878 137.036  1.00  0.00     0.004 C 
ENDBRANCH   7   8
ENDBRANCH   6   7
ENDBRANCH   5   6
ENDBRANCH   4   5
ENDBRANCH   3   4
ENDBRANCH   2   3
ENDBRANCH   1   2
BRANCH   1  10
ATOM     10  C   UNL     1     124.386 111.851 135.092  1.00  0.00     0.000 C 
BRANCH  10  11
ATOM     11  C   UNL     1     125.727 112.538 134.769  1.00  0.00     0.000 C 
BRANCH  11  12
ATOM     12  C   UNL     1     126.942 111.584 134.807  1.00  0.00     0.000 C 
BRANCH  12  13
ATOM     13  C   UNL     1     127.020 110.692 133.557  1.00  0.00     0.000 C 
BRANCH  13  14
ATOM     14  C   UNL     1     127.033 109.192 133.895  1.00  0.00     0.002 C 
BRANCH  14  15
ATOM     15  C   UNL     1     126.019 108.368 133.073  1.00  0.00     0.028 C 
BRANCH  15  16
ATOM     16  C   UNL     1     124.926 109.242 132.454  1.00  0.00     0.156 C 
BRANCH  16  17
ATOM     17  O   UNL     1     124.249 108.515 131.467  1.00  0.00    -0.396 OA
ATOM     18  H   UNL     1     124.858 107.780 131.200  1.00  0.00     0.210 HD
ENDBRANCH  16  17
ENDBRANCH  15  16
ENDBRANCH  14  15
ENDBRANCH  13  14
ENDBRANCH  12  13
ENDBRANCH  11  12
ENDBRANCH  10  11
ENDBRANCH   1  10
TORSDOF 15
ENDMDL
MODEL 2
REMARK VINA RESULT:    -1.227      2.262      4.405
REMARK INTER + INTRA:          -4.745
REMARK INTER:                  -2.838
REMARK INTRA:                  -1.907
REMARK UNBOUND:                -2.477
REMARK SMILES CCCCCCCCCCCCCCCCO
REMARK SMILES IDX 9 1 8 2 7 3 6 4 5 5 4 6 3 7 2 8 1 9 10 10 11 11 12 12 13 13
REMARK SMILES IDX 14 14 15 15 16 16 17 17
REMARK H PARENT 17 18
REMARK Flexibility Score: inf
ROOT
ATOM      1  C   UNL     1     125.622 108.519 135.176  1.00  0.00     0.000 C 
ENDROOT
BRANCH   1   2
ATOM      2  C   UNL     1     125.875 107.329 136.118  1.00  0.00    -0.000 C 
BRANCH   2   3
ATOM      3  C   UNL     1     125.513 107.638 137.581  1.00  0.00    -0.000 C 
BRANCH   3   4
ATOM      4  C   UNL     1     126.700 108.028 138.479  1.00  0.00    -0.000 C 
BRANCH   4   5
ATOM      5  C   UNL     1     126.534 109.412 139.125  1.00  0.00    -0.000 C 
BRANCH   5   6
ATOM      6  C   UNL     1     126.848 110.528 138.117  1.00  0.00    -0.000 C 
BRANCH   6   7
ATOM      7  C   UNL     1     125.984 111.780 138.332  1.00  0.00    -0.000 C 
BRANCH   7   8
ATOM      8  C   UNL     1     124.561 111.443 138.801  1.00  0.00    -0.003 C 
ATOM      9  C   UNL     1     123.544 111.683 137.689  1.00  0.00     0.004 C 
ENDBRANCH   7   8
ENDBRANCH   6   7
ENDBRANCH   5   6
ENDBRANCH   4   5
ENDBRANCH   3   4
ENDBRANCH   2   3
ENDBRANCH   1   2
BRANCH   1  10
ATOM     10  C   UNL     1     126.723 108.684 134.114  1.00  0.00     0.000 C 
BRANCH  10  11
ATOM     11  C   UNL     1     127.125 110.141 133.809  1.00  0.00     0.000 C 
BRANCH  11  12
ATOM     12  C   UNL     1     126.280 111.193 134.560  1.00  0.00     0.000 C 
BRANCH  12  13
ATOM     13  C   UNL     1     125.220 111.842 133.655  1.00  0.00     0.000 C 
BRANCH  13  14
ATOM     14  C   UNL     1     124.560 113.073 134.298  1.00  0.00     0.002 C 
BRANCH  14  15
ATOM     15  C   UNL     1     125.498 113.847 135.249  1.00  0.00     0.028 C 
BRANCH  15  16
ATOM     16  C   UNL     1     125.825 115.248 134.727  1.00  0.00     0.156 C 
BRANCH  16  17
ATOM     17  O   UNL     1     126.518 115.146 133.515  1.00  0.00    -0.396 OA
ATOM     18  H   UNL     1     125.859 115.350 132.802  1.00  0.00     0.210 HD
ENDBRANCH  16  17
ENDBRANCH  15  16
ENDBRANCH  14  15
ENDBRANCH  13  14
ENDBRANCH  12  13
ENDBRANCH  11  12
ENDBRANCH  10  11
ENDBRANCH   1  10
TORSDOF 15
ENDMDL
MODEL 3
REMARK VINA RESULT:    -1.214      2.270      4.323
REMARK INTER + INTRA:          -4.721
REMARK INTER:                  -2.172
REMARK INTRA:                  -2.549
REMARK UNBOUND:                -2.477
REMARK SMILES CCCCCCCCCCCCCCCCO
REMARK SMILES IDX 9 1 8 2 7 3 6 4 5 5 4 6 3 7 2 8 1 9 10 10 11 11 12 12 13 13
REMARK SMILES IDX 14 14 15 15 16 16 17 17
REMARK H PARENT 17 18
REMARK Flexibility Score: inf
ROOT
ATOM      1  C   UNL     1     126.481 108.871 134.258  1.00  0.00     0.000 C 
ENDROOT
BRANCH   1   2
ATOM      2  C   UNL     1     127.122 110.031 133.477  1.00  0.00    -0.000 C 
BRANCH   2   3
ATOM      3  C   UNL     1     126.824 111.407 134.098  1.00  0.00    -0.000 C 
BRANCH   3   4
ATOM      4  C   UNL     1     126.752 111.428 135.635  1.00  0.00    -0.000 C 
BRANCH   4   5
ATOM      5  C   UNL     1     125.769 112.477 136.175  1.00  0.00    -0.000 C 
BRANCH   5   6
ATOM      6  C   UNL     1     124.927 111.900 137.324  1.00  0.00    -0.000 C 
BRANCH   6   7
ATOM      7  C   UNL     1     124.609 110.408 137.134  1.00  0.00    -0.000 C 
BRANCH   7   8
ATOM      8  C   UNL     1     125.097 109.546 138.308  1.00  0.00    -0.003 C 
ATOM      9  C   UNL     1     125.979 108.401 137.819  1.00  0.00     0.004 C 
ENDBRANCH   7   8
ENDBRANCH   6   7
ENDBRANCH   5   6
ENDBRANCH   4   5
ENDBRANCH   3   4
ENDBRANCH   2   3
ENDBRANCH   1   2
BRANCH   1  10
ATOM     10  C   UNL     1     124.986 108.692 133.943  1.00  0.00     0.000 C 
BRANCH  10  11
ATOM     11  C   UNL     1     124.586 108.975 132.481  1.00  0.00     0.000 C 
BRANCH  11  12
ATOM     12  C   UNL     1     123.645 110.188 132.315  1.00  0.00     0.000 C 
BRANCH  12  13
ATOM     13  C   UNL     1     123.121 110.707 133.664  1.00  0.00     0.000 C 
BRANCH  13  14
ATOM     14  C   UNL     1     122.980 112.237 133.701  1.00  0.00     0.002 C 
BRANCH  14  15
ATOM     15  C   UNL     1     123.899 112.963 132.694  1.00  0.00     0.028 C 
BRANCH  15  16
ATOM     16  C   UNL     1     124.443 114.281 133.250  1.00  0.00     0.156 C 
BRANCH  16  17
ATOM     17  O   UNL     1     123.462 114.896 134.038  1.00  0.00    -0.396 OA
ATOM     18  H   UNL     1     122.702 115.089 133.430  1.00  0.00     0.210 HD
ENDBRANCH  16  17
ENDBRANCH  15  16
ENDBRANCH  14  15
ENDBRANCH  13  14
ENDBRANCH  12  13
ENDBRANCH  11  12
ENDBRANCH  10  11
ENDBRANCH   1  10
TORSDOF 15
ENDMDL
MODEL 4
REMARK VINA RESULT:    -1.213      2.163      3.959
REMARK INTER + INTRA:          -4.718
REMARK INTER:                  -2.278
REMARK INTRA:                  -2.440
REMARK UNBOUND:                -2.477
REMARK SMILES CCCCCCCCCCCCCCCCO
REMARK SMILES IDX 9 1 8 2 7 3 6 4 5 5 4 6 3 7 2 8 1 9 10 10 11 11 12 12 13 13
REMARK SMILES IDX 14 14 15 15 16 16 17 17
REMARK H PARENT 17 18
REMARK Flexibility Score: inf
ROOT
ATOM      1  C   UNL     1     124.100 111.089 132.204  1.00  0.00     0.000 C 
ENDROOT
BRANCH   1   2
ATOM      2  C   UNL     1     123.409 109.820 132.731  1.00  0.00    -0.000 C 
BRANCH   2   3
ATOM      3  C   UNL     1     122.946 109.955 134.192  1.00  0.00    -0.000 C 
BRANCH   3   4
ATOM      4  C   UNL     1     122.899 111.395 134.732  1.00  0.00    -0.000 C 
BRANCH   4   5
ATOM      5  C   UNL     1     122.191 111.503 136.091  1.00  0.00    -0.000 C 
BRANCH   5   6
ATOM      6  C   UNL     1     123.174 111.244 137.243  1.00  0.00    -0.000 C 
BRANCH   6   7
ATOM      7  C   UNL     1     124.571 111.823 136.972  1.00  0.00    -0.000 C 
BRANCH   7   8
ATOM      8  C   UNL     1     125.366 112.079 138.261  1.00  0.00    -0.003 C 
ATOM      9  C   UNL     1     126.778 111.510 138.158  1.00  0.00     0.004 C 
ENDBRANCH   7   8
ENDBRANCH   6   7
ENDBRANCH   5   6
ENDBRANCH   4   5
ENDBRANCH   3   4
ENDBRANCH   2   3
ENDBRANCH   1   2
BRANCH   1  10
ATOM     10  C   UNL     1     125.634 110.968 132.181  1.00  0.00     0.000 C 
BRANCH  10  11
ATOM     11  C   UNL     1     126.361 111.626 133.371  1.00  0.00     0.000 C 
BRANCH  11  12
ATOM     12  C   UNL     1     126.917 110.615 134.398  1.00  0.00     0.000 C 
BRANCH  12  13
ATOM     13  C   UNL     1     127.010 109.193 133.823  1.00  0.00     0.000 C 
BRANCH  13  14
ATOM     14  C   UNL     1     126.217 108.164 134.646  1.00  0.00     0.002 C 
BRANCH  14  15
ATOM     15  C   UNL     1     125.998 108.589 136.114  1.00  0.00     0.028 C 
BRANCH  15  16
ATOM     16  C   UNL     1     124.813 107.865 136.757  1.00  0.00     0.156 C 
BRANCH  16  17
ATOM     17  O   UNL     1     124.751 108.188 138.118  1.00  0.00    -0.396 OA
ATOM     18  H   UNL     1     125.690 108.208 138.439  1.00  0.00     0.210 HD
ENDBRANCH  16  17
ENDBRANCH  15  16
ENDBRANCH  14  15
ENDBRANCH  13  14
ENDBRANCH  12  13
ENDBRANCH  11  12
ENDBRANCH  10  11
ENDBRANCH   1  10
TORSDOF 15
ENDMDL
MODEL 5
REMARK VINA RESULT:    -1.201      2.624      5.367
REMARK INTER + INTRA:          -4.695
REMARK INTER:                  -2.567
REMARK INTRA:                  -2.128
REMARK UNBOUND:                -2.477
REMARK SMILES CCCCCCCCCCCCCCCCO
REMARK SMILES IDX 9 1 8 2 7 3 6 4 5 5 4 6 3 7 2 8 1 9 10 10 11 11 12 12 13 13
REMARK SMILES IDX 14 14 15 15 16 16 17 17
REMARK H PARENT 17 18
REMARK Flexibility Score: inf
ROOT
ATOM      1  C   UNL     1     124.937 111.720 134.127  1.00  0.00     0.000 C 
ENDROOT
BRANCH   1   2
ATOM      2  C   UNL     1     125.838 111.129 133.029  1.00  0.00    -0.000 C 
BRANCH   2   3
ATOM      3  C   UNL     1     125.834 109.590 133.017  1.00  0.00    -0.000 C 
BRANCH   3   4
ATOM      4  C   UNL     1     126.904 108.927 133.903  1.00  0.00    -0.000 C 
BRANCH   4   5
ATOM      5  C   UNL     1     126.468 107.559 134.448  1.00  0.00    -0.000 C 
BRANCH   5   6
ATOM      6  C   UNL     1     126.044 107.666 135.921  1.00  0.00    -0.000 C 
BRANCH   6   7
ATOM      7  C   UNL     1     124.526 107.530 136.112  1.00  0.00    -0.000 C 
BRANCH   7   8
ATOM      8  C   UNL     1     123.832 108.884 136.318  1.00  0.00    -0.003 C 
ATOM      9  C   UNL     1     122.675 109.064 135.340  1.00  0.00     0.004 C 
ENDBRANCH   7   8
ENDBRANCH   6   7
ENDBRANCH   5   6
ENDBRANCH   4   5
ENDBRANCH   3   4
ENDBRANCH   2   3
ENDBRANCH   1   2
BRANCH   1  10
ATOM     10  C   UNL     1     125.672 112.731 135.024  1.00  0.00     0.000 C 
BRANCH  10  11
ATOM     11  C   UNL     1     126.867 112.159 135.813  1.00  0.00     0.000 C 
BRANCH  11  12
ATOM     12  C   UNL     1     126.458 111.230 136.978  1.00  0.00     0.000 C 
BRANCH  12  13
ATOM     13  C   UNL     1     127.125 111.631 138.303  1.00  0.00     0.000 C 
BRANCH  13  14
ATOM     14  C   UNL     1     126.283 112.630 139.115  1.00  0.00     0.002 C 
BRANCH  14  15
ATOM     15  C   UNL     1     126.780 114.087 139.001  1.00  0.00     0.028 C 
BRANCH  15  16
ATOM     16  C   UNL     1     125.791 114.981 138.250  1.00  0.00     0.156 C 
BRANCH  16  17
ATOM     17  O   UNL     1     124.603 114.275 138.023  1.00  0.00    -0.396 OA
ATOM     18  H   UNL     1     124.137 114.749 137.287  1.00  0.00     0.210 HD
ENDBRANCH  16  17
ENDBRANCH  15  16
ENDBRANCH  14  15
ENDBRANCH  13  14
ENDBRANCH  12  13
ENDBRANCH  11  12
ENDBRANCH  10  11
ENDBRANCH   1  10
TORSDOF 15
ENDMDL
MODEL 6
REMARK VINA RESULT:    -1.189      1.937      3.514
REMARK INTER + INTRA:          -4.673
REMARK INTER:                  -2.356
REMARK INTRA:                  -2.317
REMARK UNBOUND:                -2.477
REMARK SMILES CCCCCCCCCCCCCCCCO
REMARK SMILES IDX 9 1 8 2 7 3 6 4 5 5 4 6 3 7 2 8 1 9 10 10 11 11 12 12 13 13
REMARK SMILES IDX 14 14 15 15 16 16 17 17
REMARK H PARENT 17 18
REMARK Flexibility Score: inf
ROOT
ATOM      1  C   UNL     1     123.952 108.886 135.468  1.00  0.00     0.000 C 
ENDROOT
BRANCH   1   2
ATOM      2  C   UNL     1     123.875 108.200 136.843  1.00  0.00    -0.000 C 
BRANCH   2   3
ATOM      3  C   UNL     1     123.802 109.202 138.008  1.00  0.00    -0.000 C 
BRANCH   3   4
ATOM      4  C   UNL     1     124.982 109.145 138.994  1.00  0.00    -0.000 C 
BRANCH   4   5
ATOM      5  C   UNL     1     126.342 109.364 138.316  1.00  0.00    -0.000 C 
BRANCH   5   6
ATOM      6  C   UNL     1     126.683 110.861 138.241  1.00  0.00    -0.000 C 
BRANCH   6   7
ATOM      7  C   UNL     1     126.662 111.403 136.804  1.00  0.00    -0.000 C 
BRANCH   7   8
ATOM      8  C   UNL     1     125.369 112.163 136.476  1.00  0.00    -0.003 C 
ATOM      9  C   UNL     1     124.812 112.860 137.714  1.00  0.00     0.004 C 
ENDBRANCH   7   8
ENDBRANCH   6   7
ENDBRANCH   5   6
ENDBRANCH   4   5
ENDBRANCH   3   4
ENDBRANCH   2   3
ENDBRANCH   1   2
BRANCH   1  10
ATOM     10  C   UNL     1     124.841 108.126 134.470  1.00  0.00     0.000 C 
BRANCH  10  11
ATOM     11  C   UNL     1     126.357 108.232 134.729  1.00  0.00     0.000 C 
BRANCH  11  12
ATOM     12  C   UNL     1     127.079 109.239 133.807  1.00  0.00     0.000 C 
BRANCH  12  13
ATOM     13  C   UNL     1     126.438 109.313 132.411  1.00  0.00     0.000 C 
BRANCH  13  14
ATOM     14  C   UNL     1     126.180 110.757 131.949  1.00  0.00     0.002 C 
BRANCH  14  15
ATOM     15  C   UNL     1     125.274 111.557 132.910  1.00  0.00     0.028 C 
BRANCH  15  16
ATOM     16  C   UNL     1     125.036 112.988 132.426  1.00  0.00     0.156 C 
BRANCH  16  17
ATOM     17  O   UNL     1     124.047 113.590 133.214  1.00  0.00    -0.396 OA
ATOM     18  H   UNL     1     124.526 114.073 133.936  1.00  0.00     0.210 HD
ENDBRANCH  16  17
ENDBRANCH  15  16
ENDBRANCH  14  15
ENDBRANCH  13  14
ENDBRANCH  12  13
ENDBRANCH  11  12
ENDBRANCH  10  11
ENDBRANCH   1  10
TORSDOF 15
ENDMDL
MODEL 7
REMARK VINA RESULT:    -1.156      2.509      5.359
REMARK INTER + INTRA:          -4.614
REMARK INTER:                  -3.152
REMARK INTRA:                  -1.461
REMARK UNBOUND:                -2.477
REMARK SMILES CCCCCCCCCCCCCCCCO
REMARK SMILES IDX 9 1 8 2 7 3 6 4 5 5 4 6 3 7 2 8 1 9 10 10 11 11 12 12 13 13
REMARK SMILES IDX 14 14 15 15 16 16 17 17
REMARK H PARENT 17 18
REMARK Flexibility Score: inf
ROOT
ATOM      1  C   UNL     1     124.739 108.564 138.031  1.00  0.00     0.000 C 
ENDROOT
BRANCH   1   2
ATOM      2  C   UNL     1     124.627 107.707 136.758  1.00  0.00    -0.000 C 
BRANCH   2   3
ATOM      3  C   UNL     1     125.915 106.922 136.452  1.00  0.00    -0.000 C 
BRANCH   3   4
ATOM      4  C   UNL     1     126.316 106.878 134.966  1.00  0.00    -0.000 C 
BRANCH   4   5
ATOM      5  C   UNL     1     126.643 108.265 134.393  1.00  0.00    -0.000 C 
BRANCH   5   6
ATOM      6  C   UNL     1     127.125 108.157 132.938  1.00  0.00    -0.000 C 
BRANCH   6   7
ATOM      7  C   UNL     1     127.071 109.500 132.194  1.00  0.00    -0.000 C 
BRANCH   7   8
ATOM      8  C   UNL     1     125.986 109.531 131.107  1.00  0.00    -0.003 C 
ATOM      9  C   UNL     1     124.983 110.652 131.364  1.00  0.00     0.004 C 
ENDBRANCH   7   8
ENDBRANCH   6   7
ENDBRANCH   5   6
ENDBRANCH   4   5
ENDBRANCH   3   4
ENDBRANCH   2   3
ENDBRANCH   1   2
BRANCH   1  10
ATOM     10  C   UNL     1     125.989 109.459 138.041  1.00  0.00     0.000 C 
BRANCH  10  11
ATOM     11  C   UNL     1     125.993 110.591 136.994  1.00  0.00     0.000 C 
BRANCH  11  12
ATOM     12  C   UNL     1     126.697 111.881 137.471  1.00  0.00     0.000 C 
BRANCH  12  13
ATOM     13  C   UNL     1     127.113 112.784 136.299  1.00  0.00     0.000 C 
BRANCH  13  14
ATOM     14  C   UNL     1     127.082 112.056 134.945  1.00  0.00     0.002 C 
BRANCH  14  15
ATOM     15  C   UNL     1     126.618 112.951 133.776  1.00  0.00     0.028 C 
BRANCH  15  16
ATOM     16  C   UNL     1     125.397 113.798 134.142  1.00  0.00     0.156 C 
BRANCH  16  17
ATOM     17  O   UNL     1     125.648 115.140 133.829  1.00  0.00    -0.396 OA
ATOM     18  H   UNL     1     126.627 115.210 133.684  1.00  0.00     0.210 HD
ENDBRANCH  16  17
ENDBRANCH  15  16
ENDBRANCH  14  15
ENDBRANCH  13  14
ENDBRANCH  12  13
ENDBRANCH  11  12
ENDBRANCH  10  11
ENDBRANCH   1  10
TORSDOF 15
ENDMDL
MODEL 8
REMARK VINA RESULT:    -1.146      1.976      4.296
REMARK INTER + INTRA:          -4.595
REMARK INTER:                  -2.131
REMARK INTRA:                  -2.464
REMARK UNBOUND:                -2.477
REMARK SMILES CCCCCCCCCCCCCCCCO
REMARK SMILES IDX 9 1 8 2 7 3 6 4 5 5 4 6 3 7 2 8 1 9 10 10 11 11 12 12 13 13
REMARK SMILES IDX 14 14 15 15 16 16 17 17
REMARK H PARENT 17 18
REMARK Flexibility Score: inf
ROOT
ATOM      1  C   UNL     1     126.888 111.036 134.714  1.00  0.00     0.000 C 
ENDROOT
BRANCH   1   2
ATOM      2  C   UNL     1     126.657 109.584 134.260  1.00  0.00    -0.000 C 
BRANCH   2   3
ATOM      3  C   UNL     1     125.171 109.183 134.277  1.00  0.00    -0.000 C 
BRANCH   3   4
ATOM      4  C   UNL     1     124.766 108.225 135.412  1.00  0.00    -0.000 C 
BRANCH   4   5
ATOM      5  C   UNL     1     125.970 107.549 136.085  1.00  0.00    -0.000 C 
BRANCH   5   6
ATOM      6  C   UNL     1     126.043 107.916 137.575  1.00  0.00    -0.000 C 
BRANCH   6   7
ATOM      7  C   UNL     1     125.163 109.124 137.932  1.00  0.00    -0.000 C 
BRANCH   7   8
ATOM      8  C   UNL     1     125.710 109.922 139.124  1.00  0.00    -0.003 C 
ATOM      9  C   UNL     1     127.058 110.555 138.790  1.00  0.00     0.004 C 
ENDBRANCH   7   8
ENDBRANCH   6   7
ENDBRANCH   5   6
ENDBRANCH   4   5
ENDBRANCH   3   4
ENDBRANCH   2   3
ENDBRANCH   1   2
BRANCH   1  10
ATOM     10  C   UNL     1     125.583 111.840 134.835  1.00  0.00     0.000 C 
BRANCH  10  11
ATOM     11  C   UNL     1     125.413 112.621 136.153  1.00  0.00     0.000 C 
BRANCH  11  12
ATOM     12  C   UNL     1     124.058 112.378 136.853  1.00  0.00     0.000 C 
BRANCH  12  13
ATOM     13  C   UNL     1     122.903 112.231 135.849  1.00  0.00     0.000 C 
BRANCH  13  14
ATOM     14  C   UNL     1     122.176 110.882 135.970  1.00  0.00     0.002 C 
BRANCH  14  15
ATOM     15  C   UNL     1     121.684 110.325 134.617  1.00  0.00     0.028 C 
BRANCH  15  16
ATOM     16  C   UNL     1     121.017 111.399 133.755  1.00  0.00     0.156 C 
BRANCH  16  17
ATOM     17  O   UNL     1     120.294 110.788 132.723  1.00  0.00    -0.396 OA
ATOM     18  H   UNL     1     119.379 110.640 133.077  1.00  0.00     0.210 HD
ENDBRANCH  16  17
ENDBRANCH  15  16
ENDBRANCH  14  15
ENDBRANCH  13  14
ENDBRANCH  12  13
ENDBRANCH  11  12
ENDBRANCH  10  11
ENDBRANCH   1  10
TORSDOF 15
ENDMDL
MODEL 9
REMARK VINA RESULT:    -1.058      2.096      5.266
REMARK INTER + INTRA:          -4.432
REMARK INTER:                  -2.676
REMARK INTRA:                  -1.756
REMARK UNBOUND:                -2.477
REMARK SMILES CCCCCCCCCCCCCCCCO
REMARK SMILES IDX 9 1 8 2 7 3 6 4 5 5 4 6 3 7 2 8 1 9 10 10 11 11 12 12 13 13
REMARK SMILES IDX 14 14 15 15 16 16 17 17
REMARK H PARENT 17 18
REMARK Flexibility Score: inf
ROOT
ATOM      1  C   UNL     1     125.864 110.427 133.698  1.00  0.00     0.000 C 
ENDROOT
BRANCH   1   2
ATOM      2  C   UNL     1     127.125 109.563 133.876  1.00  0.00    -0.000 C 
BRANCH   2   3
ATOM      3  C   UNL     1     127.028 108.209 133.152  1.00  0.00    -0.000 C 
BRANCH   3   4
ATOM      4  C   UNL     1     126.773 106.997 134.065  1.00  0.00    -0.000 C 
BRANCH   4   5
ATOM      5  C   UNL     1     125.553 107.182 134.979  1.00  0.00    -0.000 C 
BRANCH   5   6
ATOM      6  C   UNL     1     125.946 107.025 136.456  1.00  0.00    -0.000 C 
BRANCH   6   7
ATOM      7  C   UNL     1     126.045 108.371 137.189  1.00  0.00    -0.000 C 
BRANCH   7   8
ATOM      8  C   UNL     1     124.718 108.791 137.838  1.00  0.00    -0.003 C 
ATOM      9  C   UNL     1     124.357 107.868 138.999  1.00  0.00     0.004 C 
ENDBRANCH   7   8
ENDBRANCH   6   7
ENDBRANCH   5   6
ENDBRANCH   4   5
ENDBRANCH   3   4
ENDBRANCH   2   3
ENDBRANCH   1   2
BRANCH   1  10
ATOM     10  C   UNL     1     125.580 111.327 134.913  1.00  0.00     0.000 C 
BRANCH  10  11
ATOM     11  C   UNL     1     126.807 111.654 135.788  1.00  0.00     0.000 C 
BRANCH  11  12
ATOM     12  C   UNL     1     126.558 112.778 136.817  1.00  0.00     0.000 C 
BRANCH  12  13
ATOM     13  C   UNL     1     126.294 112.227 138.228  1.00  0.00     0.000 C 
BRANCH  13  14
ATOM     14  C   UNL     1     125.392 113.146 139.068  1.00  0.00     0.002 C 
BRANCH  14  15
ATOM     15  C   UNL     1     124.001 113.383 138.440  1.00  0.00     0.028 C 
BRANCH  15  16
ATOM     16  C   UNL     1     123.213 112.082 138.269  1.00  0.00     0.156 C 
BRANCH  16  17
ATOM     17  O   UNL     1     122.720 112.003 136.961  1.00  0.00    -0.396 OA
ATOM     18  H   UNL     1     122.292 111.112 136.881  1.00  0.00     0.210 HD
ENDBRANCH  16  17
ENDBRANCH  15  16
ENDBRANCH  14  15
ENDBRANCH  13  14
ENDBRANCH  12  13
ENDBRANCH  11  12
ENDBRANCH  10  11
ENDBRANCH   1  10
TORSDOF 15
ENDMDL
