MODEL 1
REMARK VINA RESULT:    -5.399      0.000      0.000
REMARK INTER + INTRA:          -6.971
REMARK INTER:                  -6.662
REMARK INTRA:                  -0.310
REMARK UNBOUND:                -0.310
REMARK SMILES O=c1c(O)c(-c2cc(O)c(O)c(O)c2)oc2cc(O)cc(O)c12
REMARK SMILES IDX 5 1 3 2 2 3 1 4 23 5 21 6 20 7 18 8 17 9 16 10 15 11 6 12
REMARK SMILES IDX 7 13 8 14 14 15 10 16 12 17 9 18 11 20 13 22 4 24 22 26
REMARK SMILES IDX 19 28
REMARK H PARENT 9 19 11 21 13 23 4 25 22 27 19 29
REMARK Flexibility Score: inf
ROOT
ATOM      1  C   UNL     1      12.875  32.783   5.478  1.00  0.00     0.180 A 
ATOM      2  C   UNL     1      12.013  31.703   5.728  1.00  0.00     0.208 A 
ATOM      3  C   UNL     1      10.625  31.907   5.654  1.00  0.00     0.238 A 
ATOM      4  O   UNL     1       9.858  30.949   5.933  1.00  0.00    -0.285 OA
ATOM      5  C   UNL     1      10.119  33.185   5.314  1.00  0.00     0.111 A 
ATOM      6  C   UNL     1       8.733  33.495   5.171  1.00  0.00     0.134 A 
ATOM      7  C   UNL     1       8.341  34.822   4.960  1.00  0.00     0.093 A 
ATOM      8  C   UNL     1       9.288  35.840   4.822  1.00  0.00     0.123 A 
ATOM      9  C   UNL     1      10.645  35.537   4.902  1.00  0.00     0.094 A 
ATOM     10  C   UNL     1      11.066  34.228   5.147  1.00  0.00     0.146 A 
ATOM     11  O   UNL     1      12.369  33.985   5.225  1.00  0.00    -0.452 OA
ENDROOT
BRANCH   1  12
ATOM     12  C   UNL     1      14.348  32.641   5.513  1.00  0.00     0.029 A 
ATOM     13  C   UNL     1      15.045  31.995   4.477  1.00  0.00     0.062 A 
ATOM     14  C   UNL     1      16.440  31.886   4.506  1.00  0.00     0.162 A 
ATOM     15  C   UNL     1      15.073  33.209   6.569  1.00  0.00     0.062 A 
ATOM     16  C   UNL     1      17.161  32.440   5.591  1.00  0.00     0.200 A 
ATOM     17  C   UNL     1      16.469  33.103   6.614  1.00  0.00     0.162 A 
BRANCH  14  18
ATOM     18  O   UNL     1      17.064  31.230   3.443  1.00  0.00    -0.504 OA
ATOM     19  H   UNL     1      17.065  30.228   3.318  1.00  0.00     0.293 HD
ENDBRANCH  14  18
BRANCH  16  20
ATOM     20  O   UNL     1      18.552  32.356   5.688  1.00  0.00    -0.502 OA
ATOM     21  H   UNL     1      19.121  32.992   6.228  1.00  0.00     0.293 HD
ENDBRANCH  16  20
BRANCH  17  22
ATOM     22  O   UNL     1      17.179  33.659   7.677  1.00  0.00    -0.504 OA
ATOM     23  H   UNL     1      18.091  34.080   7.545  1.00  0.00     0.293 HD
ENDBRANCH  17  22
ENDBRANCH   1  12
BRANCH   2  24
ATOM     24  O   UNL     1      12.533  30.455   6.084  1.00  0.00    -0.502 OA
ATOM     25  H   UNL     1      12.841  30.241   7.024  1.00  0.00     0.293 HD
ENDBRANCH   2  24
BRANCH   6  26
ATOM     26  O   UNL     1       7.712  32.540   5.199  1.00  0.00    -0.507 OA
ATOM     27  H   UNL     1       7.141  32.286   4.407  1.00  0.00     0.293 HD
ENDBRANCH   6  26
BRANCH   8  28
ATOM     28  O   UNL     1       8.889  37.156   4.598  1.00  0.00    -0.508 OA
ATOM     29  H   UNL     1       9.534  37.930   4.697  1.00  0.00     0.293 HD
ENDBRANCH   8  28
TORSDOF 7
ENDMDL
MODEL 2
REMARK VINA RESULT:    -5.379      3.704      8.272
REMARK INTER + INTRA:          -6.947
REMARK INTER:                  -6.647
REMARK INTRA:                  -0.300
REMARK UNBOUND:                -0.310
REMARK SMILES O=c1c(O)c(-c2cc(O)c(O)c(O)c2)oc2cc(O)cc(O)c12
REMARK SMILES IDX 5 1 3 2 2 3 1 4 23 5 21 6 20 7 18 8 17 9 16 10 15 11 6 12
REMARK SMILES IDX 7 13 8 14 14 15 10 16 12 17 9 18 11 20 13 22 4 24 22 26
REMARK SMILES IDX 19 28
REMARK H PARENT 9 19 11 21 13 23 4 25 22 27 19 29
REMARK Flexibility Score: inf
ROOT
ATOM      1  C   UNL     1      14.496  36.660   5.740  1.00  0.00     0.180 A 
ATOM      2  C   UNL     1      15.243  37.187   4.674  1.00  0.00     0.208 A 
ATOM      3  C   UNL     1      16.459  36.577   4.326  1.00  0.00     0.238 A 
ATOM      4  O   UNL     1      17.150  37.087   3.406  1.00  0.00    -0.285 OA
ATOM      5  C   UNL     1      16.902  35.436   5.037  1.00  0.00     0.111 A 
ATOM      6  C   UNL     1      18.098  34.712   4.744  1.00  0.00     0.134 A 
ATOM      7  C   UNL     1      18.505  33.678   5.595  1.00  0.00     0.093 A 
ATOM      8  C   UNL     1      17.727  33.298   6.691  1.00  0.00     0.123 A 
ATOM      9  C   UNL     1      16.529  33.959   6.951  1.00  0.00     0.094 A 
ATOM     10  C   UNL     1      16.114  35.019   6.141  1.00  0.00     0.146 A 
ATOM     11  O   UNL     1      14.970  35.628   6.430  1.00  0.00    -0.452 OA
ENDROOT
BRANCH   1  12
ATOM     12  C   UNL     1      13.194  37.233   6.150  1.00  0.00     0.029 A 
ATOM     13  C   UNL     1      13.081  38.050   7.288  1.00  0.00     0.062 A 
ATOM     14  C   UNL     1      11.851  38.607   7.656  1.00  0.00     0.162 A 
ATOM     15  C   UNL     1      12.059  37.007   5.360  1.00  0.00     0.062 A 
ATOM     16  C   UNL     1      10.705  38.352   6.866  1.00  0.00     0.200 A 
ATOM     17  C   UNL     1      10.821  37.555   5.718  1.00  0.00     0.162 A 
BRANCH  14  18
ATOM     18  O   UNL     1      11.815  39.408   8.800  1.00  0.00    -0.504 OA
ATOM     19  H   UNL     1      11.063  39.400   9.472  1.00  0.00     0.293 HD
ENDBRANCH  14  18
BRANCH  16  20
ATOM     20  O   UNL     1       9.446  38.867   7.181  1.00  0.00    -0.502 OA
ATOM     21  H   UNL     1       8.879  39.406   6.544  1.00  0.00     0.293 HD
ENDBRANCH  16  20
BRANCH  17  22
ATOM     22  O   UNL     1       9.695  37.311   4.933  1.00  0.00    -0.504 OA
ATOM     23  H   UNL     1       9.739  37.326   3.921  1.00  0.00     0.293 HD
ENDBRANCH  17  22
ENDBRANCH   1  12
BRANCH   2  24
ATOM     24  O   UNL     1      14.798  38.328   3.999  1.00  0.00    -0.502 OA
ATOM     25  H   UNL     1      14.604  38.331   3.006  1.00  0.00     0.293 HD
ENDBRANCH   2  24
BRANCH   6  26
ATOM     26  O   UNL     1      18.899  34.950   3.623  1.00  0.00    -0.507 OA
ATOM     27  H   UNL     1      19.547  34.285   3.229  1.00  0.00     0.293 HD
ENDBRANCH   6  26
BRANCH   8  28
ATOM     28  O   UNL     1      18.132  32.258   7.524  1.00  0.00    -0.508 OA
ATOM     29  H   UNL     1      17.744  32.138   8.452  1.00  0.00     0.293 HD
ENDBRANCH   8  28
TORSDOF 7
ENDMDL
MODEL 3
REMARK VINA RESULT:    -5.352      0.157      1.766
REMARK INTER + INTRA:          -6.913
REMARK INTER:                  -6.631
REMARK INTRA:                  -0.282
REMARK UNBOUND:                -0.310
REMARK SMILES O=c1c(O)c(-c2cc(O)c(O)c(O)c2)oc2cc(O)cc(O)c12
REMARK SMILES IDX 5 1 3 2 2 3 1 4 23 5 21 6 20 7 18 8 17 9 16 10 15 11 6 12
REMARK SMILES IDX 7 13 8 14 14 15 10 16 12 17 9 18 11 20 13 22 4 24 22 26
REMARK SMILES IDX 19 28
REMARK H PARENT 9 19 11 21 13 23 4 25 22 27 19 29
REMARK Flexibility Score: inf
ROOT
ATOM      1  C   UNL     1      12.956  32.788   5.434  1.00  0.00     0.180 A 
ATOM      2  C   UNL     1      12.095  31.711   5.697  1.00  0.00     0.208 A 
ATOM      3  C   UNL     1      10.706  31.920   5.653  1.00  0.00     0.238 A 
ATOM      4  O   UNL     1       9.941  30.964   5.944  1.00  0.00    -0.285 OA
ATOM      5  C   UNL     1      10.199  33.202   5.330  1.00  0.00     0.111 A 
ATOM      6  C   UNL     1       8.811  33.519   5.218  1.00  0.00     0.134 A 
ATOM      7  C   UNL     1       8.420  34.848   5.021  1.00  0.00     0.093 A 
ATOM      8  C   UNL     1       9.369  35.863   4.869  1.00  0.00     0.123 A 
ATOM      9  C   UNL     1      10.725  35.554   4.918  1.00  0.00     0.094 A 
ATOM     10  C   UNL     1      11.146  34.242   5.148  1.00  0.00     0.146 A 
ATOM     11  O   UNL     1      12.449  33.993   5.198  1.00  0.00    -0.452 OA
ENDROOT
BRANCH   1  12
ATOM     12  C   UNL     1      14.429  32.640   5.437  1.00  0.00     0.029 A 
ATOM     13  C   UNL     1      15.210  33.122   6.500  1.00  0.00     0.062 A 
ATOM     14  C   UNL     1      16.600  32.956   6.507  1.00  0.00     0.162 A 
ATOM     15  C   UNL     1      15.057  31.955   4.388  1.00  0.00     0.062 A 
ATOM     16  C   UNL     1      17.228  32.286   5.430  1.00  0.00     0.200 A 
ATOM     17  C   UNL     1      16.447  31.785   4.379  1.00  0.00     0.162 A 
BRANCH  14  18
ATOM     18  O   UNL     1      17.311  33.463   7.597  1.00  0.00    -0.504 OA
ATOM     19  H   UNL     1      17.423  32.976   8.474  1.00  0.00     0.293 HD
ENDBRANCH  14  18
BRANCH  16  20
ATOM     20  O   UNL     1      18.610  32.096   5.368  1.00  0.00    -0.502 OA
ATOM     21  H   UNL     1      19.290  32.805   5.601  1.00  0.00     0.293 HD
ENDBRANCH  16  20
BRANCH  17  22
ATOM     22  O   UNL     1      17.063  31.115   3.323  1.00  0.00    -0.504 OA
ATOM     23  H   UNL     1      16.551  30.854   2.488  1.00  0.00     0.293 HD
ENDBRANCH  17  22
ENDBRANCH   1  12
BRANCH   2  24
ATOM     24  O   UNL     1      12.617  30.459   6.036  1.00  0.00    -0.502 OA
ATOM     25  H   UNL     1      12.389  29.617   5.523  1.00  0.00     0.293 HD
ENDBRANCH   2  24
BRANCH   6  26
ATOM     26  O   UNL     1       7.787  32.568   5.263  1.00  0.00    -0.507 OA
ATOM     27  H   UNL     1       7.026  32.574   5.924  1.00  0.00     0.293 HD
ENDBRANCH   6  26
BRANCH   8  28
ATOM     28  O   UNL     1       8.971  37.181   4.658  1.00  0.00    -0.508 OA
ATOM     29  H   UNL     1       8.492  37.712   5.376  1.00  0.00     0.293 HD
ENDBRANCH   8  28
TORSDOF 7
ENDMDL
MODEL 4
REMARK VINA RESULT:    -5.110      2.101      4.065
REMARK INTER + INTRA:          -6.615
REMARK INTER:                  -6.317
REMARK INTRA:                  -0.298
REMARK UNBOUND:                -0.310
REMARK SMILES O=c1c(O)c(-c2cc(O)c(O)c(O)c2)oc2cc(O)cc(O)c12
REMARK SMILES IDX 5 1 3 2 2 3 1 4 23 5 21 6 20 7 18 8 17 9 16 10 15 11 6 12
REMARK SMILES IDX 7 13 8 14 14 15 10 16 12 17 9 18 11 20 13 22 4 24 22 26
REMARK SMILES IDX 19 28
REMARK H PARENT 9 19 11 21 13 23 4 25 22 27 19 29
REMARK Flexibility Score: inf
ROOT
ATOM      1  C   UNL     1      13.900  32.575   5.276  1.00  0.00     0.180 A 
ATOM      2  C   UNL     1      12.799  33.436   5.421  1.00  0.00     0.208 A 
ATOM      3  C   UNL     1      11.502  32.898   5.383  1.00  0.00     0.238 A 
ATOM      4  O   UNL     1      10.520  33.681   5.460  1.00  0.00    -0.285 OA
ATOM      5  C   UNL     1      11.325  31.503   5.216  1.00  0.00     0.111 A 
ATOM      6  C   UNL     1      10.058  30.844   5.202  1.00  0.00     0.134 A 
ATOM      7  C   UNL     1       9.994  29.479   4.900  1.00  0.00     0.093 A 
ATOM      8  C   UNL     1      11.154  28.736   4.674  1.00  0.00     0.123 A 
ATOM      9  C   UNL     1      12.398  29.357   4.743  1.00  0.00     0.094 A 
ATOM     10  C   UNL     1      12.493  30.726   5.008  1.00  0.00     0.146 A 
ATOM     11  O   UNL     1      13.698  31.281   5.055  1.00  0.00    -0.452 OA
ENDROOT
BRANCH   1  12
ATOM     12  C   UNL     1      15.296  33.064   5.330  1.00  0.00     0.029 A 
ATOM     13  C   UNL     1      16.109  32.831   6.451  1.00  0.00     0.062 A 
ATOM     14  C   UNL     1      17.436  33.276   6.484  1.00  0.00     0.162 A 
ATOM     15  C   UNL     1      15.840  33.724   4.220  1.00  0.00     0.062 A 
ATOM     16  C   UNL     1      17.969  33.964   5.369  1.00  0.00     0.200 A 
ATOM     17  C   UNL     1      17.165  34.179   4.240  1.00  0.00     0.162 A 
BRANCH  14  18
ATOM     18  O   UNL     1      18.184  33.008   7.633  1.00  0.00    -0.504 OA
ATOM     19  H   UNL     1      18.499  33.716   8.281  1.00  0.00     0.293 HD
ENDBRANCH  14  18
BRANCH  16  20
ATOM     20  O   UNL     1      19.280  34.446   5.340  1.00  0.00    -0.502 OA
ATOM     21  H   UNL     1      20.030  34.014   4.821  1.00  0.00     0.293 HD
ENDBRANCH  16  20
BRANCH  17  22
ATOM     22  O   UNL     1      17.692  34.848   3.137  1.00  0.00    -0.504 OA
ATOM     23  H   UNL     1      17.154  35.537   2.625  1.00  0.00     0.293 HD
ENDBRANCH  17  22
ENDBRANCH   1  12
BRANCH   2  24
ATOM     24  O   UNL     1      12.997  34.813   5.563  1.00  0.00    -0.502 OA
ATOM     25  H   UNL     1      12.928  35.456   4.785  1.00  0.00     0.293 HD
ENDBRANCH   2  24
BRANCH   6  26
ATOM     26  O   UNL     1       8.847  31.474   5.505  1.00  0.00    -0.507 OA
ATOM     27  H   UNL     1       8.122  31.078   6.085  1.00  0.00     0.293 HD
ENDBRANCH   6  26
BRANCH   8  28
ATOM     28  O   UNL     1      11.081  27.374   4.388  1.00  0.00    -0.508 OA
ATOM     29  H   UNL     1      11.289  26.673   5.089  1.00  0.00     0.293 HD
ENDBRANCH   8  28
TORSDOF 7
ENDMDL
MODEL 5
REMARK VINA RESULT:    -5.077      1.788      7.349
REMARK INTER + INTRA:          -6.574
REMARK INTER:                  -6.298
REMARK INTRA:                  -0.276
REMARK UNBOUND:                -0.310
REMARK SMILES O=c1c(O)c(-c2cc(O)c(O)c(O)c2)oc2cc(O)cc(O)c12
REMARK SMILES IDX 5 1 3 2 2 3 1 4 23 5 21 6 20 7 18 8 17 9 16 10 15 11 6 12
REMARK SMILES IDX 7 13 8 14 14 15 10 16 12 17 9 18 11 20 13 22 4 24 22 26
REMARK SMILES IDX 19 28
REMARK H PARENT 9 19 11 21 13 23 4 25 22 27 19 29
REMARK Flexibility Score: inf
ROOT
ATOM      1  C   UNL     1      12.709  33.975   4.712  1.00  0.00     0.180 A 
ATOM      2  C   UNL     1      13.221  34.464   3.499  1.00  0.00     0.208 A 
ATOM      3  C   UNL     1      14.608  34.427   3.278  1.00  0.00     0.238 A 
ATOM      4  O   UNL     1      15.064  34.917   2.213  1.00  0.00    -0.285 OA
ATOM      5  C   UNL     1      15.462  33.886   4.269  1.00  0.00     0.111 A 
ATOM      6  C   UNL     1      16.879  33.761   4.136  1.00  0.00     0.134 A 
ATOM      7  C   UNL     1      17.639  33.331   5.230  1.00  0.00     0.093 A 
ATOM      8  C   UNL     1      17.029  32.960   6.431  1.00  0.00     0.123 A 
ATOM      9  C   UNL     1      15.643  33.022   6.550  1.00  0.00     0.094 A 
ATOM     10  C   UNL     1      14.860  33.481   5.488  1.00  0.00     0.146 A 
ATOM     11  O   UNL     1      13.543  33.534   5.647  1.00  0.00    -0.452 OA
ENDROOT
BRANCH   1  12
ATOM     12  C   UNL     1      11.258  33.959   5.007  1.00  0.00     0.029 A 
ATOM     13  C   UNL     1      10.557  35.142   5.294  1.00  0.00     0.062 A 
ATOM     14  C   UNL     1       9.181  35.120   5.548  1.00  0.00     0.162 A 
ATOM     15  C   UNL     1      10.554  32.749   4.942  1.00  0.00     0.062 A 
ATOM     16  C   UNL     1       8.483  33.889   5.507  1.00  0.00     0.200 A 
ATOM     17  C   UNL     1       9.178  32.711   5.198  1.00  0.00     0.162 A 
BRANCH  14  18
ATOM     18  O   UNL     1       8.552  36.335   5.828  1.00  0.00    -0.504 OA
ATOM     19  H   UNL     1       8.793  37.211   5.389  1.00  0.00     0.293 HD
ENDBRANCH  14  18
BRANCH  16  20
ATOM     20  O   UNL     1       7.113  33.795   5.761  1.00  0.00    -0.502 OA
ATOM     21  H   UNL     1       6.441  34.505   5.511  1.00  0.00     0.293 HD
ENDBRANCH  16  20
BRANCH  17  22
ATOM     22  O   UNL     1       8.490  31.500   5.147  1.00  0.00    -0.504 OA
ATOM     23  H   UNL     1       7.518  31.452   4.860  1.00  0.00     0.293 HD
ENDBRANCH  17  22
ENDBRANCH   1  12
BRANCH   2  24
ATOM     24  O   UNL     1      12.361  35.015   2.544  1.00  0.00    -0.502 OA
ATOM     25  H   UNL     1      11.608  34.487   2.120  1.00  0.00     0.293 HD
ENDBRANCH   2  24
BRANCH   6  26
ATOM     26  O   UNL     1      17.577  34.017   2.953  1.00  0.00    -0.507 OA
ATOM     27  H   UNL     1      18.322  34.691   2.859  1.00  0.00     0.293 HD
ENDBRANCH   6  26
BRANCH   8  28
ATOM     28  O   UNL     1      17.792  32.519   7.509  1.00  0.00    -0.508 OA
ATOM     29  H   UNL     1      18.397  31.710   7.436  1.00  0.00     0.293 HD
ENDBRANCH   8  28
TORSDOF 7
ENDMDL
MODEL 6
REMARK VINA RESULT:    -5.026      1.541      3.133
REMARK INTER + INTRA:          -6.511
REMARK INTER:                  -6.167
REMARK INTRA:                  -0.345
REMARK UNBOUND:                -0.310
REMARK SMILES O=c1c(O)c(-c2cc(O)c(O)c(O)c2)oc2cc(O)cc(O)c12
REMARK SMILES IDX 5 1 3 2 2 3 1 4 23 5 21 6 20 7 18 8 17 9 16 10 15 11 6 12
REMARK SMILES IDX 7 13 8 14 14 15 10 16 12 17 9 18 11 20 13 22 4 24 22 26
REMARK SMILES IDX 19 28
REMARK H PARENT 9 19 11 21 13 23 4 25 22 27 19 29
REMARK Flexibility Score: inf
ROOT
ATOM      1  C   UNL     1      13.624  34.456   5.102  1.00  0.00     0.180 A 
ATOM      2  C   UNL     1      13.448  35.850   5.105  1.00  0.00     0.208 A 
ATOM      3  C   UNL     1      12.147  36.373   5.189  1.00  0.00     0.238 A 
ATOM      4  O   UNL     1      11.992  37.620   5.136  1.00  0.00    -0.285 OA
ATOM      5  C   UNL     1      11.041  35.494   5.286  1.00  0.00     0.111 A 
ATOM      6  C   UNL     1       9.682  35.913   5.416  1.00  0.00     0.134 A 
ATOM      7  C   UNL     1       8.658  34.959   5.372  1.00  0.00     0.093 A 
ATOM      8  C   UNL     1       8.947  33.597   5.268  1.00  0.00     0.123 A 
ATOM      9  C   UNL     1      10.272  33.174   5.200  1.00  0.00     0.094 A 
ATOM     10  C   UNL     1      11.314  34.104   5.205  1.00  0.00     0.146 A 
ATOM     11  O   UNL     1      12.563  33.659   5.128  1.00  0.00    -0.452 OA
ENDROOT
BRANCH   1  12
ATOM     12  C   UNL     1      14.965  33.831   5.041  1.00  0.00     0.029 A 
ATOM     13  C   UNL     1      15.627  33.640   3.817  1.00  0.00     0.062 A 
ATOM     14  C   UNL     1      16.904  33.070   3.770  1.00  0.00     0.162 A 
ATOM     15  C   UNL     1      15.615  33.474   6.229  1.00  0.00     0.062 A 
ATOM     16  C   UNL     1      17.543  32.688   4.974  1.00  0.00     0.200 A 
ATOM     17  C   UNL     1      16.892  32.898   6.198  1.00  0.00     0.162 A 
BRANCH  14  18
ATOM     18  O   UNL     1      17.500  32.910   2.517  1.00  0.00    -0.504 OA
ATOM     19  H   UNL     1      17.208  32.225   1.835  1.00  0.00     0.293 HD
ENDBRANCH  14  18
BRANCH  16  20
ATOM     20  O   UNL     1      18.811  32.104   4.998  1.00  0.00    -0.502 OA
ATOM     21  H   UNL     1      19.045  31.280   5.533  1.00  0.00     0.293 HD
ENDBRANCH  16  20
BRANCH  17  22
ATOM     22  O   UNL     1      17.524  32.532   7.385  1.00  0.00    -0.504 OA
ATOM     23  H   UNL     1      18.069  33.196   7.924  1.00  0.00     0.293 HD
ENDBRANCH  17  22
ENDBRANCH   1  12
BRANCH   2  24
ATOM     24  O   UNL     1      14.552  36.699   4.987  1.00  0.00    -0.502 OA
ATOM     25  H   UNL     1      15.495  36.398   5.197  1.00  0.00     0.293 HD
ENDBRANCH   2  24
BRANCH   6  26
ATOM     26  O   UNL     1       9.291  37.240   5.618  1.00  0.00    -0.507 OA
ATOM     27  H   UNL     1       8.573  37.536   6.262  1.00  0.00     0.293 HD
ENDBRANCH   6  26
BRANCH   8  28
ATOM     28  O   UNL     1       7.922  32.654   5.240  1.00  0.00    -0.508 OA
ATOM     29  H   UNL     1       7.362  32.503   4.409  1.00  0.00     0.293 HD
ENDBRANCH   8  28
TORSDOF 7
ENDMDL
MODEL 7
REMARK VINA RESULT:    -4.951      1.957      7.293
REMARK INTER + INTRA:          -6.418
REMARK INTER:                  -6.344
REMARK INTRA:                  -0.074
REMARK UNBOUND:                -0.310
REMARK SMILES O=c1c(O)c(-c2cc(O)c(O)c(O)c2)oc2cc(O)cc(O)c12
REMARK SMILES IDX 5 1 3 2 2 3 1 4 23 5 21 6 20 7 18 8 17 9 16 10 15 11 6 12
REMARK SMILES IDX 7 13 8 14 14 15 10 16 12 17 9 18 11 20 13 22 4 24 22 26
REMARK SMILES IDX 19 28
REMARK H PARENT 9 19 11 21 13 23 4 25 22 27 19 29
REMARK Flexibility Score: inf
ROOT
ATOM      1  C   UNL     1      12.835  34.318   4.866  1.00  0.00     0.180 A 
ATOM      2  C   UNL     1      13.368  35.134   3.854  1.00  0.00     0.208 A 
ATOM      3  C   UNL     1      14.763  35.222   3.712  1.00  0.00     0.238 A 
ATOM      4  O   UNL     1      15.234  35.996   2.840  1.00  0.00    -0.285 OA
ATOM      5  C   UNL     1      15.605  34.480   4.575  1.00  0.00     0.111 A 
ATOM      6  C   UNL     1      17.031  34.463   4.497  1.00  0.00     0.134 A 
ATOM      7  C   UNL     1      17.768  33.796   5.483  1.00  0.00     0.093 A 
ATOM      8  C   UNL     1      17.130  33.093   6.508  1.00  0.00     0.123 A 
ATOM      9  C   UNL     1      15.739  33.055   6.559  1.00  0.00     0.094 A 
ATOM     10  C   UNL     1      14.977  33.740   5.609  1.00  0.00     0.146 A 
ATOM     11  O   UNL     1      13.653  33.686   5.700  1.00  0.00    -0.452 OA
ENDROOT
BRANCH   1  12
ATOM     12  C   UNL     1      11.377  34.155   5.061  1.00  0.00     0.029 A 
ATOM     13  C   UNL     1      10.780  32.883   5.079  1.00  0.00     0.062 A 
ATOM     14  C   UNL     1       9.404  32.737   5.288  1.00  0.00     0.162 A 
ATOM     15  C   UNL     1      10.580  35.284   5.290  1.00  0.00     0.062 A 
ATOM     16  C   UNL     1       8.602  33.885   5.493  1.00  0.00     0.200 A 
ATOM     17  C   UNL     1       9.200  35.153   5.497  1.00  0.00     0.162 A 
BRANCH  14  18
ATOM     18  O   UNL     1       8.880  31.442   5.292  1.00  0.00    -0.504 OA
ATOM     19  H   UNL     1       8.506  30.981   4.476  1.00  0.00     0.293 HD
ENDBRANCH  14  18
BRANCH  16  20
ATOM     20  O   UNL     1       7.222  33.811   5.695  1.00  0.00    -0.502 OA
ATOM     21  H   UNL     1       6.615  34.616   5.753  1.00  0.00     0.293 HD
ENDBRANCH  16  20
BRANCH  17  22
ATOM     22  O   UNL     1       8.414  36.284   5.708  1.00  0.00    -0.504 OA
ATOM     23  H   UNL     1       8.525  36.862   6.534  1.00  0.00     0.293 HD
ENDBRANCH  17  22
ENDBRANCH   1  12
BRANCH   2  24
ATOM     24  O   UNL     1      12.519  35.875   3.027  1.00  0.00    -0.502 OA
ATOM     25  H   UNL     1      12.215  35.543   2.121  1.00  0.00     0.293 HD
ENDBRANCH   2  24
BRANCH   6  26
ATOM     26  O   UNL     1      17.763  35.055   3.463  1.00  0.00    -0.507 OA
ATOM     27  H   UNL     1      18.468  34.585   2.916  1.00  0.00     0.293 HD
ENDBRANCH   6  26
BRANCH   8  28
ATOM     28  O   UNL     1      17.872  32.421   7.476  1.00  0.00    -0.508 OA
ATOM     29  H   UNL     1      17.478  32.188   8.380  1.00  0.00     0.293 HD
ENDBRANCH   8  28
TORSDOF 7
ENDMDL
MODEL 8
REMARK VINA RESULT:    -4.926      5.560      7.963
REMARK INTER + INTRA:          -6.387
REMARK INTER:                  -6.048
REMARK INTRA:                  -0.340
REMARK UNBOUND:                -0.310
REMARK SMILES O=c1c(O)c(-c2cc(O)c(O)c(O)c2)oc2cc(O)cc(O)c12
REMARK SMILES IDX 5 1 3 2 2 3 1 4 23 5 21 6 20 7 18 8 17 9 16 10 15 11 6 12
REMARK SMILES IDX 7 13 8 14 14 15 10 16 12 17 9 18 11 20 13 22 4 24 22 26
REMARK SMILES IDX 19 28
REMARK H PARENT 9 19 11 21 13 23 4 25 22 27 19 29
REMARK Flexibility Score: inf
ROOT
ATOM      1  C   UNL     1       7.878  28.362   5.196  1.00  0.00     0.180 A 
ATOM      2  C   UNL     1       6.891  28.913   4.361  1.00  0.00     0.208 A 
ATOM      3  C   UNL     1       5.565  28.469   4.488  1.00  0.00     0.238 A 
ATOM      4  O   UNL     1       4.696  28.927   3.701  1.00  0.00    -0.285 OA
ATOM      5  C   UNL     1       5.241  27.491   5.460  1.00  0.00     0.111 A 
ATOM      6  C   UNL     1       3.923  26.997   5.703  1.00  0.00     0.134 A 
ATOM      7  C   UNL     1       3.738  25.937   6.598  1.00  0.00     0.093 A 
ATOM      8  C   UNL     1       4.814  25.396   7.307  1.00  0.00     0.123 A 
ATOM      9  C   UNL     1       6.094  25.911   7.120  1.00  0.00     0.094 A 
ATOM     10  C   UNL     1       6.316  26.945   6.207  1.00  0.00     0.146 A 
ATOM     11  O   UNL     1       7.554  27.400   6.052  1.00  0.00    -0.452 OA
ENDROOT
BRANCH   1  12
ATOM     12  C   UNL     1       9.292  28.796   5.138  1.00  0.00     0.029 A 
ATOM     13  C   UNL     1       9.808  29.728   6.054  1.00  0.00     0.062 A 
ATOM     14  C   UNL     1      11.152  30.116   6.007  1.00  0.00     0.162 A 
ATOM     15  C   UNL     1      10.152  28.227   4.189  1.00  0.00     0.062 A 
ATOM     16  C   UNL     1      12.007  29.555   5.028  1.00  0.00     0.200 A 
ATOM     17  C   UNL     1      11.498  28.608   4.127  1.00  0.00     0.162 A 
BRANCH  14  18
ATOM     18  O   UNL     1      11.594  31.048   6.949  1.00  0.00    -0.504 OA
ATOM     19  H   UNL     1      12.566  31.248   7.133  1.00  0.00     0.293 HD
ENDBRANCH  14  18
BRANCH  16  20
ATOM     20  O   UNL     1      13.355  29.905   4.918  1.00  0.00    -0.502 OA
ATOM     21  H   UNL     1      13.968  29.574   4.188  1.00  0.00     0.293 HD
ENDBRANCH  16  20
BRANCH  17  22
ATOM     22  O   UNL     1      12.341  28.047   3.170  1.00  0.00    -0.504 OA
ATOM     23  H   UNL     1      13.262  28.428   2.983  1.00  0.00     0.293 HD
ENDBRANCH  17  22
ENDBRANCH   1  12
BRANCH   2  24
ATOM     24  O   UNL     1       7.237  29.861   3.394  1.00  0.00    -0.502 OA
ATOM     25  H   UNL     1       7.395  30.835   3.618  1.00  0.00     0.293 HD
ENDBRANCH   2  24
BRANCH   6  26
ATOM     26  O   UNL     1       2.770  27.528   5.118  1.00  0.00    -0.507 OA
ATOM     27  H   UNL     1       2.741  27.992   4.222  1.00  0.00     0.293 HD
ENDBRANCH   6  26
BRANCH   8  28
ATOM     28  O   UNL     1       4.618  24.351   8.207  1.00  0.00    -0.508 OA
ATOM     29  H   UNL     1       4.352  23.425   7.895  1.00  0.00     0.293 HD
ENDBRANCH   8  28
TORSDOF 7
ENDMDL
MODEL 9
REMARK VINA RESULT:    -4.881     10.854     11.578
REMARK INTER + INTRA:          -6.333
REMARK INTER:                  -6.223
REMARK INTRA:                  -0.109
REMARK UNBOUND:                -0.310
REMARK SMILES O=c1c(O)c(-c2cc(O)c(O)c(O)c2)oc2cc(O)cc(O)c12
REMARK SMILES IDX 5 1 3 2 2 3 1 4 23 5 21 6 20 7 18 8 17 9 16 10 15 11 6 12
REMARK SMILES IDX 7 13 8 14 14 15 10 16 12 17 9 18 11 20 13 22 4 24 22 26
REMARK SMILES IDX 19 28
REMARK H PARENT 9 19 11 21 13 23 4 25 22 27 19 29
REMARK Flexibility Score: inf
ROOT
ATOM      1  C   UNL     1       6.581  23.280   5.486  1.00  0.00     0.180 A 
ATOM      2  C   UNL     1       5.818  22.861   4.383  1.00  0.00     0.208 A 
ATOM      3  C   UNL     1       4.635  23.551   4.070  1.00  0.00     0.238 A 
ATOM      4  O   UNL     1       3.929  23.137   3.114  1.00  0.00    -0.285 OA
ATOM      5  C   UNL     1       4.239  24.660   4.855  1.00  0.00     0.111 A 
ATOM      6  C   UNL     1       3.081  25.457   4.606  1.00  0.00     0.134 A 
ATOM      7  C   UNL     1       2.715  26.449   5.524  1.00  0.00     0.093 A 
ATOM      8  C   UNL     1       3.501  26.716   6.647  1.00  0.00     0.123 A 
ATOM      9  C   UNL     1       4.665  25.984   6.867  1.00  0.00     0.094 A 
ATOM     10  C   UNL     1       5.037  24.964   5.989  1.00  0.00     0.146 A 
ATOM     11  O   UNL     1       6.149  24.283   6.241  1.00  0.00    -0.452 OA
ENDROOT
BRANCH   1  12
ATOM     12  C   UNL     1       7.851  22.620   5.863  1.00  0.00     0.029 A 
ATOM     13  C   UNL     1       8.901  22.473   4.940  1.00  0.00     0.062 A 
ATOM     14  C   UNL     1      10.107  21.869   5.311  1.00  0.00     0.162 A 
ATOM     15  C   UNL     1       8.038  22.182   7.180  1.00  0.00     0.062 A 
ATOM     16  C   UNL     1      10.277  21.406   6.638  1.00  0.00     0.200 A 
ATOM     17  C   UNL     1       9.239  21.572   7.565  1.00  0.00     0.162 A 
BRANCH  14  18
ATOM     18  O   UNL     1      11.105  21.756   4.340  1.00  0.00    -0.504 OA
ATOM     19  H   UNL     1      11.065  22.200   3.434  1.00  0.00     0.293 HD
ENDBRANCH  14  18
BRANCH  16  20
ATOM     20  O   UNL     1      11.450  20.784   7.071  1.00  0.00    -0.502 OA
ATOM     21  H   UNL     1      11.639  20.539   8.032  1.00  0.00     0.293 HD
ENDBRANCH  16  20
BRANCH  17  22
ATOM     22  O   UNL     1       9.408  21.126   8.875  1.00  0.00    -0.504 OA
ATOM     23  H   UNL     1       9.475  21.773   9.652  1.00  0.00     0.293 HD
ENDBRANCH  17  22
ENDBRANCH   1  12
BRANCH   2  24
ATOM     24  O   UNL     1       6.216  21.750   3.634  1.00  0.00    -0.502 OA
ATOM     25  H   UNL     1       6.293  21.772   2.625  1.00  0.00     0.293 HD
ENDBRANCH   2  24
BRANCH   6  26
ATOM     26  O   UNL     1       2.279  25.333   3.468  1.00  0.00    -0.507 OA
ATOM     27  H   UNL     1       2.428  24.661   2.730  1.00  0.00     0.293 HD
ENDBRANCH   6  26
BRANCH   8  28
ATOM     28  O   UNL     1       3.137  27.716   7.547  1.00  0.00    -0.508 OA
ATOM     29  H   UNL     1       3.832  28.270   8.034  1.00  0.00     0.293 HD
ENDBRANCH   8  28
TORSDOF 7
ENDMDL
