MODEL 1
REMARK VINA RESULT:    -7.373      0.000      0.000
REMARK INTER + INTRA:          -8.866
REMARK INTER:                  -8.882
REMARK INTRA:                   0.015
REMARK UNBOUND:                 0.015
REMARK SMILES O=c1c(O)c(-c2ccc(O)c(O)c2)oc2cc(O)cc(O)c12
REMARK SMILES IDX 5 1 3 2 2 3 1 4 22 5 20 6 19 7 17 8 16 9 15 10 14 11 6 12
REMARK SMILES IDX 7 13 8 14 9 15 13 16 11 17 10 18 12 20 4 22 21 24 18 26
REMARK H PARENT 10 19 12 21 4 23 21 25 18 27
REMARK Flexibility Score: inf
ROOT
ATOM      1  C   UNL     1      -7.307   8.629 -27.381  1.00  0.00     0.180 A 
ATOM      2  C   UNL     1      -8.432   7.809 -27.189  1.00  0.00     0.208 A 
ATOM      3  C   UNL     1      -8.869   7.548 -25.880  1.00  0.00     0.238 A 
ATOM      4  O   UNL     1      -9.844   6.770 -25.712  1.00  0.00    -0.285 OA
ATOM      5  C   UNL     1      -8.185   8.121 -24.781  1.00  0.00     0.111 A 
ATOM      6  C   UNL     1      -8.564   7.957 -23.414  1.00  0.00     0.134 A 
ATOM      7  C   UNL     1      -7.739   8.463 -22.403  1.00  0.00     0.093 A 
ATOM      8  C   UNL     1      -6.582   9.184 -22.711  1.00  0.00     0.123 A 
ATOM      9  C   UNL     1      -6.235   9.401 -24.042  1.00  0.00     0.094 A 
ATOM     10  C   UNL     1      -7.020   8.877 -25.073  1.00  0.00     0.146 A 
ATOM     11  O   UNL     1      -6.648   9.098 -26.328  1.00  0.00    -0.452 OA
ENDROOT
BRANCH   1  12
ATOM     12  C   UNL     1      -6.801   8.970 -28.731  1.00  0.00     0.025 A 
ATOM     13  C   UNL     1      -7.669   9.403 -29.748  1.00  0.00     0.016 A 
ATOM     14  C   UNL     1      -7.167   9.743 -31.007  1.00  0.00     0.051 A 
ATOM     15  C   UNL     1      -5.791   9.667 -31.264  1.00  0.00     0.157 A 
ATOM     16  C   UNL     1      -5.422   8.916 -28.987  1.00  0.00     0.062 A 
ATOM     17  C   UNL     1      -4.915   9.255 -30.246  1.00  0.00     0.158 A 
BRANCH  15  18
ATOM     18  O   UNL     1      -5.294  10.005 -32.521  1.00  0.00    -0.504 OA
ATOM     19  H   UNL     1      -4.509   9.510 -32.932  1.00  0.00     0.293 HD
ENDBRANCH  15  18
BRANCH  17  20
ATOM     20  O   UNL     1      -3.541   9.176 -30.467  1.00  0.00    -0.504 OA
ATOM     21  H   UNL     1      -3.151   9.046 -31.393  1.00  0.00     0.293 HD
ENDBRANCH  17  20
ENDBRANCH   1  12
BRANCH   2  22
ATOM     22  O   UNL     1      -9.080   7.235 -28.287  1.00  0.00    -0.502 OA
ATOM     23  H   UNL     1      -9.366   7.776 -29.093  1.00  0.00     0.293 HD
ENDBRANCH   2  22
BRANCH   6  24
ATOM     24  O   UNL     1      -9.746   7.334 -23.003  1.00  0.00    -0.507 OA
ATOM     25  H   UNL     1     -10.098   6.466 -23.375  1.00  0.00     0.293 HD
ENDBRANCH   6  24
BRANCH   8  26
ATOM     26  O   UNL     1      -5.774   9.697 -21.698  1.00  0.00    -0.508 OA
ATOM     27  H   UNL     1      -5.493   9.131 -20.906  1.00  0.00     0.293 HD
ENDBRANCH   8  26
TORSDOF 6
ENDMDL
MODEL 2
REMARK VINA RESULT:    -7.307     11.320     13.400
REMARK INTER + INTRA:          -8.787
REMARK INTER:                  -8.559
REMARK INTRA:                  -0.228
REMARK UNBOUND:                 0.015
REMARK SMILES O=c1c(O)c(-c2ccc(O)c(O)c2)oc2cc(O)cc(O)c12
REMARK SMILES IDX 5 1 3 2 2 3 1 4 22 5 20 6 19 7 17 8 16 9 15 10 14 11 6 12
REMARK SMILES IDX 7 13 8 14 9 15 13 16 11 17 10 18 12 20 4 22 21 24 18 26
REMARK H PARENT 10 19 12 21 4 23 21 25 18 27
REMARK Flexibility Score: inf
ROOT
ATOM      1  C   UNL     1      -2.838  -0.845 -32.047  1.00  0.00     0.180 A 
ATOM      2  C   UNL     1      -2.026  -0.134 -31.148  1.00  0.00     0.208 A 
ATOM      3  C   UNL     1      -0.742  -0.622 -30.858  1.00  0.00     0.238 A 
ATOM      4  O   UNL     1      -0.039  -0.011 -30.011  1.00  0.00    -0.285 OA
ATOM      5  C   UNL     1      -0.281  -1.807 -31.481  1.00  0.00     0.111 A 
ATOM      6  C   UNL     1       1.017  -2.371 -31.292  1.00  0.00     0.134 A 
ATOM      7  C   UNL     1       1.319  -3.615 -31.858  1.00  0.00     0.093 A 
ATOM      8  C   UNL     1       0.392  -4.285 -32.661  1.00  0.00     0.123 A 
ATOM      9  C   UNL     1      -0.856  -3.714 -32.901  1.00  0.00     0.094 A 
ATOM     10  C   UNL     1      -1.199  -2.491 -32.319  1.00  0.00     0.146 A 
ATOM     11  O   UNL     1      -2.403  -1.987 -32.565  1.00  0.00    -0.452 OA
ENDROOT
BRANCH   1  12
ATOM     12  C   UNL     1      -4.194  -0.380 -32.423  1.00  0.00     0.025 A 
ATOM     13  C   UNL     1      -4.380   0.780 -33.194  1.00  0.00     0.016 A 
ATOM     14  C   UNL     1      -5.667   1.187 -33.557  1.00  0.00     0.051 A 
ATOM     15  C   UNL     1      -6.784   0.436 -33.166  1.00  0.00     0.157 A 
ATOM     16  C   UNL     1      -5.314  -1.140 -32.051  1.00  0.00     0.062 A 
ATOM     17  C   UNL     1      -6.604  -0.736 -32.411  1.00  0.00     0.158 A 
BRANCH  15  18
ATOM     18  O   UNL     1      -8.066   0.846 -33.527  1.00  0.00    -0.504 OA
ATOM     19  H   UNL     1      -8.685   1.299 -32.864  1.00  0.00     0.293 HD
ENDBRANCH  15  18
BRANCH  17  20
ATOM     20  O   UNL     1      -7.693  -1.509 -32.013  1.00  0.00    -0.504 OA
ATOM     21  H   UNL     1      -8.352  -1.895 -32.678  1.00  0.00     0.293 HD
ENDBRANCH  17  20
ENDBRANCH   1  12
BRANCH   2  22
ATOM     22  O   UNL     1      -2.509   1.022 -30.527  1.00  0.00    -0.502 OA
ATOM     23  H   UNL     1      -2.817   1.032 -29.563  1.00  0.00     0.293 HD
ENDBRANCH   2  22
BRANCH   6  24
ATOM     24  O   UNL     1       2.045  -1.740 -30.585  1.00  0.00    -0.507 OA
ATOM     25  H   UNL     1       1.962  -0.849 -30.121  1.00  0.00     0.293 HD
ENDBRANCH   6  24
BRANCH   8  26
ATOM     26  O   UNL     1       0.706  -5.516 -33.233  1.00  0.00    -0.508 OA
ATOM     27  H   UNL     1       0.668  -6.375 -32.697  1.00  0.00     0.293 HD
ENDBRANCH   8  26
TORSDOF 6
ENDMDL
MODEL 3
REMARK VINA RESULT:    -7.253     13.739     14.806
REMARK INTER + INTRA:          -8.722
REMARK INTER:                  -8.486
REMARK INTRA:                  -0.236
REMARK UNBOUND:                 0.015
REMARK SMILES O=c1c(O)c(-c2ccc(O)c(O)c2)oc2cc(O)cc(O)c12
REMARK SMILES IDX 5 1 3 2 2 3 1 4 22 5 20 6 19 7 17 8 16 9 15 10 14 11 6 12
REMARK SMILES IDX 7 13 8 14 9 15 13 16 11 17 10 18 12 20 4 22 21 24 18 26
REMARK H PARENT 10 19 12 21 4 23 21 25 18 27
REMARK Flexibility Score: inf
ROOT
ATOM      1  C   UNL     1      -0.629  -2.938 -31.443  1.00  0.00     0.180 A 
ATOM      2  C   UNL     1      -0.594  -3.224 -30.068  1.00  0.00     0.208 A 
ATOM      3  C   UNL     1      -1.591  -4.045 -29.517  1.00  0.00     0.238 A 
ATOM      4  O   UNL     1      -1.586  -4.253 -28.275  1.00  0.00    -0.285 OA
ATOM      5  C   UNL     1      -2.601  -4.583 -30.350  1.00  0.00     0.111 A 
ATOM      6  C   UNL     1      -3.637  -5.460 -29.907  1.00  0.00     0.134 A 
ATOM      7  C   UNL     1      -4.658  -5.826 -30.793  1.00  0.00     0.093 A 
ATOM      8  C   UNL     1      -4.645  -5.400 -32.123  1.00  0.00     0.123 A 
ATOM      9  C   UNL     1      -3.605  -4.593 -32.581  1.00  0.00     0.094 A 
ATOM     10  C   UNL     1      -2.592  -4.182 -31.711  1.00  0.00     0.146 A 
ATOM     11  O   UNL     1      -1.626  -3.404 -32.186  1.00  0.00    -0.452 OA
ENDROOT
BRANCH   1  12
ATOM     12  C   UNL     1       0.401  -2.102 -32.101  1.00  0.00     0.025 A 
ATOM     13  C   UNL     1       0.121  -0.787 -32.514  1.00  0.00     0.016 A 
ATOM     14  C   UNL     1       1.115  -0.008 -33.111  1.00  0.00     0.051 A 
ATOM     15  C   UNL     1       2.405  -0.525 -33.293  1.00  0.00     0.157 A 
ATOM     16  C   UNL     1       1.700  -2.608 -32.268  1.00  0.00     0.062 A 
ATOM     17  C   UNL     1       2.698  -1.831 -32.866  1.00  0.00     0.158 A 
BRANCH  15  18
ATOM     18  O   UNL     1       3.394   0.254 -33.892  1.00  0.00    -0.504 OA
ATOM     19  H   UNL     1       3.338   1.267 -33.902  1.00  0.00     0.293 HD
ENDBRANCH  15  18
BRANCH  17  20
ATOM     20  O   UNL     1       3.973  -2.371 -33.027  1.00  0.00    -0.504 OA
ATOM     21  H   UNL     1       4.809  -1.874 -32.746  1.00  0.00     0.293 HD
ENDBRANCH  17  20
ENDBRANCH   1  12
BRANCH   2  22
ATOM     22  O   UNL     1       0.399  -2.665 -29.258  1.00  0.00    -0.502 OA
ATOM     23  H   UNL     1       0.211  -1.912 -28.609  1.00  0.00     0.293 HD
ENDBRANCH   2  22
BRANCH   6  24
ATOM     24  O   UNL     1      -3.693  -6.015 -28.625  1.00  0.00    -0.507 OA
ATOM     25  H   UNL     1      -4.504  -6.462 -28.227  1.00  0.00     0.293 HD
ENDBRANCH   6  24
BRANCH   8  26
ATOM     26  O   UNL     1      -5.657  -5.782 -33.002  1.00  0.00    -0.508 OA
ATOM     27  H   UNL     1      -6.526  -5.265 -33.066  1.00  0.00     0.293 HD
ENDBRANCH   8  26
TORSDOF 6
ENDMDL
MODEL 4
REMARK VINA RESULT:    -7.234     11.589     13.961
REMARK INTER + INTRA:          -8.699
REMARK INTER:                  -8.647
REMARK INTRA:                  -0.051
REMARK UNBOUND:                 0.015
REMARK SMILES O=c1c(O)c(-c2ccc(O)c(O)c2)oc2cc(O)cc(O)c12
REMARK SMILES IDX 5 1 3 2 2 3 1 4 22 5 20 6 19 7 17 8 16 9 15 10 14 11 6 12
REMARK SMILES IDX 7 13 8 14 9 15 13 16 11 17 10 18 12 20 4 22 21 24 18 26
REMARK H PARENT 10 19 12 21 4 23 21 25 18 27
REMARK Flexibility Score: inf
ROOT
ATOM      1  C   UNL     1      -1.913  -1.212 -32.638  1.00  0.00     0.180 A 
ATOM      2  C   UNL     1      -1.719  -2.592 -32.462  1.00  0.00     0.208 A 
ATOM      3  C   UNL     1      -0.421  -3.116 -32.574  1.00  0.00     0.238 A 
ATOM      4  O   UNL     1      -0.260  -4.361 -32.470  1.00  0.00    -0.285 OA
ATOM      5  C   UNL     1       0.667  -2.253 -32.846  1.00  0.00     0.111 A 
ATOM      6  C   UNL     1       2.030  -2.669 -32.940  1.00  0.00     0.134 A 
ATOM      7  C   UNL     1       3.007  -1.750 -33.341  1.00  0.00     0.093 A 
ATOM      8  C   UNL     1       2.681  -0.414 -33.588  1.00  0.00     0.123 A 
ATOM      9  C   UNL     1       1.364   0.016 -33.439  1.00  0.00     0.094 A 
ATOM     10  C   UNL     1       0.361  -0.887 -33.076  1.00  0.00     0.146 A 
ATOM     11  O   UNL     1      -0.883  -0.437 -32.956  1.00  0.00    -0.452 OA
ENDROOT
BRANCH   1  12
ATOM     12  C   UNL     1      -3.248  -0.581 -32.510  1.00  0.00     0.025 A 
ATOM     13  C   UNL     1      -3.810   0.160 -33.564  1.00  0.00     0.016 A 
ATOM     14  C   UNL     1      -5.080   0.725 -33.430  1.00  0.00     0.051 A 
ATOM     15  C   UNL     1      -5.812   0.550 -32.247  1.00  0.00     0.157 A 
ATOM     16  C   UNL     1      -3.993  -0.771 -31.335  1.00  0.00     0.062 A 
ATOM     17  C   UNL     1      -5.265  -0.205 -31.197  1.00  0.00     0.158 A 
BRANCH  15  18
ATOM     18  O   UNL     1      -7.078   1.118 -32.116  1.00  0.00    -0.504 OA
ATOM     19  H   UNL     1      -7.895   0.553 -31.916  1.00  0.00     0.293 HD
ENDBRANCH  15  18
BRANCH  17  20
ATOM     20  O   UNL     1      -5.970  -0.404 -30.011  1.00  0.00    -0.504 OA
ATOM     21  H   UNL     1      -5.815   0.168 -29.189  1.00  0.00     0.293 HD
ENDBRANCH  17  20
ENDBRANCH   1  12
BRANCH   2  22
ATOM     22  O   UNL     1      -2.810  -3.431 -32.217  1.00  0.00    -0.502 OA
ATOM     23  H   UNL     1      -3.569  -3.542 -32.878  1.00  0.00     0.293 HD
ENDBRANCH   2  22
BRANCH   6  24
ATOM     24  O   UNL     1       2.475  -3.957 -32.627  1.00  0.00    -0.507 OA
ATOM     25  H   UNL     1       2.521  -4.724 -33.280  1.00  0.00     0.293 HD
ENDBRANCH   6  24
BRANCH   8  26
ATOM     26  O   UNL     1       3.662   0.498 -33.971  1.00  0.00    -0.508 OA
ATOM     27  H   UNL     1       4.542   0.193 -34.372  1.00  0.00     0.293 HD
ENDBRANCH   8  26
TORSDOF 6
ENDMDL
MODEL 5
REMARK VINA RESULT:    -7.216     14.006     15.112
REMARK INTER + INTRA:          -8.677
REMARK INTER:                  -8.462
REMARK INTRA:                  -0.215
REMARK UNBOUND:                 0.015
REMARK SMILES O=c1c(O)c(-c2ccc(O)c(O)c2)oc2cc(O)cc(O)c12
REMARK SMILES IDX 5 1 3 2 2 3 1 4 22 5 20 6 19 7 17 8 16 9 15 10 14 11 6 12
REMARK SMILES IDX 7 13 8 14 9 15 13 16 11 17 10 18 12 20 4 22 21 24 18 26
REMARK H PARENT 10 19 12 21 4 23 21 25 18 27
REMARK Flexibility Score: inf
ROOT
ATOM      1  C   UNL     1      -1.310  -4.074 -29.856  1.00  0.00     0.180 A 
ATOM      2  C   UNL     1      -0.834  -4.962 -28.876  1.00  0.00     0.208 A 
ATOM      3  C   UNL     1      -1.633  -6.053 -28.500  1.00  0.00     0.238 A 
ATOM      4  O   UNL     1      -1.226  -6.814 -27.583  1.00  0.00    -0.285 OA
ATOM      5  C   UNL     1      -2.890  -6.253 -29.119  1.00  0.00     0.111 A 
ATOM      6  C   UNL     1      -3.765  -7.348 -28.845  1.00  0.00     0.134 A 
ATOM      7  C   UNL     1      -5.041  -7.373 -29.421  1.00  0.00     0.093 A 
ATOM      8  C   UNL     1      -5.449  -6.378 -30.313  1.00  0.00     0.123 A 
ATOM      9  C   UNL     1      -4.579  -5.337 -30.634  1.00  0.00     0.094 A 
ATOM     10  C   UNL     1      -3.314  -5.266 -30.046  1.00  0.00     0.146 A 
ATOM     11  O   UNL     1      -2.521  -4.251 -30.371  1.00  0.00    -0.452 OA
ENDROOT
BRANCH   1  12
ATOM     12  C   UNL     1      -0.515  -2.915 -30.323  1.00  0.00     0.025 A 
ATOM     13  C   UNL     1      -0.869  -1.599 -29.978  1.00  0.00     0.016 A 
ATOM     14  C   UNL     1      -0.090  -0.522 -30.410  1.00  0.00     0.051 A 
ATOM     15  C   UNL     1       1.059  -0.745 -31.181  1.00  0.00     0.157 A 
ATOM     16  C   UNL     1       0.649  -3.133 -31.078  1.00  0.00     0.062 A 
ATOM     17  C   UNL     1       1.430  -2.058 -31.513  1.00  0.00     0.158 A 
BRANCH  15  18
ATOM     18  O   UNL     1       1.832   0.332 -31.613  1.00  0.00    -0.504 OA
ATOM     19  H   UNL     1       1.579   0.872 -32.433  1.00  0.00     0.293 HD
ENDBRANCH  15  18
BRANCH  17  20
ATOM     20  O   UNL     1       2.572  -2.313 -32.273  1.00  0.00    -0.504 OA
ATOM     21  H   UNL     1       2.528  -2.780 -33.170  1.00  0.00     0.293 HD
ENDBRANCH  17  20
ENDBRANCH   1  12
BRANCH   2  22
ATOM     22  O   UNL     1       0.401  -4.734 -28.261  1.00  0.00    -0.502 OA
ATOM     23  H   UNL     1       1.267  -5.109 -28.626  1.00  0.00     0.293 HD
ENDBRANCH   2  22
BRANCH   6  24
ATOM     24  O   UNL     1      -3.420  -8.439 -28.042  1.00  0.00    -0.507 OA
ATOM     25  H   UNL     1      -3.869  -9.341 -28.074  1.00  0.00     0.293 HD
ENDBRANCH   6  24
BRANCH   8  26
ATOM     26  O   UNL     1      -6.714  -6.420 -30.894  1.00  0.00    -0.508 OA
ATOM     27  H   UNL     1      -7.222  -5.573 -31.120  1.00  0.00     0.293 HD
ENDBRANCH   8  26
TORSDOF 6
ENDMDL
MODEL 6
REMARK VINA RESULT:    -7.033     13.988     14.861
REMARK INTER + INTRA:          -8.457
REMARK INTER:                  -8.154
REMARK INTRA:                  -0.303
REMARK UNBOUND:                 0.015
REMARK SMILES O=c1c(O)c(-c2ccc(O)c(O)c2)oc2cc(O)cc(O)c12
REMARK SMILES IDX 5 1 3 2 2 3 1 4 22 5 20 6 19 7 17 8 16 9 15 10 14 11 6 12
REMARK SMILES IDX 7 13 8 14 9 15 13 16 11 17 10 18 12 20 4 22 21 24 18 26
REMARK H PARENT 10 19 12 21 4 23 21 25 18 27
REMARK Flexibility Score: inf
ROOT
ATOM      1  C   UNL     1      -1.703  -3.918 -30.218  1.00  0.00     0.180 A 
ATOM      2  C   UNL     1      -2.885  -4.161 -30.938  1.00  0.00     0.208 A 
ATOM      3  C   UNL     1      -3.698  -5.243 -30.565  1.00  0.00     0.238 A 
ATOM      4  O   UNL     1      -4.727  -5.489 -31.248  1.00  0.00    -0.285 OA
ATOM      5  C   UNL     1      -3.328  -6.059 -29.469  1.00  0.00     0.111 A 
ATOM      6  C   UNL     1      -4.097  -7.157 -28.979  1.00  0.00     0.134 A 
ATOM      7  C   UNL     1      -3.570  -7.974 -27.971  1.00  0.00     0.093 A 
ATOM      8  C   UNL     1      -2.331  -7.694 -27.391  1.00  0.00     0.123 A 
ATOM      9  C   UNL     1      -1.600  -6.588 -27.821  1.00  0.00     0.094 A 
ATOM     10  C   UNL     1      -2.083  -5.776 -28.850  1.00  0.00     0.146 A 
ATOM     11  O   UNL     1      -1.349  -4.739 -29.237  1.00  0.00    -0.452 OA
ENDROOT
BRANCH   1  12
ATOM     12  C   UNL     1      -0.807  -2.781 -30.535  1.00  0.00     0.025 A 
ATOM     13  C   UNL     1      -1.112  -1.473 -30.123  1.00  0.00     0.016 A 
ATOM     14  C   UNL     1      -0.240  -0.420 -30.412  1.00  0.00     0.051 A 
ATOM     15  C   UNL     1       0.954  -0.660 -31.105  1.00  0.00     0.157 A 
ATOM     16  C   UNL     1       0.401  -3.020 -31.211  1.00  0.00     0.062 A 
ATOM     17  C   UNL     1       1.276  -1.969 -31.503  1.00  0.00     0.158 A 
BRANCH  15  18
ATOM     18  O   UNL     1       1.821   0.392 -31.394  1.00  0.00    -0.504 OA
ATOM     19  H   UNL     1       2.820   0.316 -31.236  1.00  0.00     0.293 HD
ENDBRANCH  15  18
BRANCH  17  20
ATOM     20  O   UNL     1       2.460  -2.242 -32.186  1.00  0.00    -0.504 OA
ATOM     21  H   UNL     1       3.223  -1.577 -32.230  1.00  0.00     0.293 HD
ENDBRANCH  17  20
ENDBRANCH   1  12
BRANCH   2  22
ATOM     22  O   UNL     1      -3.221  -3.357 -32.031  1.00  0.00    -0.502 OA
ATOM     23  H   UNL     1      -3.910  -3.635 -32.719  1.00  0.00     0.293 HD
ENDBRANCH   2  22
BRANCH   6  24
ATOM     24  O   UNL     1      -5.385  -7.469 -29.426  1.00  0.00    -0.507 OA
ATOM     25  H   UNL     1      -5.592  -7.978 -30.271  1.00  0.00     0.293 HD
ENDBRANCH   6  24
BRANCH   8  26
ATOM     26  O   UNL     1      -1.821  -8.503 -26.378  1.00  0.00    -0.508 OA
ATOM     27  H   UNL     1      -2.194  -9.428 -26.200  1.00  0.00     0.293 HD
ENDBRANCH   8  26
TORSDOF 6
ENDMDL
MODEL 7
REMARK VINA RESULT:    -6.891     12.260     13.815
REMARK INTER + INTRA:          -8.286
REMARK INTER:                  -8.273
REMARK INTRA:                  -0.013
REMARK UNBOUND:                 0.015
REMARK SMILES O=c1c(O)c(-c2ccc(O)c(O)c2)oc2cc(O)cc(O)c12
REMARK SMILES IDX 5 1 3 2 2 3 1 4 22 5 20 6 19 7 17 8 16 9 15 10 14 11 6 12
REMARK SMILES IDX 7 13 8 14 9 15 13 16 11 17 10 18 12 20 4 22 21 24 18 26
REMARK H PARENT 10 19 12 21 4 23 21 25 18 27
REMARK Flexibility Score: inf
ROOT
ATOM      1  C   UNL     1      -2.488  -1.926 -31.752  1.00  0.00     0.180 A 
ATOM      2  C   UNL     1      -2.582  -2.339 -30.412  1.00  0.00     0.208 A 
ATOM      3  C   UNL     1      -1.641  -3.255 -29.914  1.00  0.00     0.238 A 
ATOM      4  O   UNL     1      -1.763  -3.663 -28.729  1.00  0.00    -0.285 OA
ATOM      5  C   UNL     1      -0.610  -3.735 -30.757  1.00  0.00     0.111 A 
ATOM      6  C   UNL     1       0.421  -4.633 -30.347  1.00  0.00     0.134 A 
ATOM      7  C   UNL     1       1.313  -5.142 -31.299  1.00  0.00     0.093 A 
ATOM      8  C   UNL     1       1.252  -4.734 -32.634  1.00  0.00     0.123 A 
ATOM      9  C   UNL     1       0.287  -3.811 -33.032  1.00  0.00     0.094 A 
ATOM     10  C   UNL     1      -0.639  -3.313 -32.111  1.00  0.00     0.146 A 
ATOM     11  O   UNL     1      -1.549  -2.443 -32.535  1.00  0.00    -0.452 OA
ENDROOT
BRANCH   1  12
ATOM     12  C   UNL     1      -3.427  -0.944 -32.342  1.00  0.00     0.025 A 
ATOM     13  C   UNL     1      -4.819  -1.116 -32.248  1.00  0.00     0.016 A 
ATOM     14  C   UNL     1      -5.686  -0.165 -32.792  1.00  0.00     0.051 A 
ATOM     15  C   UNL     1      -5.176   0.977 -33.425  1.00  0.00     0.157 A 
ATOM     16  C   UNL     1      -2.922   0.211 -32.960  1.00  0.00     0.062 A 
ATOM     17  C   UNL     1      -3.786   1.166 -33.506  1.00  0.00     0.158 A 
BRANCH  15  18
ATOM     18  O   UNL     1      -6.044   1.923 -33.969  1.00  0.00    -0.504 OA
ATOM     19  H   UNL     1      -5.971   2.907 -33.734  1.00  0.00     0.293 HD
ENDBRANCH  15  18
BRANCH  17  20
ATOM     20  O   UNL     1      -3.248   2.294 -34.123  1.00  0.00    -0.504 OA
ATOM     21  H   UNL     1      -2.422   2.760 -33.767  1.00  0.00     0.293 HD
ENDBRANCH  17  20
ENDBRANCH   1  12
BRANCH   2  22
ATOM     22  O   UNL     1      -3.622  -1.871 -29.603  1.00  0.00    -0.502 OA
ATOM     23  H   UNL     1      -3.689  -0.904 -29.310  1.00  0.00     0.293 HD
ENDBRANCH   2  22
BRANCH   6  24
ATOM     24  O   UNL     1       0.626  -5.032 -29.022  1.00  0.00    -0.507 OA
ATOM     25  H   UNL     1       0.537  -5.979 -28.687  1.00  0.00     0.293 HD
ENDBRANCH   6  24
BRANCH   8  26
ATOM     26  O   UNL     1       2.153  -5.234 -33.571  1.00  0.00    -0.508 OA
ATOM     27  H   UNL     1       1.950  -6.067 -34.111  1.00  0.00     0.293 HD
ENDBRANCH   8  26
TORSDOF 6
ENDMDL
MODEL 8
REMARK VINA RESULT:    -6.786     14.091     16.046
REMARK INTER + INTRA:          -8.158
REMARK INTER:                  -7.870
REMARK INTRA:                  -0.289
REMARK UNBOUND:                 0.015
REMARK SMILES O=c1c(O)c(-c2ccc(O)c(O)c2)oc2cc(O)cc(O)c12
REMARK SMILES IDX 5 1 3 2 2 3 1 4 22 5 20 6 19 7 17 8 16 9 15 10 14 11 6 12
REMARK SMILES IDX 7 13 8 14 9 15 13 16 11 17 10 18 12 20 4 22 21 24 18 26
REMARK H PARENT 10 19 12 21 4 23 21 25 18 27
REMARK Flexibility Score: inf
ROOT
ATOM      1  C   UNL     1      -1.358  -4.289 -29.741  1.00  0.00     0.180 A 
ATOM      2  C   UNL     1      -1.579  -2.939 -29.421  1.00  0.00     0.208 A 
ATOM      3  C   UNL     1      -0.763  -1.958 -30.007  1.00  0.00     0.238 A 
ATOM      4  O   UNL     1      -0.930  -0.755 -29.675  1.00  0.00    -0.285 OA
ATOM      5  C   UNL     1       0.253  -2.338 -30.917  1.00  0.00     0.111 A 
ATOM      6  C   UNL     1       1.113  -1.425 -31.600  1.00  0.00     0.134 A 
ATOM      7  C   UNL     1       2.168  -1.919 -32.377  1.00  0.00     0.093 A 
ATOM      8  C   UNL     1       2.354  -3.293 -32.547  1.00  0.00     0.123 A 
ATOM      9  C   UNL     1       1.484  -4.191 -31.933  1.00  0.00     0.094 A 
ATOM     10  C   UNL     1       0.445  -3.728 -31.123  1.00  0.00     0.146 A 
ATOM     11  O   UNL     1      -0.355  -4.619 -30.547  1.00  0.00    -0.452 OA
ENDROOT
BRANCH   1  12
ATOM     12  C   UNL     1      -2.193  -5.379 -29.184  1.00  0.00     0.025 A 
ATOM     13  C   UNL     1      -3.486  -5.631 -29.673  1.00  0.00     0.016 A 
ATOM     14  C   UNL     1      -4.246  -6.680 -29.148  1.00  0.00     0.051 A 
ATOM     15  C   UNL     1      -3.722  -7.498 -28.138  1.00  0.00     0.157 A 
ATOM     16  C   UNL     1      -1.664  -6.214 -28.186  1.00  0.00     0.062 A 
ATOM     17  C   UNL     1      -2.423  -7.264 -27.658  1.00  0.00     0.158 A 
BRANCH  15  18
ATOM     18  O   UNL     1      -4.484  -8.541 -27.616  1.00  0.00    -0.504 OA
ATOM     19  H   UNL     1      -5.394  -8.377 -27.198  1.00  0.00     0.293 HD
ENDBRANCH  15  18
BRANCH  17  20
ATOM     20  O   UNL     1      -1.869  -8.065 -26.660  1.00  0.00    -0.504 OA
ATOM     21  H   UNL     1      -1.686  -9.051 -26.800  1.00  0.00     0.293 HD
ENDBRANCH  17  20
ENDBRANCH   1  12
BRANCH   2  22
ATOM     22  O   UNL     1      -2.573  -2.588 -28.504  1.00  0.00    -0.502 OA
ATOM     23  H   UNL     1      -2.380  -2.034 -27.678  1.00  0.00     0.293 HD
ENDBRANCH   2  22
BRANCH   6  24
ATOM     24  O   UNL     1       0.956  -0.036 -31.571  1.00  0.00    -0.507 OA
ATOM     25  H   UNL     1       1.262   0.561 -30.818  1.00  0.00     0.293 HD
ENDBRANCH   6  24
BRANCH   8  26
ATOM     26  O   UNL     1       3.398  -3.776 -33.335  1.00  0.00    -0.508 OA
ATOM     27  H   UNL     1       4.341  -3.420 -33.241  1.00  0.00     0.293 HD
ENDBRANCH   8  26
TORSDOF 6
ENDMDL
MODEL 9
REMARK VINA RESULT:    -6.634     13.825     15.717
REMARK INTER + INTRA:          -7.976
REMARK INTER:                  -8.447
REMARK INTRA:                   0.471
REMARK UNBOUND:                 0.015
REMARK SMILES O=c1c(O)c(-c2ccc(O)c(O)c2)oc2cc(O)cc(O)c12
REMARK SMILES IDX 5 1 3 2 2 3 1 4 22 5 20 6 19 7 17 8 16 9 15 10 14 11 6 12
REMARK SMILES IDX 7 13 8 14 9 15 13 16 11 17 10 18 12 20 4 22 21 24 18 26
REMARK H PARENT 10 19 12 21 4 23 21 25 18 27
REMARK Flexibility Score: inf
ROOT
ATOM      1  C   UNL     1      -1.839  -4.656 -29.537  1.00  0.00     0.180 A 
ATOM      2  C   UNL     1      -0.616  -4.018 -29.267  1.00  0.00     0.208 A 
ATOM      3  C   UNL     1      -0.347  -2.779 -29.870  1.00  0.00     0.238 A 
ATOM      4  O   UNL     1       0.772  -2.238 -29.668  1.00  0.00    -0.285 OA
ATOM      5  C   UNL     1      -1.308  -2.187 -30.724  1.00  0.00     0.111 A 
ATOM      6  C   UNL     1      -1.157  -0.916 -31.357  1.00  0.00     0.134 A 
ATOM      7  C   UNL     1      -2.116  -0.487 -32.283  1.00  0.00     0.093 A 
ATOM      8  C   UNL     1      -3.253  -1.255 -32.550  1.00  0.00     0.123 A 
ATOM      9  C   UNL     1      -3.439  -2.468 -31.892  1.00  0.00     0.094 A 
ATOM     10  C   UNL     1      -2.481  -2.939 -30.990  1.00  0.00     0.146 A 
ATOM     11  O   UNL     1      -2.692  -4.107 -30.393  1.00  0.00    -0.452 OA
ENDROOT
BRANCH   1  12
ATOM     12  C   UNL     1      -2.206  -5.951 -28.919  1.00  0.00     0.025 A 
ATOM     13  C   UNL     1      -1.297  -6.661 -28.116  1.00  0.00     0.016 A 
ATOM     14  C   UNL     1      -1.674  -7.870 -27.524  1.00  0.00     0.051 A 
ATOM     15  C   UNL     1      -2.965  -8.379 -27.714  1.00  0.00     0.157 A 
ATOM     16  C   UNL     1      -3.505  -6.455 -29.090  1.00  0.00     0.062 A 
ATOM     17  C   UNL     1      -3.886  -7.665 -28.500  1.00  0.00     0.158 A 
BRANCH  15  18
ATOM     18  O   UNL     1      -3.337  -9.586 -27.124  1.00  0.00    -0.504 OA
ATOM     19  H   UNL     1      -2.779 -10.013 -26.393  1.00  0.00     0.293 HD
ENDBRANCH  15  18
BRANCH  17  20
ATOM     20  O   UNL     1      -5.180  -8.141 -28.702  1.00  0.00    -0.504 OA
ATOM     21  H   UNL     1      -5.896  -7.582 -29.150  1.00  0.00     0.293 HD
ENDBRANCH  17  20
ENDBRANCH   1  12
BRANCH   2  22
ATOM     22  O   UNL     1       0.329  -4.631 -28.439  1.00  0.00    -0.502 OA
ATOM     23  H   UNL     1       0.283  -5.612 -28.196  1.00  0.00     0.293 HD
ENDBRANCH   2  22
BRANCH   6  24
ATOM     24  O   UNL     1      -0.107  -0.032 -31.091  1.00  0.00    -0.507 OA
ATOM     25  H   UNL     1       0.762  -0.001 -31.602  1.00  0.00     0.293 HD
ENDBRANCH   6  24
BRANCH   8  26
ATOM     26  O   UNL     1      -4.210  -0.813 -33.462  1.00  0.00    -0.508 OA
ATOM     27  H   UNL     1      -4.583  -1.426 -34.177  1.00  0.00     0.293 HD
ENDBRANCH   8  26
TORSDOF 6
ENDMDL
