MODEL 1
REMARK VINA RESULT:    -5.052      0.000      0.000
REMARK INTER + INTRA:          -9.996
REMARK INTER:                  -9.186
REMARK INTRA:                  -0.810
REMARK UNBOUND:                -0.810
REMARK SMILES CCCCCCCCCCCCCCCC(=O)[O-]
REMARK SMILES IDX 9 1 10 2 11 3 12 4 13 5 14 6 15 7 16 8 17 9 18 10 8 11 7 12
REMARK SMILES IDX 6 13 5 14 4 15 3 16 2 17 1 18
REMARK H PARENT
REMARK Flexibility Score: inf
ROOT
ATOM      1  C   UNL     1    -129.005 110.970  43.093  1.00  0.00     0.000 C 
ENDROOT
BRANCH   1   2
ATOM      2  C   UNL     1    -129.827 109.876  43.797  1.00  0.00     0.000 C 
BRANCH   2   3
ATOM      3  C   UNL     1    -129.613 108.488  43.172  1.00  0.00     0.000 C 
BRANCH   3   4
ATOM      4  C   UNL     1    -128.232 108.339  42.517  1.00  0.00     0.000 C 
BRANCH   4   5
ATOM      5  C   UNL     1    -128.147 107.040  41.706  1.00  0.00     0.000 C 
BRANCH   5   6
ATOM      6  C   UNL     1    -129.349 106.900  40.763  1.00  0.00     0.006 C 
BRANCH   6   7
ATOM      7  C   UNL     1    -129.685 105.426  40.516  1.00  0.00     0.053 C 
BRANCH   7   8
ATOM      8  C   UNL     1    -129.378 105.049  39.102  1.00  0.00     0.041 C 
ATOM      9  O   UNL     1    -129.199 105.941  38.232  1.00  0.00    -0.550 OA
ATOM     10  O   UNL     1    -129.337 103.711  38.733  1.00  0.00    -0.550 OA
ENDBRANCH   7   8
ENDBRANCH   6   7
ENDBRANCH   5   6
ENDBRANCH   4   5
ENDBRANCH   3   4
ENDBRANCH   2   3
ENDBRANCH   1   2
BRANCH   1  11
ATOM     11  C   UNL     1    -129.153 112.347  43.761  1.00  0.00     0.000 C 
BRANCH  11  12
ATOM     12  C   UNL     1    -129.809 113.388  42.837  1.00  0.00    -0.000 C 
BRANCH  12  13
ATOM     13  C   UNL     1    -129.818 114.797  43.452  1.00  0.00    -0.000 C 
BRANCH  13  14
ATOM     14  C   UNL     1    -129.505 114.789  44.956  1.00  0.00    -0.000 C 
BRANCH  14  15
ATOM     15  C   UNL     1    -129.793 116.161  45.584  1.00  0.00    -0.000 C 
BRANCH  15  16
ATOM     16  C   UNL     1    -130.111 117.245  44.538  1.00  0.00    -0.000 C 
BRANCH  16  17
ATOM     17  C   UNL     1    -129.011 118.305  44.350  1.00  0.00    -0.003 C 
ATOM     18  C   UNL     1    -128.570 118.456  42.894  1.00  0.00     0.004 C 
ENDBRANCH  16  17
ENDBRANCH  15  16
ENDBRANCH  14  15
ENDBRANCH  13  14
ENDBRANCH  12  13
ENDBRANCH  11  12
ENDBRANCH   1  11
TORSDOF 14
ENDMDL
MODEL 2
REMARK VINA RESULT:    -5.021      1.055      1.737
REMARK INTER + INTRA:          -9.941
REMARK INTER:                  -9.242
REMARK INTRA:                  -0.699
REMARK UNBOUND:                -0.810
REMARK SMILES CCCCCCCCCCCCCCCC(=O)[O-]
REMARK SMILES IDX 9 1 10 2 11 3 12 4 13 5 14 6 15 7 16 8 17 9 18 10 8 11 7 12
REMARK SMILES IDX 6 13 5 14 4 15 3 16 2 17 1 18
REMARK H PARENT
REMARK Flexibility Score: inf
ROOT
ATOM      1  C   UNL     1    -129.353 111.646  44.006  1.00  0.00     0.000 C 
ENDROOT
BRANCH   1   2
ATOM      2  C   UNL     1    -129.381 110.761  42.747  1.00  0.00     0.000 C 
BRANCH   2   3
ATOM      3  C   UNL     1    -129.100 109.283  43.063  1.00  0.00     0.000 C 
BRANCH   3   4
ATOM      4  C   UNL     1    -127.929 108.714  42.249  1.00  0.00     0.000 C 
BRANCH   4   5
ATOM      5  C   UNL     1    -128.068 107.197  42.074  1.00  0.00     0.000 C 
BRANCH   5   6
ATOM      6  C   UNL     1    -129.281 106.852  41.202  1.00  0.00     0.006 C 
BRANCH   6   7
ATOM      7  C   UNL     1    -129.006 105.615  40.342  1.00  0.00     0.053 C 
BRANCH   7   8
ATOM      8  C   UNL     1    -129.749 105.702  39.047  1.00  0.00     0.041 C 
ATOM      9  O   UNL     1    -130.452 106.713  38.785  1.00  0.00    -0.550 OA
ATOM     10  O   UNL     1    -129.704 104.644  38.147  1.00  0.00    -0.550 OA
ENDBRANCH   7   8
ENDBRANCH   6   7
ENDBRANCH   5   6
ENDBRANCH   4   5
ENDBRANCH   3   4
ENDBRANCH   2   3
ENDBRANCH   1   2
BRANCH   1  11
ATOM     11  C   UNL     1    -128.932 113.094  43.704  1.00  0.00     0.000 C 
BRANCH  11  12
ATOM     12  C   UNL     1    -130.034 113.896  42.988  1.00  0.00    -0.000 C 
BRANCH  12  13
ATOM     13  C   UNL     1    -129.473 115.093  42.203  1.00  0.00    -0.000 C 
BRANCH  13  14
ATOM     14  C   UNL     1    -130.133 116.423  42.600  1.00  0.00    -0.000 C 
BRANCH  14  15
ATOM     15  C   UNL     1    -129.083 117.434  43.085  1.00  0.00    -0.000 C 
BRANCH  15  16
ATOM     16  C   UNL     1    -129.353 117.942  44.512  1.00  0.00    -0.000 C 
BRANCH  16  17
ATOM     17  C   UNL     1    -130.086 116.944  45.426  1.00  0.00    -0.003 C 
ATOM     18  C   UNL     1    -130.755 117.613  46.628  1.00  0.00     0.004 C 
ENDBRANCH  16  17
ENDBRANCH  15  16
ENDBRANCH  14  15
ENDBRANCH  13  14
ENDBRANCH  12  13
ENDBRANCH  11  12
ENDBRANCH   1  11
TORSDOF 14
ENDMDL
MODEL 3
REMARK VINA RESULT:    -4.982      1.584      1.986
REMARK INTER + INTRA:          -9.870
REMARK INTER:                  -9.125
REMARK INTRA:                  -0.745
REMARK UNBOUND:                -0.810
REMARK SMILES CCCCCCCCCCCCCCCC(=O)[O-]
REMARK SMILES IDX 9 1 10 2 11 3 12 4 13 5 14 6 15 7 16 8 17 9 18 10 8 11 7 12
REMARK SMILES IDX 6 13 5 14 4 15 3 16 2 17 1 18
REMARK H PARENT
REMARK Flexibility Score: inf
ROOT
ATOM      1  C   UNL     1    -129.390 109.982  43.284  1.00  0.00     0.000 C 
ENDROOT
BRANCH   1   2
ATOM      2  C   UNL     1    -129.762 108.977  42.180  1.00  0.00     0.000 C 
BRANCH   2   3
ATOM      3  C   UNL     1    -129.403 109.489  40.775  1.00  0.00     0.000 C 
BRANCH   3   4
ATOM      4  C   UNL     1    -130.637 109.682  39.881  1.00  0.00     0.000 C 
BRANCH   4   5
ATOM      5  C   UNL     1    -130.943 108.407  39.086  1.00  0.00     0.000 C 
BRANCH   5   6
ATOM      6  C   UNL     1    -129.694 107.527  38.953  1.00  0.00     0.006 C 
BRANCH   6   7
ATOM      7  C   UNL     1    -130.064 106.041  38.964  1.00  0.00     0.053 C 
BRANCH   7   8
ATOM      8  C   UNL     1    -129.255 105.308  39.987  1.00  0.00     0.041 C 
ATOM      9  O   UNL     1    -128.592 105.945  40.847  1.00  0.00    -0.550 OA
ATOM     10  O   UNL     1    -129.193 103.921  39.960  1.00  0.00    -0.550 OA
ENDBRANCH   7   8
ENDBRANCH   6   7
ENDBRANCH   5   6
ENDBRANCH   4   5
ENDBRANCH   3   4
ENDBRANCH   2   3
ENDBRANCH   1   2
BRANCH   1  11
ATOM     11  C   UNL     1    -129.349 111.434  42.776  1.00  0.00     0.000 C 
BRANCH  11  12
ATOM     12  C   UNL     1    -129.036 112.445  43.894  1.00  0.00    -0.000 C 
BRANCH  12  13
ATOM     13  C   UNL     1    -129.822 113.757  43.737  1.00  0.00    -0.000 C 
BRANCH  13  14
ATOM     14  C   UNL     1    -129.888 114.568  45.040  1.00  0.00    -0.000 C 
BRANCH  14  15
ATOM     15  C   UNL     1    -129.436 116.017  44.808  1.00  0.00    -0.000 C 
BRANCH  15  16
ATOM     16  C   UNL     1    -129.796 116.541  43.406  1.00  0.00    -0.000 C 
BRANCH  16  17
ATOM     17  C   UNL     1    -128.947 117.730  42.922  1.00  0.00    -0.003 C 
ATOM     18  C   UNL     1    -128.777 118.815  43.985  1.00  0.00     0.004 C 
ENDBRANCH  16  17
ENDBRANCH  15  16
ENDBRANCH  14  15
ENDBRANCH  13  14
ENDBRANCH  12  13
ENDBRANCH  11  12
ENDBRANCH   1  11
TORSDOF 14
ENDMDL
MODEL 4
REMARK VINA RESULT:    -4.972      5.196      9.768
REMARK INTER + INTRA:          -9.852
REMARK INTER:                  -8.926
REMARK INTRA:                  -0.926
REMARK UNBOUND:                -0.810
REMARK SMILES CCCCCCCCCCCCCCCC(=O)[O-]
REMARK SMILES IDX 9 1 10 2 11 3 12 4 13 5 14 6 15 7 16 8 17 9 18 10 8 11 7 12
REMARK SMILES IDX 6 13 5 14 4 15 3 16 2 17 1 18
REMARK H PARENT
REMARK Flexibility Score: inf
ROOT
ATOM      1  C   UNL     1    -129.338 111.949  43.682  1.00  0.00     0.000 C 
ENDROOT
BRANCH   1   2
ATOM      2  C   UNL     1    -129.751 113.029  42.666  1.00  0.00     0.000 C 
BRANCH   2   3
ATOM      3  C   UNL     1    -129.994 114.395  43.328  1.00  0.00     0.000 C 
BRANCH   3   4
ATOM      4  C   UNL     1    -129.716 115.572  42.382  1.00  0.00     0.000 C 
BRANCH   4   5
ATOM      5  C   UNL     1    -129.460 116.861  43.171  1.00  0.00     0.000 C 
BRANCH   5   6
ATOM      6  C   UNL     1    -129.675 116.640  44.674  1.00  0.00     0.006 C 
BRANCH   6   7
ATOM      7  C   UNL     1    -130.063 117.947  45.372  1.00  0.00     0.053 C 
BRANCH   7   8
ATOM      8  C   UNL     1    -130.825 117.664  46.627  1.00  0.00     0.041 C 
ATOM      9  O   UNL     1    -131.272 118.612  47.326  1.00  0.00    -0.550 OA
ATOM     10  O   UNL     1    -131.002 116.353  47.053  1.00  0.00    -0.550 OA
ENDBRANCH   7   8
ENDBRANCH   6   7
ENDBRANCH   5   6
ENDBRANCH   4   5
ENDBRANCH   3   4
ENDBRANCH   2   3
ENDBRANCH   1   2
BRANCH   1  11
ATOM     11  C   UNL     1    -129.100 110.578  43.027  1.00  0.00     0.000 C 
BRANCH  11  12
ATOM     12  C   UNL     1    -129.815 109.434  43.767  1.00  0.00    -0.000 C 
BRANCH  12  13
ATOM     13  C   UNL     1    -130.101 108.231  42.854  1.00  0.00    -0.000 C 
BRANCH  13  14
ATOM     14  C   UNL     1    -129.002 108.010  41.803  1.00  0.00    -0.000 C 
BRANCH  14  15
ATOM     15  C   UNL     1    -129.606 107.868  40.398  1.00  0.00    -0.000 C 
BRANCH  15  16
ATOM     16  C   UNL     1    -129.663 109.201  39.631  1.00  0.00    -0.000 C 
BRANCH  16  17
ATOM     17  C   UNL     1    -131.075 109.790  39.462  1.00  0.00    -0.003 C 
ATOM     18  C   UNL     1    -132.030 108.851  38.725  1.00  0.00     0.004 C 
ENDBRANCH  16  17
ENDBRANCH  15  16
ENDBRANCH  14  15
ENDBRANCH  13  14
ENDBRANCH  12  13
ENDBRANCH  11  12
ENDBRANCH   1  11
TORSDOF 14
ENDMDL
MODEL 5
REMARK VINA RESULT:    -4.906      1.641      2.230
REMARK INTER + INTRA:          -9.732
REMARK INTER:                  -8.999
REMARK INTRA:                  -0.733
REMARK UNBOUND:                -0.810
REMARK SMILES CCCCCCCCCCCCCCCC(=O)[O-]
REMARK SMILES IDX 9 1 10 2 11 3 12 4 13 5 14 6 15 7 16 8 17 9 18 10 8 11 7 12
REMARK SMILES IDX 6 13 5 14 4 15 3 16 2 17 1 18
REMARK H PARENT
REMARK Flexibility Score: inf
ROOT
ATOM      1  C   UNL     1    -129.950 113.032  41.520  1.00  0.00     0.000 C 
ENDROOT
BRANCH   1   2
ATOM      2  C   UNL     1    -130.021 111.576  41.029  1.00  0.00     0.000 C 
BRANCH   2   3
ATOM      3  C   UNL     1    -129.325 111.380  39.673  1.00  0.00     0.000 C 
BRANCH   3   4
ATOM      4  C   UNL     1    -129.340 109.917  39.204  1.00  0.00     0.000 C 
BRANCH   4   5
ATOM      5  C   UNL     1    -130.053 109.022  40.224  1.00  0.00     0.000 C 
BRANCH   5   6
ATOM      6  C   UNL     1    -129.488 107.596  40.197  1.00  0.00     0.006 C 
BRANCH   6   7
ATOM      7  C   UNL     1    -130.028 106.813  38.996  1.00  0.00     0.053 C 
BRANCH   7   8
ATOM      8  C   UNL     1    -129.869 105.342  39.216  1.00  0.00     0.041 C 
ATOM      9  O   UNL     1    -129.806 104.879  40.386  1.00  0.00    -0.550 OA
ATOM     10  O   UNL     1    -129.742 104.486  38.130  1.00  0.00    -0.550 OA
ENDBRANCH   7   8
ENDBRANCH   6   7
ENDBRANCH   5   6
ENDBRANCH   4   5
ENDBRANCH   3   4
ENDBRANCH   2   3
ENDBRANCH   1   2
BRANCH   1  11
ATOM     11  C   UNL     1    -129.688 113.138  43.032  1.00  0.00     0.000 C 
BRANCH  11  12
ATOM     12  C   UNL     1    -129.770 114.585  43.549  1.00  0.00    -0.000 C 
BRANCH  12  13
ATOM     13  C   UNL     1    -129.419 114.697  45.042  1.00  0.00    -0.000 C 
BRANCH  13  14
ATOM     14  C   UNL     1    -129.921 116.005  45.672  1.00  0.00    -0.000 C 
BRANCH  14  15
ATOM     15  C   UNL     1    -130.107 117.093  44.605  1.00  0.00    -0.000 C 
BRANCH  15  16
ATOM     16  C   UNL     1    -129.383 118.406  44.952  1.00  0.00    -0.000 C 
BRANCH  16  17
ATOM     17  C   UNL     1    -128.436 118.931  43.858  1.00  0.00    -0.003 C 
ATOM     18  C   UNL     1    -128.516 118.125  42.561  1.00  0.00     0.004 C 
ENDBRANCH  16  17
ENDBRANCH  15  16
ENDBRANCH  14  15
ENDBRANCH  13  14
ENDBRANCH  12  13
ENDBRANCH  11  12
ENDBRANCH   1  11
TORSDOF 14
ENDMDL
MODEL 6
REMARK VINA RESULT:    -4.903      1.692      2.348
REMARK INTER + INTRA:          -9.727
REMARK INTER:                  -8.791
REMARK INTRA:                  -0.936
REMARK UNBOUND:                -0.810
REMARK SMILES CCCCCCCCCCCCCCCC(=O)[O-]
REMARK SMILES IDX 9 1 10 2 11 3 12 4 13 5 14 6 15 7 16 8 17 9 18 10 8 11 7 12
REMARK SMILES IDX 6 13 5 14 4 15 3 16 2 17 1 18
REMARK H PARENT
REMARK Flexibility Score: inf
ROOT
ATOM      1  C   UNL     1    -129.120 110.872  42.891  1.00  0.00     0.000 C 
ENDROOT
BRANCH   1   2
ATOM      2  C   UNL     1    -129.803 109.761  43.708  1.00  0.00     0.000 C 
BRANCH   2   3
ATOM      3  C   UNL     1    -129.587 108.367  43.097  1.00  0.00     0.000 C 
BRANCH   3   4
ATOM      4  C   UNL     1    -128.209 108.216  42.435  1.00  0.00     0.000 C 
BRANCH   4   5
ATOM      5  C   UNL     1    -128.142 106.934  41.596  1.00  0.00     0.000 C 
BRANCH   5   6
ATOM      6  C   UNL     1    -129.471 106.675  40.877  1.00  0.00     0.006 C 
BRANCH   6   7
ATOM      7  C   UNL     1    -129.407 107.137  39.418  1.00  0.00     0.053 C 
BRANCH   7   8
ATOM      8  C   UNL     1    -130.277 108.336  39.210  1.00  0.00     0.041 C 
ATOM      9  O   UNL     1    -129.851 109.486  39.497  1.00  0.00    -0.550 OA
ATOM     10  O   UNL     1    -131.576 108.180  38.745  1.00  0.00    -0.550 OA
ENDBRANCH   7   8
ENDBRANCH   6   7
ENDBRANCH   5   6
ENDBRANCH   4   5
ENDBRANCH   3   4
ENDBRANCH   2   3
ENDBRANCH   1   2
BRANCH   1  11
ATOM     11  C   UNL     1    -129.066 112.213  43.642  1.00  0.00     0.000 C 
BRANCH  11  12
ATOM     12  C   UNL     1    -129.824 113.334  42.909  1.00  0.00    -0.000 C 
BRANCH  12  13
ATOM     13  C   UNL     1    -129.753 114.677  43.656  1.00  0.00    -0.000 C 
BRANCH  13  14
ATOM     14  C   UNL     1    -129.606 115.876  42.706  1.00  0.00    -0.000 C 
BRANCH  14  15
ATOM     15  C   UNL     1    -129.642 117.200  43.485  1.00  0.00    -0.000 C 
BRANCH  15  16
ATOM     16  C   UNL     1    -129.396 117.016  44.993  1.00  0.00    -0.000 C 
BRANCH  16  17
ATOM     17  C   UNL     1    -130.501 117.584  45.902  1.00  0.00    -0.003 C 
ATOM     18  C   UNL     1    -130.921 116.615  47.008  1.00  0.00     0.004 C 
ENDBRANCH  16  17
ENDBRANCH  15  16
ENDBRANCH  14  15
ENDBRANCH  13  14
ENDBRANCH  12  13
ENDBRANCH  11  12
ENDBRANCH   1  11
TORSDOF 14
ENDMDL
MODEL 7
REMARK VINA RESULT:    -4.892      4.302      8.354
REMARK INTER + INTRA:          -9.706
REMARK INTER:                  -7.900
REMARK INTRA:                  -1.805
REMARK UNBOUND:                -0.810
REMARK SMILES CCCCCCCCCCCCCCCC(=O)[O-]
REMARK SMILES IDX 9 1 10 2 11 3 12 4 13 5 14 6 15 7 16 8 17 9 18 10 8 11 7 12
REMARK SMILES IDX 6 13 5 14 4 15 3 16 2 17 1 18
REMARK H PARENT
REMARK Flexibility Score: inf
ROOT
ATOM      1  C   UNL     1    -131.067 108.001  39.077  1.00  0.00     0.000 C 
ENDROOT
BRANCH   1   2
ATOM      2  C   UNL     1    -131.026 109.526  39.281  1.00  0.00     0.000 C 
BRANCH   2   3
ATOM      3  C   UNL     1    -129.595 110.053  39.472  1.00  0.00     0.000 C 
BRANCH   3   4
ATOM      4  C   UNL     1    -129.556 111.546  39.831  1.00  0.00     0.000 C 
BRANCH   4   5
ATOM      5  C   UNL     1    -130.093 111.784  41.247  1.00  0.00     0.000 C 
BRANCH   5   6
ATOM      6  C   UNL     1    -130.013 113.268  41.626  1.00  0.00     0.006 C 
BRANCH   6   7
ATOM      7  C   UNL     1    -129.582 113.441  43.085  1.00  0.00     0.053 C 
BRANCH   7   8
ATOM      8  C   UNL     1    -129.710 114.872  43.503  1.00  0.00     0.041 C 
ATOM      9  O   UNL     1    -129.479 115.208  44.694  1.00  0.00    -0.550 OA
ATOM     10  O   UNL     1    -130.132 115.828  42.588  1.00  0.00    -0.550 OA
ENDBRANCH   7   8
ENDBRANCH   6   7
ENDBRANCH   5   6
ENDBRANCH   4   5
ENDBRANCH   3   4
ENDBRANCH   2   3
ENDBRANCH   1   2
BRANCH   1  11
ATOM     11  C   UNL     1    -129.679 107.402  38.797  1.00  0.00     0.000 C 
BRANCH  11  12
ATOM     12  C   UNL     1    -129.463 106.050  39.501  1.00  0.00    -0.000 C 
BRANCH  12  13
ATOM     13  C   UNL     1    -129.398 106.188  41.031  1.00  0.00    -0.000 C 
BRANCH  13  14
ATOM     14  C   UNL     1    -128.084 106.822  41.514  1.00  0.00    -0.000 C 
BRANCH  14  15
ATOM     15  C   UNL     1    -128.352 108.137  42.260  1.00  0.00    -0.000 C 
BRANCH  15  16
ATOM     16  C   UNL     1    -129.817 108.286  42.709  1.00  0.00    -0.000 C 
BRANCH  16  17
ATOM     17  C   UNL     1    -130.029 109.193  43.934  1.00  0.00    -0.003 C 
ATOM     18  C   UNL     1    -131.023 108.614  44.941  1.00  0.00     0.004 C 
ENDBRANCH  16  17
ENDBRANCH  15  16
ENDBRANCH  14  15
ENDBRANCH  13  14
ENDBRANCH  12  13
ENDBRANCH  11  12
ENDBRANCH   1  11
TORSDOF 14
ENDMDL
MODEL 8
REMARK VINA RESULT:    -4.803      1.761      2.212
REMARK INTER + INTRA:          -9.545
REMARK INTER:                  -8.650
REMARK INTRA:                  -0.895
REMARK UNBOUND:                -0.810
REMARK SMILES CCCCCCCCCCCCCCCC(=O)[O-]
REMARK SMILES IDX 9 1 10 2 11 3 12 4 13 5 14 6 15 7 16 8 17 9 18 10 8 11 7 12
REMARK SMILES IDX 6 13 5 14 4 15 3 16 2 17 1 18
REMARK H PARENT
REMARK Flexibility Score: inf
ROOT
ATOM      1  C   UNL     1    -129.319 110.430  42.556  1.00  0.00     0.000 C 
ENDROOT
BRANCH   1   2
ATOM      2  C   UNL     1    -129.323 108.915  42.827  1.00  0.00     0.000 C 
BRANCH   2   3
ATOM      3  C   UNL     1    -127.924 108.292  42.697  1.00  0.00     0.000 C 
BRANCH   3   4
ATOM      4  C   UNL     1    -127.905 107.060  41.780  1.00  0.00     0.000 C 
BRANCH   4   5
ATOM      5  C   UNL     1    -129.305 106.769  41.225  1.00  0.00     0.000 C 
BRANCH   5   6
ATOM      6  C   UNL     1    -129.243 106.412  39.735  1.00  0.00     0.006 C 
BRANCH   6   7
ATOM      7  C   UNL     1    -130.322 107.159  38.945  1.00  0.00     0.053 C 
BRANCH   7   8
ATOM      8  C   UNL     1    -130.229 108.631  39.195  1.00  0.00     0.041 C 
ATOM      9  O   UNL     1    -129.136 109.235  39.035  1.00  0.00    -0.550 OA
ATOM     10  O   UNL     1    -131.339 109.329  39.654  1.00  0.00    -0.550 OA
ENDBRANCH   7   8
ENDBRANCH   6   7
ENDBRANCH   5   6
ENDBRANCH   4   5
ENDBRANCH   3   4
ENDBRANCH   2   3
ENDBRANCH   1   2
BRANCH   1  11
ATOM     11  C   UNL     1    -129.288 111.265  43.847  1.00  0.00     0.000 C 
BRANCH  11  12
ATOM     12  C   UNL     1    -128.943 112.743  43.590  1.00  0.00    -0.000 C 
BRANCH  12  13
ATOM     13  C   UNL     1    -129.223 113.633  44.812  1.00  0.00    -0.000 C 
BRANCH  13  14
ATOM     14  C   UNL     1    -129.926 114.947  44.439  1.00  0.00    -0.000 C 
BRANCH  14  15
ATOM     15  C   UNL     1    -130.010 115.887  45.651  1.00  0.00    -0.000 C 
BRANCH  15  16
ATOM     16  C   UNL     1    -129.955 117.375  45.261  1.00  0.00    -0.000 C 
BRANCH  16  17
ATOM     17  C   UNL     1    -129.297 117.663  43.900  1.00  0.00    -0.003 C 
ATOM     18  C   UNL     1    -128.659 119.050  43.825  1.00  0.00     0.004 C 
ENDBRANCH  16  17
ENDBRANCH  15  16
ENDBRANCH  14  15
ENDBRANCH  13  14
ENDBRANCH  12  13
ENDBRANCH  11  12
ENDBRANCH   1  11
TORSDOF 14
ENDMDL
MODEL 9
REMARK VINA RESULT:    -4.771      5.081     10.318
REMARK INTER + INTRA:          -9.485
REMARK INTER:                  -8.841
REMARK INTRA:                  -0.644
REMARK UNBOUND:                -0.810
REMARK SMILES CCCCCCCCCCCCCCCC(=O)[O-]
REMARK SMILES IDX 9 1 10 2 11 3 12 4 13 5 14 6 15 7 16 8 17 9 18 10 8 11 7 12
REMARK SMILES IDX 6 13 5 14 4 15 3 16 2 17 1 18
REMARK H PARENT
REMARK Flexibility Score: inf
ROOT
ATOM      1  C   UNL     1    -129.379 111.491  42.828  1.00  0.00     0.000 C 
ENDROOT
BRANCH   1   2
ATOM      2  C   UNL     1    -128.984 112.674  43.729  1.00  0.00     0.000 C 
BRANCH   2   3
ATOM      3  C   UNL     1    -130.004 113.822  43.670  1.00  0.00     0.000 C 
BRANCH   3   4
ATOM      4  C   UNL     1    -129.682 114.846  42.572  1.00  0.00     0.000 C 
BRANCH   4   5
ATOM      5  C   UNL     1    -129.648 116.269  43.141  1.00  0.00     0.000 C 
BRANCH   5   6
ATOM      6  C   UNL     1    -129.721 116.252  44.673  1.00  0.00     0.006 C 
BRANCH   6   7
ATOM      7  C   UNL     1    -130.048 117.643  45.224  1.00  0.00     0.053 C 
BRANCH   7   8
ATOM      8  C   UNL     1    -130.695 117.535  46.568  1.00  0.00     0.041 C 
ATOM      9  O   UNL     1    -130.907 116.404  47.082  1.00  0.00    -0.550 OA
ATOM     10  O   UNL     1    -131.109 118.681  47.235  1.00  0.00    -0.550 OA
ENDBRANCH   7   8
ENDBRANCH   6   7
ENDBRANCH   5   6
ENDBRANCH   4   5
ENDBRANCH   3   4
ENDBRANCH   2   3
ENDBRANCH   1   2
BRANCH   1  11
ATOM     11  C   UNL     1    -129.355 110.144  43.571  1.00  0.00     0.000 C 
BRANCH  11  12
ATOM     12  C   UNL     1    -129.853 108.977  42.701  1.00  0.00    -0.000 C 
BRANCH  12  13
ATOM     13  C   UNL     1    -129.241 108.992  41.290  1.00  0.00    -0.000 C 
BRANCH  13  14
ATOM     14  C   UNL     1    -130.299 109.147  40.187  1.00  0.00    -0.000 C 
BRANCH  14  15
ATOM     15  C   UNL     1    -130.192 108.009  39.161  1.00  0.00    -0.000 C 
BRANCH  15  16
ATOM     16  C   UNL     1    -129.443 106.779  39.704  1.00  0.00    -0.000 C 
BRANCH  16  17
ATOM     17  C   UNL     1    -129.809 105.447  39.026  1.00  0.00    -0.003 C 
ATOM     18  C   UNL     1    -129.232 104.229  39.748  1.00  0.00     0.004 C 
ENDBRANCH  16  17
ENDBRANCH  15  16
ENDBRANCH  14  15
ENDBRANCH  13  14
ENDBRANCH  12  13
ENDBRANCH  11  12
ENDBRANCH   1  11
TORSDOF 14
ENDMDL
