MODEL 1
REMARK VINA RESULT:    -5.307      0.000      0.000
REMARK INTER + INTRA:          -6.105
REMARK INTER:                  -5.927
REMARK INTRA:                  -0.178
REMARK UNBOUND:                -0.178
REMARK SMILES O=C([O-])c1ccccc1C(=O)[O-]
REMARK SMILES IDX 4 1 9 2 5 3 8 4 6 5 7 6 2 7 1 8 3 9 10 10 11 11 12 12
REMARK H PARENT
REMARK Flexibility Score: inf
ROOT
ATOM      1  C   UNL     1     -20.011 -30.157  24.394  1.00  0.00     0.006 A 
ATOM      2  C   UNL     1     -19.091 -30.934  23.634  1.00  0.00     0.006 A 
ATOM      3  C   UNL     1     -21.375 -30.502  24.376  1.00  0.00     0.010 A 
ATOM      4  C   UNL     1     -19.561 -32.065  22.940  1.00  0.00     0.010 A 
ATOM      5  C   UNL     1     -21.822 -31.615  23.663  1.00  0.00     0.001 A 
ATOM      6  C   UNL     1     -20.915 -32.401  22.956  1.00  0.00     0.001 A 
ENDROOT
BRANCH   1   7
ATOM      7  C   UNL     1     -19.591 -29.035  25.264  1.00  0.00     0.072 C 
ATOM      8  O   UNL     1     -19.440 -29.202  26.504  1.00  0.00    -0.545 OA
ATOM      9  O   UNL     1     -19.425 -27.763  24.729  1.00  0.00    -0.545 OA
ENDBRANCH   1   7
BRANCH   2  10
ATOM     10  C   UNL     1     -17.665 -30.564  23.483  1.00  0.00     0.072 C 
ATOM     11  O   UNL     1     -16.765 -31.300  23.969  1.00  0.00    -0.545 OA
ATOM     12  O   UNL     1     -17.298 -29.443  22.750  1.00  0.00    -0.545 OA
ENDBRANCH   2  10
TORSDOF 2
ENDMDL
MODEL 2
REMARK VINA RESULT:    -5.287      0.687      2.940
REMARK INTER + INTRA:          -6.083
REMARK INTER:                  -5.897
REMARK INTRA:                  -0.186
REMARK UNBOUND:                -0.178
REMARK SMILES O=C([O-])c1ccccc1C(=O)[O-]
REMARK SMILES IDX 4 1 9 2 5 3 8 4 6 5 7 6 2 7 1 8 3 9 10 10 11 11 12 12
REMARK H PARENT
REMARK Flexibility Score: inf
ROOT
ATOM      1  C   UNL     1     -19.675 -30.672  23.837  1.00  0.00     0.006 A 
ATOM      2  C   UNL     1     -20.543 -29.952  24.707  1.00  0.00     0.006 A 
ATOM      3  C   UNL     1     -20.182 -31.773  23.124  1.00  0.00     0.010 A 
ATOM      4  C   UNL     1     -21.899 -30.321  24.778  1.00  0.00     0.010 A 
ATOM      5  C   UNL     1     -21.525 -32.135  23.227  1.00  0.00     0.001 A 
ATOM      6  C   UNL     1     -22.385 -31.403  24.043  1.00  0.00     0.001 A 
ENDROOT
BRANCH   1   7
ATOM      7  C   UNL     1     -18.270 -30.274  23.592  1.00  0.00     0.072 C 
ATOM      8  O   UNL     1     -17.316 -30.957  24.052  1.00  0.00    -0.545 OA
ATOM      9  O   UNL     1     -17.988 -29.098  22.906  1.00  0.00    -0.545 OA
ENDBRANCH   1   7
BRANCH   2  10
ATOM     10  C   UNL     1     -20.066 -28.870  25.598  1.00  0.00     0.072 C 
ATOM     11  O   UNL     1     -19.482 -29.151  26.679  1.00  0.00    -0.545 OA
ATOM     12  O   UNL     1     -20.193 -27.537  25.226  1.00  0.00    -0.545 OA
ENDBRANCH   2  10
TORSDOF 2
ENDMDL
MODEL 3
REMARK VINA RESULT:    -5.258      6.362      7.738
REMARK INTER + INTRA:          -6.050
REMARK INTER:                  -5.843
REMARK INTRA:                  -0.207
REMARK UNBOUND:                -0.178
REMARK SMILES O=C([O-])c1ccccc1C(=O)[O-]
REMARK SMILES IDX 4 1 9 2 5 3 8 4 6 5 7 6 2 7 1 8 3 9 10 10 11 11 12 12
REMARK H PARENT
REMARK Flexibility Score: inf
ROOT
ATOM      1  C   UNL     1     -25.645 -32.083  24.970  1.00  0.00     0.006 A 
ATOM      2  C   UNL     1     -26.191 -32.139  23.657  1.00  0.00     0.006 A 
ATOM      3  C   UNL     1     -24.268 -31.841  25.129  1.00  0.00     0.010 A 
ATOM      4  C   UNL     1     -25.351 -31.884  22.557  1.00  0.00     0.010 A 
ATOM      5  C   UNL     1     -23.451 -31.613  24.022  1.00  0.00     0.001 A 
ATOM      6  C   UNL     1     -23.993 -31.623  22.739  1.00  0.00     0.001 A 
ENDROOT
BRANCH   1   7
ATOM      7  C   UNL     1     -26.473 -32.201  26.193  1.00  0.00     0.072 C 
ATOM      8  O   UNL     1     -27.151 -31.224  26.609  1.00  0.00    -0.545 OA
ATOM      9  O   UNL     1     -26.457 -33.376  26.935  1.00  0.00    -0.545 OA
ENDBRANCH   1   7
BRANCH   2  10
ATOM     10  C   UNL     1     -27.596 -32.524  23.390  1.00  0.00     0.072 C 
ATOM     11  O   UNL     1     -27.894 -33.730  23.183  1.00  0.00    -0.545 OA
ATOM     12  O   UNL     1     -28.610 -31.575  23.431  1.00  0.00    -0.545 OA
ENDBRANCH   2  10
TORSDOF 2
ENDMDL
MODEL 4
REMARK VINA RESULT:    -5.257      6.325      7.840
REMARK INTER + INTRA:          -6.049
REMARK INTER:                  -5.843
REMARK INTRA:                  -0.206
REMARK UNBOUND:                -0.178
REMARK SMILES O=C([O-])c1ccccc1C(=O)[O-]
REMARK SMILES IDX 4 1 9 2 5 3 8 4 6 5 7 6 2 7 1 8 3 9 10 10 11 11 12 12
REMARK H PARENT
REMARK Flexibility Score: inf
ROOT
ATOM      1  C   UNL     1     -26.095 -32.088  23.607  1.00  0.00     0.006 A 
ATOM      2  C   UNL     1     -25.578 -32.088  24.933  1.00  0.00     0.006 A 
ATOM      3  C   UNL     1     -25.226 -31.819  22.534  1.00  0.00     0.010 A 
ATOM      4  C   UNL     1     -24.200 -31.884  25.129  1.00  0.00     0.010 A 
ATOM      5  C   UNL     1     -23.866 -31.597  22.755  1.00  0.00     0.001 A 
ATOM      6  C   UNL     1     -23.352 -31.641  24.049  1.00  0.00     0.001 A 
ENDROOT
BRANCH   1   7
ATOM      7  C   UNL     1     -27.502 -32.429  23.291  1.00  0.00     0.072 C 
ATOM      8  O   UNL     1     -28.389 -31.535  23.256  1.00  0.00    -0.545 OA
ATOM      9  O   UNL     1     -27.871 -33.754  23.095  1.00  0.00    -0.545 OA
ENDBRANCH   1   7
BRANCH   2  10
ATOM     10  C   UNL     1     -26.442 -32.224  26.128  1.00  0.00     0.072 C 
ATOM     11  O   UNL     1     -26.406 -33.277  26.820  1.00  0.00    -0.545 OA
ATOM     12  O   UNL     1     -27.251 -31.173  26.542  1.00  0.00    -0.545 OA
ENDBRANCH   2  10
TORSDOF 2
ENDMDL
MODEL 5
REMARK VINA RESULT:    -5.119      2.400      3.716
REMARK INTER + INTRA:          -5.895
REMARK INTER:                  -5.710
REMARK INTRA:                  -0.185
REMARK UNBOUND:                -0.178
REMARK SMILES O=C([O-])c1ccccc1C(=O)[O-]
REMARK SMILES IDX 4 1 9 2 5 3 8 4 6 5 7 6 2 7 1 8 3 9 10 10 11 11 12 12
REMARK H PARENT
REMARK Flexibility Score: inf
ROOT
ATOM      1  C   UNL     1     -21.056 -30.663  23.996  1.00  0.00     0.006 A 
ATOM      2  C   UNL     1     -20.270 -29.633  24.587  1.00  0.00     0.006 A 
ATOM      3  C   UNL     1     -20.408 -31.717  23.326  1.00  0.00     0.010 A 
ATOM      4  C   UNL     1     -18.867 -29.733  24.542  1.00  0.00     0.010 A 
ATOM      5  C   UNL     1     -19.016 -31.783  23.275  1.00  0.00     0.001 A 
ATOM      6  C   UNL     1     -18.247 -30.799  23.892  1.00  0.00     0.001 A 
ENDROOT
BRANCH   1   7
ATOM      7  C   UNL     1     -22.531 -30.717  24.110  1.00  0.00     0.072 C 
ATOM      8  O   UNL     1     -23.083 -31.388  25.023  1.00  0.00    -0.545 OA
ATOM      9  O   UNL     1     -23.327 -30.081  23.165  1.00  0.00    -0.545 OA
ENDBRANCH   1   7
BRANCH   2  10
ATOM     10  C   UNL     1     -20.867 -28.419  25.189  1.00  0.00     0.072 C 
ATOM     11  O   UNL     1     -20.757 -28.206  26.427  1.00  0.00    -0.545 OA
ATOM     12  O   UNL     1     -21.494 -27.468  24.394  1.00  0.00    -0.545 OA
ENDBRANCH   2  10
TORSDOF 2
ENDMDL
MODEL 6
REMARK VINA RESULT:    -5.068      6.269      7.537
REMARK INTER + INTRA:          -5.839
REMARK INTER:                  -5.606
REMARK INTRA:                  -0.233
REMARK UNBOUND:                -0.178
REMARK SMILES O=C([O-])c1ccccc1C(=O)[O-]
REMARK SMILES IDX 4 1 9 2 5 3 8 4 6 5 7 6 2 7 1 8 3 9 10 10 11 11 12 12
REMARK H PARENT
REMARK Flexibility Score: inf
ROOT
ATOM      1  C   UNL     1     -26.945 -31.913  24.743  1.00  0.00     0.006 A 
ATOM      2  C   UNL     1     -25.588 -31.792  24.331  1.00  0.00     0.006 A 
ATOM      3  C   UNL     1     -27.244 -32.656  25.900  1.00  0.00     0.010 A 
ATOM      4  C   UNL     1     -24.578 -32.361  25.129  1.00  0.00     0.010 A 
ATOM      5  C   UNL     1     -26.228 -33.230  26.663  1.00  0.00     0.001 A 
ATOM      6  C   UNL     1     -24.897 -33.074  26.285  1.00  0.00     0.001 A 
ENDROOT
BRANCH   1   7
ATOM      7  C   UNL     1     -28.062 -31.235  24.047  1.00  0.00     0.072 C 
ATOM      8  O   UNL     1     -28.706 -31.821  23.136  1.00  0.00    -0.545 OA
ATOM      9  O   UNL     1     -28.369 -29.912  24.346  1.00  0.00    -0.545 OA
ENDBRANCH   1   7
BRANCH   2  10
ATOM     10  C   UNL     1     -25.194 -31.150  23.056  1.00  0.00     0.072 C 
ATOM     11  O   UNL     1     -25.143 -31.826  21.994  1.00  0.00    -0.545 OA
ATOM     12  O   UNL     1     -24.940 -29.785  22.999  1.00  0.00    -0.545 OA
ENDBRANCH   2  10
TORSDOF 2
ENDMDL
MODEL 7
REMARK VINA RESULT:    -5.035      6.296      7.970
REMARK INTER + INTRA:          -5.802
REMARK INTER:                  -5.569
REMARK INTRA:                  -0.233
REMARK UNBOUND:                -0.178
REMARK SMILES O=C([O-])c1ccccc1C(=O)[O-]
REMARK SMILES IDX 4 1 9 2 5 3 8 4 6 5 7 6 2 7 1 8 3 9 10 10 11 11 12 12
REMARK H PARENT
REMARK Flexibility Score: inf
ROOT
ATOM      1  C   UNL     1     -25.567 -31.769  24.259  1.00  0.00     0.006 A 
ATOM      2  C   UNL     1     -26.908 -32.029  24.658  1.00  0.00     0.006 A 
ATOM      3  C   UNL     1     -24.511 -32.235  25.064  1.00  0.00     0.010 A 
ATOM      4  C   UNL     1     -27.141 -32.801  25.812  1.00  0.00     0.010 A 
ATOM      5  C   UNL     1     -24.766 -32.979  26.216  1.00  0.00     0.001 A 
ATOM      6  C   UNL     1     -26.078 -33.272  26.583  1.00  0.00     0.001 A 
ENDROOT
BRANCH   1   7
ATOM      7  C   UNL     1     -25.222 -31.086  22.991  1.00  0.00     0.072 C 
ATOM      8  O   UNL     1     -25.002 -29.845  22.966  1.00  0.00    -0.545 OA
ATOM      9  O   UNL     1     -25.203 -31.799  21.798  1.00  0.00    -0.545 OA
ENDBRANCH   1   7
BRANCH   2  10
ATOM     10  C   UNL     1     -28.078 -31.462  23.949  1.00  0.00     0.072 C 
ATOM     11  O   UNL     1     -28.519 -30.324  24.264  1.00  0.00    -0.545 OA
ATOM     12  O   UNL     1     -28.661 -32.142  22.887  1.00  0.00    -0.545 OA
ENDBRANCH   2  10
TORSDOF 2
ENDMDL
MODEL 8
REMARK VINA RESULT:    -5.012      7.313      8.659
REMARK INTER + INTRA:          -5.776
REMARK INTER:                  -5.557
REMARK INTRA:                  -0.220
REMARK UNBOUND:                -0.178
REMARK SMILES O=C([O-])c1ccccc1C(=O)[O-]
REMARK SMILES IDX 4 1 9 2 5 3 8 4 6 5 7 6 2 7 1 8 3 9 10 10 11 11 12 12
REMARK H PARENT
REMARK Flexibility Score: inf
ROOT
ATOM      1  C   UNL     1     -28.333 -30.995  24.097  1.00  0.00     0.006 A 
ATOM      2  C   UNL     1     -27.482 -32.100  24.383  1.00  0.00     0.006 A 
ATOM      3  C   UNL     1     -29.101 -31.010  22.919  1.00  0.00     0.010 A 
ATOM      4  C   UNL     1     -27.483 -33.206  23.513  1.00  0.00     0.010 A 
ATOM      5  C   UNL     1     -29.070 -32.109  22.059  1.00  0.00     0.001 A 
ATOM      6  C   UNL     1     -28.271 -33.209  22.362  1.00  0.00     0.001 A 
ENDROOT
BRANCH   1   7
ATOM      7  C   UNL     1     -28.503 -29.849  25.021  1.00  0.00     0.072 C 
ATOM      8  O   UNL     1     -29.452 -29.824  25.849  1.00  0.00    -0.545 OA
ATOM      9  O   UNL     1     -27.652 -28.754  24.936  1.00  0.00    -0.545 OA
ENDBRANCH   1   7
BRANCH   2  10
ATOM     10  C   UNL     1     -26.538 -32.109  25.524  1.00  0.00     0.072 C 
ATOM     11  O   UNL     1     -26.806 -32.768  26.564  1.00  0.00    -0.545 OA
ATOM     12  O   UNL     1     -25.317 -31.449  25.439  1.00  0.00    -0.545 OA
ENDBRANCH   2  10
TORSDOF 2
ENDMDL
MODEL 9
REMARK VINA RESULT:    -4.995      7.286      9.011
REMARK INTER + INTRA:          -5.757
REMARK INTER:                  -5.543
REMARK INTRA:                  -0.214
REMARK UNBOUND:                -0.178
REMARK SMILES O=C([O-])c1ccccc1C(=O)[O-]
REMARK SMILES IDX 4 1 9 2 5 3 8 4 6 5 7 6 2 7 1 8 3 9 10 10 11 11 12 12
REMARK H PARENT
REMARK Flexibility Score: inf
ROOT
ATOM      1  C   UNL     1     -27.424 -32.058  24.407  1.00  0.00     0.006 A 
ATOM      2  C   UNL     1     -28.349 -31.026  24.081  1.00  0.00     0.006 A 
ATOM      3  C   UNL     1     -27.347 -33.194  23.579  1.00  0.00     0.010 A 
ATOM      4  C   UNL     1     -29.112 -31.139  22.904  1.00  0.00     0.010 A 
ATOM      5  C   UNL     1     -28.130 -33.294  22.429  1.00  0.00     0.001 A 
ATOM      6  C   UNL     1     -29.003 -32.264  22.086  1.00  0.00     0.001 A 
ENDROOT
BRANCH   1   7
ATOM      7  C   UNL     1     -26.482 -31.966  25.546  1.00  0.00     0.072 C 
ATOM      8  O   UNL     1     -25.410 -31.310  25.445  1.00  0.00    -0.545 OA
ATOM      9  O   UNL     1     -26.739 -32.661  26.722  1.00  0.00    -0.545 OA
ENDBRANCH   1   7
BRANCH   2  10
ATOM     10  C   UNL     1     -28.596 -29.865  24.966  1.00  0.00     0.072 C 
ATOM     11  O   UNL     1     -29.505 -29.914  25.838  1.00  0.00    -0.545 OA
ATOM     12  O   UNL     1     -27.789 -28.735  24.895  1.00  0.00    -0.545 OA
ENDBRANCH   2  10
TORSDOF 2
ENDMDL
