MODEL 1
REMARK VINA RESULT:    -4.657      0.000      0.000
REMARK INTER + INTRA:          -6.597
REMARK INTER:                  -5.746
REMARK INTRA:                  -0.850
REMARK UNBOUND:                -0.850
REMARK SMILES CC(C)=CCC[C@@H](C)c1ccc(C)cc1
REMARK SMILES IDX 6 1 7 2 8 3 9 4 13 5 12 6 11 7 14 8 10 9 15 10 5 11 4 12
REMARK SMILES IDX 2 13 1 14 3 15
REMARK H PARENT
REMARK Flexibility Score: inf
ROOT
ATOM      1  C   UNL     1      22.377  -9.818   3.236  1.00  0.00     0.012 C 
ENDROOT
BRANCH   1   2
ATOM      2  C   UNL     1      22.617  -8.465   2.525  1.00  0.00     0.016 C 
ATOM      3  C   UNL     1      23.071  -7.362   3.493  1.00  0.00     0.013 C 
BRANCH   2   4
ATOM      4  C   UNL     1      23.629  -8.634   1.405  1.00  0.00    -0.045 A 
ATOM      5  C   UNL     1      26.508  -9.084  -1.783  1.00  0.00     0.044 C 
ATOM      6  C   UNL     1      25.485  -8.934  -0.696  1.00  0.00    -0.051 A 
ATOM      7  C   UNL     1      25.110 -10.040   0.079  1.00  0.00     0.004 A 
ATOM      8  C   UNL     1      24.947  -7.673  -0.401  1.00  0.00     0.004 A 
ATOM      9  C   UNL     1      24.185  -9.895   1.116  1.00  0.00     0.004 A 
ATOM     10  C   UNL     1      24.021  -7.526   0.635  1.00  0.00     0.004 A 
ENDBRANCH   2   4
ENDBRANCH   1   2
BRANCH   1  11
ATOM     11  C   UNL     1      22.685  -9.792   4.747  1.00  0.00     0.028 C 
BRANCH  11  12
ATOM     12  C   UNL     1      23.914 -10.598   5.097  1.00  0.00    -0.028 C 
ATOM     13  C   UNL     1      24.887 -10.183   5.941  1.00  0.00    -0.080 C 
ATOM     14  C   UNL     1      24.856  -8.820   6.592  1.00  0.00     0.039 C 
ATOM     15  C   UNL     1      26.047 -11.106   6.206  1.00  0.00     0.039 C 
ENDBRANCH  11  12
ENDBRANCH   1  11
TORSDOF 4
ENDMDL
MODEL 2
REMARK VINA RESULT:    -4.609      0.103      1.254
REMARK INTER + INTRA:          -6.536
REMARK INTER:                  -5.678
REMARK INTRA:                  -0.859
REMARK UNBOUND:                -0.850
REMARK SMILES CC(C)=CCC[C@@H](C)c1ccc(C)cc1
REMARK SMILES IDX 6 1 7 2 8 3 9 4 13 5 12 6 11 7 14 8 10 9 15 10 5 11 4 12
REMARK SMILES IDX 2 13 1 14 3 15
REMARK H PARENT
REMARK Flexibility Score: inf
ROOT
ATOM      1  C   UNL     1      22.416  -9.832   3.320  1.00  0.00     0.012 C 
ENDROOT
BRANCH   1   2
ATOM      2  C   UNL     1      22.639  -8.473   2.616  1.00  0.00     0.016 C 
ATOM      3  C   UNL     1      23.087  -7.371   3.589  1.00  0.00     0.013 C 
BRANCH   2   4
ATOM      4  C   UNL     1      23.648  -8.625   1.490  1.00  0.00    -0.045 A 
ATOM      5  C   UNL     1      26.516  -9.091  -1.706  1.00  0.00     0.044 C 
ATOM      6  C   UNL     1      25.543  -8.921  -0.576  1.00  0.00    -0.051 A 
ATOM      7  C   UNL     1      24.924  -7.682  -0.357  1.00  0.00     0.004 A 
ATOM      8  C   UNL     1      25.193 -10.017   0.225  1.00  0.00     0.004 A 
ATOM      9  C   UNL     1      23.990  -7.532   0.672  1.00  0.00     0.004 A 
ATOM     10  C   UNL     1      24.260  -9.868   1.255  1.00  0.00     0.004 A 
ENDBRANCH   2   4
ENDBRANCH   1   2
BRANCH   1  11
ATOM     11  C   UNL     1      22.725  -9.811   4.831  1.00  0.00     0.028 C 
BRANCH  11  12
ATOM     12  C   UNL     1      23.961 -10.609   5.175  1.00  0.00    -0.028 C 
ATOM     13  C   UNL     1      24.933 -10.188   6.016  1.00  0.00    -0.080 C 
ATOM     14  C   UNL     1      24.896  -8.825   6.669  1.00  0.00     0.039 C 
ATOM     15  C   UNL     1      26.101 -11.103   6.277  1.00  0.00     0.039 C 
ENDBRANCH  11  12
ENDBRANCH   1  11
TORSDOF 4
ENDMDL
MODEL 3
REMARK VINA RESULT:    -4.527      1.102      1.798
REMARK INTER + INTRA:          -6.436
REMARK INTER:                  -5.731
REMARK INTRA:                  -0.705
REMARK UNBOUND:                -0.850
REMARK SMILES CC(C)=CCC[C@@H](C)c1ccc(C)cc1
REMARK SMILES IDX 6 1 7 2 8 3 9 4 13 5 12 6 11 7 14 8 10 9 15 10 5 11 4 12
REMARK SMILES IDX 2 13 1 14 3 15
REMARK H PARENT
REMARK Flexibility Score: inf
ROOT
ATOM      1  C   UNL     1      22.714  -8.072   3.076  1.00  0.00     0.012 C 
ENDROOT
BRANCH   1   2
ATOM      2  C   UNL     1      22.817  -9.331   2.182  1.00  0.00     0.016 C 
ATOM      3  C   UNL     1      21.447  -9.964   1.895  1.00  0.00     0.013 C 
BRANCH   2   4
ATOM      4  C   UNL     1      23.526  -8.993   0.882  1.00  0.00    -0.045 A 
ATOM      5  C   UNL     1      25.530  -8.059  -2.828  1.00  0.00     0.044 C 
ATOM      6  C   UNL     1      24.861  -8.398  -1.529  1.00  0.00    -0.051 A 
ATOM      7  C   UNL     1      24.903  -7.496  -0.457  1.00  0.00     0.004 A 
ATOM      8  C   UNL     1      24.129  -9.587  -1.400  1.00  0.00     0.004 A 
ATOM      9  C   UNL     1      24.248  -7.793   0.742  1.00  0.00     0.004 A 
ATOM     10  C   UNL     1      23.475  -9.886  -0.202  1.00  0.00     0.004 A 
ENDBRANCH   2   4
ENDBRANCH   1   2
BRANCH   1  11
ATOM     11  C   UNL     1      23.033  -8.335   4.562  1.00  0.00     0.028 C 
BRANCH  11  12
ATOM     12  C   UNL     1      23.947  -9.523   4.752  1.00  0.00    -0.028 C 
ATOM     13  C   UNL     1      24.792  -9.679   5.796  1.00  0.00    -0.080 C 
ATOM     14  C   UNL     1      24.937  -8.629   6.874  1.00  0.00     0.039 C 
ATOM     15  C   UNL     1      25.631 -10.928   5.859  1.00  0.00     0.039 C 
ENDBRANCH  11  12
ENDBRANCH   1  11
TORSDOF 4
ENDMDL
MODEL 4
REMARK VINA RESULT:    -4.523      1.101      1.444
REMARK INTER + INTRA:          -6.431
REMARK INTER:                  -5.739
REMARK INTRA:                  -0.692
REMARK UNBOUND:                -0.850
REMARK SMILES CC(C)=CCC[C@@H](C)c1ccc(C)cc1
REMARK SMILES IDX 6 1 7 2 8 3 9 4 13 5 12 6 11 7 14 8 10 9 15 10 5 11 4 12
REMARK SMILES IDX 2 13 1 14 3 15
REMARK H PARENT
REMARK Flexibility Score: inf
ROOT
ATOM      1  C   UNL     1      22.788  -7.986   3.037  1.00  0.00     0.012 C 
ENDROOT
BRANCH   1   2
ATOM      2  C   UNL     1      22.858  -9.241   2.134  1.00  0.00     0.016 C 
ATOM      3  C   UNL     1      21.472  -9.832   1.836  1.00  0.00     0.013 C 
BRANCH   2   4
ATOM      4  C   UNL     1      23.583  -8.915   0.840  1.00  0.00    -0.045 A 
ATOM      5  C   UNL     1      25.656  -7.961  -2.827  1.00  0.00     0.044 C 
ATOM      6  C   UNL     1      24.910  -8.279  -1.566  1.00  0.00    -0.051 A 
ATOM      7  C   UNL     1      24.250  -9.508  -1.426  1.00  0.00     0.004 A 
ATOM      8  C   UNL     1      24.925  -7.380  -0.490  1.00  0.00     0.004 A 
ATOM      9  C   UNL     1      23.585  -9.821  -0.237  1.00  0.00     0.004 A 
ATOM     10  C   UNL     1      24.260  -7.691   0.700  1.00  0.00     0.004 A 
ENDBRANCH   2   4
ENDBRANCH   1   2
BRANCH   1  11
ATOM     11  C   UNL     1      23.008  -8.282   4.534  1.00  0.00     0.028 C 
BRANCH  11  12
ATOM     12  C   UNL     1      23.948  -9.443   4.758  1.00  0.00    -0.028 C 
ATOM     13  C   UNL     1      24.772  -9.566   5.824  1.00  0.00    -0.080 C 
ATOM     14  C   UNL     1      24.863  -8.502   6.894  1.00  0.00     0.039 C 
ATOM     15  C   UNL     1      25.642 -10.791   5.920  1.00  0.00     0.039 C 
ENDBRANCH  11  12
ENDBRANCH   1  11
TORSDOF 4
ENDMDL
MODEL 5
REMARK VINA RESULT:    -4.282      1.182      5.912
REMARK INTER + INTRA:          -6.133
REMARK INTER:                  -5.583
REMARK INTRA:                  -0.550
REMARK UNBOUND:                -0.850
REMARK SMILES CC(C)=CCC[C@@H](C)c1ccc(C)cc1
REMARK SMILES IDX 6 1 7 2 8 3 9 4 13 5 12 6 11 7 14 8 10 9 15 10 5 11 4 12
REMARK SMILES IDX 2 13 1 14 3 15
REMARK H PARENT
REMARK Flexibility Score: inf
ROOT
ATOM      1  C   UNL     1      23.240  -9.408   1.000  1.00  0.00     0.012 C 
ENDROOT
BRANCH   1   2
ATOM      2  C   UNL     1      22.219  -9.348   2.161  1.00  0.00     0.016 C 
ATOM      3  C   UNL     1      21.333 -10.601   2.232  1.00  0.00     0.013 C 
BRANCH   2   4
ATOM      4  C   UNL     1      22.939  -9.135   3.482  1.00  0.00    -0.045 A 
ATOM      5  C   UNL     1      25.005  -8.555   7.231  1.00  0.00     0.044 C 
ATOM      6  C   UNL     1      24.263  -8.770   5.944  1.00  0.00    -0.051 A 
ATOM      7  C   UNL     1      23.401  -7.781   5.452  1.00  0.00     0.004 A 
ATOM      8  C   UNL     1      24.480  -9.932   5.189  1.00  0.00     0.004 A 
ATOM      9  C   UNL     1      22.738  -7.963   4.235  1.00  0.00     0.004 A 
ATOM     10  C   UNL     1      23.818 -10.116   3.973  1.00  0.00     0.004 A 
ENDBRANCH   2   4
ENDBRANCH   1   2
BRANCH   1  11
ATOM     11  C   UNL     1      24.280  -8.269   1.026  1.00  0.00     0.028 C 
BRANCH  11  12
ATOM     12  C   UNL     1      24.532  -7.690  -0.346  1.00  0.00    -0.028 C 
ATOM     13  C   UNL     1      25.476  -8.139  -1.205  1.00  0.00    -0.080 C 
ATOM     14  C   UNL     1      26.422  -9.260  -0.842  1.00  0.00     0.039 C 
ATOM     15  C   UNL     1      25.598  -7.471  -2.549  1.00  0.00     0.039 C 
ENDBRANCH  11  12
ENDBRANCH   1  11
TORSDOF 4
ENDMDL
MODEL 6
REMARK VINA RESULT:    -4.088      1.398      2.200
REMARK INTER + INTRA:          -5.894
REMARK INTER:                  -5.049
REMARK INTRA:                  -0.845
REMARK UNBOUND:                -0.850
REMARK SMILES CC(C)=CCC[C@@H](C)c1ccc(C)cc1
REMARK SMILES IDX 6 1 7 2 8 3 9 4 13 5 12 6 11 7 14 8 10 9 15 10 5 11 4 12
REMARK SMILES IDX 2 13 1 14 3 15
REMARK H PARENT
REMARK Flexibility Score: inf
ROOT
ATOM      1  C   UNL     1      23.440 -10.898   2.732  1.00  0.00     0.012 C 
ENDROOT
BRANCH   1   2
ATOM      2  C   UNL     1      22.614 -10.626   1.451  1.00  0.00     0.016 C 
ATOM      3  C   UNL     1      21.249  -9.991   1.753  1.00  0.00     0.013 C 
BRANCH   2   4
ATOM      4  C   UNL     1      23.405  -9.751   0.494  1.00  0.00    -0.045 A 
ATOM      5  C   UNL     1      25.647  -7.282  -2.251  1.00  0.00     0.044 C 
ATOM      6  C   UNL     1      24.896  -8.151  -1.286  1.00  0.00    -0.051 A 
ATOM      7  C   UNL     1      24.574  -7.674  -0.008  1.00  0.00     0.004 A 
ATOM      8  C   UNL     1      24.449  -9.421  -1.680  1.00  0.00     0.004 A 
ATOM      9  C   UNL     1      23.841  -8.469   0.878  1.00  0.00     0.004 A 
ATOM     10  C   UNL     1      23.717 -10.217  -0.794  1.00  0.00     0.004 A 
ENDBRANCH   2   4
ENDBRANCH   1   2
BRANCH   1  11
ATOM     11  C   UNL     1      22.674 -10.611   4.039  1.00  0.00     0.028 C 
BRANCH  11  12
ATOM     12  C   UNL     1      23.587 -10.144   5.149  1.00  0.00    -0.028 C 
ATOM     13  C   UNL     1      23.785  -8.849   5.483  1.00  0.00    -0.080 C 
ATOM     14  C   UNL     1      23.128  -7.716   4.727  1.00  0.00     0.039 C 
ATOM     15  C   UNL     1      24.714  -8.537   6.627  1.00  0.00     0.039 C 
ENDBRANCH  11  12
ENDBRANCH   1  11
TORSDOF 4
ENDMDL
MODEL 7
REMARK VINA RESULT:    -4.070      2.815      6.229
REMARK INTER + INTRA:          -5.872
REMARK INTER:                  -5.276
REMARK INTRA:                  -0.596
REMARK UNBOUND:                -0.850
REMARK SMILES CC(C)=CCC[C@@H](C)c1ccc(C)cc1
REMARK SMILES IDX 6 1 7 2 8 3 9 4 13 5 12 6 11 7 14 8 10 9 15 10 5 11 4 12
REMARK SMILES IDX 2 13 1 14 3 15
REMARK H PARENT
REMARK Flexibility Score: inf
ROOT
ATOM      1  C   UNL     1      21.492  -9.635   1.746  1.00  0.00     0.012 C 
ENDROOT
BRANCH   1   2
ATOM      2  C   UNL     1      23.025  -9.428   1.793  1.00  0.00     0.016 C 
ATOM      3  C   UNL     1      23.493  -8.275   0.894  1.00  0.00     0.013 C 
BRANCH   2   4
ATOM      4  C   UNL     1      23.478  -9.199   3.225  1.00  0.00    -0.045 A 
ATOM      5  C   UNL     1      24.786  -8.573   7.294  1.00  0.00     0.044 C 
ATOM      6  C   UNL     1      24.307  -8.806   5.891  1.00  0.00    -0.051 A 
ATOM      7  C   UNL     1      23.459  -7.878   5.270  1.00  0.00     0.004 A 
ATOM      8  C   UNL     1      24.758  -9.919   5.167  1.00  0.00     0.004 A 
ATOM      9  C   UNL     1      23.042  -8.075   3.952  1.00  0.00     0.004 A 
ATOM     10  C   UNL     1      24.340 -10.118   3.848  1.00  0.00     0.004 A 
ENDBRANCH   2   4
ENDBRANCH   1   2
BRANCH   1  11
ATOM     11  C   UNL     1      21.064 -10.995   1.158  1.00  0.00     0.028 C 
BRANCH  11  12
ATOM     12  C   UNL     1      21.063 -10.993  -0.353  1.00  0.00    -0.028 C 
ATOM     13  C   UNL     1      19.965 -10.795  -1.117  1.00  0.00    -0.080 C 
ATOM     14  C   UNL     1      18.592 -10.600  -0.514  1.00  0.00     0.039 C 
ATOM     15  C   UNL     1      20.122 -10.804  -2.615  1.00  0.00     0.039 C 
ENDBRANCH  11  12
ENDBRANCH   1  11
TORSDOF 4
ENDMDL
MODEL 8
REMARK VINA RESULT:    -4.061      2.244      5.492
REMARK INTER + INTRA:          -5.861
REMARK INTER:                  -4.728
REMARK INTRA:                  -1.133
REMARK UNBOUND:                -0.850
REMARK SMILES CC(C)=CCC[C@@H](C)c1ccc(C)cc1
REMARK SMILES IDX 6 1 7 2 8 3 9 4 13 5 12 6 11 7 14 8 10 9 15 10 5 11 4 12
REMARK SMILES IDX 2 13 1 14 3 15
REMARK H PARENT
REMARK Flexibility Score: inf
ROOT
ATOM      1  C   UNL     1      23.461  -9.627  -1.073  1.00  0.00     0.012 C 
ENDROOT
BRANCH   1   2
ATOM      2  C   UNL     1      24.641  -9.100  -0.223  1.00  0.00     0.016 C 
ATOM      3  C   UNL     1      25.370  -7.924  -0.890  1.00  0.00     0.013 C 
BRANCH   2   4
ATOM      4  C   UNL     1      24.154  -8.704   1.160  1.00  0.00    -0.045 A 
ATOM      5  C   UNL     1      22.783  -7.603   5.106  1.00  0.00     0.044 C 
ATOM      6  C   UNL     1      23.231  -7.998   3.730  1.00  0.00    -0.051 A 
ATOM      7  C   UNL     1      23.054  -7.122   2.650  1.00  0.00     0.004 A 
ATOM      8  C   UNL     1      23.893  -9.218   3.525  1.00  0.00     0.004 A 
ATOM      9  C   UNL     1      23.504  -7.474   1.374  1.00  0.00     0.004 A 
ATOM     10  C   UNL     1      24.343  -9.571   2.250  1.00  0.00     0.004 A 
ENDBRANCH   2   4
ENDBRANCH   1   2
BRANCH   1  11
ATOM     11  C   UNL     1      22.871 -10.958  -0.564  1.00  0.00     0.028 C 
BRANCH  11  12
ATOM     12  C   UNL     1      21.372 -11.027  -0.742  1.00  0.00    -0.028 C 
ATOM     13  C   UNL     1      20.473 -10.778   0.238  1.00  0.00    -0.080 C 
ATOM     14  C   UNL     1      20.897 -10.446   1.650  1.00  0.00     0.039 C 
ATOM     15  C   UNL     1      19.006 -10.870  -0.095  1.00  0.00     0.039 C 
ENDBRANCH  11  12
ENDBRANCH   1  11
TORSDOF 4
ENDMDL
MODEL 9
REMARK VINA RESULT:    -3.468      2.678      4.812
REMARK INTER + INTRA:          -5.129
REMARK INTER:                  -4.290
REMARK INTRA:                  -0.839
REMARK UNBOUND:                -0.850
REMARK SMILES CC(C)=CCC[C@@H](C)c1ccc(C)cc1
REMARK SMILES IDX 6 1 7 2 8 3 9 4 13 5 12 6 11 7 14 8 10 9 15 10 5 11 4 12
REMARK SMILES IDX 2 13 1 14 3 15
REMARK H PARENT
REMARK Flexibility Score: inf
ROOT
ATOM      1  C   UNL     1      21.805  -9.379   1.632  1.00  0.00     0.012 C 
ENDROOT
BRANCH   1   2
ATOM      2  C   UNL     1      23.293  -9.299   2.048  1.00  0.00     0.016 C 
ATOM      3  C   UNL     1      23.769 -10.560   2.785  1.00  0.00     0.013 C 
BRANCH   2   4
ATOM      4  C   UNL     1      24.164  -9.037   0.832  1.00  0.00    -0.045 A 
ATOM      5  C   UNL     1      26.633  -8.261  -2.627  1.00  0.00     0.044 C 
ATOM      6  C   UNL     1      25.752  -8.539  -1.445  1.00  0.00    -0.051 A 
ATOM      7  C   UNL     1      25.731  -9.814  -0.862  1.00  0.00     0.004 A 
ATOM      8  C   UNL     1      24.994  -7.508  -0.871  1.00  0.00     0.004 A 
ATOM      9  C   UNL     1      24.939 -10.064   0.261  1.00  0.00     0.004 A 
ATOM     10  C   UNL     1      24.200  -7.757   0.252  1.00  0.00     0.004 A 
ENDBRANCH   2   4
ENDBRANCH   1   2
BRANCH   1  11
ATOM     11  C   UNL     1      21.373 -10.772   1.130  1.00  0.00     0.028 C 
BRANCH  11  12
ATOM     12  C   UNL     1      21.275 -10.834  -0.376  1.00  0.00    -0.028 C 
ATOM     13  C   UNL     1      20.119 -10.747  -1.072  1.00  0.00    -0.080 C 
ATOM     14  C   UNL     1      18.777 -10.623  -0.387  1.00  0.00     0.039 C 
ATOM     15  C   UNL     1      20.181 -10.808  -2.576  1.00  0.00     0.039 C 
ENDBRANCH  11  12
ENDBRANCH   1  11
TORSDOF 4
ENDMDL
