MODEL 1
REMARK VINA RESULT:    -0.946      0.000      0.000
REMARK INTER + INTRA:          -1.564
REMARK INTER:                  -1.334
REMARK INTRA:                  -0.230
REMARK UNBOUND:                -0.230
REMARK SMILES C=CCCCCCCC(=O)[O-]
REMARK SMILES IDX 6 1 7 2 8 3 9 4 10 5 11 6 5 7 4 8 3 9 2 10 1 11
REMARK H PARENT
REMARK Flexibility Score: inf
ROOT
ATOM      1  C   UNL     1     -19.094  16.600  19.215  1.00  0.00     0.000 C 
ENDROOT
BRANCH   1   2
ATOM      2  C   UNL     1     -19.122  18.133  19.306  1.00  0.00     0.006 C 
BRANCH   2   3
ATOM      3  C   UNL     1     -19.117  18.629  20.757  1.00  0.00     0.053 C 
BRANCH   3   4
ATOM      4  C   UNL     1     -18.719  20.071  20.851  1.00  0.00     0.041 C 
ATOM      5  O   UNL     1     -19.010  20.870  19.923  1.00  0.00    -0.550 OA
ATOM      6  O   UNL     1     -17.997  20.523  21.948  1.00  0.00    -0.550 OA
ENDBRANCH   3   4
ENDBRANCH   2   3
ENDBRANCH   1   2
BRANCH   1   7
ATOM      7  C   UNL     1     -19.006  16.137  17.756  1.00  0.00     0.000 C 
BRANCH   7   8
ATOM      8  C   UNL     1     -19.122  17.329  16.793  1.00  0.00     0.004 C 
BRANCH   8   9
ATOM      9  C   UNL     1     -18.997  16.900  15.323  1.00  0.00     0.027 C 
BRANCH   9  10
ATOM     10  C   UNL     1     -19.093  18.066  14.375  1.00  0.00    -0.035 C 
ATOM     11  C   UNL     1     -18.943  17.916  13.056  1.00  0.00     0.004 C 
ENDBRANCH   9  10
ENDBRANCH   8   9
ENDBRANCH   7   8
ENDBRANCH   1   7
TORSDOF 7
ENDMDL
MODEL 2
REMARK VINA RESULT:    -0.634      3.292      5.956
REMARK INTER + INTRA:          -1.124
REMARK INTER:                  -0.893
REMARK INTRA:                  -0.231
REMARK UNBOUND:                -0.230
REMARK SMILES C=CCCCCCCC(=O)[O-]
REMARK SMILES IDX 6 1 7 2 8 3 9 4 10 5 11 6 5 7 4 8 3 9 2 10 1 11
REMARK H PARENT
REMARK Flexibility Score: inf
ROOT
ATOM      1  C   UNL     1     -18.952  16.049  18.222  1.00  0.00     0.000 C 
ENDROOT
BRANCH   1   2
ATOM      2  C   UNL     1     -19.125  16.035  16.696  1.00  0.00     0.006 C 
BRANCH   2   3
ATOM      3  C   UNL     1     -19.090  17.446  16.095  1.00  0.00     0.053 C 
BRANCH   3   4
ATOM      4  C   UNL     1     -19.066  17.411  14.597  1.00  0.00     0.041 C 
ATOM      5  O   UNL     1     -18.969  16.312  13.990  1.00  0.00    -0.550 OA
ATOM      6  O   UNL     1     -19.116  18.596  13.873  1.00  0.00    -0.550 OA
ENDBRANCH   3   4
ENDBRANCH   2   3
ENDBRANCH   1   2
BRANCH   1   7
ATOM      7  C   UNL     1     -18.905  17.484  18.757  1.00  0.00     0.000 C 
BRANCH   7   8
ATOM      8  C   UNL     1     -19.122  17.513  20.277  1.00  0.00     0.004 C 
BRANCH   8   9
ATOM      9  C   UNL     1     -18.259  18.581  20.967  1.00  0.00     0.027 C 
BRANCH   9  10
ATOM     10  C   UNL     1     -18.891  19.947  20.919  1.00  0.00    -0.035 C 
ATOM     11  C   UNL     1     -18.575  20.900  21.801  1.00  0.00     0.004 C 
ENDBRANCH   9  10
ENDBRANCH   8   9
ENDBRANCH   7   8
ENDBRANCH   1   7
TORSDOF 7
ENDMDL
MODEL 3
REMARK VINA RESULT:     0.206      2.881      4.697
REMARK INTER + INTRA:           0.061
REMARK INTER:                   0.241
REMARK INTRA:                  -0.181
REMARK UNBOUND:                -0.230
REMARK SMILES C=CCCCCCCC(=O)[O-]
REMARK SMILES IDX 6 1 7 2 8 3 9 4 10 5 11 6 5 7 4 8 3 9 2 10 1 11
REMARK H PARENT
REMARK Flexibility Score: inf
ROOT
ATOM      1  C   UNL     1     -18.267  17.479  14.557  1.00  0.00     0.000 C 
ENDROOT
BRANCH   1   2
ATOM      2  C   UNL     1     -19.067  16.717  15.624  1.00  0.00     0.006 C 
BRANCH   2   3
ATOM      3  C   UNL     1     -19.125  17.474  16.957  1.00  0.00     0.053 C 
BRANCH   3   4
ATOM      4  C   UNL     1     -19.089  16.541  18.129  1.00  0.00     0.041 C 
ATOM      5  O   UNL     1     -19.115  16.997  19.302  1.00  0.00    -0.550 OA
ATOM      6  O   UNL     1     -18.992  15.171  17.925  1.00  0.00    -0.550 OA
ENDBRANCH   3   4
ENDBRANCH   2   3
ENDBRANCH   1   2
BRANCH   1   7
ATOM      7  C   UNL     1     -19.123  17.740  13.312  1.00  0.00     0.000 C 
BRANCH   7   8
ATOM      8  C   UNL     1     -18.659  16.871  12.133  1.00  0.00     0.004 C 
BRANCH   8   9
ATOM      9  C   UNL     1     -18.344  17.709  10.884  1.00  0.00     0.027 C 
BRANCH   9  10
ATOM     10  C   UNL     1     -17.744  16.884   9.777  1.00  0.00    -0.035 C 
ATOM     11  C   UNL     1     -17.103  15.738  10.021  1.00  0.00     0.004 C 
ENDBRANCH   9  10
ENDBRANCH   8   9
ENDBRANCH   7   8
ENDBRANCH   1   7
TORSDOF 7
ENDMDL
