MODEL 1
REMARK VINA RESULT:    -2.996      0.000      0.000
REMARK INTER + INTRA:          -2.996
REMARK INTER:                  -2.996
REMARK INTRA:                   0.000
REMARK UNBOUND:                 0.000
REMARK SMILES CC1(C)[C@H]2CC[C@]1(C)C(=O)C2
REMARK SMILES IDX 1 1 2 2 4 3 5 4 6 5 7 6 9 7 10 8 11 9 8 10 3 11
REMARK H PARENT
REMARK Flexibility Score: inf
ROOT
ATOM      1  C   UNL     1      20.461  35.049  53.067  1.00  0.00     0.012 C 
ATOM      2  C   UNL     1      19.617  33.759  52.823  1.00  0.00    -0.020 C 
ATOM      3  C   UNL     1      19.359  32.934  54.108  1.00  0.00     0.003 C 
ATOM      4  C   UNL     1      18.667  31.656  53.560  1.00  0.00     0.005 C 
ATOM      5  C   UNL     1      19.384  31.425  52.206  1.00  0.00     0.015 C 
ATOM      6  C   UNL     1      20.385  32.603  52.148  1.00  0.00     0.032 C 
ATOM      7  C   UNL     1      21.410  32.292  53.211  1.00  0.00     0.139 C 
ATOM      8  O   UNL     1      22.535  31.855  53.019  1.00  0.00    -0.299 OA
ATOM      9  C   UNL     1      20.784  32.504  54.554  1.00  0.00     0.080 C 
ATOM     10  C   UNL     1      20.963  32.887  50.756  1.00  0.00     0.020 C 
ATOM     11  C   UNL     1      18.316  34.214  52.096  1.00  0.00     0.012 C 
ENDROOT
TORSDOF 0
ENDMDL
MODEL 2
REMARK VINA RESULT:    -2.927      1.551      2.759
REMARK INTER + INTRA:          -2.927
REMARK INTER:                  -2.927
REMARK INTRA:                   0.000
REMARK UNBOUND:                 0.000
REMARK SMILES CC1(C)[C@H]2CC[C@]1(C)C(=O)C2
REMARK SMILES IDX 1 1 2 2 4 3 5 4 6 5 7 6 9 7 10 8 11 9 8 10 3 11
REMARK H PARENT
REMARK Flexibility Score: inf
ROOT
ATOM      1  C   UNL     1      18.879  32.618  54.667  1.00  0.00     0.012 C 
ATOM      2  C   UNL     1      19.530  32.395  53.266  1.00  0.00    -0.020 C 
ATOM      3  C   UNL     1      21.073  32.269  53.312  1.00  0.00     0.003 C 
ATOM      4  C   UNL     1      21.458  32.230  51.808  1.00  0.00     0.005 C 
ATOM      5  C   UNL     1      20.432  33.195  51.161  1.00  0.00     0.015 C 
ATOM      6  C   UNL     1      19.587  33.654  52.373  1.00  0.00     0.032 C 
ATOM      7  C   UNL     1      20.514  34.527  53.181  1.00  0.00     0.139 C 
ATOM      8  O   UNL     1      20.498  35.748  53.222  1.00  0.00    -0.299 OA
ATOM      9  C   UNL     1      21.534  33.654  53.846  1.00  0.00     0.080 C 
ATOM     10  C   UNL     1      18.243  34.297  52.013  1.00  0.00     0.020 C 
ATOM     11  C   UNL     1      18.817  31.160  52.639  1.00  0.00     0.012 C 
ENDROOT
TORSDOF 0
ENDMDL
MODEL 3
REMARK VINA RESULT:    -2.910      1.797      3.190
REMARK INTER + INTRA:          -2.910
REMARK INTER:                  -2.910
REMARK INTRA:                   0.000
REMARK UNBOUND:                 0.000
REMARK SMILES CC1(C)[C@H]2CC[C@]1(C)C(=O)C2
REMARK SMILES IDX 1 1 2 2 4 3 5 4 6 5 7 6 9 7 10 8 11 9 8 10 3 11
REMARK H PARENT
REMARK Flexibility Score: inf
ROOT
ATOM      1  C   UNL     1      21.098  32.491  51.294  1.00  0.00     0.012 C 
ATOM      2  C   UNL     1      20.528  32.467  52.747  1.00  0.00    -0.020 C 
ATOM      3  C   UNL     1      19.284  31.559  52.910  1.00  0.00     0.003 C 
ATOM      4  C   UNL     1      18.837  31.852  54.369  1.00  0.00     0.005 C 
ATOM      5  C   UNL     1      19.152  33.360  54.533  1.00  0.00     0.015 C 
ATOM      6  C   UNL     1      19.746  33.734  53.155  1.00  0.00     0.032 C 
ATOM      7  C   UNL     1      18.582  33.663  52.199  1.00  0.00     0.139 C 
ATOM      8  O   UNL     1      17.968  34.615  51.741  1.00  0.00    -0.299 OA
ATOM      9  C   UNL     1      18.227  32.224  51.986  1.00  0.00     0.080 C 
ATOM     10  C   UNL     1      20.525  35.055  53.128  1.00  0.00     0.020 C 
ATOM     11  C   UNL     1      21.715  32.081  53.680  1.00  0.00     0.012 C 
ENDROOT
TORSDOF 0
ENDMDL
MODEL 4
REMARK VINA RESULT:    -2.141      1.024      2.870
REMARK INTER + INTRA:          -2.141
REMARK INTER:                  -2.141
REMARK INTRA:                   0.000
REMARK UNBOUND:                 0.000
REMARK SMILES CC1(C)[C@H]2CC[C@]1(C)C(=O)C2
REMARK SMILES IDX 1 1 2 2 4 3 5 4 6 5 7 6 9 7 10 8 11 9 8 10 3 11
REMARK H PARENT
REMARK Flexibility Score: inf
ROOT
ATOM      1  C   UNL     1      18.679  31.407  52.692  1.00  0.00     0.012 C 
ATOM      2  C   UNL     1      19.356  32.705  53.234  1.00  0.00    -0.020 C 
ATOM      3  C   UNL     1      19.306  33.892  52.241  1.00  0.00     0.003 C 
ATOM      4  C   UNL     1      20.178  34.965  52.948  1.00  0.00     0.005 C 
ATOM      5  C   UNL     1      21.285  34.121  53.630  1.00  0.00     0.015 C 
ATOM      6  C   UNL     1      20.900  32.676  53.235  1.00  0.00     0.032 C 
ATOM      7  C   UNL     1      21.177  32.593  51.755  1.00  0.00     0.139 C 
ATOM      8  O   UNL     1      22.139  32.048  51.234  1.00  0.00    -0.299 OA
ATOM      9  C   UNL     1      20.134  33.384  51.028  1.00  0.00     0.080 C 
ATOM     10  C   UNL     1      21.562  31.581  54.080  1.00  0.00     0.020 C 
ATOM     11  C   UNL     1      18.690  33.008  54.610  1.00  0.00     0.012 C 
ENDROOT
TORSDOF 0
ENDMDL
MODEL 5
REMARK VINA RESULT:    -1.718      1.422      2.979
REMARK INTER + INTRA:          -1.718
REMARK INTER:                  -1.718
REMARK INTRA:                   0.000
REMARK UNBOUND:                 0.000
REMARK SMILES CC1(C)[C@H]2CC[C@]1(C)C(=O)C2
REMARK SMILES IDX 1 1 2 2 4 3 5 4 6 5 7 6 9 7 10 8 11 9 8 10 3 11
REMARK H PARENT
REMARK Flexibility Score: inf
ROOT
ATOM      1  C   UNL     1      18.697  34.381  51.901  1.00  0.00     0.012 C 
ATOM      2  C   UNL     1      19.914  33.916  52.762  1.00  0.00    -0.020 C 
ATOM      3  C   UNL     1      20.934  33.055  51.978  1.00  0.00     0.003 C 
ATOM      4  C   UNL     1      21.922  32.601  53.088  1.00  0.00     0.005 C 
ATOM      5  C   UNL     1      20.997  32.403  54.316  1.00  0.00     0.015 C 
ATOM      6  C   UNL     1      19.605  32.777  53.756  1.00  0.00     0.032 C 
ATOM      7  C   UNL     1      19.260  31.661  52.801  1.00  0.00     0.139 C 
ATOM      8  O   UNL     1      18.480  30.746  53.018  1.00  0.00    -0.299 OA
ATOM      9  C   UNL     1      20.115  31.796  51.579  1.00  0.00     0.080 C 
ATOM     10  C   UNL     1      18.541  33.069  54.821  1.00  0.00     0.020 C 
ATOM     11  C   UNL     1      20.529  35.205  53.387  1.00  0.00     0.012 C 
ENDROOT
TORSDOF 0
ENDMDL
MODEL 6
REMARK VINA RESULT:    -1.507      1.614      2.879
REMARK INTER + INTRA:          -1.507
REMARK INTER:                  -1.507
REMARK INTRA:                   0.000
REMARK UNBOUND:                 0.000
REMARK SMILES CC1(C)[C@H]2CC[C@]1(C)C(=O)C2
REMARK SMILES IDX 1 1 2 2 4 3 5 4 6 5 7 6 9 7 10 8 11 9 8 10 3 11
REMARK H PARENT
REMARK Flexibility Score: inf
ROOT
ATOM      1  C   UNL     1      21.746  32.033  53.091  1.00  0.00     0.012 C 
ATOM      2  C   UNL     1      20.663  32.828  52.296  1.00  0.00    -0.020 C 
ATOM      3  C   UNL     1      20.515  34.300  52.752  1.00  0.00     0.003 C 
ATOM      4  C   UNL     1      19.287  34.788  51.937  1.00  0.00     0.005 C 
ATOM      5  C   UNL     1      18.378  33.534  51.891  1.00  0.00     0.015 C 
ATOM      6  C   UNL     1      19.205  32.488  52.675  1.00  0.00     0.032 C 
ATOM      7  C   UNL     1      19.172  32.963  54.106  1.00  0.00     0.139 C 
ATOM      8  O   UNL     1      18.485  32.497  55.003  1.00  0.00    -0.299 OA
ATOM      9  C   UNL     1      20.041  34.176  54.227  1.00  0.00     0.080 C 
ATOM     10  C   UNL     1      18.766  31.034  52.466  1.00  0.00     0.020 C 
ATOM     11  C   UNL     1      21.018  32.669  50.787  1.00  0.00     0.012 C 
ENDROOT
TORSDOF 0
ENDMDL
MODEL 7
REMARK VINA RESULT:    -0.854      1.919      3.263
REMARK INTER + INTRA:          -0.854
REMARK INTER:                  -0.854
REMARK INTRA:                   0.000
REMARK UNBOUND:                 0.000
REMARK SMILES CC1(C)[C@H]2CC[C@]1(C)C(=O)C2
REMARK SMILES IDX 1 1 2 2 4 3 5 4 6 5 7 6 9 7 10 8 11 9 8 10 3 11
REMARK H PARENT
REMARK Flexibility Score: inf
ROOT
ATOM      1  C   UNL     1      20.969  34.804  53.767  1.00  0.00     0.012 C 
ATOM      2  C   UNL     1      20.795  33.357  53.207  1.00  0.00    -0.020 C 
ATOM      3  C   UNL     1      20.827  33.283  51.660  1.00  0.00     0.003 C 
ATOM      4  C   UNL     1      20.468  31.798  51.383  1.00  0.00     0.005 C 
ATOM      5  C   UNL     1      19.443  31.473  52.499  1.00  0.00     0.015 C 
ATOM      6  C   UNL     1      19.355  32.807  53.276  1.00  0.00     0.032 C 
ATOM      7  C   UNL     1      18.649  33.755  52.338  1.00  0.00     0.139 C 
ATOM      8  O   UNL     1      17.480  34.101  52.412  1.00  0.00    -0.299 OA
ATOM      9  C   UNL     1      19.590  34.121  51.232  1.00  0.00     0.080 C 
ATOM     10  C   UNL     1      18.732  32.697  54.673  1.00  0.00     0.020 C 
ATOM     11  C   UNL     1      21.882  32.483  53.901  1.00  0.00     0.012 C 
ENDROOT
TORSDOF 0
ENDMDL
MODEL 8
REMARK VINA RESULT:    -0.785      1.877      3.151
REMARK INTER + INTRA:          -0.785
REMARK INTER:                  -0.785
REMARK INTRA:                   0.000
REMARK UNBOUND:                 0.000
REMARK SMILES CC1(C)[C@H]2CC[C@]1(C)C(=O)C2
REMARK SMILES IDX 1 1 2 2 4 3 5 4 6 5 7 6 9 7 10 8 11 9 8 10 3 11
REMARK H PARENT
REMARK Flexibility Score: inf
ROOT
ATOM      1  C   UNL     1      19.098  31.370  51.698  1.00  0.00     0.012 C 
ATOM      2  C   UNL     1      20.209  32.301  52.278  1.00  0.00    -0.020 C 
ATOM      3  C   UNL     1      20.439  32.120  53.798  1.00  0.00     0.003 C 
ATOM      4  C   UNL     1      21.443  33.258  54.129  1.00  0.00     0.005 C 
ATOM      5  C   UNL     1      20.988  34.407  53.194  1.00  0.00     0.015 C 
ATOM      6  C   UNL     1      19.791  33.778  52.443  1.00  0.00     0.032 C 
ATOM      7  C   UNL     1      18.708  33.646  53.484  1.00  0.00     0.139 C 
ATOM      8  O   UNL     1      17.732  34.372  53.602  1.00  0.00    -0.299 OA
ATOM      9  C   UNL     1      19.079  32.540  54.423  1.00  0.00     0.080 C 
ATOM     10  C   UNL     1      19.374  34.518  51.166  1.00  0.00     0.020 C 
ATOM     11  C   UNL     1      21.484  32.057  51.415  1.00  0.00     0.012 C 
ENDROOT
TORSDOF 0
ENDMDL
MODEL 9
REMARK VINA RESULT:    -0.550      1.576      2.767
REMARK INTER + INTRA:          -0.550
REMARK INTER:                  -0.550
REMARK INTRA:                   0.000
REMARK UNBOUND:                 0.000
REMARK SMILES CC1(C)[C@H]2CC[C@]1(C)C(=O)C2
REMARK SMILES IDX 1 1 2 2 4 3 5 4 6 5 7 6 9 7 10 8 11 9 8 10 3 11
REMARK H PARENT
REMARK Flexibility Score: inf
ROOT
ATOM      1  C   UNL     1      21.396  31.538  54.457  1.00  0.00     0.012 C 
ATOM      2  C   UNL     1      21.056  32.823  53.639  1.00  0.00    -0.020 C 
ATOM      3  C   UNL     1      19.734  33.502  54.073  1.00  0.00     0.003 C 
ATOM      4  C   UNL     1      19.560  34.621  53.009  1.00  0.00     0.005 C 
ATOM      5  C   UNL     1      20.110  33.963  51.719  1.00  0.00     0.015 C 
ATOM      6  C   UNL     1      20.536  32.559  52.209  1.00  0.00     0.032 C 
ATOM      7  C   UNL     1      19.242  31.846  52.511  1.00  0.00     0.139 C 
ATOM      8  O   UNL     1      18.710  30.996  51.812  1.00  0.00    -0.299 OA
ATOM      9  C   UNL     1      18.655  32.428  53.759  1.00  0.00     0.080 C 
ATOM     10  C   UNL     1      21.484  31.809  51.266  1.00  0.00     0.020 C 
ATOM     11  C   UNL     1      22.303  33.752  53.739  1.00  0.00     0.012 C 
ENDROOT
TORSDOF 0
ENDMDL
