MODEL 1
REMARK VINA RESULT:    -4.102      0.000      0.000
REMARK INTER + INTRA:          -4.472
REMARK INTER:                  -4.341
REMARK INTRA:                  -0.130
REMARK UNBOUND:                -0.130
REMARK SMILES C=C(C)[C@H]1CC=C(C)CC1
REMARK SMILES IDX 8 1 7 2 6 3 5 4 4 5 10 6 9 7 2 8 1 9 3 10
REMARK H PARENT
REMARK Flexibility Score: inf
ROOT
ATOM      1  C   UNL     1      22.605  62.736  14.254  1.00  0.00     0.039 C 
ATOM      2  C   UNL     1      21.231  63.222  14.626  1.00  0.00    -0.077 C 
ATOM      3  C   UNL     1      21.041  63.783  15.840  1.00  0.00    -0.027 C 
ATOM      4  C   UNL     1      19.693  64.253  16.326  1.00  0.00     0.035 C 
ATOM      5  C   UNL     1      18.725  64.544  15.165  1.00  0.00     0.018 C 
ATOM      6  C   UNL     1      18.733  63.370  14.173  1.00  0.00     0.013 C 
ATOM      7  C   UNL     1      20.134  63.189  13.580  1.00  0.00     0.031 C 
ENDROOT
BRANCH   5   8
ATOM      8  C   UNL     1      17.320  64.848  15.670  1.00  0.00    -0.077 C 
ATOM      9  C   UNL     1      17.087  65.129  16.964  1.00  0.00     0.008 C 
ATOM     10  C   UNL     1      16.154  64.832  14.715  1.00  0.00     0.039 C 
ENDBRANCH   5   8
TORSDOF 1
ENDMDL
MODEL 2
REMARK VINA RESULT:    -4.042      1.464      5.218
REMARK INTER + INTRA:          -4.408
REMARK INTER:                  -4.279
REMARK INTRA:                  -0.129
REMARK UNBOUND:                -0.130
REMARK SMILES C=C(C)[C@H]1CC=C(C)CC1
REMARK SMILES IDX 8 1 7 2 6 3 5 4 4 5 10 6 9 7 2 8 1 9 3 10
REMARK H PARENT
REMARK Flexibility Score: inf
ROOT
ATOM      1  C   UNL     1      13.501  66.113  16.345  1.00  0.00     0.039 C 
ATOM      2  C   UNL     1      14.882  65.578  16.086  1.00  0.00    -0.077 C 
ATOM      3  C   UNL     1      15.160  65.035  14.881  1.00  0.00    -0.027 C 
ATOM      4  C   UNL     1      16.498  64.425  14.544  1.00  0.00     0.035 C 
ATOM      5  C   UNL     1      17.626  64.961  15.444  1.00  0.00     0.018 C 
ATOM      6  C   UNL     1      17.190  64.904  16.916  1.00  0.00     0.013 C 
ATOM      7  C   UNL     1      15.955  65.784  17.138  1.00  0.00     0.031 C 
ENDROOT
BRANCH   5   8
ATOM      8  C   UNL     1      18.932  64.213  15.211  1.00  0.00    -0.077 C 
ATOM      9  C   UNL     1      20.016  64.447  15.970  1.00  0.00     0.008 C 
ATOM     10  C   UNL     1      19.031  63.191  14.108  1.00  0.00     0.039 C 
ENDBRANCH   5   8
TORSDOF 1
ENDMDL
MODEL 3
REMARK VINA RESULT:    -3.958      2.473      4.675
REMARK INTER + INTRA:          -4.320
REMARK INTER:                  -4.190
REMARK INTRA:                  -0.129
REMARK UNBOUND:                -0.130
REMARK SMILES C=C(C)[C@H]1CC=C(C)CC1
REMARK SMILES IDX 8 1 7 2 6 3 5 4 4 5 10 6 9 7 2 8 1 9 3 10
REMARK H PARENT
REMARK Flexibility Score: inf
ROOT
ATOM      1  C   UNL     1      22.127  63.489  20.563  1.00  0.00     0.039 C 
ATOM      2  C   UNL     1      21.951  63.335  19.077  1.00  0.00    -0.077 C 
ATOM      3  C   UNL     1      20.712  63.440  18.549  1.00  0.00    -0.027 C 
ATOM      4  C   UNL     1      20.426  63.249  17.081  1.00  0.00     0.035 C 
ATOM      5  C   UNL     1      21.673  63.481  16.210  1.00  0.00     0.018 C 
ATOM      6  C   UNL     1      22.866  62.704  16.789  1.00  0.00     0.013 C 
ATOM      7  C   UNL     1      23.184  63.200  18.204  1.00  0.00     0.031 C 
ENDROOT
BRANCH   5   8
ATOM      8  C   UNL     1      21.415  63.116  14.753  1.00  0.00    -0.077 C 
ATOM      9  C   UNL     1      22.428  62.933  13.889  1.00  0.00     0.008 C 
ATOM     10  C   UNL     1      20.003  62.960  14.252  1.00  0.00     0.039 C 
ENDBRANCH   5   8
TORSDOF 1
ENDMDL
MODEL 4
REMARK VINA RESULT:    -3.889      1.044      4.912
REMARK INTER + INTRA:          -4.246
REMARK INTER:                  -4.119
REMARK INTRA:                  -0.128
REMARK UNBOUND:                -0.130
REMARK SMILES C=C(C)[C@H]1CC=C(C)CC1
REMARK SMILES IDX 8 1 7 2 6 3 5 4 4 5 10 6 9 7 2 8 1 9 3 10
REMARK H PARENT
REMARK Flexibility Score: inf
ROOT
ATOM      1  C   UNL     1      17.443  64.657  15.007  1.00  0.00     0.039 C 
ATOM      2  C   UNL     1      18.845  64.117  15.081  1.00  0.00    -0.077 C 
ATOM      3  C   UNL     1      19.318  63.379  14.053  1.00  0.00    -0.027 C 
ATOM      4  C   UNL     1      20.689  62.751  14.056  1.00  0.00     0.035 C 
ATOM      5  C   UNL     1      21.653  63.460  15.024  1.00  0.00     0.018 C 
ATOM      6  C   UNL     1      20.975  63.649  16.390  1.00  0.00     0.013 C 
ATOM      7  C   UNL     1      19.726  64.526  16.245  1.00  0.00     0.031 C 
ENDROOT
BRANCH   5   8
ATOM      8  C   UNL     1      22.975  62.713  15.147  1.00  0.00    -0.077 C 
ATOM      9  C   UNL     1      23.636  62.278  14.061  1.00  0.00     0.008 C 
ATOM     10  C   UNL     1      23.566  62.443  16.507  1.00  0.00     0.039 C 
ENDBRANCH   5   8
TORSDOF 1
ENDMDL
MODEL 5
REMARK VINA RESULT:    -3.855      2.164      4.065
REMARK INTER + INTRA:          -4.211
REMARK INTER:                  -4.085
REMARK INTRA:                  -0.126
REMARK UNBOUND:                -0.130
REMARK SMILES C=C(C)[C@H]1CC=C(C)CC1
REMARK SMILES IDX 8 1 7 2 6 3 5 4 4 5 10 6 9 7 2 8 1 9 3 10
REMARK H PARENT
REMARK Flexibility Score: inf
ROOT
ATOM      1  C   UNL     1      22.205  63.311  20.028  1.00  0.00     0.039 C 
ATOM      2  C   UNL     1      21.755  63.368  18.594  1.00  0.00    -0.077 C 
ATOM      3  C   UNL     1      22.637  63.068  17.617  1.00  0.00    -0.027 C 
ATOM      4  C   UNL     1      22.298  63.147  16.150  1.00  0.00     0.035 C 
ATOM      5  C   UNL     1      20.783  63.050  15.897  1.00  0.00     0.018 C 
ATOM      6  C   UNL     1      20.035  64.012  16.834  1.00  0.00     0.013 C 
ATOM      7  C   UNL     1      20.291  63.632  18.297  1.00  0.00     0.031 C 
ENDROOT
BRANCH   5   8
ATOM      8  C   UNL     1      20.440  63.305  14.435  1.00  0.00    -0.077 C 
ATOM      9  C   UNL     1      19.362  62.745  13.861  1.00  0.00     0.008 C 
ATOM     10  C   UNL     1      21.321  64.196  13.598  1.00  0.00     0.039 C 
ENDBRANCH   5   8
TORSDOF 1
ENDMDL
MODEL 6
REMARK VINA RESULT:    -3.826      2.384      4.941
REMARK INTER + INTRA:          -4.180
REMARK INTER:                  -4.055
REMARK INTRA:                  -0.125
REMARK UNBOUND:                -0.130
REMARK SMILES C=C(C)[C@H]1CC=C(C)CC1
REMARK SMILES IDX 8 1 7 2 6 3 5 4 4 5 10 6 9 7 2 8 1 9 3 10
REMARK H PARENT
REMARK Flexibility Score: inf
ROOT
ATOM      1  C   UNL     1      13.504  64.893  15.395  1.00  0.00     0.039 C 
ATOM      2  C   UNL     1      14.969  64.935  15.734  1.00  0.00    -0.077 C 
ATOM      3  C   UNL     1      15.340  64.990  17.032  1.00  0.00    -0.027 C 
ATOM      4  C   UNL     1      16.779  65.089  17.472  1.00  0.00     0.035 C 
ATOM      5  C   UNL     1      17.753  64.572  16.397  1.00  0.00     0.018 C 
ATOM      6  C   UNL     1      17.401  65.189  15.034  1.00  0.00     0.013 C 
ATOM      7  C   UNL     1      15.983  64.780  14.618  1.00  0.00     0.031 C 
ENDROOT
BRANCH   5   8
ATOM      8  C   UNL     1      19.203  64.837  16.780  1.00  0.00    -0.077 C 
ATOM      9  C   UNL     1      19.820  65.981  16.435  1.00  0.00     0.008 C 
ATOM     10  C   UNL     1      19.979  63.806  17.557  1.00  0.00     0.039 C 
ENDBRANCH   5   8
TORSDOF 1
ENDMDL
MODEL 7
REMARK VINA RESULT:    -3.749      1.951      3.145
REMARK INTER + INTRA:          -4.098
REMARK INTER:                  -3.974
REMARK INTRA:                  -0.124
REMARK UNBOUND:                -0.130
REMARK SMILES C=C(C)[C@H]1CC=C(C)CC1
REMARK SMILES IDX 8 1 7 2 6 3 5 4 4 5 10 6 9 7 2 8 1 9 3 10
REMARK H PARENT
REMARK Flexibility Score: inf
ROOT
ATOM      1  C   UNL     1      23.613  63.166  18.888  1.00  0.00     0.039 C 
ATOM      2  C   UNL     1      22.513  63.276  17.868  1.00  0.00    -0.077 C 
ATOM      3  C   UNL     1      21.231  63.317  18.289  1.00  0.00    -0.027 C 
ATOM      4  C   UNL     1      20.057  63.374  17.344  1.00  0.00     0.035 C 
ATOM      5  C   UNL     1      20.449  63.928  15.962  1.00  0.00     0.018 C 
ATOM      6  C   UNL     1      21.713  63.216  15.455  1.00  0.00     0.013 C 
ATOM      7  C   UNL     1      22.884  63.471  16.411  1.00  0.00     0.031 C 
ENDROOT
BRANCH   5   8
ATOM      8  C   UNL     1      19.300  63.817  14.968  1.00  0.00    -0.077 C 
ATOM      9  C   UNL     1      18.199  64.580  15.084  1.00  0.00     0.008 C 
ATOM     10  C   UNL     1      19.380  62.836  13.827  1.00  0.00     0.039 C 
ENDBRANCH   5   8
TORSDOF 1
ENDMDL
MODEL 8
REMARK VINA RESULT:    -3.662      1.477      4.349
REMARK INTER + INTRA:          -4.006
REMARK INTER:                  -3.879
REMARK INTRA:                  -0.127
REMARK UNBOUND:                -0.130
REMARK SMILES C=C(C)[C@H]1CC=C(C)CC1
REMARK SMILES IDX 8 1 7 2 6 3 5 4 4 5 10 6 9 7 2 8 1 9 3 10
REMARK H PARENT
REMARK Flexibility Score: inf
ROOT
ATOM      1  C   UNL     1      16.685  65.047  14.774  1.00  0.00     0.039 C 
ATOM      2  C   UNL     1      17.999  64.616  15.367  1.00  0.00    -0.077 C 
ATOM      3  C   UNL     1      18.293  64.971  16.636  1.00  0.00    -0.027 C 
ATOM      4  C   UNL     1      19.603  64.634  17.301  1.00  0.00     0.035 C 
ATOM      5  C   UNL     1      20.298  63.429  16.641  1.00  0.00     0.018 C 
ATOM      6  C   UNL     1      20.322  63.612  15.116  1.00  0.00     0.013 C 
ATOM      7  C   UNL     1      18.892  63.687  14.568  1.00  0.00     0.031 C 
ENDROOT
BRANCH   5   8
ATOM      8  C   UNL     1      21.695  63.208  17.206  1.00  0.00    -0.077 C 
ATOM      9  C   UNL     1      22.768  63.113  16.402  1.00  0.00     0.008 C 
ATOM     10  C   UNL     1      21.897  63.086  18.694  1.00  0.00     0.039 C 
ENDBRANCH   5   8
TORSDOF 1
ENDMDL
MODEL 9
REMARK VINA RESULT:    -3.659     21.614     23.042
REMARK INTER + INTRA:          -4.003
REMARK INTER:                  -3.879
REMARK INTRA:                  -0.124
REMARK UNBOUND:                -0.130
REMARK SMILES C=C(C)[C@H]1CC=C(C)CC1
REMARK SMILES IDX 8 1 7 2 6 3 5 4 4 5 10 6 9 7 2 8 1 9 3 10
REMARK H PARENT
REMARK Flexibility Score: inf
ROOT
ATOM      1  C   UNL     1       5.869  45.875   2.521  1.00  0.00     0.039 C 
ATOM      2  C   UNL     1       7.120  46.697   2.668  1.00  0.00    -0.077 C 
ATOM      3  C   UNL     1       7.281  47.790   1.891  1.00  0.00    -0.027 C 
ATOM      4  C   UNL     1       8.522  48.647   1.926  1.00  0.00     0.035 C 
ATOM      5  C   UNL     1       9.291  48.504   3.252  1.00  0.00     0.018 C 
ATOM      6  C   UNL     1       9.467  47.017   3.594  1.00  0.00     0.013 C 
ATOM      7  C   UNL     1       8.099  46.349   3.772  1.00  0.00     0.031 C 
ENDROOT
BRANCH   5   8
ATOM      8  C   UNL     1      10.626  49.237   3.207  1.00  0.00    -0.077 C 
ATOM      9  C   UNL     1      11.718  48.667   2.667  1.00  0.00     0.008 C 
ATOM     10  C   UNL     1      10.745  50.625   3.779  1.00  0.00     0.039 C 
ENDBRANCH   5   8
TORSDOF 1
ENDMDL
