MODEL 1
REMARK VINA RESULT:    -6.662      0.000      0.000
REMARK INTER + INTRA:          -8.349
REMARK INTER:                  -8.026
REMARK INTRA:                  -0.323
REMARK UNBOUND:                -0.323
REMARK SMILES O=c1c(O)c(-c2ccc(O)c(O)c2)oc2cc(O)cc(O)c12
REMARK SMILES IDX 5 1 3 2 2 3 1 4 22 5 20 6 19 7 17 8 16 9 15 10 14 11 6 12
REMARK SMILES IDX 7 13 8 14 9 15 13 16 11 17 10 18 12 20 4 22 21 24 18 26
REMARK H PARENT 10 19 12 21 4 23 21 25 18 27
REMARK Flexibility Score: inf
ROOT
ATOM      1  C   UNL     1      10.065  14.646  51.413  1.00  0.00     0.180 A 
ATOM      2  C   UNL     1       9.300  15.752  51.832  1.00  0.00     0.208 A 
ATOM      3  C   UNL     1       8.543  15.646  53.010  1.00  0.00     0.238 A 
ATOM      4  O   UNL     1       7.864  16.633  53.401  1.00  0.00    -0.285 OA
ATOM      5  C   UNL     1       8.548  14.437  53.734  1.00  0.00     0.111 A 
ATOM      6  C   UNL     1       7.810  14.247  54.928  1.00  0.00     0.134 A 
ATOM      7  C   UNL     1       7.859  13.009  55.586  1.00  0.00     0.093 A 
ATOM      8  C   UNL     1       8.627  11.960  55.076  1.00  0.00     0.123 A 
ATOM      9  C   UNL     1       9.359  12.142  53.898  1.00  0.00     0.094 A 
ATOM     10  C   UNL     1       9.325  13.368  53.228  1.00  0.00     0.146 A 
ATOM     11  O   UNL     1      10.033  13.517  52.114  1.00  0.00    -0.452 OA
ENDROOT
BRANCH   1  12
ATOM     12  C   UNL     1      10.903  14.687  50.193  1.00  0.00     0.025 A 
ATOM     13  C   UNL     1      12.212  15.186  50.273  1.00  0.00     0.016 A 
ATOM     14  C   UNL     1      13.016  15.254  49.131  1.00  0.00     0.051 A 
ATOM     15  C   UNL     1      12.517  14.841  47.892  1.00  0.00     0.157 A 
ATOM     16  C   UNL     1      10.397  14.292  48.942  1.00  0.00     0.062 A 
ATOM     17  C   UNL     1      11.200  14.362  47.794  1.00  0.00     0.158 A 
BRANCH  15  18
ATOM     18  O   UNL     1      13.342  14.918  46.770  1.00  0.00    -0.504 OA
ATOM     19  H   UNL     1      13.391  14.173  46.085  1.00  0.00     0.293 HD
ENDBRANCH  15  18
BRANCH  17  20
ATOM     20  O   UNL     1      10.693  13.961  46.559  1.00  0.00    -0.504 OA
ATOM     21  H   UNL     1      11.001  13.106  46.110  1.00  0.00     0.293 HD
ENDBRANCH  17  20
ENDBRANCH   1  12
BRANCH   2  22
ATOM     22  O   UNL     1       9.274  16.923  51.070  1.00  0.00    -0.502 OA
ATOM     23  H   UNL     1       8.827  17.771  51.394  1.00  0.00     0.293 HD
ENDBRANCH   2  22
BRANCH   6  24
ATOM     24  O   UNL     1       7.031  15.273  55.463  1.00  0.00    -0.507 OA
ATOM     25  H   UNL     1       7.079  15.523  56.444  1.00  0.00     0.293 HD
ENDBRANCH   6  24
BRANCH   8  26
ATOM     26  O   UNL     1       8.659  10.740  55.749  1.00  0.00    -0.508 OA
ATOM     27  H   UNL     1       8.986  10.671  56.705  1.00  0.00     0.293 HD
ENDBRANCH   8  26
TORSDOF 6
ENDMDL
MODEL 2
REMARK VINA RESULT:    -6.565      2.124      7.119
REMARK INTER + INTRA:          -8.231
REMARK INTER:                  -7.906
REMARK INTRA:                  -0.326
REMARK UNBOUND:                -0.323
REMARK SMILES O=c1c(O)c(-c2ccc(O)c(O)c2)oc2cc(O)cc(O)c12
REMARK SMILES IDX 5 1 3 2 2 3 1 4 22 5 20 6 19 7 17 8 16 9 15 10 14 11 6 12
REMARK SMILES IDX 7 13 8 14 9 15 13 16 11 17 10 18 12 20 4 22 21 24 18 26
REMARK H PARENT 10 19 12 21 4 23 21 25 18 27
REMARK Flexibility Score: inf
ROOT
ATOM      1  C   UNL     1       9.285  15.581  51.062  1.00  0.00     0.180 A 
ATOM      2  C   UNL     1      10.384  16.461  51.107  1.00  0.00     0.208 A 
ATOM      3  C   UNL     1      10.893  16.972  49.902  1.00  0.00     0.238 A 
ATOM      4  O   UNL     1      11.869  17.770  49.931  1.00  0.00    -0.285 OA
ATOM      5  C   UNL     1      10.312  16.582  48.679  1.00  0.00     0.111 A 
ATOM      6  C   UNL     1      10.767  17.048  47.422  1.00  0.00     0.134 A 
ATOM      7  C   UNL     1      10.141  16.605  46.247  1.00  0.00     0.093 A 
ATOM      8  C   UNL     1       9.074  15.707  46.303  1.00  0.00     0.123 A 
ATOM      9  C   UNL     1       8.619  15.243  47.542  1.00  0.00     0.094 A 
ATOM     10  C   UNL     1       9.227  15.675  48.725  1.00  0.00     0.146 A 
ATOM     11  O   UNL     1       8.773  15.224  49.888  1.00  0.00    -0.452 OA
ENDROOT
BRANCH   1  12
ATOM     12  C   UNL     1       8.680  15.015  52.290  1.00  0.00     0.025 A 
ATOM     13  C   UNL     1       9.182  13.814  52.815  1.00  0.00     0.016 A 
ATOM     14  C   UNL     1       8.614  13.251  53.961  1.00  0.00     0.051 A 
ATOM     15  C   UNL     1       7.528  13.869  54.588  1.00  0.00     0.157 A 
ATOM     16  C   UNL     1       7.575  15.624  52.909  1.00  0.00     0.062 A 
ATOM     17  C   UNL     1       7.001  15.058  54.058  1.00  0.00     0.158 A 
BRANCH  15  18
ATOM     18  O   UNL     1       6.983  13.285  55.730  1.00  0.00    -0.504 OA
ATOM     19  H   UNL     1       6.372  12.478  55.684  1.00  0.00     0.293 HD
ENDBRANCH  15  18
BRANCH  17  20
ATOM     20  O   UNL     1       5.909  15.673  54.670  1.00  0.00    -0.504 OA
ATOM     21  H   UNL     1       6.030  16.386  55.381  1.00  0.00     0.293 HD
ENDBRANCH  17  20
ENDBRANCH   1  12
BRANCH   2  22
ATOM     22  O   UNL     1      10.973  16.794  52.330  1.00  0.00    -0.502 OA
ATOM     23  H   UNL     1      11.908  17.176  52.395  1.00  0.00     0.293 HD
ENDBRANCH   2  22
BRANCH   6  24
ATOM     24  O   UNL     1      11.833  17.944  47.331  1.00  0.00    -0.507 OA
ATOM     25  H   UNL     1      11.809  18.740  46.704  1.00  0.00     0.293 HD
ENDBRANCH   6  24
BRANCH   8  26
ATOM     26  O   UNL     1       8.470  15.282  45.122  1.00  0.00    -0.508 OA
ATOM     27  H   UNL     1       8.488  14.310  44.838  1.00  0.00     0.293 HD
ENDBRANCH   8  26
TORSDOF 6
ENDMDL
MODEL 3
REMARK VINA RESULT:    -6.445      1.500      6.761
REMARK INTER + INTRA:          -8.087
REMARK INTER:                  -8.285
REMARK INTRA:                   0.199
REMARK UNBOUND:                -0.323
REMARK SMILES O=c1c(O)c(-c2ccc(O)c(O)c2)oc2cc(O)cc(O)c12
REMARK SMILES IDX 5 1 3 2 2 3 1 4 22 5 20 6 19 7 17 8 16 9 15 10 14 11 6 12
REMARK SMILES IDX 7 13 8 14 9 15 13 16 11 17 10 18 12 20 4 22 21 24 18 26
REMARK H PARENT 10 19 12 21 4 23 21 25 18 27
REMARK Flexibility Score: inf
ROOT
ATOM      1  C   UNL     1       9.804  14.934  51.461  1.00  0.00     0.180 A 
ATOM      2  C   UNL     1      10.083  16.298  51.245  1.00  0.00     0.208 A 
ATOM      3  C   UNL     1      10.883  16.661  50.149  1.00  0.00     0.238 A 
ATOM      4  O   UNL     1      11.130  17.879  49.940  1.00  0.00    -0.285 OA
ATOM      5  C   UNL     1      11.403  15.660  49.304  1.00  0.00     0.111 A 
ATOM      6  C   UNL     1      12.220  15.942  48.182  1.00  0.00     0.134 A 
ATOM      7  C   UNL     1      12.708  14.888  47.395  1.00  0.00     0.093 A 
ATOM      8  C   UNL     1      12.398  13.563  47.706  1.00  0.00     0.123 A 
ATOM      9  C   UNL     1      11.591  13.278  48.813  1.00  0.00     0.094 A 
ATOM     10  C   UNL     1      11.093  14.314  49.609  1.00  0.00     0.146 A 
ATOM     11  O   UNL     1      10.325  14.017  50.650  1.00  0.00    -0.452 OA
ENDROOT
BRANCH   1  12
ATOM     12  C   UNL     1       8.954  14.474  52.582  1.00  0.00     0.025 A 
ATOM     13  C   UNL     1       9.197  13.219  53.162  1.00  0.00     0.016 A 
ATOM     14  C   UNL     1       8.395  12.755  54.208  1.00  0.00     0.051 A 
ATOM     15  C   UNL     1       7.329  13.528  54.677  1.00  0.00     0.157 A 
ATOM     16  C   UNL     1       7.868  15.241  53.042  1.00  0.00     0.062 A 
ATOM     17  C   UNL     1       7.060  14.775  54.089  1.00  0.00     0.158 A 
BRANCH  15  18
ATOM     18  O   UNL     1       6.547  13.040  55.723  1.00  0.00    -0.504 OA
ATOM     19  H   UNL     1       6.013  12.183  55.642  1.00  0.00     0.293 HD
ENDBRANCH  15  18
BRANCH  17  20
ATOM     20  O   UNL     1       5.990  15.545  54.544  1.00  0.00    -0.504 OA
ATOM     21  H   UNL     1       6.091  16.536  54.734  1.00  0.00     0.293 HD
ENDBRANCH  17  20
ENDBRANCH   1  12
BRANCH   2  22
ATOM     22  O   UNL     1       9.595  17.267  52.125  1.00  0.00    -0.502 OA
ATOM     23  H   UNL     1       9.437  18.226  51.842  1.00  0.00     0.293 HD
ENDBRANCH   2  22
BRANCH   6  24
ATOM     24  O   UNL     1      12.550  17.255  47.845  1.00  0.00    -0.507 OA
ATOM     25  H   UNL     1      13.484  17.511  47.545  1.00  0.00     0.293 HD
ENDBRANCH   6  24
BRANCH   8  26
ATOM     26  O   UNL     1      12.895  12.535  46.908  1.00  0.00    -0.508 OA
ATOM     27  H   UNL     1      13.890  12.356  46.834  1.00  0.00     0.293 HD
ENDBRANCH   8  26
TORSDOF 6
ENDMDL
MODEL 4
REMARK VINA RESULT:    -6.442      1.616      6.826
REMARK INTER + INTRA:          -8.084
REMARK INTER:                  -7.778
REMARK INTRA:                  -0.306
REMARK UNBOUND:                -0.323
REMARK SMILES O=c1c(O)c(-c2ccc(O)c(O)c2)oc2cc(O)cc(O)c12
REMARK SMILES IDX 5 1 3 2 2 3 1 4 22 5 20 6 19 7 17 8 16 9 15 10 14 11 6 12
REMARK SMILES IDX 7 13 8 14 9 15 13 16 11 17 10 18 12 20 4 22 21 24 18 26
REMARK H PARENT 10 19 12 21 4 23 21 25 18 27
REMARK Flexibility Score: inf
ROOT
ATOM      1  C   UNL     1       9.787  14.949  51.396  1.00  0.00     0.180 A 
ATOM      2  C   UNL     1      10.076  16.314  51.200  1.00  0.00     0.208 A 
ATOM      3  C   UNL     1      10.889  16.686  50.118  1.00  0.00     0.238 A 
ATOM      4  O   UNL     1      11.145  17.906  49.926  1.00  0.00    -0.285 OA
ATOM      5  C   UNL     1      11.412  15.694  49.265  1.00  0.00     0.111 A 
ATOM      6  C   UNL     1      12.242  15.985  48.156  1.00  0.00     0.134 A 
ATOM      7  C   UNL     1      12.732  14.939  47.360  1.00  0.00     0.093 A 
ATOM      8  C   UNL     1      12.412  13.611  47.651  1.00  0.00     0.123 A 
ATOM      9  C   UNL     1      11.592  13.317  48.745  1.00  0.00     0.094 A 
ATOM     10  C   UNL     1      11.092  14.345  49.549  1.00  0.00     0.146 A 
ATOM     11  O   UNL     1      10.311  14.040  50.580  1.00  0.00    -0.452 OA
ENDROOT
BRANCH   1  12
ATOM     12  C   UNL     1       8.922  14.480  52.503  1.00  0.00     0.025 A 
ATOM     13  C   UNL     1       7.528  14.544  52.362  1.00  0.00     0.016 A 
ATOM     14  C   UNL     1       6.692  14.125  53.401  1.00  0.00     0.051 A 
ATOM     15  C   UNL     1       7.236  13.653  54.600  1.00  0.00     0.157 A 
ATOM     16  C   UNL     1       9.468  14.024  53.716  1.00  0.00     0.062 A 
ATOM     17  C   UNL     1       8.631  13.607  54.761  1.00  0.00     0.158 A 
BRANCH  15  18
ATOM     18  O   UNL     1       6.378  13.241  55.618  1.00  0.00    -0.504 OA
ATOM     19  H   UNL     1       6.245  13.783  56.463  1.00  0.00     0.293 HD
ENDBRANCH  15  18
BRANCH  17  20
ATOM     20  O   UNL     1       9.180  13.150  55.959  1.00  0.00    -0.504 OA
ATOM     21  H   UNL     1       9.142  13.704  56.807  1.00  0.00     0.293 HD
ENDBRANCH  17  20
ENDBRANCH   1  12
BRANCH   2  22
ATOM     22  O   UNL     1       9.584  17.274  52.088  1.00  0.00    -0.502 OA
ATOM     23  H   UNL     1       9.509  17.104  53.084  1.00  0.00     0.293 HD
ENDBRANCH   2  22
BRANCH   6  24
ATOM     24  O   UNL     1      12.583  17.300  47.839  1.00  0.00    -0.507 OA
ATOM     25  H   UNL     1      13.309  17.799  48.340  1.00  0.00     0.293 HD
ENDBRANCH   6  24
BRANCH   8  26
ATOM     26  O   UNL     1      12.912  12.591  46.845  1.00  0.00    -0.508 OA
ATOM     27  H   UNL     1      13.741  12.070  47.104  1.00  0.00     0.293 HD
ENDBRANCH   8  26
TORSDOF 6
ENDMDL
MODEL 5
REMARK VINA RESULT:    -6.012      2.789      8.219
REMARK INTER + INTRA:          -7.565
REMARK INTER:                  -7.272
REMARK INTRA:                  -0.293
REMARK UNBOUND:                -0.323
REMARK SMILES O=c1c(O)c(-c2ccc(O)c(O)c2)oc2cc(O)cc(O)c12
REMARK SMILES IDX 5 1 3 2 2 3 1 4 22 5 20 6 19 7 17 8 16 9 15 10 14 11 6 12
REMARK SMILES IDX 7 13 8 14 9 15 13 16 11 17 10 18 12 20 4 22 21 24 18 26
REMARK H PARENT 10 19 12 21 4 23 21 25 18 27
REMARK Flexibility Score: inf
ROOT
ATOM      1  C   UNL     1      11.464  15.255  48.964  1.00  0.00     0.180 A 
ATOM      2  C   UNL     1      11.810  13.952  48.555  1.00  0.00     0.208 A 
ATOM      3  C   UNL     1      12.592  13.790  47.400  1.00  0.00     0.238 A 
ATOM      4  O   UNL     1      12.917  12.629  47.031  1.00  0.00    -0.285 OA
ATOM      5  C   UNL     1      12.997  14.923  46.668  1.00  0.00     0.111 A 
ATOM      6  C   UNL     1      13.783  14.845  45.492  1.00  0.00     0.134 A 
ATOM      7  C   UNL     1      14.137  16.020  44.813  1.00  0.00     0.093 A 
ATOM      8  C   UNL     1      13.722  17.268  45.282  1.00  0.00     0.123 A 
ATOM      9  C   UNL     1      12.946  17.352  46.443  1.00  0.00     0.094 A 
ATOM     10  C   UNL     1      12.585  16.192  47.136  1.00  0.00     0.146 A 
ATOM     11  O   UNL     1      11.852  16.300  48.239  1.00  0.00    -0.452 OA
ENDROOT
BRANCH   1  12
ATOM     12  C   UNL     1      10.659  15.509  50.180  1.00  0.00     0.025 A 
ATOM     13  C   UNL     1       9.264  15.366  50.125  1.00  0.00     0.016 A 
ATOM     14  C   UNL     1       8.481  15.621  51.255  1.00  0.00     0.051 A 
ATOM     15  C   UNL     1       9.078  16.037  52.449  1.00  0.00     0.157 A 
ATOM     16  C   UNL     1      11.255  15.948  51.376  1.00  0.00     0.062 A 
ATOM     17  C   UNL     1      10.471  16.207  52.510  1.00  0.00     0.158 A 
BRANCH  15  18
ATOM     18  O   UNL     1       8.272  16.282  53.560  1.00  0.00    -0.504 OA
ATOM     19  H   UNL     1       7.339  16.669  53.474  1.00  0.00     0.293 HD
ENDBRANCH  15  18
BRANCH  17  20
ATOM     20  O   UNL     1      11.071  16.635  53.694  1.00  0.00    -0.504 OA
ATOM     21  H   UNL     1      11.850  16.134  54.106  1.00  0.00     0.293 HD
ENDBRANCH  17  20
ENDBRANCH   1  12
BRANCH   2  22
ATOM     22  O   UNL     1      11.355  12.843  49.272  1.00  0.00    -0.502 OA
ATOM     23  H   UNL     1      11.949  12.330  49.912  1.00  0.00     0.293 HD
ENDBRANCH   2  22
BRANCH   6  24
ATOM     24  O   UNL     1      14.212  13.614  44.995  1.00  0.00    -0.507 OA
ATOM     25  H   UNL     1      13.559  12.922  44.646  1.00  0.00     0.293 HD
ENDBRANCH   6  24
BRANCH   8  26
ATOM     26  O   UNL     1      14.087  18.420  44.589  1.00  0.00    -0.508 OA
ATOM     27  H   UNL     1      14.216  18.415  43.585  1.00  0.00     0.293 HD
ENDBRANCH   8  26
TORSDOF 6
ENDMDL
MODEL 6
REMARK VINA RESULT:    -5.942      4.815      6.440
REMARK INTER + INTRA:          -7.481
REMARK INTER:                  -7.149
REMARK INTRA:                  -0.332
REMARK UNBOUND:                -0.323
REMARK SMILES O=c1c(O)c(-c2ccc(O)c(O)c2)oc2cc(O)cc(O)c12
REMARK SMILES IDX 5 1 3 2 2 3 1 4 22 5 20 6 19 7 17 8 16 9 15 10 14 11 6 12
REMARK SMILES IDX 7 13 8 14 9 15 13 16 11 17 10 18 12 20 4 22 21 24 18 26
REMARK H PARENT 10 19 12 21 4 23 21 25 18 27
REMARK Flexibility Score: inf
ROOT
ATOM      1  C   UNL     1      10.896  10.522  54.582  1.00  0.00     0.180 A 
ATOM      2  C   UNL     1       9.942   9.649  54.023  1.00  0.00     0.208 A 
ATOM      3  C   UNL     1       8.616  10.091  53.889  1.00  0.00     0.238 A 
ATOM      4  O   UNL     1       7.756   9.322  53.380  1.00  0.00    -0.285 OA
ATOM      5  C   UNL     1       8.263  11.382  54.329  1.00  0.00     0.111 A 
ATOM      6  C   UNL     1       6.949  11.901  54.232  1.00  0.00     0.134 A 
ATOM      7  C   UNL     1       6.676  13.194  54.702  1.00  0.00     0.093 A 
ATOM      8  C   UNL     1       7.685  13.976  55.267  1.00  0.00     0.123 A 
ATOM      9  C   UNL     1       8.986  13.469  55.364  1.00  0.00     0.094 A 
ATOM     10  C   UNL     1       9.279  12.184  54.900  1.00  0.00     0.146 A 
ATOM     11  O   UNL     1      10.523  11.729  54.999  1.00  0.00    -0.452 OA
ENDROOT
BRANCH   1  12
ATOM     12  C   UNL     1      12.317  10.137  54.739  1.00  0.00     0.025 A 
ATOM     13  C   UNL     1      12.745   9.561  55.945  1.00  0.00     0.016 A 
ATOM     14  C   UNL     1      14.086   9.208  56.125  1.00  0.00     0.051 A 
ATOM     15  C   UNL     1      15.019   9.441  55.110  1.00  0.00     0.157 A 
ATOM     16  C   UNL     1      13.261  10.389  53.728  1.00  0.00     0.062 A 
ATOM     17  C   UNL     1      14.608  10.039  53.908  1.00  0.00     0.158 A 
BRANCH  15  18
ATOM     18  O   UNL     1      16.349   9.077  55.317  1.00  0.00    -0.504 OA
ATOM     19  H   UNL     1      16.659   8.629  56.171  1.00  0.00     0.293 HD
ENDBRANCH  15  18
BRANCH  17  20
ATOM     20  O   UNL     1      15.536  10.286  52.897  1.00  0.00    -0.504 OA
ATOM     21  H   UNL     1      15.489  11.121  52.324  1.00  0.00     0.293 HD
ENDBRANCH  17  20
ENDBRANCH   1  12
BRANCH   2  22
ATOM     22  O   UNL     1      10.308   8.356  53.640  1.00  0.00    -0.502 OA
ATOM     23  H   UNL     1      10.701   8.152  52.730  1.00  0.00     0.293 HD
ENDBRANCH   2  22
BRANCH   6  24
ATOM     24  O   UNL     1       5.918  11.145  53.675  1.00  0.00    -0.507 OA
ATOM     25  H   UNL     1       5.867  10.140  53.797  1.00  0.00     0.293 HD
ENDBRANCH   6  24
BRANCH   8  26
ATOM     26  O   UNL     1       7.387  15.256  55.727  1.00  0.00    -0.508 OA
ATOM     27  H   UNL     1       6.481  15.480  56.120  1.00  0.00     0.293 HD
ENDBRANCH   8  26
TORSDOF 6
ENDMDL
MODEL 7
REMARK VINA RESULT:    -5.929      2.274      3.748
REMARK INTER + INTRA:          -7.465
REMARK INTER:                  -7.203
REMARK INTRA:                  -0.262
REMARK UNBOUND:                -0.323
REMARK SMILES O=c1c(O)c(-c2ccc(O)c(O)c2)oc2cc(O)cc(O)c12
REMARK SMILES IDX 5 1 3 2 2 3 1 4 22 5 20 6 19 7 17 8 16 9 15 10 14 11 6 12
REMARK SMILES IDX 7 13 8 14 9 15 13 16 11 17 10 18 12 20 4 22 21 24 18 26
REMARK H PARENT 10 19 12 21 4 23 21 25 18 27
REMARK Flexibility Score: inf
ROOT
ATOM      1  C   UNL     1      10.063  15.490  49.832  1.00  0.00     0.180 A 
ATOM      2  C   UNL     1      10.749  14.276  50.030  1.00  0.00     0.208 A 
ATOM      3  C   UNL     1      10.518  13.551  51.210  1.00  0.00     0.238 A 
ATOM      4  O   UNL     1      11.118  12.457  51.392  1.00  0.00    -0.285 OA
ATOM      5  C   UNL     1       9.625  14.057  52.175  1.00  0.00     0.111 A 
ATOM      6  C   UNL     1       9.339  13.390  53.391  1.00  0.00     0.134 A 
ATOM      7  C   UNL     1       8.445  13.965  54.306  1.00  0.00     0.093 A 
ATOM      8  C   UNL     1       7.833  15.190  54.033  1.00  0.00     0.123 A 
ATOM      9  C   UNL     1       8.110  15.853  52.833  1.00  0.00     0.094 A 
ATOM     10  C   UNL     1       8.997  15.296  51.907  1.00  0.00     0.146 A 
ATOM     11  O   UNL     1       9.239  15.944  50.773  1.00  0.00    -0.452 OA
ENDROOT
BRANCH   1  12
ATOM     12  C   UNL     1      10.239  16.302  48.607  1.00  0.00     0.025 A 
ATOM     13  C   UNL     1       9.255  16.264  47.607  1.00  0.00     0.016 A 
ATOM     14  C   UNL     1       9.409  17.005  46.433  1.00  0.00     0.051 A 
ATOM     15  C   UNL     1      10.555  17.782  46.233  1.00  0.00     0.157 A 
ATOM     16  C   UNL     1      11.400  17.067  48.395  1.00  0.00     0.062 A 
ATOM     17  C   UNL     1      11.558  17.810  47.216  1.00  0.00     0.158 A 
BRANCH  15  18
ATOM     18  O   UNL     1      10.681  18.513  45.053  1.00  0.00    -0.504 OA
ATOM     19  H   UNL     1      11.584  18.745  44.656  1.00  0.00     0.293 HD
ENDBRANCH  15  18
BRANCH  17  20
ATOM     20  O   UNL     1      12.710  18.571  47.017  1.00  0.00    -0.504 OA
ATOM     21  H   UNL     1      13.619  18.250  47.327  1.00  0.00     0.293 HD
ENDBRANCH  17  20
ENDBRANCH   1  12
BRANCH   2  22
ATOM     22  O   UNL     1      11.666  13.820  49.079  1.00  0.00    -0.502 OA
ATOM     23  H   UNL     1      12.225  12.987  49.221  1.00  0.00     0.293 HD
ENDBRANCH   2  22
BRANCH   6  24
ATOM     24  O   UNL     1       9.935  12.166  53.696  1.00  0.00    -0.507 OA
ATOM     25  H   UNL     1      10.437  12.018  54.565  1.00  0.00     0.293 HD
ENDBRANCH   6  24
BRANCH   8  26
ATOM     26  O   UNL     1       6.949  15.739  54.958  1.00  0.00    -0.508 OA
ATOM     27  H   UNL     1       6.989  15.492  55.940  1.00  0.00     0.293 HD
ENDBRANCH   8  26
TORSDOF 6
ENDMDL
MODEL 8
REMARK VINA RESULT:    -5.927      5.662      8.343
REMARK INTER + INTRA:          -7.462
REMARK INTER:                  -7.161
REMARK INTRA:                  -0.301
REMARK UNBOUND:                -0.323
REMARK SMILES O=c1c(O)c(-c2ccc(O)c(O)c2)oc2cc(O)cc(O)c12
REMARK SMILES IDX 5 1 3 2 2 3 1 4 22 5 20 6 19 7 17 8 16 9 15 10 14 11 6 12
REMARK SMILES IDX 7 13 8 14 9 15 13 16 11 17 10 18 12 20 4 22 21 24 18 26
REMARK H PARENT 10 19 12 21 4 23 21 25 18 27
REMARK Flexibility Score: inf
ROOT
ATOM      1  C   UNL     1       9.297  18.579  45.672  1.00  0.00     0.180 A 
ATOM      2  C   UNL     1      10.615  19.047  45.499  1.00  0.00     0.208 A 
ATOM      3  C   UNL     1      11.658  18.408  46.188  1.00  0.00     0.238 A 
ATOM      4  O   UNL     1      12.842  18.811  46.032  1.00  0.00    -0.285 OA
ATOM      5  C   UNL     1      11.367  17.330  47.048  1.00  0.00     0.111 A 
ATOM      6  C   UNL     1      12.359  16.635  47.781  1.00  0.00     0.134 A 
ATOM      7  C   UNL     1      11.987  15.577  48.625  1.00  0.00     0.093 A 
ATOM      8  C   UNL     1      10.648  15.203  48.751  1.00  0.00     0.123 A 
ATOM      9  C   UNL     1       9.663  15.885  48.029  1.00  0.00     0.094 A 
ATOM     10  C   UNL     1      10.013  16.940  47.182  1.00  0.00     0.146 A 
ATOM     11  O   UNL     1       9.060  17.569  46.503  1.00  0.00    -0.452 OA
ENDROOT
BRANCH   1  12
ATOM     12  C   UNL     1       8.147  19.188  44.966  1.00  0.00     0.025 A 
ATOM     13  C   UNL     1       7.894  18.837  43.631  1.00  0.00     0.016 A 
ATOM     14  C   UNL     1       6.827  19.415  42.937  1.00  0.00     0.051 A 
ATOM     15  C   UNL     1       6.009  20.362  43.561  1.00  0.00     0.157 A 
ATOM     16  C   UNL     1       7.337  20.156  45.585  1.00  0.00     0.062 A 
ATOM     17  C   UNL     1       6.267  20.739  44.889  1.00  0.00     0.158 A 
BRANCH  15  18
ATOM     18  O   UNL     1       4.950  20.920  42.845  1.00  0.00    -0.504 OA
ATOM     19  H   UNL     1       4.194  21.417  43.301  1.00  0.00     0.293 HD
ENDBRANCH  15  18
BRANCH  17  20
ATOM     20  O   UNL     1       5.463  21.693  45.513  1.00  0.00    -0.504 OA
ATOM     21  H   UNL     1       5.851  22.383  46.146  1.00  0.00     0.293 HD
ENDBRANCH  17  20
ENDBRANCH   1  12
BRANCH   2  22
ATOM     22  O   UNL     1      10.870  20.149  44.678  1.00  0.00    -0.502 OA
ATOM     23  H   UNL     1      10.259  20.409  43.914  1.00  0.00     0.293 HD
ENDBRANCH   2  22
BRANCH   6  24
ATOM     24  O   UNL     1      13.705  16.985  47.678  1.00  0.00    -0.507 OA
ATOM     25  H   UNL     1      14.016  17.741  47.079  1.00  0.00     0.293 HD
ENDBRANCH   6  24
BRANCH   8  26
ATOM     26  O   UNL     1      10.305  14.150  49.596  1.00  0.00    -0.508 OA
ATOM     27  H   UNL     1      10.564  14.150  50.575  1.00  0.00     0.293 HD
ENDBRANCH   8  26
TORSDOF 6
ENDMDL
MODEL 9
REMARK VINA RESULT:    -5.891      2.336      3.355
REMARK INTER + INTRA:          -7.420
REMARK INTER:                  -7.245
REMARK INTRA:                  -0.175
REMARK UNBOUND:                -0.323
REMARK SMILES O=c1c(O)c(-c2ccc(O)c(O)c2)oc2cc(O)cc(O)c12
REMARK SMILES IDX 5 1 3 2 2 3 1 4 22 5 20 6 19 7 17 8 16 9 15 10 14 11 6 12
REMARK SMILES IDX 7 13 8 14 9 15 13 16 11 17 10 18 12 20 4 22 21 24 18 26
REMARK H PARENT 10 19 12 21 4 23 21 25 18 27
REMARK Flexibility Score: inf
ROOT
ATOM      1  C   UNL     1       8.907  13.714  53.138  1.00  0.00     0.180 A 
ATOM      2  C   UNL     1       7.536  13.669  53.454  1.00  0.00     0.208 A 
ATOM      3  C   UNL     1       7.066  12.644  54.291  1.00  0.00     0.238 A 
ATOM      4  O   UNL     1       5.842  12.601  54.591  1.00  0.00    -0.285 OA
ATOM      5  C   UNL     1       7.966  11.675  54.779  1.00  0.00     0.111 A 
ATOM      6  C   UNL     1       7.573  10.609  55.624  1.00  0.00     0.134 A 
ATOM      7  C   UNL     1       8.529   9.679  56.060  1.00  0.00     0.093 A 
ATOM      8  C   UNL     1       9.864   9.792  55.669  1.00  0.00     0.123 A 
ATOM      9  C   UNL     1      10.259  10.843  54.835  1.00  0.00     0.094 A 
ATOM     10  C   UNL     1       9.323  11.782  54.391  1.00  0.00     0.146 A 
ATOM     11  O   UNL     1       9.724  12.774  53.605  1.00  0.00    -0.452 OA
ENDROOT
BRANCH   1  12
ATOM     12  C   UNL     1       9.481  14.774  52.278  1.00  0.00     0.025 A 
ATOM     13  C   UNL     1      10.346  15.725  52.841  1.00  0.00     0.016 A 
ATOM     14  C   UNL     1      10.884  16.747  52.053  1.00  0.00     0.051 A 
ATOM     15  C   UNL     1      10.553  16.843  50.698  1.00  0.00     0.157 A 
ATOM     16  C   UNL     1       9.133  14.884  50.920  1.00  0.00     0.062 A 
ATOM     17  C   UNL     1       9.670  15.911  50.128  1.00  0.00     0.158 A 
BRANCH  15  18
ATOM     18  O   UNL     1      11.106  17.871  49.936  1.00  0.00    -0.504 OA
ATOM     19  H   UNL     1      10.753  18.820  49.975  1.00  0.00     0.293 HD
ENDBRANCH  15  18
BRANCH  17  20
ATOM     20  O   UNL     1       9.325  16.009  48.781  1.00  0.00    -0.504 OA
ATOM     21  H   UNL     1       8.724  16.750  48.438  1.00  0.00     0.293 HD
ENDBRANCH  17  20
ENDBRANCH   1  12
BRANCH   2  22
ATOM     22  O   UNL     1       6.656  14.613  52.918  1.00  0.00    -0.502 OA
ATOM     23  H   UNL     1       5.789  14.867  53.376  1.00  0.00     0.293 HD
ENDBRANCH   2  22
BRANCH   6  24
ATOM     24  O   UNL     1       6.247  10.467  56.032  1.00  0.00    -0.507 OA
ATOM     25  H   UNL     1       5.528  10.131  55.401  1.00  0.00     0.293 HD
ENDBRANCH   6  24
BRANCH   8  26
ATOM     26  O   UNL     1      10.793   8.854  56.115  1.00  0.00    -0.508 OA
ATOM     27  H   UNL     1      11.585   9.124  56.686  1.00  0.00     0.293 HD
ENDBRANCH   8  26
TORSDOF 6
ENDMDL
