MODEL 1
REMARK VINA RESULT:    -5.135      0.000      0.000
REMARK INTER + INTRA:         -12.321
REMARK INTER:                  -9.938
REMARK INTRA:                  -2.383
REMARK UNBOUND:                -2.383
REMARK SMILES CCCCCCCCCCCCCCCCCC(=O)[O-]
REMARK SMILES IDX 10 1 11 2 12 3 13 4 14 5 15 6 16 7 17 8 18 9 19 10 20 11
REMARK SMILES IDX 9 12 8 13 7 14 6 15 5 16 4 17 3 18 2 19 1 20
REMARK H PARENT
REMARK Flexibility Score: inf
ROOT
ATOM      1  C   UNL     1      77.549  12.384  20.105  1.00  0.00     0.000 C 
ENDROOT
BRANCH   1   2
ATOM      2  C   UNL     1      78.409  12.420  18.830  1.00  0.00     0.000 C 
BRANCH   2   3
ATOM      3  C   UNL     1      78.229  13.720  18.031  1.00  0.00     0.000 C 
BRANCH   3   4
ATOM      4  C   UNL     1      78.002  14.946  18.934  1.00  0.00     0.000 C 
BRANCH   4   5
ATOM      5  C   UNL     1      79.083  16.021  18.747  1.00  0.00     0.000 C 
BRANCH   5   6
ATOM      6  C   UNL     1      79.968  16.191  19.994  1.00  0.00     0.000 C 
BRANCH   6   7
ATOM      7  C   UNL     1      80.199  14.869  20.742  1.00  0.00     0.006 C 
BRANCH   7   8
ATOM      8  C   UNL     1      81.687  14.527  20.893  1.00  0.00     0.053 C 
BRANCH   8   9
ATOM      9  C   UNL     1      82.083  13.471  19.911  1.00  0.00     0.041 C 
ATOM     10  O   UNL     1      82.622  12.405  20.309  1.00  0.00    -0.550 OA
ATOM     11  O   UNL     1      81.805  13.638  18.560  1.00  0.00    -0.550 OA
ENDBRANCH   8   9
ENDBRANCH   7   8
ENDBRANCH   6   7
ENDBRANCH   5   6
ENDBRANCH   4   5
ENDBRANCH   3   4
ENDBRANCH   2   3
ENDBRANCH   1   2
BRANCH   1  12
ATOM     12  C   UNL     1      76.569  11.190  20.119  1.00  0.00     0.000 C 
BRANCH  12  13
ATOM     13  C   UNL     1      75.495  11.260  19.017  1.00  0.00    -0.000 C 
BRANCH  13  14
ATOM     14  C   UNL     1      74.246  12.084  19.385  1.00  0.00    -0.000 C 
BRANCH  14  15
ATOM     15  C   UNL     1      74.116  13.435  18.650  1.00  0.00    -0.000 C 
BRANCH  15  16
ATOM     16  C   UNL     1      74.649  13.450  17.207  1.00  0.00    -0.000 C 
BRANCH  16  17
ATOM     17  C   UNL     1      74.820  14.870  16.647  1.00  0.00    -0.000 C 
BRANCH  17  18
ATOM     18  C   UNL     1      75.843  14.892  15.505  1.00  0.00    -0.000 C 
BRANCH  18  19
ATOM     19  C   UNL     1      76.437  16.293  15.325  1.00  0.00    -0.003 C 
ATOM     20  C   UNL     1      75.472  17.369  15.815  1.00  0.00     0.004 C 
ENDBRANCH  18  19
ENDBRANCH  17  18
ENDBRANCH  16  17
ENDBRANCH  15  16
ENDBRANCH  14  15
ENDBRANCH  13  14
ENDBRANCH  12  13
ENDBRANCH   1  12
TORSDOF 16
ENDMDL
MODEL 2
REMARK VINA RESULT:    -5.108      2.337      5.747
REMARK INTER + INTRA:         -12.270
REMARK INTER:                 -10.052
REMARK INTRA:                  -2.218
REMARK UNBOUND:                -2.383
REMARK SMILES CCCCCCCCCCCCCCCCCC(=O)[O-]
REMARK SMILES IDX 10 1 11 2 12 3 13 4 14 5 15 6 16 7 17 8 18 9 19 10 20 11
REMARK SMILES IDX 9 12 8 13 7 14 6 15 5 16 4 17 3 18 2 19 1 20
REMARK H PARENT
REMARK Flexibility Score: inf
ROOT
ATOM      1  C   UNL     1      75.355  11.966  20.035  1.00  0.00     0.000 C 
ENDROOT
BRANCH   1   2
ATOM      2  C   UNL     1      74.153  12.319  19.141  1.00  0.00     0.000 C 
BRANCH   2   3
ATOM      3  C   UNL     1      74.366  13.619  18.351  1.00  0.00     0.000 C 
BRANCH   3   4
ATOM      4  C   UNL     1      74.787  13.365  16.892  1.00  0.00     0.000 C 
BRANCH   4   5
ATOM      5  C   UNL     1      75.377  14.616  16.223  1.00  0.00     0.000 C 
BRANCH   5   6
ATOM      6  C   UNL     1      74.361  15.768  16.129  1.00  0.00     0.000 C 
BRANCH   6   7
ATOM      7  C   UNL     1      75.013  17.148  16.305  1.00  0.00     0.006 C 
BRANCH   7   8
ATOM      8  C   UNL     1      75.908  17.535  15.120  1.00  0.00     0.053 C 
BRANCH   8   9
ATOM      9  C   UNL     1      77.303  17.807  15.586  1.00  0.00     0.041 C 
ATOM     10  O   UNL     1      77.553  18.833  16.274  1.00  0.00    -0.550 OA
ATOM     11  O   UNL     1      78.318  16.899  15.310  1.00  0.00    -0.550 OA
ENDBRANCH   8   9
ENDBRANCH   7   8
ENDBRANCH   6   7
ENDBRANCH   5   6
ENDBRANCH   4   5
ENDBRANCH   3   4
ENDBRANCH   2   3
ENDBRANCH   1   2
BRANCH   1  12
ATOM     12  C   UNL     1      76.338  10.998  19.343  1.00  0.00     0.000 C 
BRANCH  12  13
ATOM     13  C   UNL     1      77.820  11.334  19.601  1.00  0.00    -0.000 C 
BRANCH  13  14
ATOM     14  C   UNL     1      78.111  12.828  19.833  1.00  0.00    -0.000 C 
BRANCH  14  15
ATOM     15  C   UNL     1      78.202  13.683  18.550  1.00  0.00    -0.000 C 
BRANCH  15  16
ATOM     16  C   UNL     1      77.865  15.173  18.731  1.00  0.00    -0.000 C 
BRANCH  16  17
ATOM     17  C   UNL     1      79.107  16.075  18.698  1.00  0.00    -0.000 C 
BRANCH  17  18
ATOM     18  C   UNL     1      79.837  16.056  20.046  1.00  0.00    -0.000 C 
BRANCH  18  19
ATOM     19  C   UNL     1      81.215  15.395  19.916  1.00  0.00    -0.003 C 
ATOM     20  C   UNL     1      81.396  14.290  20.953  1.00  0.00     0.004 C 
ENDBRANCH  18  19
ENDBRANCH  17  18
ENDBRANCH  16  17
ENDBRANCH  15  16
ENDBRANCH  14  15
ENDBRANCH  13  14
ENDBRANCH  12  13
ENDBRANCH   1  12
TORSDOF 16
ENDMDL
MODEL 3
REMARK VINA RESULT:    -5.101      2.884      6.517
REMARK INTER + INTRA:         -12.256
REMARK INTER:                  -9.950
REMARK INTRA:                  -2.307
REMARK UNBOUND:                -2.383
REMARK SMILES CCCCCCCCCCCCCCCCCC(=O)[O-]
REMARK SMILES IDX 10 1 11 2 12 3 13 4 14 5 15 6 16 7 17 8 18 9 19 10 20 11
REMARK SMILES IDX 9 12 8 13 7 14 6 15 5 16 4 17 3 18 2 19 1 20
REMARK H PARENT
REMARK Flexibility Score: inf
ROOT
ATOM      1  C   UNL     1      77.517  12.508  19.992  1.00  0.00     0.000 C 
ENDROOT
BRANCH   1   2
ATOM      2  C   UNL     1      76.706  11.212  20.162  1.00  0.00     0.000 C 
BRANCH   2   3
ATOM      3  C   UNL     1      75.531  11.115  19.177  1.00  0.00     0.000 C 
BRANCH   3   4
ATOM      4  C   UNL     1      74.377  12.069  19.534  1.00  0.00     0.000 C 
BRANCH   4   5
ATOM      5  C   UNL     1      74.132  13.128  18.449  1.00  0.00     0.000 C 
BRANCH   5   6
ATOM      6  C   UNL     1      74.854  12.799  17.131  1.00  0.00     0.000 C 
BRANCH   6   7
ATOM      7  C   UNL     1      75.082  14.041  16.254  1.00  0.00     0.006 C 
BRANCH   7   8
ATOM      8  C   UNL     1      74.855  15.353  17.017  1.00  0.00     0.053 C 
BRANCH   8   9
ATOM      9  C   UNL     1      75.058  16.525  16.111  1.00  0.00     0.041 C 
ATOM     10  O   UNL     1      75.320  17.660  16.592  1.00  0.00    -0.550 OA
ATOM     11  O   UNL     1      75.012  16.356  14.733  1.00  0.00    -0.550 OA
ENDBRANCH   8   9
ENDBRANCH   7   8
ENDBRANCH   6   7
ENDBRANCH   5   6
ENDBRANCH   4   5
ENDBRANCH   3   4
ENDBRANCH   2   3
ENDBRANCH   1   2
BRANCH   1  12
ATOM     12  C   UNL     1      78.571  12.400  18.870  1.00  0.00     0.000 C 
BRANCH  12  13
ATOM     13  C   UNL     1      78.616  13.631  17.945  1.00  0.00    -0.000 C 
BRANCH  13  14
ATOM     14  C   UNL     1      77.918  14.885  18.505  1.00  0.00    -0.000 C 
BRANCH  14  15
ATOM     15  C   UNL     1      78.809  16.142  18.597  1.00  0.00    -0.000 C 
BRANCH  15  16
ATOM     16  C   UNL     1      79.562  16.317  19.927  1.00  0.00    -0.000 C 
BRANCH  16  17
ATOM     17  C   UNL     1      80.989  15.751  19.885  1.00  0.00    -0.000 C 
BRANCH  17  18
ATOM     18  C   UNL     1      81.091  14.453  20.694  1.00  0.00    -0.000 C 
BRANCH  18  19
ATOM     19  C   UNL     1      82.515  13.888  20.653  1.00  0.00    -0.003 C 
ATOM     20  C   UNL     1      82.531  12.470  20.091  1.00  0.00     0.004 C 
ENDBRANCH  18  19
ENDBRANCH  17  18
ENDBRANCH  16  17
ENDBRANCH  15  16
ENDBRANCH  14  15
ENDBRANCH  13  14
ENDBRANCH  12  13
ENDBRANCH   1  12
TORSDOF 16
ENDMDL
MODEL 4
REMARK VINA RESULT:    -5.072      3.159      6.054
REMARK INTER + INTRA:         -12.199
REMARK INTER:                  -9.666
REMARK INTRA:                  -2.533
REMARK UNBOUND:                -2.383
REMARK SMILES CCCCCCCCCCCCCCCCCC(=O)[O-]
REMARK SMILES IDX 10 1 11 2 12 3 13 4 14 5 15 6 16 7 17 8 18 9 19 10 20 11
REMARK SMILES IDX 9 12 8 13 7 14 6 15 5 16 4 17 3 18 2 19 1 20
REMARK H PARENT
REMARK Flexibility Score: inf
ROOT
ATOM      1  C   UNL     1      76.463   9.740  18.575  1.00  0.00     0.000 C 
ENDROOT
BRANCH   1   2
ATOM      2  C   UNL     1      76.753  10.620  19.803  1.00  0.00     0.000 C 
BRANCH   2   3
ATOM      3  C   UNL     1      75.783  11.806  19.924  1.00  0.00     0.000 C 
BRANCH   3   4
ATOM      4  C   UNL     1      74.643  11.747  18.891  1.00  0.00     0.000 C 
BRANCH   4   5
ATOM      5  C   UNL     1      73.959  13.108  18.693  1.00  0.00     0.000 C 
BRANCH   5   6
ATOM      6  C   UNL     1      74.585  13.921  17.546  1.00  0.00     0.000 C 
BRANCH   6   7
ATOM      7  C   UNL     1      75.472  15.071  18.050  1.00  0.00     0.006 C 
BRANCH   7   8
ATOM      8  C   UNL     1      76.209  15.791  16.913  1.00  0.00     0.053 C 
BRANCH   8   9
ATOM      9  C   UNL     1      75.247  16.587  16.089  1.00  0.00     0.041 C 
ATOM     10  O   UNL     1      74.708  17.621  16.566  1.00  0.00    -0.550 OA
ATOM     11  O   UNL     1      74.987  16.220  14.775  1.00  0.00    -0.550 OA
ENDBRANCH   8   9
ENDBRANCH   7   8
ENDBRANCH   6   7
ENDBRANCH   5   6
ENDBRANCH   4   5
ENDBRANCH   3   4
ENDBRANCH   2   3
ENDBRANCH   1   2
BRANCH   1  12
ATOM     12  C   UNL     1      77.602   9.789  17.534  1.00  0.00     0.000 C 
BRANCH  12  13
ATOM     13  C   UNL     1      77.335  10.764  16.372  1.00  0.00    -0.000 C 
BRANCH  13  14
ATOM     14  C   UNL     1      77.692  12.233  16.668  1.00  0.00    -0.000 C 
BRANCH  14  15
ATOM     15  C   UNL     1      78.919  12.436  17.582  1.00  0.00    -0.000 C 
BRANCH  15  16
ATOM     16  C   UNL     1      78.938  13.758  18.370  1.00  0.00    -0.000 C 
BRANCH  16  17
ATOM     17  C   UNL     1      79.051  13.547  19.888  1.00  0.00    -0.000 C 
BRANCH  17  18
ATOM     18  C   UNL     1      79.779  14.721  20.553  1.00  0.00    -0.000 C 
BRANCH  18  19
ATOM     19  C   UNL     1      81.232  14.810  20.071  1.00  0.00    -0.003 C 
ATOM     20  C   UNL     1      82.182  14.133  21.055  1.00  0.00     0.004 C 
ENDBRANCH  18  19
ENDBRANCH  17  18
ENDBRANCH  16  17
ENDBRANCH  15  16
ENDBRANCH  14  15
ENDBRANCH  13  14
ENDBRANCH  12  13
ENDBRANCH   1  12
TORSDOF 16
ENDMDL
MODEL 5
REMARK VINA RESULT:    -5.034      2.692      6.303
REMARK INTER + INTRA:         -12.126
REMARK INTER:                  -9.917
REMARK INTRA:                  -2.209
REMARK UNBOUND:                -2.383
REMARK SMILES CCCCCCCCCCCCCCCCCC(=O)[O-]
REMARK SMILES IDX 10 1 11 2 12 3 13 4 14 5 15 6 16 7 17 8 18 9 19 10 20 11
REMARK SMILES IDX 9 12 8 13 7 14 6 15 5 16 4 17 3 18 2 19 1 20
REMARK H PARENT
REMARK Flexibility Score: inf
ROOT
ATOM      1  C   UNL     1      77.879  12.463  19.952  1.00  0.00     0.000 C 
ENDROOT
BRANCH   1   2
ATOM      2  C   UNL     1      76.587  11.815  20.480  1.00  0.00     0.000 C 
BRANCH   2   3
ATOM      3  C   UNL     1      75.599  11.464  19.357  1.00  0.00     0.000 C 
BRANCH   3   4
ATOM      4  C   UNL     1      74.223  12.126  19.550  1.00  0.00     0.000 C 
BRANCH   4   5
ATOM      5  C   UNL     1      73.878  13.105  18.418  1.00  0.00     0.000 C 
BRANCH   5   6
ATOM      6  C   UNL     1      74.900  14.249  18.296  1.00  0.00     0.000 C 
BRANCH   6   7
ATOM      7  C   UNL     1      75.536  14.329  16.899  1.00  0.00     0.006 C 
BRANCH   7   8
ATOM      8  C   UNL     1      74.772  15.267  15.955  1.00  0.00     0.053 C 
BRANCH   8   9
ATOM      9  C   UNL     1      75.382  16.632  15.968  1.00  0.00     0.041 C 
ATOM     10  O   UNL     1      74.822  17.571  16.594  1.00  0.00    -0.550 OA
ATOM     11  O   UNL     1      76.599  16.856  15.336  1.00  0.00    -0.550 OA
ENDBRANCH   8   9
ENDBRANCH   7   8
ENDBRANCH   6   7
ENDBRANCH   5   6
ENDBRANCH   4   5
ENDBRANCH   3   4
ENDBRANCH   2   3
ENDBRANCH   1   2
BRANCH   1  12
ATOM     12  C   UNL     1      78.606  11.570  18.923  1.00  0.00     0.000 C 
BRANCH  12  13
ATOM     13  C   UNL     1      79.783  12.273  18.220  1.00  0.00    -0.000 C 
BRANCH  13  14
ATOM     14  C   UNL     1      81.175  11.903  18.767  1.00  0.00    -0.000 C 
BRANCH  14  15
ATOM     15  C   UNL     1      82.090  13.103  19.091  1.00  0.00    -0.000 C 
BRANCH  15  16
ATOM     16  C   UNL     1      82.114  13.528  20.570  1.00  0.00    -0.000 C 
BRANCH  16  17
ATOM     17  C   UNL     1      80.989  14.509  20.928  1.00  0.00    -0.000 C 
BRANCH  17  18
ATOM     18  C   UNL     1      80.827  15.581  19.844  1.00  0.00    -0.000 C 
BRANCH  18  19
ATOM     19  C   UNL     1      79.384  16.095  19.789  1.00  0.00    -0.003 C 
ATOM     20  C   UNL     1      78.739  15.787  18.441  1.00  0.00     0.004 C 
ENDBRANCH  18  19
ENDBRANCH  17  18
ENDBRANCH  16  17
ENDBRANCH  15  16
ENDBRANCH  14  15
ENDBRANCH  13  14
ENDBRANCH  12  13
ENDBRANCH   1  12
TORSDOF 16
ENDMDL
MODEL 6
REMARK VINA RESULT:    -4.998      1.621      3.573
REMARK INTER + INTRA:         -12.056
REMARK INTER:                  -9.589
REMARK INTRA:                  -2.467
REMARK UNBOUND:                -2.383
REMARK SMILES CCCCCCCCCCCCCCCCCC(=O)[O-]
REMARK SMILES IDX 10 1 11 2 12 3 13 4 14 5 15 6 16 7 17 8 18 9 19 10 20 11
REMARK SMILES IDX 9 12 8 13 7 14 6 15 5 16 4 17 3 18 2 19 1 20
REMARK H PARENT
REMARK Flexibility Score: inf
ROOT
ATOM      1  C   UNL     1      75.292  15.056  17.806  1.00  0.00     0.000 C 
ENDROOT
BRANCH   1   2
ATOM      2  C   UNL     1      76.766  14.880  17.406  1.00  0.00     0.000 C 
BRANCH   2   3
ATOM      3  C   UNL     1      77.699  14.761  18.621  1.00  0.00     0.000 C 
BRANCH   3   4
ATOM      4  C   UNL     1      78.762  13.661  18.448  1.00  0.00     0.000 C 
BRANCH   4   5
ATOM      5  C   UNL     1      79.435  13.278  19.775  1.00  0.00     0.000 C 
BRANCH   5   6
ATOM      6  C   UNL     1      79.763  14.505  20.644  1.00  0.00     0.000 C 
BRANCH   6   7
ATOM      7  C   UNL     1      81.207  14.995  20.456  1.00  0.00     0.006 C 
BRANCH   7   8
ATOM      8  C   UNL     1      82.246  13.984  20.960  1.00  0.00     0.053 C 
BRANCH   8   9
ATOM      9  C   UNL     1      83.213  13.642  19.872  1.00  0.00     0.041 C 
ATOM     10  O   UNL     1      83.961  14.532  19.386  1.00  0.00    -0.550 OA
ATOM     11  O   UNL     1      83.329  12.329  19.432  1.00  0.00    -0.550 OA
ENDBRANCH   8   9
ENDBRANCH   7   8
ENDBRANCH   6   7
ENDBRANCH   5   6
ENDBRANCH   4   5
ENDBRANCH   3   4
ENDBRANCH   2   3
ENDBRANCH   1   2
BRANCH   1  12
ATOM     12  C   UNL     1      74.451  13.792  17.525  1.00  0.00     0.000 C 
BRANCH  12  13
ATOM     13  C   UNL     1      73.907  13.117  18.798  1.00  0.00    -0.000 C 
BRANCH  13  14
ATOM     14  C   UNL     1      74.609  11.801  19.181  1.00  0.00    -0.000 C 
BRANCH  14  15
ATOM     15  C   UNL     1      75.749  11.945  20.212  1.00  0.00    -0.000 C 
BRANCH  15  16
ATOM     16  C   UNL     1      76.800  10.820  20.188  1.00  0.00    -0.000 C 
BRANCH  16  17
ATOM     17  C   UNL     1      76.686   9.922  18.947  1.00  0.00    -0.000 C 
BRANCH  17  18
ATOM     18  C   UNL     1      77.831  10.194  17.965  1.00  0.00    -0.000 C 
BRANCH  18  19
ATOM     19  C   UNL     1      77.352  10.072  16.514  1.00  0.00    -0.003 C 
ATOM     20  C   UNL     1      77.001  11.439  15.932  1.00  0.00     0.004 C 
ENDBRANCH  18  19
ENDBRANCH  17  18
ENDBRANCH  16  17
ENDBRANCH  15  16
ENDBRANCH  14  15
ENDBRANCH  13  14
ENDBRANCH  12  13
ENDBRANCH   1  12
TORSDOF 16
ENDMDL
MODEL 7
REMARK VINA RESULT:    -4.993      2.142      2.916
REMARK INTER + INTRA:         -12.046
REMARK INTER:                 -10.221
REMARK INTRA:                  -1.825
REMARK UNBOUND:                -2.383
REMARK SMILES CCCCCCCCCCCCCCCCCC(=O)[O-]
REMARK SMILES IDX 10 1 11 2 12 3 13 4 14 5 15 6 16 7 17 8 18 9 19 10 20 11
REMARK SMILES IDX 9 12 8 13 7 14 6 15 5 16 4 17 3 18 2 19 1 20
REMARK H PARENT
REMARK Flexibility Score: inf
ROOT
ATOM      1  C   UNL     1      75.494  12.017  20.134  1.00  0.00     0.000 C 
ENDROOT
BRANCH   1   2
ATOM      2  C   UNL     1      76.554  10.924  19.914  1.00  0.00     0.000 C 
BRANCH   2   3
ATOM      3  C   UNL     1      77.901  11.493  19.441  1.00  0.00     0.000 C 
BRANCH   3   4
ATOM      4  C   UNL     1      78.219  12.863  20.067  1.00  0.00     0.000 C 
BRANCH   4   5
ATOM      5  C   UNL     1      79.483  13.502  19.474  1.00  0.00     0.000 C 
BRANCH   5   6
ATOM      6  C   UNL     1      80.279  14.311  20.513  1.00  0.00     0.000 C 
BRANCH   6   7
ATOM      7  C   UNL     1      80.771  15.659  19.965  1.00  0.00     0.006 C 
BRANCH   7   8
ATOM      8  C   UNL     1      79.626  16.544  19.455  1.00  0.00     0.053 C 
BRANCH   8   9
ATOM      9  C   UNL     1      80.151  17.602  18.538  1.00  0.00     0.041 C 
ATOM     10  O   UNL     1      80.978  18.454  18.960  1.00  0.00    -0.550 OA
ATOM     11  O   UNL     1      79.773  17.614  17.201  1.00  0.00    -0.550 OA
ENDBRANCH   8   9
ENDBRANCH   7   8
ENDBRANCH   6   7
ENDBRANCH   5   6
ENDBRANCH   4   5
ENDBRANCH   3   4
ENDBRANCH   2   3
ENDBRANCH   1   2
BRANCH   1  12
ATOM     12  C   UNL     1      74.286  11.866  19.184  1.00  0.00     0.000 C 
BRANCH  12  13
ATOM     13  C   UNL     1      73.897  13.173  18.468  1.00  0.00    -0.000 C 
BRANCH  13  14
ATOM     14  C   UNL     1      74.992  14.257  18.464  1.00  0.00    -0.000 C 
BRANCH  14  15
ATOM     15  C   UNL     1      75.998  14.165  17.298  1.00  0.00    -0.000 C 
BRANCH  15  16
ATOM     16  C   UNL     1      75.386  13.815  15.930  1.00  0.00    -0.000 C 
BRANCH  16  17
ATOM     17  C   UNL     1      75.475  14.970  14.922  1.00  0.00    -0.000 C 
BRANCH  17  18
ATOM     18  C   UNL     1      74.602  16.151  15.360  1.00  0.00    -0.000 C 
BRANCH  18  19
ATOM     19  C   UNL     1      75.332  17.483  15.149  1.00  0.00    -0.003 C 
ATOM     20  C   UNL     1      76.292  17.774  16.298  1.00  0.00     0.004 C 
ENDBRANCH  18  19
ENDBRANCH  17  18
ENDBRANCH  16  17
ENDBRANCH  15  16
ENDBRANCH  14  15
ENDBRANCH  13  14
ENDBRANCH  12  13
ENDBRANCH   1  12
TORSDOF 16
ENDMDL
MODEL 8
REMARK VINA RESULT:    -4.878      1.199      2.004
REMARK INTER + INTRA:         -11.824
REMARK INTER:                  -9.223
REMARK INTRA:                  -2.601
REMARK UNBOUND:                -2.383
REMARK SMILES CCCCCCCCCCCCCCCCCC(=O)[O-]
REMARK SMILES IDX 10 1 11 2 12 3 13 4 14 5 15 6 16 7 17 8 18 9 19 10 20 11
REMARK SMILES IDX 9 12 8 13 7 14 6 15 5 16 4 17 3 18 2 19 1 20
REMARK H PARENT
REMARK Flexibility Score: inf
ROOT
ATOM      1  C   UNL     1      76.636  10.715  20.083  1.00  0.00     0.000 C 
ENDROOT
BRANCH   1   2
ATOM      2  C   UNL     1      77.980  10.814  19.341  1.00  0.00     0.000 C 
BRANCH   2   3
ATOM      3  C   UNL     1      78.443  12.266  19.147  1.00  0.00     0.000 C 
BRANCH   3   4
ATOM      4  C   UNL     1      78.799  12.586  17.684  1.00  0.00     0.000 C 
BRANCH   4   5
ATOM      5  C   UNL     1      78.639  14.077  17.352  1.00  0.00     0.000 C 
BRANCH   5   6
ATOM      6  C   UNL     1      78.107  14.892  18.543  1.00  0.00     0.000 C 
BRANCH   6   7
ATOM      7  C   UNL     1      78.899  16.189  18.775  1.00  0.00     0.006 C 
BRANCH   7   8
ATOM      8  C   UNL     1      79.625  16.204  20.126  1.00  0.00     0.053 C 
BRANCH   8   9
ATOM      9  C   UNL     1      80.774  15.247  20.113  1.00  0.00     0.041 C 
ATOM     10  O   UNL     1      80.804  14.281  20.921  1.00  0.00    -0.550 OA
ATOM     11  O   UNL     1      81.786  15.387  19.170  1.00  0.00    -0.550 OA
ENDBRANCH   8   9
ENDBRANCH   7   8
ENDBRANCH   6   7
ENDBRANCH   5   6
ENDBRANCH   4   5
ENDBRANCH   3   4
ENDBRANCH   2   3
ENDBRANCH   1   2
BRANCH   1  12
ATOM     12  C   UNL     1      75.885  12.063  20.122  1.00  0.00     0.000 C 
BRANCH  12  13
ATOM     13  C   UNL     1      74.472  12.000  19.510  1.00  0.00    -0.000 C 
BRANCH  13  14
ATOM     14  C   UNL     1      74.246  12.942  18.312  1.00  0.00    -0.000 C 
BRANCH  14  15
ATOM     15  C   UNL     1      75.151  12.675  17.091  1.00  0.00    -0.000 C 
BRANCH  15  16
ATOM     16  C   UNL     1      75.194  13.806  16.048  1.00  0.00    -0.000 C 
BRANCH  16  17
ATOM     17  C   UNL     1      74.752  15.162  16.617  1.00  0.00    -0.000 C 
BRANCH  17  18
ATOM     18  C   UNL     1      74.816  16.256  15.545  1.00  0.00    -0.000 C 
BRANCH  18  19
ATOM     19  C   UNL     1      75.630  17.460  16.036  1.00  0.00    -0.003 C 
ATOM     20  C   UNL     1      76.931  17.603  15.251  1.00  0.00     0.004 C 
ENDBRANCH  18  19
ENDBRANCH  17  18
ENDBRANCH  16  17
ENDBRANCH  15  16
ENDBRANCH  14  15
ENDBRANCH  13  14
ENDBRANCH  12  13
ENDBRANCH   1  12
TORSDOF 16
ENDMDL
MODEL 9
REMARK VINA RESULT:    -4.856      1.798      2.688
REMARK INTER + INTRA:         -11.781
REMARK INTER:                  -8.753
REMARK INTRA:                  -3.028
REMARK UNBOUND:                -2.383
REMARK SMILES CCCCCCCCCCCCCCCCCC(=O)[O-]
REMARK SMILES IDX 10 1 11 2 12 3 13 4 14 5 15 6 16 7 17 8 18 9 19 10 20 11
REMARK SMILES IDX 9 12 8 13 7 14 6 15 5 16 4 17 3 18 2 19 1 20
REMARK H PARENT
REMARK Flexibility Score: inf
ROOT
ATOM      1  C   UNL     1      77.195   9.751  17.708  1.00  0.00     0.000 C 
ENDROOT
BRANCH   1   2
ATOM      2  C   UNL     1      77.754  10.348  16.404  1.00  0.00     0.000 C 
BRANCH   2   3
ATOM      3  C   UNL     1      77.002  11.613  15.963  1.00  0.00     0.000 C 
BRANCH   3   4
ATOM      4  C   UNL     1      77.942  12.807  15.716  1.00  0.00     0.000 C 
BRANCH   4   5
ATOM      5  C   UNL     1      78.771  13.169  16.958  1.00  0.00     0.000 C 
BRANCH   5   6
ATOM      6  C   UNL     1      78.327  14.497  17.596  1.00  0.00     0.000 C 
BRANCH   6   7
ATOM      7  C   UNL     1      78.436  14.482  19.129  1.00  0.00     0.006 C 
BRANCH   7   8
ATOM      8  C   UNL     1      79.714  13.794  19.625  1.00  0.00     0.053 C 
BRANCH   8   9
ATOM      9  C   UNL     1      80.643  14.794  20.236  1.00  0.00     0.041 C 
ATOM     10  O   UNL     1      80.564  16.010  19.916  1.00  0.00    -0.550 OA
ATOM     11  O   UNL     1      81.560  14.394  21.200  1.00  0.00    -0.550 OA
ENDBRANCH   8   9
ENDBRANCH   7   8
ENDBRANCH   6   7
ENDBRANCH   5   6
ENDBRANCH   4   5
ENDBRANCH   3   4
ENDBRANCH   2   3
ENDBRANCH   1   2
BRANCH   1  12
ATOM     12  C   UNL     1      77.922  10.287  18.959  1.00  0.00     0.000 C 
BRANCH  12  13
ATOM     13  C   UNL     1      76.986  10.538  20.157  1.00  0.00    -0.000 C 
BRANCH  13  14
ATOM     14  C   UNL     1      76.312  11.924  20.169  1.00  0.00    -0.000 C 
BRANCH  14  15
ATOM     15  C   UNL     1      74.816  11.926  19.791  1.00  0.00    -0.000 C 
BRANCH  15  16
ATOM     16  C   UNL     1      74.503  12.385  18.356  1.00  0.00    -0.000 C 
BRANCH  16  17
ATOM     17  C   UNL     1      74.779  13.880  18.134  1.00  0.00    -0.000 C 
BRANCH  17  18
ATOM     18  C   UNL     1      74.614  14.255  16.656  1.00  0.00    -0.000 C 
BRANCH  18  19
ATOM     19  C   UNL     1      75.021  15.713  16.410  1.00  0.00    -0.003 C 
ATOM     20  C   UNL     1      75.808  15.854  15.111  1.00  0.00     0.004 C 
ENDBRANCH  18  19
ENDBRANCH  17  18
ENDBRANCH  16  17
ENDBRANCH  15  16
ENDBRANCH  14  15
ENDBRANCH  13  14
ENDBRANCH  12  13
ENDBRANCH   1  12
TORSDOF 16
ENDMDL
