MODEL 1
REMARK VINA RESULT:    -4.264      0.000      0.000
REMARK INTER + INTRA:          -6.743
REMARK INTER:                  -6.259
REMARK INTRA:                  -0.485
REMARK UNBOUND:                -0.485
REMARK SMILES O=C([O-])CCCCCCCC(=O)[O-]
REMARK SMILES IDX 7 1 6 2 5 3 4 4 2 5 1 6 3 7 8 8 9 9 10 10 11 11 12 12 13 13
REMARK H PARENT
REMARK Flexibility Score: inf
ROOT
ATOM      1  C   UNL     1       4.815 -13.312   6.490  1.00  0.00     0.000 C 
ENDROOT
BRANCH   1   2
ATOM      2  C   UNL     1       6.086 -12.522   6.834  1.00  0.00     0.000 C 
BRANCH   2   3
ATOM      3  C   UNL     1       5.738 -11.122   7.360  1.00  0.00     0.006 C 
BRANCH   3   4
ATOM      4  C   UNL     1       4.309 -10.701   6.991  1.00  0.00     0.053 C 
BRANCH   4   5
ATOM      5  C   UNL     1       4.291  -9.418   6.217  1.00  0.00     0.041 C 
ATOM      6  O   UNL     1       4.729  -8.359   6.737  1.00  0.00    -0.550 OA
ATOM      7  O   UNL     1       3.820  -9.399   4.911  1.00  0.00    -0.550 OA
ENDBRANCH   4   5
ENDBRANCH   3   4
ENDBRANCH   2   3
ENDBRANCH   1   2
BRANCH   1   8
ATOM      8  C   UNL     1       4.825 -13.869   5.055  1.00  0.00     0.000 C 
BRANCH   8   9
ATOM      9  C   UNL     1       4.453 -12.852   3.956  1.00  0.00     0.006 C 
BRANCH   9  10
ATOM     10  C   UNL     1       4.274 -13.463   2.558  1.00  0.00     0.053 C 
BRANCH  10  11
ATOM     11  C   UNL     1       5.267 -12.919   1.576  1.00  0.00     0.041 C 
ATOM     12  O   UNL     1       4.927 -12.021   0.763  1.00  0.00    -0.550 OA
ATOM     13  O   UNL     1       6.576 -13.382   1.584  1.00  0.00    -0.550 OA
ENDBRANCH  10  11
ENDBRANCH   9  10
ENDBRANCH   8   9
ENDBRANCH   1   8
TORSDOF 8
ENDMDL
MODEL 2
REMARK VINA RESULT:    -4.182      2.214      3.464
REMARK INTER + INTRA:          -6.622
REMARK INTER:                  -6.118
REMARK INTRA:                  -0.504
REMARK UNBOUND:                -0.485
REMARK SMILES O=C([O-])CCCCCCCC(=O)[O-]
REMARK SMILES IDX 7 1 6 2 5 3 4 4 2 5 1 6 3 7 8 8 9 9 10 10 11 11 12 12 13 13
REMARK H PARENT
REMARK Flexibility Score: inf
ROOT
ATOM      1  C   UNL     1       3.971 -10.685   6.928  1.00  0.00     0.000 C 
ENDROOT
BRANCH   1   2
ATOM      2  C   UNL     1       4.019  -9.735   5.722  1.00  0.00     0.000 C 
BRANCH   2   3
ATOM      3  C   UNL     1       4.692  -8.406   6.096  1.00  0.00     0.006 C 
BRANCH   3   4
ATOM      4  C   UNL     1       3.776  -7.200   5.848  1.00  0.00     0.053 C 
BRANCH   4   5
ATOM      5  C   UNL     1       3.136  -6.719   7.115  1.00  0.00     0.041 C 
ATOM      6  O   UNL     1       3.476  -5.616   7.617  1.00  0.00    -0.550 OA
ATOM      7  O   UNL     1       2.141  -7.475   7.722  1.00  0.00    -0.550 OA
ENDBRANCH   4   5
ENDBRANCH   3   4
ENDBRANCH   2   3
ENDBRANCH   1   2
BRANCH   1   8
ATOM      8  C   UNL     1       5.354 -11.243   7.307  1.00  0.00     0.000 C 
BRANCH   8   9
ATOM      9  C   UNL     1       5.849 -12.415   6.434  1.00  0.00     0.006 C 
BRANCH   9  10
ATOM     10  C   UNL     1       4.840 -13.563   6.277  1.00  0.00     0.053 C 
BRANCH  10  11
ATOM     11  C   UNL     1       4.425 -13.756   4.851  1.00  0.00     0.041 C 
ATOM     12  O   UNL     1       4.833 -12.966   3.960  1.00  0.00    -0.550 OA
ATOM     13  O   UNL     1       3.617 -14.830   4.501  1.00  0.00    -0.550 OA
ENDBRANCH  10  11
ENDBRANCH   9  10
ENDBRANCH   8   9
ENDBRANCH   1   8
TORSDOF 8
ENDMDL
MODEL 3
REMARK VINA RESULT:    -4.167      1.812      2.936
REMARK INTER + INTRA:          -6.601
REMARK INTER:                  -6.170
REMARK INTRA:                  -0.431
REMARK UNBOUND:                -0.485
REMARK SMILES O=C([O-])CCCCCCCC(=O)[O-]
REMARK SMILES IDX 7 1 6 2 5 3 4 4 2 5 1 6 3 7 8 8 9 9 10 10 11 11 12 12 13 13
REMARK H PARENT
REMARK Flexibility Score: inf
ROOT
ATOM      1  C   UNL     1       3.400 -13.896   3.143  1.00  0.00     0.000 C 
ENDROOT
BRANCH   1   2
ATOM      2  C   UNL     1       3.819 -14.215   4.585  1.00  0.00     0.000 C 
BRANCH   2   3
ATOM      3  C   UNL     1       5.011 -13.348   5.016  1.00  0.00     0.006 C 
BRANCH   3   4
ATOM      4  C   UNL     1       5.261 -13.413   6.528  1.00  0.00     0.053 C 
BRANCH   4   5
ATOM      5  C   UNL     1       5.705 -12.090   7.075  1.00  0.00     0.041 C 
ATOM      6  O   UNL     1       6.821 -11.983   7.646  1.00  0.00    -0.550 OA
ATOM      7  O   UNL     1       4.899 -10.969   6.924  1.00  0.00    -0.550 OA
ENDBRANCH   4   5
ENDBRANCH   3   4
ENDBRANCH   2   3
ENDBRANCH   1   2
BRANCH   1   8
ATOM      8  C   UNL     1       3.746 -12.458   2.720  1.00  0.00     0.000 C 
BRANCH   8   9
ATOM      9  C   UNL     1       4.615 -12.339   1.451  1.00  0.00     0.006 C 
BRANCH   9  10
ATOM     10  C   UNL     1       5.751 -13.370   1.359  1.00  0.00     0.053 C 
BRANCH  10  11
ATOM     11  C   UNL     1       6.949 -12.825   0.644  1.00  0.00     0.041 C 
ATOM     12  O   UNL     1       6.817 -11.894  -0.193  1.00  0.00    -0.550 OA
ATOM     13  O   UNL     1       8.214 -13.321   0.927  1.00  0.00    -0.550 OA
ENDBRANCH  10  11
ENDBRANCH   9  10
ENDBRANCH   8   9
ENDBRANCH   1   8
TORSDOF 8
ENDMDL
MODEL 4
REMARK VINA RESULT:    -4.140      1.287      4.746
REMARK INTER + INTRA:          -6.561
REMARK INTER:                  -5.972
REMARK INTRA:                  -0.589
REMARK UNBOUND:                -0.485
REMARK SMILES O=C([O-])CCCCCCCC(=O)[O-]
REMARK SMILES IDX 7 1 6 2 5 3 4 4 2 5 1 6 3 7 8 8 9 9 10 10 11 11 12 12 13 13
REMARK H PARENT
REMARK Flexibility Score: inf
ROOT
ATOM      1  C   UNL     1       4.907 -13.397   6.511  1.00  0.00     0.000 C 
ENDROOT
BRANCH   1   2
ATOM      2  C   UNL     1       4.880 -13.768   5.021  1.00  0.00     0.000 C 
BRANCH   2   3
ATOM      3  C   UNL     1       3.437 -13.928   4.521  1.00  0.00     0.006 C 
BRANCH   3   4
ATOM      4  C   UNL     1       2.887 -12.632   3.910  1.00  0.00     0.053 C 
BRANCH   4   5
ATOM      5  C   UNL     1       3.474 -12.361   2.559  1.00  0.00     0.041 C 
ATOM      6  O   UNL     1       3.647 -13.303   1.743  1.00  0.00    -0.550 OA
ATOM      7  O   UNL     1       3.800 -11.062   2.189  1.00  0.00    -0.550 OA
ENDBRANCH   4   5
ENDBRANCH   3   4
ENDBRANCH   2   3
ENDBRANCH   1   2
BRANCH   1   8
ATOM      8  C   UNL     1       6.086 -12.480   6.880  1.00  0.00     0.000 C 
BRANCH   8   9
ATOM      9  C   UNL     1       5.694 -11.049   7.305  1.00  0.00     0.006 C 
BRANCH   9  10
ATOM     10  C   UNL     1       4.277 -10.627   6.888  1.00  0.00     0.053 C 
BRANCH  10  11
ATOM     11  C   UNL     1       4.276  -9.338   6.125  1.00  0.00     0.041 C 
ATOM     12  O   UNL     1       3.689  -9.259   5.014  1.00  0.00    -0.550 OA
ATOM     13  O   UNL     1       4.895  -8.214   6.657  1.00  0.00    -0.550 OA
ENDBRANCH  10  11
ENDBRANCH   9  10
ENDBRANCH   8   9
ENDBRANCH   1   8
TORSDOF 8
ENDMDL
MODEL 5
REMARK VINA RESULT:    -4.130      1.554      5.747
REMARK INTER + INTRA:          -6.546
REMARK INTER:                  -6.133
REMARK INTRA:                  -0.413
REMARK UNBOUND:                -0.485
REMARK SMILES O=C([O-])CCCCCCCC(=O)[O-]
REMARK SMILES IDX 7 1 6 2 5 3 4 4 2 5 1 6 3 7 8 8 9 9 10 10 11 11 12 12 13 13
REMARK H PARENT
REMARK Flexibility Score: inf
ROOT
ATOM      1  C   UNL     1       3.895 -12.708   4.197  1.00  0.00     0.000 C 
ENDROOT
BRANCH   1   2
ATOM      2  C   UNL     1       4.254 -12.656   2.705  1.00  0.00     0.000 C 
BRANCH   2   3
ATOM      3  C   UNL     1       5.577 -13.384   2.431  1.00  0.00     0.006 C 
BRANCH   3   4
ATOM      4  C   UNL     1       5.814 -13.617   0.933  1.00  0.00     0.053 C 
BRANCH   4   5
ATOM      5  C   UNL     1       6.951 -12.790   0.415  1.00  0.00     0.041 C 
ATOM      6  O   UNL     1       6.724 -11.747  -0.252  1.00  0.00    -0.550 OA
ATOM      7  O   UNL     1       8.261 -13.154   0.699  1.00  0.00    -0.550 OA
ENDBRANCH   4   5
ENDBRANCH   3   4
ENDBRANCH   2   3
ENDBRANCH   1   2
BRANCH   1   8
ATOM      8  C   UNL     1       4.835 -13.616   5.009  1.00  0.00     0.000 C 
BRANCH   8   9
ATOM      9  C   UNL     1       4.977 -13.244   6.500  1.00  0.00     0.006 C 
BRANCH   9  10
ATOM     10  C   UNL     1       4.409 -11.865   6.869  1.00  0.00     0.053 C 
BRANCH  10  11
ATOM     11  C   UNL     1       5.492 -10.864   7.135  1.00  0.00     0.041 C 
ATOM     12  O   UNL     1       6.605 -11.241   7.588  1.00  0.00    -0.550 OA
ATOM     13  O   UNL     1       5.283  -9.522   6.851  1.00  0.00    -0.550 OA
ENDBRANCH  10  11
ENDBRANCH   9  10
ENDBRANCH   8   9
ENDBRANCH   1   8
TORSDOF 8
ENDMDL
MODEL 6
REMARK VINA RESULT:    -4.128      1.472      2.120
REMARK INTER + INTRA:          -6.543
REMARK INTER:                  -5.991
REMARK INTRA:                  -0.552
REMARK UNBOUND:                -0.485
REMARK SMILES O=C([O-])CCCCCCCC(=O)[O-]
REMARK SMILES IDX 7 1 6 2 5 3 4 4 2 5 1 6 3 7 8 8 9 9 10 10 11 11 12 12 13 13
REMARK H PARENT
REMARK Flexibility Score: inf
ROOT
ATOM      1  C   UNL     1       6.074 -12.420   6.706  1.00  0.00     0.000 C 
ENDROOT
BRANCH   1   2
ATOM      2  C   UNL     1       5.702 -11.122   7.438  1.00  0.00     0.000 C 
BRANCH   2   3
ATOM      3  C   UNL     1       4.410 -10.520   6.867  1.00  0.00     0.006 C 
BRANCH   3   4
ATOM      4  C   UNL     1       4.594  -9.063   6.424  1.00  0.00     0.053 C 
BRANCH   4   5
ATOM      5  C   UNL     1       3.353  -8.254   6.648  1.00  0.00     0.041 C 
ATOM      6  O   UNL     1       2.394  -8.734   7.307  1.00  0.00    -0.550 OA
ATOM      7  O   UNL     1       3.269  -6.957   6.156  1.00  0.00    -0.550 OA
ENDBRANCH   4   5
ENDBRANCH   3   4
ENDBRANCH   2   3
ENDBRANCH   1   2
BRANCH   1   8
ATOM      8  C   UNL     1       4.878 -13.371   6.523  1.00  0.00     0.000 C 
BRANCH   8   9
ATOM      9  C   UNL     1       4.583 -13.778   5.064  1.00  0.00     0.006 C 
BRANCH   9  10
ATOM     10  C   UNL     1       3.354 -13.093   4.448  1.00  0.00     0.053 C 
BRANCH  10  11
ATOM     11  C   UNL     1       3.733 -12.115   3.377  1.00  0.00     0.041 C 
ATOM     12  O   UNL     1       3.415 -10.902   3.487  1.00  0.00    -0.550 OA
ATOM     13  O   UNL     1       4.467 -12.538   2.278  1.00  0.00    -0.550 OA
ENDBRANCH  10  11
ENDBRANCH   9  10
ENDBRANCH   8   9
ENDBRANCH   1   8
TORSDOF 8
ENDMDL
MODEL 7
REMARK VINA RESULT:    -4.124      1.269      5.494
REMARK INTER + INTRA:          -6.537
REMARK INTER:                  -6.108
REMARK INTRA:                  -0.430
REMARK UNBOUND:                -0.485
REMARK SMILES O=C([O-])CCCCCCCC(=O)[O-]
REMARK SMILES IDX 7 1 6 2 5 3 4 4 2 5 1 6 3 7 8 8 9 9 10 10 11 11 12 12 13 13
REMARK H PARENT
REMARK Flexibility Score: inf
ROOT
ATOM      1  C   UNL     1       5.997 -12.355   6.446  1.00  0.00     0.000 C 
ENDROOT
BRANCH   1   2
ATOM      2  C   UNL     1       4.896 -13.426   6.423  1.00  0.00     0.000 C 
BRANCH   2   3
ATOM      3  C   UNL     1       4.706 -13.989   5.008  1.00  0.00     0.006 C 
BRANCH   3   4
ATOM      4  C   UNL     1       4.449 -12.886   3.972  1.00  0.00     0.053 C 
BRANCH   4   5
ATOM      5  C   UNL     1       4.706 -13.365   2.576  1.00  0.00     0.041 C 
ATOM      6  O   UNL     1       3.752 -13.761   1.856  1.00  0.00    -0.550 OA
ATOM      7  O   UNL     1       5.995 -13.342   2.059  1.00  0.00    -0.550 OA
ENDBRANCH   4   5
ENDBRANCH   3   4
ENDBRANCH   2   3
ENDBRANCH   1   2
BRANCH   1   8
ATOM      8  C   UNL     1       5.640 -11.145   7.326  1.00  0.00     0.000 C 
BRANCH   8   9
ATOM      9  C   UNL     1       4.336 -10.416   6.937  1.00  0.00     0.006 C 
BRANCH   9  10
ATOM     10  C   UNL     1       4.536  -8.976   6.438  1.00  0.00     0.053 C 
BRANCH  10  11
ATOM     11  C   UNL     1       3.314  -8.135   6.645  1.00  0.00     0.041 C 
ATOM     12  O   UNL     1       3.242  -6.987   6.134  1.00  0.00    -0.550 OA
ATOM     13  O   UNL     1       2.241  -8.633   7.372  1.00  0.00    -0.550 OA
ENDBRANCH  10  11
ENDBRANCH   9  10
ENDBRANCH   8   9
ENDBRANCH   1   8
TORSDOF 8
ENDMDL
MODEL 8
REMARK VINA RESULT:    -4.084      2.427      6.133
REMARK INTER + INTRA:          -6.479
REMARK INTER:                  -6.123
REMARK INTRA:                  -0.356
REMARK UNBOUND:                -0.485
REMARK SMILES O=C([O-])CCCCCCCC(=O)[O-]
REMARK SMILES IDX 7 1 6 2 5 3 4 4 2 5 1 6 3 7 8 8 9 9 10 10 11 11 12 12 13 13
REMARK H PARENT
REMARK Flexibility Score: inf
ROOT
ATOM      1  C   UNL     1       4.098 -10.661   6.956  1.00  0.00     0.000 C 
ENDROOT
BRANCH   1   2
ATOM      2  C   UNL     1       5.513 -11.149   7.299  1.00  0.00     0.000 C 
BRANCH   2   3
ATOM      3  C   UNL     1       5.899 -12.363   6.442  1.00  0.00     0.006 C 
BRANCH   3   4
ATOM      4  C   UNL     1       4.749 -13.369   6.306  1.00  0.00     0.053 C 
BRANCH   4   5
ATOM      5  C   UNL     1       4.387 -13.610   4.872  1.00  0.00     0.041 C 
ATOM      6  O   UNL     1       4.036 -14.757   4.491  1.00  0.00    -0.550 OA
ATOM      7  O   UNL     1       4.406 -12.559   3.964  1.00  0.00    -0.550 OA
ENDBRANCH   4   5
ENDBRANCH   3   4
ENDBRANCH   2   3
ENDBRANCH   1   2
BRANCH   1   8
ATOM      8  C   UNL     1       4.087  -9.550   5.893  1.00  0.00     0.000 C 
BRANCH   8   9
ATOM      9  C   UNL     1       4.306  -8.122   6.436  1.00  0.00     0.006 C 
BRANCH   9  10
ATOM     10  C   UNL     1       3.139  -7.157   6.178  1.00  0.00     0.053 C 
BRANCH  10  11
ATOM     11  C   UNL     1       3.267  -5.895   6.975  1.00  0.00     0.041 C 
ATOM     12  O   UNL     1       4.009  -5.860   7.991  1.00  0.00    -0.550 OA
ATOM     13  O   UNL     1       2.594  -4.748   6.575  1.00  0.00    -0.550 OA
ENDBRANCH  10  11
ENDBRANCH   9  10
ENDBRANCH   8   9
ENDBRANCH   1   8
TORSDOF 8
ENDMDL
MODEL 9
REMARK VINA RESULT:    -4.075      2.610      4.233
REMARK INTER + INTRA:          -6.465
REMARK INTER:                  -5.703
REMARK INTRA:                  -0.761
REMARK UNBOUND:                -0.485
REMARK SMILES O=C([O-])CCCCCCCC(=O)[O-]
REMARK SMILES IDX 7 1 6 2 5 3 4 4 2 5 1 6 3 7 8 8 9 9 10 10 11 11 12 12 13 13
REMARK H PARENT
REMARK Flexibility Score: inf
ROOT
ATOM      1  C   UNL     1       3.546 -14.155   4.487  1.00  0.00     0.000 C 
ENDROOT
BRANCH   1   2
ATOM      2  C   UNL     1       2.750 -12.927   4.021  1.00  0.00     0.000 C 
BRANCH   2   3
ATOM      3  C   UNL     1       3.681 -11.864   3.422  1.00  0.00     0.006 C 
BRANCH   3   4
ATOM      4  C   UNL     1       2.921 -10.603   2.988  1.00  0.00     0.053 C 
BRANCH   4   5
ATOM      5  C   UNL     1       2.528  -9.760   4.163  1.00  0.00     0.041 C 
ATOM      6  O   UNL     1       3.323  -8.897   4.617  1.00  0.00    -0.550 OA
ATOM      7  O   UNL     1       1.270  -9.906   4.735  1.00  0.00    -0.550 OA
ENDBRANCH   4   5
ENDBRANCH   3   4
ENDBRANCH   2   3
ENDBRANCH   1   2
BRANCH   1   8
ATOM      8  C   UNL     1       4.968 -13.806   4.960  1.00  0.00     0.000 C 
BRANCH   8   9
ATOM      9  C   UNL     1       5.106 -13.535   6.473  1.00  0.00     0.006 C 
BRANCH   9  10
ATOM     10  C   UNL     1       5.883 -12.257   6.822  1.00  0.00     0.053 C 
BRANCH  10  11
ATOM     11  C   UNL     1       4.981 -11.068   6.953  1.00  0.00     0.041 C 
ATOM     12  O   UNL     1       5.460  -9.904   6.938  1.00  0.00    -0.550 OA
ATOM     13  O   UNL     1       3.608 -11.245   7.056  1.00  0.00    -0.550 OA
ENDBRANCH  10  11
ENDBRANCH   9  10
ENDBRANCH   8   9
ENDBRANCH   1   8
TORSDOF 8
ENDMDL
