MODEL 1
REMARK VINA RESULT:    -3.754      0.000      0.000
REMARK INTER + INTRA:          -4.157
REMARK INTER:                  -3.973
REMARK INTRA:                  -0.184
REMARK UNBOUND:                -0.184
REMARK SMILES CC(C)[C@H]1CC[C@@H](C)CC1=O
REMARK SMILES IDX 8 1 7 2 6 3 5 4 4 5 10 6 11 7 9 8 2 9 1 10 3 11
REMARK H PARENT
REMARK Flexibility Score: inf
ROOT
ATOM      1  C   UNL     1     115.963 114.453 119.699  1.00  0.00     0.008 C 
ATOM      2  C   UNL     1     114.863 115.102 120.556  1.00  0.00    -0.007 C 
ATOM      3  C   UNL     1     113.875 115.930 119.705  1.00  0.00     0.004 C 
ATOM      4  C   UNL     1     114.516 117.207 119.137  1.00  0.00     0.012 C 
ATOM      5  C   UNL     1     115.109 118.099 120.254  1.00  0.00     0.058 C 
ATOM      6  C   UNL     1     115.990 117.263 121.168  1.00  0.00     0.136 C 
ATOM      7  O   UNL     1     117.066 117.680 121.570  1.00  0.00    -0.299 OA
ATOM      8  C   UNL     1     115.462 115.954 121.690  1.00  0.00     0.079 C 
ENDROOT
BRANCH   5   9
ATOM      9  C   UNL     1     115.823 119.378 119.713  1.00  0.00    -0.007 C 
ATOM     10  C   UNL     1     116.472 119.183 118.331  1.00  0.00     0.008 C 
ATOM     11  C   UNL     1     114.878 120.589 119.686  1.00  0.00     0.008 C 
ENDBRANCH   5   9
TORSDOF 1
ENDMDL
MODEL 2
REMARK VINA RESULT:    -3.750      2.263      3.402
REMARK INTER + INTRA:          -4.153
REMARK INTER:                  -3.969
REMARK INTRA:                  -0.184
REMARK UNBOUND:                -0.184
REMARK SMILES CC(C)[C@H]1CC[C@@H](C)CC1=O
REMARK SMILES IDX 8 1 7 2 6 3 5 4 4 5 10 6 11 7 9 8 2 9 1 10 3 11
REMARK H PARENT
REMARK Flexibility Score: inf
ROOT
ATOM      1  C   UNL     1     118.754 115.982 119.734  1.00  0.00     0.008 C 
ATOM      2  C   UNL     1     118.089 114.882 120.579  1.00  0.00    -0.007 C 
ATOM      3  C   UNL     1     117.258 113.908 119.716  1.00  0.00     0.004 C 
ATOM      4  C   UNL     1     115.990 114.565 119.144  1.00  0.00     0.012 C 
ATOM      5  C   UNL     1     115.097 115.158 120.261  1.00  0.00     0.058 C 
ATOM      6  C   UNL     1     115.935 116.025 121.186  1.00  0.00     0.136 C 
ATOM      7  O   UNL     1     115.526 117.102 121.592  1.00  0.00    -0.299 OA
ATOM      8  C   UNL     1     117.236 115.481 121.712  1.00  0.00     0.079 C 
ENDROOT
BRANCH   5   9
ATOM      9  C   UNL     1     113.828 115.888 119.716  1.00  0.00    -0.007 C 
ATOM     10  C   UNL     1     114.048 116.577 118.358  1.00  0.00     0.008 C 
ATOM     11  C   UNL     1     112.617 114.945 119.639  1.00  0.00     0.008 C 
ENDBRANCH   5   9
TORSDOF 1
ENDMDL
MODEL 3
REMARK VINA RESULT:    -3.740      2.396      4.850
REMARK INTER + INTRA:          -4.143
REMARK INTER:                  -3.962
REMARK INTRA:                  -0.181
REMARK UNBOUND:                -0.184
REMARK SMILES CC(C)[C@H]1CC[C@@H](C)CC1=O
REMARK SMILES IDX 8 1 7 2 6 3 5 4 4 5 10 6 11 7 9 8 2 9 1 10 3 11
REMARK H PARENT
REMARK Flexibility Score: inf
ROOT
ATOM      1  C   UNL     1     117.305 118.796 119.641  1.00  0.00     0.008 C 
ATOM      2  C   UNL     1     118.392 118.137 120.507  1.00  0.00    -0.007 C 
ATOM      3  C   UNL     1     119.357 117.270 119.669  1.00  0.00     0.004 C 
ATOM      4  C   UNL     1     118.684 115.998 119.126  1.00  0.00     0.012 C 
ATOM      5  C   UNL     1     118.074 115.142 120.263  1.00  0.00     0.058 C 
ATOM      6  C   UNL     1     117.216 116.016 121.163  1.00  0.00     0.136 C 
ATOM      7  O   UNL     1     116.132 115.632 121.575  1.00  0.00    -0.299 OA
ATOM      8  C   UNL     1     117.776 117.321 121.658  1.00  0.00     0.079 C 
ENDROOT
BRANCH   5   9
ATOM      9  C   UNL     1     117.328 113.870 119.747  1.00  0.00    -0.007 C 
ATOM     10  C   UNL     1     116.575 114.091 118.423  1.00  0.00     0.008 C 
ATOM     11  C   UNL     1     118.274 112.667 119.621  1.00  0.00     0.008 C 
ENDBRANCH   5   9
TORSDOF 1
ENDMDL
MODEL 4
REMARK VINA RESULT:    -3.713      2.275      3.395
REMARK INTER + INTRA:          -4.114
REMARK INTER:                  -3.945
REMARK INTRA:                  -0.169
REMARK UNBOUND:                -0.184
REMARK SMILES CC(C)[C@H]1CC[C@@H](C)CC1=O
REMARK SMILES IDX 8 1 7 2 6 3 5 4 4 5 10 6 11 7 9 8 2 9 1 10 3 11
REMARK H PARENT
REMARK Flexibility Score: inf
ROOT
ATOM      1  C   UNL     1     114.344 117.202 119.890  1.00  0.00     0.008 C 
ATOM      2  C   UNL     1     115.017 118.344 120.669  1.00  0.00    -0.007 C 
ATOM      3  C   UNL     1     115.833 119.275 119.747  1.00  0.00     0.004 C 
ATOM      4  C   UNL     1     117.095 118.594 119.190  1.00  0.00     0.012 C 
ATOM      5  C   UNL     1     118.006 118.059 120.320  1.00  0.00     0.058 C 
ATOM      6  C   UNL     1     117.184 117.237 121.300  1.00  0.00     0.136 C 
ATOM      7  O   UNL     1     117.603 116.182 121.752  1.00  0.00    -0.299 OA
ATOM      8  C   UNL     1     115.890 117.803 121.817  1.00  0.00     0.079 C 
ENDROOT
BRANCH   5   9
ATOM      9  C   UNL     1     119.269 117.306 119.794  1.00  0.00    -0.007 C 
ATOM     10  C   UNL     1     118.987 116.404 118.579  1.00  0.00     0.008 C 
ATOM     11  C   UNL     1     120.418 118.274 119.476  1.00  0.00     0.008 C 
ENDBRANCH   5   9
TORSDOF 1
ENDMDL
MODEL 5
REMARK VINA RESULT:    -3.477      2.122      4.350
REMARK INTER + INTRA:          -3.865
REMARK INTER:                  -3.686
REMARK INTRA:                  -0.179
REMARK UNBOUND:                -0.184
REMARK SMILES CC(C)[C@H]1CC[C@@H](C)CC1=O
REMARK SMILES IDX 8 1 7 2 6 3 5 4 4 5 10 6 11 7 9 8 2 9 1 10 3 11
REMARK H PARENT
REMARK Flexibility Score: inf
ROOT
ATOM      1  C   UNL     1     115.053 118.385 120.889  1.00  0.00     0.008 C 
ATOM      2  C   UNL     1     116.082 117.766 121.850  1.00  0.00    -0.007 C 
ATOM      3  C   UNL     1     117.444 117.520 121.165  1.00  0.00     0.004 C 
ATOM      4  C   UNL     1     117.383 116.389 120.124  1.00  0.00     0.012 C 
ATOM      5  C   UNL     1     116.869 115.067 120.743  1.00  0.00     0.058 C 
ATOM      6  C   UNL     1     115.589 115.324 121.520  1.00  0.00     0.136 C 
ATOM      7  O   UNL     1     114.639 114.559 121.452  1.00  0.00    -0.299 OA
ATOM      8  C   UNL     1     115.546 116.473 122.491  1.00  0.00     0.079 C 
ENDROOT
BRANCH   5   9
ATOM      9  C   UNL     1     116.736 113.909 119.703  1.00  0.00    -0.007 C 
ATOM     10  C   UNL     1     116.241 114.373 118.322  1.00  0.00     0.008 C 
ATOM     11  C   UNL     1     118.047 113.121 119.557  1.00  0.00     0.008 C 
ENDBRANCH   5   9
TORSDOF 1
ENDMDL
MODEL 6
REMARK VINA RESULT:    -3.471      2.011      3.684
REMARK INTER + INTRA:          -3.858
REMARK INTER:                  -3.677
REMARK INTRA:                  -0.181
REMARK UNBOUND:                -0.184
REMARK SMILES CC(C)[C@H]1CC[C@@H](C)CC1=O
REMARK SMILES IDX 8 1 7 2 6 3 5 4 4 5 10 6 11 7 9 8 2 9 1 10 3 11
REMARK H PARENT
REMARK Flexibility Score: inf
ROOT
ATOM      1  C   UNL     1     117.487 117.381 121.632  1.00  0.00     0.008 C 
ATOM      2  C   UNL     1     116.104 117.220 122.286  1.00  0.00    -0.007 C 
ATOM      3  C   UNL     1     115.657 115.743 122.347  1.00  0.00     0.004 C 
ATOM      4  C   UNL     1     115.330 115.170 120.958  1.00  0.00     0.012 C 
ATOM      5  C   UNL     1     114.250 116.007 120.230  1.00  0.00     0.058 C 
ATOM      6  C   UNL     1     114.625 117.479 120.271  1.00  0.00     0.136 C 
ATOM      7  O   UNL     1     114.490 118.196 119.290  1.00  0.00    -0.299 OA
ATOM      8  C   UNL     1     115.045 118.087 121.581  1.00  0.00     0.079 C 
ENDROOT
BRANCH   5   9
ATOM      9  C   UNL     1     113.933 115.491 118.791  1.00  0.00    -0.007 C 
ATOM     10  C   UNL     1     115.056 114.633 118.182  1.00  0.00     0.008 C 
ATOM     11  C   UNL     1     112.600 114.730 118.739  1.00  0.00     0.008 C 
ENDBRANCH   5   9
TORSDOF 1
ENDMDL
MODEL 7
REMARK VINA RESULT:    -3.460      2.702      3.737
REMARK INTER + INTRA:          -3.846
REMARK INTER:                  -3.665
REMARK INTRA:                  -0.182
REMARK UNBOUND:                -0.184
REMARK SMILES CC(C)[C@H]1CC[C@@H](C)CC1=O
REMARK SMILES IDX 8 1 7 2 6 3 5 4 4 5 10 6 11 7 9 8 2 9 1 10 3 11
REMARK H PARENT
REMARK Flexibility Score: inf
ROOT
ATOM      1  C   UNL     1     115.697 115.769 121.635  1.00  0.00     0.008 C 
ATOM      2  C   UNL     1     117.105 115.906 122.237  1.00  0.00    -0.007 C 
ATOM      3  C   UNL     1     117.561 117.379 122.323  1.00  0.00     0.004 C 
ATOM      4  C   UNL     1     117.836 117.992 120.940  1.00  0.00     0.012 C 
ATOM      5  C   UNL     1     118.882 117.172 120.146  1.00  0.00     0.058 C 
ATOM      6  C   UNL     1     118.503 115.701 120.159  1.00  0.00     0.136 C 
ATOM      7  O   UNL     1     118.595 115.012 119.154  1.00  0.00    -0.299 OA
ATOM      8  C   UNL     1     118.132 115.056 121.466  1.00  0.00     0.079 C 
ENDROOT
BRANCH   5   9
ATOM      9  C   UNL     1     119.144 117.728 118.710  1.00  0.00    -0.007 C 
ATOM     10  C   UNL     1     117.985 118.574 118.155  1.00  0.00     0.008 C 
ATOM     11  C   UNL     1     120.458 118.521 118.638  1.00  0.00     0.008 C 
ENDBRANCH   5   9
TORSDOF 1
ENDMDL
MODEL 8
REMARK VINA RESULT:    -3.453      2.461      3.354
REMARK INTER + INTRA:          -3.839
REMARK INTER:                  -3.657
REMARK INTRA:                  -0.182
REMARK UNBOUND:                -0.184
REMARK SMILES CC(C)[C@H]1CC[C@@H](C)CC1=O
REMARK SMILES IDX 8 1 7 2 6 3 5 4 4 5 10 6 11 7 9 8 2 9 1 10 3 11
REMARK H PARENT
REMARK Flexibility Score: inf
ROOT
ATOM      1  C   UNL     1     118.503 115.352 120.443  1.00  0.00     0.008 C 
ATOM      2  C   UNL     1     118.851 116.421 119.394  1.00  0.00    -0.007 C 
ATOM      3  C   UNL     1     118.967 117.830 120.015  1.00  0.00     0.004 C 
ATOM      4  C   UNL     1     117.607 118.384 120.474  1.00  0.00     0.012 C 
ATOM      5  C   UNL     1     116.578 118.411 119.318  1.00  0.00     0.058 C 
ATOM      6  C   UNL     1     116.546 117.059 118.624  1.00  0.00     0.136 C 
ATOM      7  O   UNL     1     115.490 116.541 118.290  1.00  0.00    -0.299 OA
ATOM      8  C   UNL     1     117.845 116.413 118.228  1.00  0.00     0.079 C 
ENDROOT
BRANCH   5   9
ATOM      9  C   UNL     1     115.166 118.911 119.758  1.00  0.00    -0.007 C 
ATOM     10  C   UNL     1     114.774 118.476 121.181  1.00  0.00     0.008 C 
ATOM     11  C   UNL     1     115.031 120.434 119.616  1.00  0.00     0.008 C 
ENDBRANCH   5   9
TORSDOF 1
ENDMDL
MODEL 9
REMARK VINA RESULT:    -3.435      2.273      4.261
REMARK INTER + INTRA:          -3.820
REMARK INTER:                  -3.654
REMARK INTRA:                  -0.166
REMARK UNBOUND:                -0.184
REMARK SMILES CC(C)[C@H]1CC[C@@H](C)CC1=O
REMARK SMILES IDX 8 1 7 2 6 3 5 4 4 5 10 6 11 7 9 8 2 9 1 10 3 11
REMARK H PARENT
REMARK Flexibility Score: inf
ROOT
ATOM      1  C   UNL     1     118.590 118.467 121.598  1.00  0.00     0.008 C 
ATOM      2  C   UNL     1     118.563 118.258 120.074  1.00  0.00    -0.007 C 
ATOM      3  C   UNL     1     117.162 118.511 119.476  1.00  0.00     0.004 C 
ATOM      4  C   UNL     1     116.146 117.430 119.881  1.00  0.00     0.012 C 
ATOM      5  C   UNL     1     116.627 116.013 119.488  1.00  0.00     0.058 C 
ATOM      6  C   UNL     1     118.052 115.799 119.971  1.00  0.00     0.136 C 
ATOM      7  O   UNL     1     118.398 114.746 120.484  1.00  0.00    -0.299 OA
ATOM      8  C   UNL     1     119.082 116.859 119.690  1.00  0.00     0.079 C 
ENDROOT
BRANCH   5   9
ATOM      9  C   UNL     1     115.649 114.880 119.937  1.00  0.00    -0.007 C 
ATOM     10  C   UNL     1     115.063 115.094 121.343  1.00  0.00     0.008 C 
ATOM     11  C   UNL     1     114.517 114.669 118.920  1.00  0.00     0.008 C 
ENDBRANCH   5   9
TORSDOF 1
ENDMDL
