MODEL 1
REMARK VINA RESULT:    -4.905      0.000      0.000
REMARK INTER + INTRA:          -5.636
REMARK INTER:                  -5.478
REMARK INTRA:                  -0.158
REMARK UNBOUND:                -0.158
REMARK SMILES O=C([O-])c1ccccc1C(=O)[O-]
REMARK SMILES IDX 4 1 9 2 5 3 8 4 6 5 7 6 2 7 1 8 3 9 10 10 11 11 12 12
REMARK H PARENT
REMARK Flexibility Score: inf
ROOT
ATOM      1  C   UNL     1      19.135  36.373   6.494  1.00  0.00     0.006 A 
ATOM      2  C   UNL     1      20.231  35.464   6.532  1.00  0.00     0.006 A 
ATOM      3  C   UNL     1      18.416  36.626   7.676  1.00  0.00     0.010 A 
ATOM      4  C   UNL     1      20.522  34.794   7.736  1.00  0.00     0.010 A 
ATOM      5  C   UNL     1      18.737  35.967   8.863  1.00  0.00     0.001 A 
ATOM      6  C   UNL     1      19.780  35.045   8.891  1.00  0.00     0.001 A 
ENDROOT
BRANCH   1   7
ATOM      7  C   UNL     1      18.668  37.020   5.247  1.00  0.00     0.072 C 
ATOM      8  O   UNL     1      17.623  36.623   4.666  1.00  0.00    -0.545 OA
ATOM      9  O   UNL     1      19.344  38.124   4.740  1.00  0.00    -0.545 OA
ENDBRANCH   1   7
BRANCH   2  10
ATOM     10  C   UNL     1      21.131  35.234   5.379  1.00  0.00     0.072 C 
ATOM     11  O   UNL     1      21.978  36.101   5.040  1.00  0.00    -0.545 OA
ATOM     12  O   UNL     1      21.095  34.023   4.697  1.00  0.00    -0.545 OA
ENDBRANCH   2  10
TORSDOF 2
ENDMDL
MODEL 2
REMARK VINA RESULT:    -4.822      1.764      3.206
REMARK INTER + INTRA:          -5.543
REMARK INTER:                  -5.376
REMARK INTRA:                  -0.167
REMARK UNBOUND:                -0.158
REMARK SMILES O=C([O-])c1ccccc1C(=O)[O-]
REMARK SMILES IDX 4 1 9 2 5 3 8 4 6 5 7 6 2 7 1 8 3 9 10 10 11 11 12 12
REMARK H PARENT
REMARK Flexibility Score: inf
ROOT
ATOM      1  C   UNL     1      19.905  35.940   6.000  1.00  0.00     0.006 A 
ATOM      2  C   UNL     1      19.651  35.488   7.327  1.00  0.00     0.006 A 
ATOM      3  C   UNL     1      21.024  35.441   5.310  1.00  0.00     0.010 A 
ATOM      4  C   UNL     1      20.564  34.604   7.933  1.00  0.00     0.010 A 
ATOM      5  C   UNL     1      21.903  34.548   5.924  1.00  0.00     0.001 A 
ATOM      6  C   UNL     1      21.680  34.140   7.236  1.00  0.00     0.001 A 
ENDROOT
BRANCH   1   7
ATOM      7  C   UNL     1      19.080  36.970   5.328  1.00  0.00     0.072 C 
ATOM      8  O   UNL     1      19.536  38.124   5.114  1.00  0.00    -0.545 OA
ATOM      9  O   UNL     1      17.810  36.650   4.863  1.00  0.00    -0.545 OA
ENDBRANCH   1   7
BRANCH   2  10
ATOM     10  C   UNL     1      18.431  35.848   8.084  1.00  0.00     0.072 C 
ATOM     11  O   UNL     1      18.391  36.897   8.779  1.00  0.00    -0.545 OA
ATOM     12  O   UNL     1      17.288  35.063   7.979  1.00  0.00    -0.545 OA
ENDBRANCH   2  10
TORSDOF 2
ENDMDL
MODEL 3
REMARK VINA RESULT:    -4.821      1.784      3.306
REMARK INTER + INTRA:          -5.542
REMARK INTER:                  -5.368
REMARK INTRA:                  -0.175
REMARK UNBOUND:                -0.158
REMARK SMILES O=C([O-])c1ccccc1C(=O)[O-]
REMARK SMILES IDX 4 1 9 2 5 3 8 4 6 5 7 6 2 7 1 8 3 9 10 10 11 11 12 12
REMARK H PARENT
REMARK Flexibility Score: inf
ROOT
ATOM      1  C   UNL     1      19.784  35.502   7.341  1.00  0.00     0.006 A 
ATOM      2  C   UNL     1      20.038  35.936   6.009  1.00  0.00     0.006 A 
ATOM      3  C   UNL     1      20.683  34.609   7.952  1.00  0.00     0.010 A 
ATOM      4  C   UNL     1      21.145  35.409   5.317  1.00  0.00     0.010 A 
ATOM      5  C   UNL     1      21.787  34.117   7.255  1.00  0.00     0.001 A 
ATOM      6  C   UNL     1      22.011  34.507   5.937  1.00  0.00     0.001 A 
ENDROOT
BRANCH   1   7
ATOM      7  C   UNL     1      18.574  35.893   8.100  1.00  0.00     0.072 C 
ATOM      8  O   UNL     1      18.551  36.956   8.776  1.00  0.00    -0.545 OA
ATOM      9  O   UNL     1      17.421  35.121   8.018  1.00  0.00    -0.545 OA
ENDBRANCH   1   7
BRANCH   2  10
ATOM     10  C   UNL     1      19.229  36.974   5.330  1.00  0.00     0.072 C 
ATOM     11  O   UNL     1      19.699  38.124   5.122  1.00  0.00    -0.545 OA
ATOM     12  O   UNL     1      17.960  36.666   4.851  1.00  0.00    -0.545 OA
ENDBRANCH   2  10
TORSDOF 2
ENDMDL
MODEL 4
REMARK VINA RESULT:    -4.509      2.509      4.173
REMARK INTER + INTRA:          -5.194
REMARK INTER:                  -5.043
REMARK INTRA:                  -0.151
REMARK UNBOUND:                -0.158
REMARK SMILES O=C([O-])c1ccccc1C(=O)[O-]
REMARK SMILES IDX 4 1 9 2 5 3 8 4 6 5 7 6 2 7 1 8 3 9 10 10 11 11 12 12
REMARK H PARENT
REMARK Flexibility Score: inf
ROOT
ATOM      1  C   UNL     1      21.779  35.707   5.133  1.00  0.00     0.006 A 
ATOM      2  C   UNL     1      20.438  35.692   5.611  1.00  0.00     0.006 A 
ATOM      3  C   UNL     1      22.369  36.936   4.789  1.00  0.00     0.010 A 
ATOM      4  C   UNL     1      19.717  36.900   5.662  1.00  0.00     0.010 A 
ATOM      5  C   UNL     1      21.643  38.125   4.869  1.00  0.00     0.001 A 
ATOM      6  C   UNL     1      20.317  38.106   5.294  1.00  0.00     0.001 A 
ENDROOT
BRANCH   1   7
ATOM      7  C   UNL     1      22.571  34.474   4.914  1.00  0.00     0.072 C 
ATOM      8  O   UNL     1      23.437  34.106   5.751  1.00  0.00    -0.545 OA
ATOM      9  O   UNL     1      22.315  33.669   3.810  1.00  0.00    -0.545 OA
ENDBRANCH   1   7
BRANCH   2  10
ATOM     10  C   UNL     1      19.777  34.471   6.124  1.00  0.00     0.072 C 
ATOM     11  O   UNL     1      19.528  34.340   7.351  1.00  0.00    -0.545 OA
ATOM     12  O   UNL     1      19.360  33.480   5.242  1.00  0.00    -0.545 OA
ENDBRANCH   2  10
TORSDOF 2
ENDMDL
MODEL 5
REMARK VINA RESULT:    -4.471      2.486      3.319
REMARK INTER + INTRA:          -5.151
REMARK INTER:                  -5.044
REMARK INTRA:                  -0.107
REMARK UNBOUND:                -0.158
REMARK SMILES O=C([O-])c1ccccc1C(=O)[O-]
REMARK SMILES IDX 4 1 9 2 5 3 8 4 6 5 7 6 2 7 1 8 3 9 10 10 11 11 12 12
REMARK H PARENT
REMARK Flexibility Score: inf
ROOT
ATOM      1  C   UNL     1      20.383  35.708   5.628  1.00  0.00     0.006 A 
ATOM      2  C   UNL     1      21.728  35.705   5.159  1.00  0.00     0.006 A 
ATOM      3  C   UNL     1      19.678  36.924   5.671  1.00  0.00     0.010 A 
ATOM      4  C   UNL     1      22.335  36.927   4.813  1.00  0.00     0.010 A 
ATOM      5  C   UNL     1      20.293  38.121   5.302  1.00  0.00     0.001 A 
ATOM      6  C   UNL     1      21.621  38.124   4.885  1.00  0.00     0.001 A 
ENDROOT
BRANCH   1   7
ATOM      7  C   UNL     1      19.705  34.495   6.142  1.00  0.00     0.072 C 
ATOM      8  O   UNL     1      19.365  33.567   5.362  1.00  0.00    -0.545 OA
ATOM      9  O   UNL     1      19.499  34.339   7.508  1.00  0.00    -0.545 OA
ENDBRANCH   1   7
BRANCH   2  10
ATOM     10  C   UNL     1      22.507  34.463   4.949  1.00  0.00     0.072 C 
ATOM     11  O   UNL     1      23.353  34.081   5.799  1.00  0.00    -0.545 OA
ATOM     12  O   UNL     1      22.261  33.665   3.836  1.00  0.00    -0.545 OA
ENDBRANCH   2  10
TORSDOF 2
ENDMDL
MODEL 6
REMARK VINA RESULT:    -4.134      5.062      6.571
REMARK INTER + INTRA:          -4.775
REMARK INTER:                  -4.562
REMARK INTRA:                  -0.213
REMARK UNBOUND:                -0.158
REMARK SMILES O=C([O-])c1ccccc1C(=O)[O-]
REMARK SMILES IDX 4 1 9 2 5 3 8 4 6 5 7 6 2 7 1 8 3 9 10 10 11 11 12 12
REMARK H PARENT
REMARK Flexibility Score: inf
ROOT
ATOM      1  C   UNL     1      24.543  32.952   7.360  1.00  0.00     0.006 A 
ATOM      2  C   UNL     1      24.599  33.492   6.043  1.00  0.00     0.006 A 
ATOM      3  C   UNL     1      23.356  33.087   8.103  1.00  0.00     0.010 A 
ATOM      4  C   UNL     1      23.489  34.202   5.547  1.00  0.00     0.010 A 
ATOM      5  C   UNL     1      22.261  33.776   7.583  1.00  0.00     0.001 A 
ATOM      6  C   UNL     1      22.331  34.342   6.312  1.00  0.00     0.001 A 
ENDROOT
BRANCH   1   7
ATOM      7  C   UNL     1      25.703  32.309   8.018  1.00  0.00     0.072 C 
ATOM      8  O   UNL     1      26.414  32.946   8.840  1.00  0.00    -0.545 OA
ATOM      9  O   UNL     1      25.980  30.967   7.785  1.00  0.00    -0.545 OA
ENDBRANCH   1   7
BRANCH   2  10
ATOM     10  C   UNL     1      25.749  33.284   5.134  1.00  0.00     0.072 C 
ATOM     11  O   UNL     1      26.616  34.184   4.975  1.00  0.00    -0.545 OA
ATOM     12  O   UNL     1      25.922  32.061   4.496  1.00  0.00    -0.545 OA
ENDBRANCH   2  10
TORSDOF 2
ENDMDL
MODEL 7
REMARK VINA RESULT:    -4.122      5.071      6.451
REMARK INTER + INTRA:          -4.762
REMARK INTER:                  -4.552
REMARK INTRA:                  -0.210
REMARK UNBOUND:                -0.158
REMARK SMILES O=C([O-])c1ccccc1C(=O)[O-]
REMARK SMILES IDX 4 1 9 2 5 3 8 4 6 5 7 6 2 7 1 8 3 9 10 10 11 11 12 12
REMARK H PARENT
REMARK Flexibility Score: inf
ROOT
ATOM      1  C   UNL     1      24.602  33.467   6.051  1.00  0.00     0.006 A 
ATOM      2  C   UNL     1      24.535  32.948   7.376  1.00  0.00     0.006 A 
ATOM      3  C   UNL     1      23.499  34.173   5.537  1.00  0.00     0.010 A 
ATOM      4  C   UNL     1      23.343  33.098   8.109  1.00  0.00     0.010 A 
ATOM      5  C   UNL     1      22.336  34.329   6.291  1.00  0.00     0.001 A 
ATOM      6  C   UNL     1      22.253  33.783   7.569  1.00  0.00     0.001 A 
ENDROOT
BRANCH   1   7
ATOM      7  C   UNL     1      25.758  33.241   5.154  1.00  0.00     0.072 C 
ATOM      8  O   UNL     1      26.608  34.150   4.955  1.00  0.00    -0.545 OA
ATOM      9  O   UNL     1      25.956  31.994   4.573  1.00  0.00    -0.545 OA
ENDBRANCH   1   7
BRANCH   2  10
ATOM     10  C   UNL     1      25.687  32.311   8.053  1.00  0.00     0.072 C 
ATOM     11  O   UNL     1      26.411  32.967   8.847  1.00  0.00    -0.545 OA
ATOM     12  O   UNL     1      25.942  30.957   7.869  1.00  0.00    -0.545 OA
ENDBRANCH   2  10
TORSDOF 2
ENDMDL
MODEL 8
REMARK VINA RESULT:    -4.089      4.226      5.637
REMARK INTER + INTRA:          -4.725
REMARK INTER:                  -4.515
REMARK INTRA:                  -0.210
REMARK UNBOUND:                -0.158
REMARK SMILES O=C([O-])c1ccccc1C(=O)[O-]
REMARK SMILES IDX 4 1 9 2 5 3 8 4 6 5 7 6 2 7 1 8 3 9 10 10 11 11 12 12
REMARK H PARENT
REMARK Flexibility Score: inf
ROOT
ATOM      1  C   UNL     1      23.885  33.483   6.238  1.00  0.00     0.006 A 
ATOM      2  C   UNL     1      25.250  33.107   6.080  1.00  0.00     0.006 A 
ATOM      3  C   UNL     1      23.234  33.197   7.451  1.00  0.00     0.010 A 
ATOM      4  C   UNL     1      25.888  32.401   7.117  1.00  0.00     0.010 A 
ATOM      5  C   UNL     1      23.893  32.516   8.474  1.00  0.00     0.001 A 
ATOM      6  C   UNL     1      25.214  32.108   8.304  1.00  0.00     0.001 A 
ENDROOT
BRANCH   1   7
ATOM      7  C   UNL     1      23.090  34.107   5.155  1.00  0.00     0.072 C 
ATOM      8  O   UNL     1      22.841  35.341   5.166  1.00  0.00    -0.545 OA
ATOM      9  O   UNL     1      22.668  33.342   4.074  1.00  0.00    -0.545 OA
ENDBRANCH   1   7
BRANCH   2  10
ATOM     10  C   UNL     1      26.060  33.483   4.899  1.00  0.00     0.072 C 
ATOM     11  O   UNL     1      26.813  34.491   4.928  1.00  0.00    -0.545 OA
ATOM     12  O   UNL     1      26.048  32.681   3.763  1.00  0.00    -0.545 OA
ENDBRANCH   2  10
TORSDOF 2
ENDMDL
MODEL 9
REMARK VINA RESULT:    -3.213      0.076      3.171
REMARK INTER + INTRA:          -3.747
REMARK INTER:                  -3.591
REMARK INTRA:                  -0.156
REMARK UNBOUND:                -0.158
REMARK SMILES O=C([O-])c1ccccc1C(=O)[O-]
REMARK SMILES IDX 4 1 9 2 5 3 8 4 6 5 7 6 2 7 1 8 3 9 10 10 11 11 12 12
REMARK H PARENT
REMARK Flexibility Score: inf
ROOT
ATOM      1  C   UNL     1      20.270  35.430   6.498  1.00  0.00     0.006 A 
ATOM      2  C   UNL     1      19.188  36.356   6.488  1.00  0.00     0.006 A 
ATOM      3  C   UNL     1      20.582  34.756   7.692  1.00  0.00     0.010 A 
ATOM      4  C   UNL     1      18.504  36.621   7.689  1.00  0.00     0.010 A 
ATOM      5  C   UNL     1      19.875  35.018   8.866  1.00  0.00     0.001 A 
ATOM      6  C   UNL     1      18.846  35.956   8.868  1.00  0.00     0.001 A 
ENDROOT
BRANCH   1   7
ATOM      7  C   UNL     1      21.135  35.187   5.320  1.00  0.00     0.072 C 
ATOM      8  O   UNL     1      21.965  36.055   4.939  1.00  0.00    -0.545 OA
ATOM      9  O   UNL     1      21.086  33.964   4.661  1.00  0.00    -0.545 OA
ENDBRANCH   1   7
BRANCH   2  10
ATOM     10  C   UNL     1      18.697  37.011   5.254  1.00  0.00     0.072 C 
ATOM     11  O   UNL     1      17.648  36.611   4.686  1.00  0.00    -0.545 OA
ATOM     12  O   UNL     1      19.358  38.125   4.746  1.00  0.00    -0.545 OA
ENDBRANCH   2  10
TORSDOF 2
ENDMDL
