MODEL 1
REMARK VINA RESULT:    -4.502      0.000      0.000
REMARK INTER + INTRA:          -8.527
REMARK INTER:                  -7.002
REMARK INTRA:                  -1.525
REMARK UNBOUND:                -1.525
REMARK SMILES COc1cc(CNC(=O)CCCCC=CC(C)C)ccc1O
REMARK SMILES IDX 11 1 12 2 13 3 14 4 15 5 16 6 17 7 18 8 10 9 8 10 9 11 7 12
REMARK SMILES IDX 6 14 5 15 4 16 19 17 3 18 20 19 21 20 2 21 1 22 22 23
REMARK H PARENT 7 13 22 24
REMARK Flexibility Score: inf
ROOT
ATOM      1  C   UNL     1      -5.595   6.806   3.659  1.00  0.00     0.010 C 
ENDROOT
BRANCH   1   2
ATOM      2  C   UNL     1      -5.399   6.475   2.169  1.00  0.00     0.005 C 
BRANCH   2   3
ATOM      3  C   UNL     1      -6.389   5.428   1.624  1.00  0.00     0.027 C 
BRANCH   3   4
ATOM      4  C   UNL     1      -5.810   4.613   0.494  1.00  0.00    -0.031 C 
ATOM      5  C   UNL     1      -5.791   4.980  -0.801  1.00  0.00    -0.028 C 
BRANCH   5   6
ATOM      6  C   UNL     1      -6.337   6.280  -1.354  1.00  0.00     0.005 C 
ATOM      7  C   UNL     1      -5.602   6.637  -2.648  1.00  0.00     0.012 C 
ATOM      8  C   UNL     1      -7.841   6.139  -1.611  1.00  0.00     0.012 C 
ENDBRANCH   5   6
ENDBRANCH   3   4
ENDBRANCH   2   3
ENDBRANCH   1   2
BRANCH   1   9
ATOM      9  C   UNL     1      -4.288   6.725   4.459  1.00  0.00     0.100 C 
BRANCH   9  10
ATOM     10  C   UNL     1      -3.196   7.463   3.746  1.00  0.00     0.220 C 
ATOM     11  O   UNL     1      -3.243   8.721   3.669  1.00  0.00    -0.275 OA
ATOM     12  N   UNL     1      -2.082   6.744   3.197  1.00  0.00    -0.352 N 
ATOM     13  H   UNL     1      -2.040   5.707   3.316  1.00  0.00     0.163 HD
BRANCH  12  14
ATOM     14  C   UNL     1      -0.986   7.409   2.494  1.00  0.00     0.151 C 
BRANCH  14  15
ATOM     15  C   UNL     1      -1.220   7.374   1.008  1.00  0.00    -0.025 A 
ATOM     16  C   UNL     1      -0.542   8.259   0.156  1.00  0.00     0.056 A 
ATOM     17  C   UNL     1      -2.146   6.472   0.469  1.00  0.00     0.009 A 
ATOM     18  C   UNL     1      -0.778   8.240  -1.234  1.00  0.00     0.160 A 
ATOM     19  C   UNL     1      -2.385   6.447  -0.907  1.00  0.00     0.050 A 
ATOM     20  C   UNL     1      -1.709   7.325  -1.759  1.00  0.00     0.157 A 
BRANCH  18  21
ATOM     21  O   UNL     1      -0.113   9.111  -2.112  1.00  0.00    -0.493 OA
ATOM     22  C   UNL     1       1.290   9.351  -2.102  1.00  0.00     0.278 C 
ENDBRANCH  18  21
BRANCH  20  23
ATOM     23  O   UNL     1      -1.972   7.272  -3.127  1.00  0.00    -0.504 OA
ATOM     24  H   UNL     1      -2.677   6.660  -3.519  1.00  0.00     0.293 HD
ENDBRANCH  20  23
ENDBRANCH  14  15
ENDBRANCH  12  14
ENDBRANCH   9  10
ENDBRANCH   1   9
TORSDOF 10
ENDMDL
MODEL 2
REMARK VINA RESULT:    -4.488      5.164      9.173
REMARK INTER + INTRA:          -8.505
REMARK INTER:                  -7.589
REMARK INTRA:                  -0.916
REMARK UNBOUND:                -1.525
REMARK SMILES COc1cc(CNC(=O)CCCCC=CC(C)C)ccc1O
REMARK SMILES IDX 11 1 12 2 13 3 14 4 15 5 16 6 17 7 18 8 10 9 8 10 9 11 7 12
REMARK SMILES IDX 6 14 5 15 4 16 19 17 3 18 20 19 21 20 2 21 1 22 22 23
REMARK H PARENT 7 13 22 24
REMARK Flexibility Score: inf
ROOT
ATOM      1  C   UNL     1      -0.456   6.877  -7.817  1.00  0.00     0.010 C 
ENDROOT
BRANCH   1   2
ATOM      2  C   UNL     1      -0.003   5.557  -8.467  1.00  0.00     0.005 C 
BRANCH   2   3
ATOM      3  C   UNL     1       1.241   4.929  -7.809  1.00  0.00     0.027 C 
BRANCH   3   4
ATOM      4  C   UNL     1       2.402   4.802  -8.763  1.00  0.00    -0.031 C 
ATOM      5  C   UNL     1       3.580   5.445  -8.647  1.00  0.00    -0.028 C 
BRANCH   5   6
ATOM      6  C   UNL     1       3.952   6.402  -7.534  1.00  0.00     0.005 C 
ATOM      7  C   UNL     1       4.889   5.703  -6.546  1.00  0.00     0.012 C 
ATOM      8  C   UNL     1       4.625   7.644  -8.125  1.00  0.00     0.012 C 
ENDBRANCH   5   6
ENDBRANCH   3   4
ENDBRANCH   2   3
ENDBRANCH   1   2
BRANCH   1   9
ATOM      9  C   UNL     1      -1.690   6.702  -6.923  1.00  0.00     0.100 C 
BRANCH   9  10
ATOM     10  C   UNL     1      -1.832   7.871  -5.997  1.00  0.00     0.220 C 
ATOM     11  O   UNL     1      -2.944   8.097  -5.446  1.00  0.00    -0.275 OA
ATOM     12  N   UNL     1      -0.696   8.698  -5.704  1.00  0.00    -0.352 N 
ATOM     13  H   UNL     1       0.226   8.462  -6.133  1.00  0.00     0.163 HD
BRANCH  12  14
ATOM     14  C   UNL     1      -0.772   9.849  -4.807  1.00  0.00     0.151 C 
BRANCH  14  15
ATOM     15  C   UNL     1      -0.050   9.558  -3.519  1.00  0.00    -0.025 A 
ATOM     16  C   UNL     1      -0.677   8.830  -2.495  1.00  0.00     0.056 A 
ATOM     17  C   UNL     1       1.250  10.041  -3.324  1.00  0.00     0.009 A 
ATOM     18  C   UNL     1      -0.007   8.576  -1.282  1.00  0.00     0.160 A 
ATOM     19  C   UNL     1       1.921   9.793  -2.125  1.00  0.00     0.050 A 
ATOM     20  C   UNL     1       1.301   9.066  -1.104  1.00  0.00     0.157 A 
BRANCH  18  21
ATOM     21  O   UNL     1      -0.606   7.851  -0.240  1.00  0.00    -0.493 OA
ATOM     22  C   UNL     1      -1.737   6.999  -0.396  1.00  0.00     0.278 C 
ENDBRANCH  18  21
BRANCH  20  23
ATOM     23  O   UNL     1       2.000   8.838   0.080  1.00  0.00    -0.504 OA
ATOM     24  H   UNL     1       2.906   8.386   0.095  1.00  0.00     0.293 HD
ENDBRANCH  20  23
ENDBRANCH  14  15
ENDBRANCH  12  14
ENDBRANCH   9  10
ENDBRANCH   1   9
TORSDOF 10
ENDMDL
MODEL 3
REMARK VINA RESULT:    -4.446      1.409      2.615
REMARK INTER + INTRA:          -8.440
REMARK INTER:                  -7.115
REMARK INTRA:                  -1.325
REMARK UNBOUND:                -1.525
REMARK SMILES COc1cc(CNC(=O)CCCCC=CC(C)C)ccc1O
REMARK SMILES IDX 11 1 12 2 13 3 14 4 15 5 16 6 17 7 18 8 10 9 8 10 9 11 7 12
REMARK SMILES IDX 6 14 5 15 4 16 19 17 3 18 20 19 21 20 2 21 1 22 22 23
REMARK H PARENT 7 13 22 24
REMARK Flexibility Score: inf
ROOT
ATOM      1  C   UNL     1      -5.322   5.933   2.271  1.00  0.00     0.010 C 
ENDROOT
BRANCH   1   2
ATOM      2  C   UNL     1      -5.604   6.811   1.038  1.00  0.00     0.005 C 
BRANCH   2   3
ATOM      3  C   UNL     1      -6.059   6.021  -0.204  1.00  0.00     0.027 C 
BRANCH   3   4
ATOM      4  C   UNL     1      -5.526   4.610  -0.223  1.00  0.00    -0.031 C 
ATOM      5  C   UNL     1      -6.268   3.494  -0.086  1.00  0.00    -0.028 C 
BRANCH   5   6
ATOM      6  C   UNL     1      -7.770   3.457   0.101  1.00  0.00     0.005 C 
ATOM      7  C   UNL     1      -8.335   2.183  -0.531  1.00  0.00     0.012 C 
ATOM      8  C   UNL     1      -8.105   3.509   1.595  1.00  0.00     0.012 C 
ENDBRANCH   5   6
ENDBRANCH   3   4
ENDBRANCH   2   3
ENDBRANCH   1   2
BRANCH   1   9
ATOM      9  C   UNL     1      -5.127   6.756   3.551  1.00  0.00     0.100 C 
BRANCH   9  10
ATOM     10  C   UNL     1      -3.816   7.481   3.508  1.00  0.00     0.220 C 
ATOM     11  O   UNL     1      -3.776   8.709   3.790  1.00  0.00    -0.275 OA
ATOM     12  N   UNL     1      -2.610   6.769   3.194  1.00  0.00    -0.352 N 
ATOM     13  H   UNL     1      -2.662   5.742   3.013  1.00  0.00     0.163 HD
BRANCH  12  14
ATOM     14  C   UNL     1      -1.304   7.421   3.141  1.00  0.00     0.151 C 
BRANCH  14  15
ATOM     15  C   UNL     1      -0.940   7.747   1.718  1.00  0.00    -0.025 A 
ATOM     16  C   UNL     1      -1.531   7.055   0.650  1.00  0.00     0.056 A 
ATOM     17  C   UNL     1       0.021   8.731   1.452  1.00  0.00     0.009 A 
ATOM     18  C   UNL     1      -1.173   7.346  -0.681  1.00  0.00     0.160 A 
ATOM     19  C   UNL     1       0.381   9.027   0.136  1.00  0.00     0.050 A 
ATOM     20  C   UNL     1      -0.209   8.340  -0.930  1.00  0.00     0.157 A 
BRANCH  18  21
ATOM     21  O   UNL     1      -1.749   6.672  -1.770  1.00  0.00    -0.493 OA
ATOM     22  C   UNL     1      -2.990   7.023  -2.372  1.00  0.00     0.278 C 
ENDBRANCH  18  21
BRANCH  20  23
ATOM     23  O   UNL     1       0.174   8.661  -2.232  1.00  0.00    -0.504 OA
ATOM     24  H   UNL     1      -0.241   8.218  -3.042  1.00  0.00     0.293 HD
ENDBRANCH  20  23
ENDBRANCH  14  15
ENDBRANCH  12  14
ENDBRANCH   9  10
ENDBRANCH   1   9
TORSDOF 10
ENDMDL
MODEL 4
REMARK VINA RESULT:    -4.374     13.867     15.961
REMARK INTER + INTRA:          -8.328
REMARK INTER:                  -6.235
REMARK INTRA:                  -2.093
REMARK UNBOUND:                -1.525
REMARK SMILES COc1cc(CNC(=O)CCCCC=CC(C)C)ccc1O
REMARK SMILES IDX 11 1 12 2 13 3 14 4 15 5 16 6 17 7 18 8 10 9 8 10 9 11 7 12
REMARK SMILES IDX 6 14 5 15 4 16 19 17 3 18 20 19 21 20 2 21 1 22 22 23
REMARK H PARENT 7 13 22 24
REMARK Flexibility Score: inf
ROOT
ATOM      1  C   UNL     1       8.419  -1.179  -4.135  1.00  0.00     0.010 C 
ENDROOT
BRANCH   1   2
ATOM      2  C   UNL     1       8.828  -2.561  -3.593  1.00  0.00     0.005 C 
BRANCH   2   3
ATOM      3  C   UNL     1       7.695  -3.309  -2.865  1.00  0.00     0.027 C 
BRANCH   3   4
ATOM      4  C   UNL     1       6.380  -3.230  -3.600  1.00  0.00    -0.031 C 
ATOM      5  C   UNL     1       5.803  -4.242  -4.277  1.00  0.00    -0.028 C 
BRANCH   5   6
ATOM      6  C   UNL     1       6.367  -5.640  -4.414  1.00  0.00     0.005 C 
ATOM      7  C   UNL     1       5.243  -6.614  -4.775  1.00  0.00     0.012 C 
ATOM      8  C   UNL     1       7.456  -5.655  -5.490  1.00  0.00     0.012 C 
ENDBRANCH   5   6
ENDBRANCH   3   4
ENDBRANCH   2   3
ENDBRANCH   1   2
BRANCH   1   9
ATOM      9  C   UNL     1       9.019  -0.885  -5.516  1.00  0.00     0.100 C 
BRANCH   9  10
ATOM     10  C   UNL     1       8.581  -1.923  -6.504  1.00  0.00     0.220 C 
ATOM     11  O   UNL     1       9.424  -2.742  -6.960  1.00  0.00    -0.275 OA
ATOM     12  N   UNL     1       7.202  -2.011  -6.892  1.00  0.00    -0.352 N 
ATOM     13  H   UNL     1       6.513  -1.353  -6.463  1.00  0.00     0.163 HD
BRANCH  12  14
ATOM     14  C   UNL     1       6.716  -3.003  -7.848  1.00  0.00     0.151 C 
BRANCH  14  15
ATOM     15  C   UNL     1       5.245  -3.247  -7.646  1.00  0.00    -0.025 A 
ATOM     16  C   UNL     1       4.392  -2.203  -7.256  1.00  0.00     0.056 A 
ATOM     17  C   UNL     1       4.722  -4.535  -7.818  1.00  0.00     0.009 A 
ATOM     18  C   UNL     1       3.018  -2.438  -7.047  1.00  0.00     0.160 A 
ATOM     19  C   UNL     1       3.362  -4.776  -7.613  1.00  0.00     0.050 A 
ATOM     20  C   UNL     1       2.509  -3.737  -7.228  1.00  0.00     0.157 A 
BRANCH  18  21
ATOM     21  O   UNL     1       2.140  -1.414  -6.658  1.00  0.00    -0.493 OA
ATOM     22  C   UNL     1       1.724  -0.344  -7.502  1.00  0.00     0.278 C 
ENDBRANCH  18  21
BRANCH  20  23
ATOM     23  O   UNL     1       1.157  -4.014  -7.031  1.00  0.00    -0.504 OA
ATOM     24  H   UNL     1       0.631  -4.612  -7.656  1.00  0.00     0.293 HD
ENDBRANCH  20  23
ENDBRANCH  14  15
ENDBRANCH  12  14
ENDBRANCH   9  10
ENDBRANCH   1   9
TORSDOF 10
ENDMDL
MODEL 5
REMARK VINA RESULT:    -4.354     13.403     15.655
REMARK INTER + INTRA:          -8.297
REMARK INTER:                  -7.060
REMARK INTRA:                  -1.237
REMARK UNBOUND:                -1.525
REMARK SMILES COc1cc(CNC(=O)CCCCC=CC(C)C)ccc1O
REMARK SMILES IDX 11 1 12 2 13 3 14 4 15 5 16 6 17 7 18 8 10 9 8 10 9 11 7 12
REMARK SMILES IDX 6 14 5 15 4 16 19 17 3 18 20 19 21 20 2 21 1 22 22 23
REMARK H PARENT 7 13 22 24
REMARK Flexibility Score: inf
ROOT
ATOM      1  C   UNL     1       6.291  -5.794  -4.966  1.00  0.00     0.010 C 
ENDROOT
BRANCH   1   2
ATOM      2  C   UNL     1       6.248  -4.936  -3.689  1.00  0.00     0.005 C 
BRANCH   2   3
ATOM      3  C   UNL     1       5.893  -3.457  -3.940  1.00  0.00     0.027 C 
BRANCH   3   4
ATOM      4  C   UNL     1       6.761  -2.509  -3.151  1.00  0.00    -0.031 C 
ATOM      5  C   UNL     1       7.788  -1.794  -3.650  1.00  0.00    -0.028 C 
BRANCH   5   6
ATOM      6  C   UNL     1       8.248  -1.808  -5.093  1.00  0.00     0.005 C 
ATOM      7  C   UNL     1       8.860  -0.451  -5.450  1.00  0.00     0.012 C 
ATOM      8  C   UNL     1       9.271  -2.929  -5.297  1.00  0.00     0.012 C 
ENDBRANCH   5   6
ENDBRANCH   3   4
ENDBRANCH   2   3
ENDBRANCH   1   2
BRANCH   1   9
ATOM      9  C   UNL     1       5.353  -7.006  -4.896  1.00  0.00     0.100 C 
BRANCH   9  10
ATOM     10  C   UNL     1       4.129  -6.765  -5.725  1.00  0.00     0.220 C 
ATOM     11  O   UNL     1       3.223  -7.642  -5.765  1.00  0.00    -0.275 OA
ATOM     12  N   UNL     1       3.969  -5.525  -6.429  1.00  0.00    -0.352 N 
ATOM     13  H   UNL     1       4.710  -4.794  -6.340  1.00  0.00     0.163 HD
BRANCH  12  14
ATOM     14  C   UNL     1       2.797  -5.231  -7.250  1.00  0.00     0.151 C 
BRANCH  14  15
ATOM     15  C   UNL     1       2.544  -3.748  -7.291  1.00  0.00    -0.025 A 
ATOM     16  C   UNL     1       1.317  -3.244  -7.749  1.00  0.00     0.056 A 
ATOM     17  C   UNL     1       3.551  -2.858  -6.896  1.00  0.00     0.009 A 
ATOM     18  C   UNL     1       1.090  -1.854  -7.807  1.00  0.00     0.160 A 
ATOM     19  C   UNL     1       3.333  -1.480  -6.950  1.00  0.00     0.050 A 
ATOM     20  C   UNL     1       2.111  -0.974  -7.403  1.00  0.00     0.157 A 
BRANCH  18  21
ATOM     21  O   UNL     1      -0.127  -1.319  -8.259  1.00  0.00    -0.493 OA
ATOM     22  C   UNL     1      -1.012  -1.975  -9.161  1.00  0.00     0.278 C 
ENDBRANCH  18  21
BRANCH  20  23
ATOM     23  O   UNL     1       1.928   0.408  -7.444  1.00  0.00    -0.504 OA
ATOM     24  H   UNL     1       2.327   0.984  -8.175  1.00  0.00     0.293 HD
ENDBRANCH  20  23
ENDBRANCH  14  15
ENDBRANCH  12  14
ENDBRANCH   9  10
ENDBRANCH   1   9
TORSDOF 10
ENDMDL
MODEL 6
REMARK VINA RESULT:    -4.307     14.865     16.222
REMARK INTER + INTRA:          -8.225
REMARK INTER:                  -6.720
REMARK INTRA:                  -1.505
REMARK UNBOUND:                -1.525
REMARK SMILES COc1cc(CNC(=O)CCCCC=CC(C)C)ccc1O
REMARK SMILES IDX 11 1 12 2 13 3 14 4 15 5 16 6 17 7 18 8 10 9 8 10 9 11 7 12
REMARK SMILES IDX 6 14 5 15 4 16 19 17 3 18 20 19 21 20 2 21 1 22 22 23
REMARK H PARENT 7 13 22 24
REMARK Flexibility Score: inf
ROOT
ATOM      1  C   UNL     1       2.561  -8.338  -7.575  1.00  0.00     0.010 C 
ENDROOT
BRANCH   1   2
ATOM      2  C   UNL     1       1.430  -7.349  -7.909  1.00  0.00     0.005 C 
BRANCH   2   3
ATOM      3  C   UNL     1       1.674  -5.919  -7.391  1.00  0.00     0.027 C 
BRANCH   3   4
ATOM      4  C   UNL     1       2.600  -5.127  -8.281  1.00  0.00    -0.031 C 
ATOM      5  C   UNL     1       2.693  -3.784  -8.312  1.00  0.00    -0.028 C 
BRANCH   5   6
ATOM      6  C   UNL     1       1.891  -2.829  -7.452  1.00  0.00     0.005 C 
ATOM      7  C   UNL     1       2.776  -1.654  -7.027  1.00  0.00     0.012 C 
ATOM      8  C   UNL     1       0.673  -2.329  -8.234  1.00  0.00     0.012 C 
ENDBRANCH   5   6
ENDBRANCH   3   4
ENDBRANCH   2   3
ENDBRANCH   1   2
BRANCH   1   9
ATOM      9  C   UNL     1       2.318  -9.090  -6.260  1.00  0.00     0.100 C 
BRANCH   9  10
ATOM     10  C   UNL     1       3.426  -8.812  -5.290  1.00  0.00     0.220 C 
ATOM     11  O   UNL     1       3.766  -9.701  -4.463  1.00  0.00    -0.275 OA
ATOM     12  N   UNL     1       4.125  -7.559  -5.336  1.00  0.00    -0.352 N 
ATOM     13  H   UNL     1       3.858  -6.857  -6.062  1.00  0.00     0.163 HD
BRANCH  12  14
ATOM     14  C   UNL     1       5.215  -7.233  -4.419  1.00  0.00     0.151 C 
BRANCH  14  15
ATOM     15  C   UNL     1       5.629  -5.796  -4.588  1.00  0.00    -0.025 A 
ATOM     16  C   UNL     1       6.440  -5.167  -3.631  1.00  0.00     0.056 A 
ATOM     17  C   UNL     1       5.177  -5.066  -5.695  1.00  0.00     0.009 A 
ATOM     18  C   UNL     1       6.810  -3.815  -3.780  1.00  0.00     0.160 A 
ATOM     19  C   UNL     1       5.539  -3.726  -5.850  1.00  0.00     0.050 A 
ATOM     20  C   UNL     1       6.350  -3.098  -4.900  1.00  0.00     0.157 A 
BRANCH  18  21
ATOM     21  O   UNL     1       7.622  -3.160  -2.841  1.00  0.00    -0.493 OA
ATOM     22  C   UNL     1       8.901  -3.621  -2.418  1.00  0.00     0.278 C 
ENDBRANCH  18  21
BRANCH  20  23
ATOM     23  O   UNL     1       6.691  -1.759  -5.086  1.00  0.00    -0.504 OA
ATOM     24  H   UNL     1       6.224  -1.008  -4.593  1.00  0.00     0.293 HD
ENDBRANCH  20  23
ENDBRANCH  14  15
ENDBRANCH  12  14
ENDBRANCH   9  10
ENDBRANCH   1   9
TORSDOF 10
ENDMDL
MODEL 7
REMARK VINA RESULT:    -4.305     13.841     15.869
REMARK INTER + INTRA:          -8.220
REMARK INTER:                  -6.768
REMARK INTRA:                  -1.453
REMARK UNBOUND:                -1.525
REMARK SMILES COc1cc(CNC(=O)CCCCC=CC(C)C)ccc1O
REMARK SMILES IDX 11 1 12 2 13 3 14 4 15 5 16 6 17 7 18 8 10 9 8 10 9 11 7 12
REMARK SMILES IDX 6 14 5 15 4 16 19 17 3 18 20 19 21 20 2 21 1 22 22 23
REMARK H PARENT 7 13 22 24
REMARK Flexibility Score: inf
ROOT
ATOM      1  C   UNL     1       5.095  -7.652  -5.694  1.00  0.00     0.010 C 
ENDROOT
BRANCH   1   2
ATOM      2  C   UNL     1       5.660  -7.321  -4.301  1.00  0.00     0.005 C 
BRANCH   2   3
ATOM      3  C   UNL     1       5.845  -5.813  -4.041  1.00  0.00     0.027 C 
BRANCH   3   4
ATOM      4  C   UNL     1       6.259  -5.057  -5.279  1.00  0.00    -0.031 C 
ATOM      5  C   UNL     1       6.710  -3.787  -5.302  1.00  0.00    -0.028 C 
BRANCH   5   6
ATOM      6  C   UNL     1       6.890  -2.897  -4.091  1.00  0.00     0.005 C 
ATOM      7  C   UNL     1       8.004  -1.883  -4.360  1.00  0.00     0.012 C 
ATOM      8  C   UNL     1       5.574  -2.180  -3.777  1.00  0.00     0.012 C 
ENDBRANCH   5   6
ENDBRANCH   3   4
ENDBRANCH   2   3
ENDBRANCH   1   2
BRANCH   1   9
ATOM      9  C   UNL     1       3.604  -8.009  -5.657  1.00  0.00     0.100 C 
BRANCH   9  10
ATOM     10  C   UNL     1       2.856  -7.228  -6.693  1.00  0.00     0.220 C 
ATOM     11  O   UNL     1       1.643  -7.494  -6.917  1.00  0.00    -0.275 OA
ATOM     12  N   UNL     1       3.503  -6.154  -7.391  1.00  0.00    -0.352 N 
ATOM     13  H   UNL     1       4.493  -5.920  -7.153  1.00  0.00     0.163 HD
BRANCH  12  14
ATOM     14  C   UNL     1       2.824  -5.355  -8.408  1.00  0.00     0.151 C 
BRANCH  14  15
ATOM     15  C   UNL     1       2.602  -3.952  -7.910  1.00  0.00    -0.025 A 
ATOM     16  C   UNL     1       1.404  -3.275  -8.186  1.00  0.00     0.056 A 
ATOM     17  C   UNL     1       3.611  -3.300  -7.189  1.00  0.00     0.009 A 
ATOM     18  C   UNL     1       1.207  -1.954  -7.737  1.00  0.00     0.160 A 
ATOM     19  C   UNL     1       3.423  -1.992  -6.741  1.00  0.00     0.050 A 
ATOM     20  C   UNL     1       2.229  -1.316  -7.011  1.00  0.00     0.157 A 
BRANCH  18  21
ATOM     21  O   UNL     1       0.019  -1.252  -7.996  1.00  0.00    -0.493 OA
ATOM     22  C   UNL     1      -0.611  -1.172  -9.271  1.00  0.00     0.278 C 
ENDBRANCH  18  21
BRANCH  20  23
ATOM     23  O   UNL     1       2.075  -0.009  -6.548  1.00  0.00    -0.504 OA
ATOM     24  H   UNL     1       2.178   0.233  -5.571  1.00  0.00     0.293 HD
ENDBRANCH  20  23
ENDBRANCH  14  15
ENDBRANCH  12  14
ENDBRANCH   9  10
ENDBRANCH   1   9
TORSDOF 10
ENDMDL
MODEL 8
REMARK VINA RESULT:    -4.234     14.451     15.919
REMARK INTER + INTRA:          -8.110
REMARK INTER:                  -6.601
REMARK INTRA:                  -1.509
REMARK UNBOUND:                -1.525
REMARK SMILES COc1cc(CNC(=O)CCCCC=CC(C)C)ccc1O
REMARK SMILES IDX 11 1 12 2 13 3 14 4 15 5 16 6 17 7 18 8 10 9 8 10 9 11 7 12
REMARK SMILES IDX 6 14 5 15 4 16 19 17 3 18 20 19 21 20 2 21 1 22 22 23
REMARK H PARENT 7 13 22 24
REMARK Flexibility Score: inf
ROOT
ATOM      1  C   UNL     1       1.331  -7.128  -7.338  1.00  0.00     0.010 C 
ENDROOT
BRANCH   1   2
ATOM      2  C   UNL     1       1.598  -6.624  -8.767  1.00  0.00     0.005 C 
BRANCH   2   3
ATOM      3  C   UNL     1       1.872  -5.110  -8.857  1.00  0.00     0.027 C 
BRANCH   3   4
ATOM      4  C   UNL     1       1.935  -4.449  -7.503  1.00  0.00    -0.031 C 
ATOM      5  C   UNL     1       1.851  -3.123  -7.278  1.00  0.00    -0.028 C 
BRANCH   5   6
ATOM      6  C   UNL     1       1.666  -2.062  -8.343  1.00  0.00     0.005 C 
ATOM      7  C   UNL     1       0.176  -1.763  -8.517  1.00  0.00     0.012 C 
ATOM      8  C   UNL     1       2.426  -0.793  -7.943  1.00  0.00     0.012 C 
ENDBRANCH   5   6
ENDBRANCH   3   4
ENDBRANCH   2   3
ENDBRANCH   1   2
BRANCH   1   9
ATOM      9  C   UNL     1       1.965  -8.498  -7.066  1.00  0.00     0.100 C 
BRANCH   9  10
ATOM     10  C   UNL     1       3.041  -8.377  -6.030  1.00  0.00     0.220 C 
ATOM     11  O   UNL     1       3.331  -9.375  -5.316  1.00  0.00    -0.275 OA
ATOM     12  N   UNL     1       3.766  -7.147  -5.887  1.00  0.00    -0.352 N 
ATOM     13  H   UNL     1       3.542  -6.350  -6.523  1.00  0.00     0.163 HD
BRANCH  12  14
ATOM     14  C   UNL     1       4.827  -6.971  -4.898  1.00  0.00     0.151 C 
BRANCH  14  15
ATOM     15  C   UNL     1       5.355  -5.562  -4.942  1.00  0.00    -0.025 A 
ATOM     16  C   UNL     1       5.116  -4.742  -6.055  1.00  0.00     0.056 A 
ATOM     17  C   UNL     1       6.119  -5.070  -3.876  1.00  0.00     0.009 A 
ATOM     18  C   UNL     1       5.628  -3.430  -6.105  1.00  0.00     0.160 A 
ATOM     19  C   UNL     1       6.630  -3.771  -3.916  1.00  0.00     0.050 A 
ATOM     20  C   UNL     1       6.390  -2.951  -5.023  1.00  0.00     0.157 A 
BRANCH  18  21
ATOM     21  O   UNL     1       5.404  -2.586  -7.204  1.00  0.00    -0.493 OA
ATOM     22  C   UNL     1       5.412  -3.011  -8.563  1.00  0.00     0.278 C 
ENDBRANCH  18  21
BRANCH  20  23
ATOM     23  O   UNL     1       6.916  -1.659  -5.030  1.00  0.00    -0.504 OA
ATOM     24  H   UNL     1       6.745  -1.002  -4.280  1.00  0.00     0.293 HD
ENDBRANCH  20  23
ENDBRANCH  14  15
ENDBRANCH  12  14
ENDBRANCH   9  10
ENDBRANCH   1   9
TORSDOF 10
ENDMDL
MODEL 9
REMARK VINA RESULT:    -4.149     13.729     15.503
REMARK INTER + INTRA:          -7.978
REMARK INTER:                  -6.437
REMARK INTRA:                  -1.541
REMARK UNBOUND:                -1.525
REMARK SMILES COc1cc(CNC(=O)CCCCC=CC(C)C)ccc1O
REMARK SMILES IDX 11 1 12 2 13 3 14 4 15 5 16 6 17 7 18 8 10 9 8 10 9 11 7 12
REMARK SMILES IDX 6 14 5 15 4 16 19 17 3 18 20 19 21 20 2 21 1 22 22 23
REMARK H PARENT 7 13 22 24
REMARK Flexibility Score: inf
ROOT
ATOM      1  C   UNL     1       6.877  -4.415  -3.859  1.00  0.00     0.010 C 
ENDROOT
BRANCH   1   2
ATOM      2  C   UNL     1       5.857  -5.552  -3.668  1.00  0.00     0.005 C 
BRANCH   2   3
ATOM      3  C   UNL     1       6.062  -6.744  -4.622  1.00  0.00     0.027 C 
BRANCH   3   4
ATOM      4  C   UNL     1       4.786  -7.505  -4.886  1.00  0.00    -0.031 C 
ATOM      5  C   UNL     1       3.829  -7.142  -5.761  1.00  0.00    -0.028 C 
BRANCH   5   6
ATOM      6  C   UNL     1       3.867  -5.911  -6.643  1.00  0.00     0.005 C 
ATOM      7  C   UNL     1       4.727  -6.190  -7.877  1.00  0.00     0.012 C 
ATOM      8  C   UNL     1       2.442  -5.529  -7.057  1.00  0.00     0.012 C 
ENDBRANCH   5   6
ENDBRANCH   3   4
ENDBRANCH   2   3
ENDBRANCH   1   2
BRANCH   1   9
ATOM      9  C   UNL     1       6.216  -3.087  -4.247  1.00  0.00     0.100 C 
BRANCH   9  10
ATOM     10  C   UNL     1       6.006  -3.023  -5.729  1.00  0.00     0.220 C 
ATOM     11  O   UNL     1       6.817  -3.610  -6.497  1.00  0.00    -0.275 OA
ATOM     12  N   UNL     1       4.864  -2.340  -6.266  1.00  0.00    -0.352 N 
ATOM     13  H   UNL     1       4.180  -1.904  -5.607  1.00  0.00     0.163 HD
BRANCH  12  14
ATOM     14  C   UNL     1       4.606  -2.248  -7.701  1.00  0.00     0.151 C 
BRANCH  14  15
ATOM     15  C   UNL     1       3.141  -2.014  -7.954  1.00  0.00    -0.025 A 
ATOM     16  C   UNL     1       2.502  -2.603  -9.056  1.00  0.00     0.056 A 
ATOM     17  C   UNL     1       2.410  -1.177  -7.102  1.00  0.00     0.009 A 
ATOM     18  C   UNL     1       1.135  -2.367  -9.305  1.00  0.00     0.160 A 
ATOM     19  C   UNL     1       1.056  -0.937  -7.341  1.00  0.00     0.050 A 
ATOM     20  C   UNL     1       0.416  -1.525  -8.436  1.00  0.00     0.157 A 
BRANCH  18  21
ATOM     21  O   UNL     1       0.468  -2.943 -10.397  1.00  0.00    -0.493 OA
ATOM     22  C   UNL     1      -0.106  -4.246 -10.397  1.00  0.00     0.278 C 
ENDBRANCH  18  21
BRANCH  20  23
ATOM     23  O   UNL     1      -0.938  -1.264  -8.644  1.00  0.00    -0.504 OA
ATOM     24  H   UNL     1      -1.265  -0.681  -9.405  1.00  0.00     0.293 HD
ENDBRANCH  20  23
ENDBRANCH  14  15
ENDBRANCH  12  14
ENDBRANCH   9  10
ENDBRANCH   1   9
TORSDOF 10
ENDMDL
