MODEL 1
REMARK VINA RESULT:    -4.580      0.000      0.000
REMARK INTER + INTRA:          -7.730
REMARK INTER:                  -7.257
REMARK INTRA:                  -0.473
REMARK UNBOUND:                -0.473
REMARK SMILES CCCCCCCCCCCC(=O)[O-]
REMARK SMILES IDX 7 1 8 2 9 3 10 4 11 5 12 6 13 7 14 8 6 9 5 10 4 11 3 12 2 13
REMARK SMILES IDX 1 14
REMARK H PARENT
REMARK Flexibility Score: inf
ROOT
ATOM      1  C   UNL     1     -30.904 -21.732 -21.686  1.00  0.00     0.000 C 
ENDROOT
BRANCH   1   2
ATOM      2  C   UNL     1     -30.479 -23.101 -21.132  1.00  0.00     0.000 C 
BRANCH   2   3
ATOM      3  C   UNL     1     -29.027 -23.112 -20.630  1.00  0.00     0.000 C 
BRANCH   3   4
ATOM      4  C   UNL     1     -28.873 -22.438 -19.255  1.00  0.00     0.006 C 
BRANCH   4   5
ATOM      5  C   UNL     1     -27.662 -22.973 -18.480  1.00  0.00     0.053 C 
BRANCH   5   6
ATOM      6  C   UNL     1     -27.871 -22.895 -16.998  1.00  0.00     0.041 C 
ATOM      7  O   UNL     1     -29.030 -22.744 -16.528  1.00  0.00    -0.550 OA
ATOM      8  O   UNL     1     -26.783 -22.958 -16.136  1.00  0.00    -0.550 OA
ENDBRANCH   5   6
ENDBRANCH   4   5
ENDBRANCH   3   4
ENDBRANCH   2   3
ENDBRANCH   1   2
BRANCH   1   9
ATOM      9  C   UNL     1     -31.289 -21.782 -23.175  1.00  0.00     0.000 C 
BRANCH   9  10
ATOM     10  C   UNL     1     -32.010 -20.510 -23.670  1.00  0.00    -0.000 C 
BRANCH  10  11
ATOM     11  C   UNL     1     -31.333 -19.902 -24.912  1.00  0.00    -0.000 C 
BRANCH  11  12
ATOM     12  C   UNL     1     -30.290 -20.854 -25.535  1.00  0.00    -0.000 C 
BRANCH  12  13
ATOM     13  C   UNL     1     -30.626 -21.279 -26.974  1.00  0.00    -0.003 C 
ATOM     14  C   UNL     1     -31.510 -22.522 -27.040  1.00  0.00     0.004 C 
ENDBRANCH  12  13
ENDBRANCH  11  12
ENDBRANCH  10  11
ENDBRANCH   9  10
ENDBRANCH   1   9
TORSDOF 10
ENDMDL
MODEL 2
REMARK VINA RESULT:    -4.472      0.887      1.353
REMARK INTER + INTRA:          -7.560
REMARK INTER:                  -7.024
REMARK INTRA:                  -0.536
REMARK UNBOUND:                -0.473
REMARK SMILES CCCCCCCCCCCC(=O)[O-]
REMARK SMILES IDX 7 1 8 2 9 3 10 4 11 5 12 6 13 7 14 8 6 9 5 10 4 11 3 12 2 13
REMARK SMILES IDX 1 14
REMARK H PARENT
REMARK Flexibility Score: inf
ROOT
ATOM      1  C   UNL     1     -30.959 -20.627 -20.940  1.00  0.00     0.000 C 
ENDROOT
BRANCH   1   2
ATOM      2  C   UNL     1     -29.609 -21.316 -21.199  1.00  0.00     0.000 C 
BRANCH   2   3
ATOM      3  C   UNL     1     -29.611 -22.797 -20.789  1.00  0.00     0.000 C 
BRANCH   3   4
ATOM      4  C   UNL     1     -28.520 -23.125 -19.755  1.00  0.00     0.006 C 
BRANCH   4   5
ATOM      5  C   UNL     1     -28.448 -22.076 -18.637  1.00  0.00     0.053 C 
BRANCH   5   6
ATOM      6  C   UNL     1     -28.202 -22.704 -17.299  1.00  0.00     0.041 C 
ATOM      7  O   UNL     1     -27.026 -22.916 -16.905  1.00  0.00    -0.550 OA
ATOM      8  O   UNL     1     -29.274 -23.083 -16.500  1.00  0.00    -0.550 OA
ENDBRANCH   5   6
ENDBRANCH   4   5
ENDBRANCH   3   4
ENDBRANCH   2   3
ENDBRANCH   1   2
BRANCH   1   9
ATOM      9  C   UNL     1     -32.079 -21.143 -21.860  1.00  0.00     0.000 C 
BRANCH   9  10
ATOM     10  C   UNL     1     -32.057 -20.517 -23.270  1.00  0.00    -0.000 C 
BRANCH  10  11
ATOM     11  C   UNL     1     -31.361 -21.424 -24.301  1.00  0.00    -0.000 C 
BRANCH  11  12
ATOM     12  C   UNL     1     -30.430 -20.632 -25.244  1.00  0.00    -0.000 C 
BRANCH  12  13
ATOM     13  C   UNL     1     -30.769 -20.807 -26.734  1.00  0.00    -0.003 C 
ATOM     14  C   UNL     1     -31.030 -22.260 -27.122  1.00  0.00     0.004 C 
ENDBRANCH  12  13
ENDBRANCH  11  12
ENDBRANCH  10  11
ENDBRANCH   9  10
ENDBRANCH   1   9
TORSDOF 10
ENDMDL
MODEL 3
REMARK VINA RESULT:    -4.016      4.079      7.707
REMARK INTER + INTRA:          -6.837
REMARK INTER:                  -6.233
REMARK INTRA:                  -0.604
REMARK UNBOUND:                -0.473
REMARK SMILES CCCCCCCCCCCC(=O)[O-]
REMARK SMILES IDX 7 1 8 2 9 3 10 4 11 5 12 6 13 7 14 8 6 9 5 10 4 11 3 12 2 13
REMARK SMILES IDX 1 14
REMARK H PARENT
REMARK Flexibility Score: inf
ROOT
ATOM      1  C   UNL     1     -29.962 -21.095 -20.764  1.00  0.00     0.000 C 
ENDROOT
BRANCH   1   2
ATOM      2  C   UNL     1     -31.314 -20.685 -21.370  1.00  0.00     0.000 C 
BRANCH   2   3
ATOM      3  C   UNL     1     -31.715 -21.559 -22.570  1.00  0.00     0.000 C 
BRANCH   3   4
ATOM      4  C   UNL     1     -32.151 -20.725 -23.787  1.00  0.00     0.006 C 
BRANCH   4   5
ATOM      5  C   UNL     1     -30.976 -20.404 -24.720  1.00  0.00     0.053 C 
BRANCH   5   6
ATOM      6  C   UNL     1     -31.024 -21.220 -25.977  1.00  0.00     0.041 C 
ATOM      7  O   UNL     1     -31.770 -22.231 -26.048  1.00  0.00    -0.550 OA
ATOM      8  O   UNL     1     -30.221 -20.881 -27.059  1.00  0.00    -0.550 OA
ENDBRANCH   5   6
ENDBRANCH   4   5
ENDBRANCH   3   4
ENDBRANCH   2   3
ENDBRANCH   1   2
BRANCH   1   9
ATOM      9  C   UNL     1     -29.374 -22.359 -21.414  1.00  0.00     0.000 C 
BRANCH   9  10
ATOM     10  C   UNL     1     -28.320 -23.071 -20.540  1.00  0.00    -0.000 C 
BRANCH  10  11
ATOM     11  C   UNL     1     -28.732 -23.125 -19.057  1.00  0.00    -0.000 C 
BRANCH  11  12
ATOM     12  C   UNL     1     -27.692 -22.451 -18.137  1.00  0.00    -0.000 C 
BRANCH  12  13
ATOM     13  C   UNL     1     -27.850 -22.823 -16.653  1.00  0.00    -0.003 C 
ATOM     14  C   UNL     1     -29.308 -22.902 -16.208  1.00  0.00     0.004 C 
ENDBRANCH  12  13
ENDBRANCH  11  12
ENDBRANCH  10  11
ENDBRANCH   9  10
ENDBRANCH   1   9
TORSDOF 10
ENDMDL
MODEL 4
REMARK VINA RESULT:    -3.867      1.378      2.535
REMARK INTER + INTRA:          -6.600
REMARK INTER:                  -5.972
REMARK INTRA:                  -0.628
REMARK UNBOUND:                -0.473
REMARK SMILES CCCCCCCCCCCC(=O)[O-]
REMARK SMILES IDX 7 1 8 2 9 3 10 4 11 5 12 6 13 7 14 8 6 9 5 10 4 11 3 12 2 13
REMARK SMILES IDX 1 14
REMARK H PARENT
REMARK Flexibility Score: inf
ROOT
ATOM      1  C   UNL     1     -27.767 -22.374 -22.873  1.00  0.00     0.000 C 
ENDROOT
BRANCH   1   2
ATOM      2  C   UNL     1     -28.477 -22.817 -21.583  1.00  0.00     0.000 C 
BRANCH   2   3
ATOM      3  C   UNL     1     -29.232 -21.668 -20.897  1.00  0.00     0.000 C 
BRANCH   3   4
ATOM      4  C   UNL     1     -28.973 -21.614 -19.381  1.00  0.00     0.006 C 
BRANCH   4   5
ATOM      5  C   UNL     1     -28.371 -22.921 -18.850  1.00  0.00     0.053 C 
BRANCH   5   6
ATOM      6  C   UNL     1     -28.142 -22.867 -17.370  1.00  0.00     0.041 C 
ATOM      7  O   UNL     1     -29.119 -22.806 -16.579  1.00  0.00    -0.550 OA
ATOM      8  O   UNL     1     -26.847 -22.854 -16.864  1.00  0.00    -0.550 OA
ENDBRANCH   5   6
ENDBRANCH   4   5
ENDBRANCH   3   4
ENDBRANCH   2   3
ENDBRANCH   1   2
BRANCH   1   9
ATOM      9  C   UNL     1     -28.494 -21.223 -23.589  1.00  0.00     0.000 C 
BRANCH   9  10
ATOM     10  C   UNL     1     -29.798 -21.658 -24.291  1.00  0.00    -0.000 C 
BRANCH  10  11
ATOM     11  C   UNL     1     -30.404 -20.530 -25.148  1.00  0.00    -0.000 C 
BRANCH  11  12
ATOM     12  C   UNL     1     -31.689 -19.947 -24.522  1.00  0.00    -0.000 C 
BRANCH  12  13
ATOM     13  C   UNL     1     -32.070 -20.595 -23.181  1.00  0.00    -0.003 C 
ATOM     14  C   UNL     1     -32.875 -19.666 -22.275  1.00  0.00     0.004 C 
ENDBRANCH  12  13
ENDBRANCH  11  12
ENDBRANCH  10  11
ENDBRANCH   9  10
ENDBRANCH   1   9
TORSDOF 10
ENDMDL
MODEL 5
REMARK VINA RESULT:    -3.813      3.004      6.875
REMARK INTER + INTRA:          -6.516
REMARK INTER:                  -5.863
REMARK INTRA:                  -0.653
REMARK UNBOUND:                -0.473
REMARK SMILES CCCCCCCCCCCC(=O)[O-]
REMARK SMILES IDX 7 1 8 2 9 3 10 4 11 5 12 6 13 7 14 8 6 9 5 10 4 11 3 12 2 13
REMARK SMILES IDX 1 14
REMARK H PARENT
REMARK Flexibility Score: inf
ROOT
ATOM      1  C   UNL     1     -27.633 -22.360 -23.107  1.00  0.00     0.000 C 
ENDROOT
BRANCH   1   2
ATOM      2  C   UNL     1     -28.627 -21.197 -23.263  1.00  0.00     0.000 C 
BRANCH   2   3
ATOM      3  C   UNL     1     -29.557 -21.371 -24.474  1.00  0.00     0.000 C 
BRANCH   3   4
ATOM      4  C   UNL     1     -31.022 -21.607 -24.064  1.00  0.00     0.006 C 
BRANCH   4   5
ATOM      5  C   UNL     1     -31.756 -20.295 -23.760  1.00  0.00     0.053 C 
BRANCH   5   6
ATOM      6  C   UNL     1     -32.284 -20.263 -22.358  1.00  0.00     0.041 C 
ATOM      7  O   UNL     1     -32.892 -19.246 -21.933  1.00  0.00    -0.550 OA
ATOM      8  O   UNL     1     -32.077 -21.344 -21.510  1.00  0.00    -0.550 OA
ENDBRANCH   5   6
ENDBRANCH   4   5
ENDBRANCH   3   4
ENDBRANCH   2   3
ENDBRANCH   1   2
BRANCH   1   9
ATOM      9  C   UNL     1     -27.784 -23.098 -21.765  1.00  0.00     0.000 C 
BRANCH   9  10
ATOM     10  C   UNL     1     -28.946 -22.570 -20.897  1.00  0.00    -0.000 C 
BRANCH  10  11
ATOM     11  C   UNL     1     -28.899 -23.123 -19.460  1.00  0.00    -0.000 C 
BRANCH  11  12
ATOM     12  C   UNL     1     -28.054 -22.238 -18.520  1.00  0.00    -0.000 C 
BRANCH  12  13
ATOM     13  C   UNL     1     -27.777 -22.883 -17.152  1.00  0.00    -0.003 C 
ATOM     14  C   UNL     1     -29.044 -23.124 -16.335  1.00  0.00     0.004 C 
ENDBRANCH  12  13
ENDBRANCH  11  12
ENDBRANCH  10  11
ENDBRANCH   9  10
ENDBRANCH   1   9
TORSDOF 10
ENDMDL
MODEL 6
REMARK VINA RESULT:    -3.510      4.087      7.556
REMARK INTER + INTRA:          -6.036
REMARK INTER:                  -5.644
REMARK INTRA:                  -0.392
REMARK UNBOUND:                -0.473
REMARK SMILES CCCCCCCCCCCC(=O)[O-]
REMARK SMILES IDX 7 1 8 2 9 3 10 4 11 5 12 6 13 7 14 8 6 9 5 10 4 11 3 12 2 13
REMARK SMILES IDX 1 14
REMARK H PARENT
REMARK Flexibility Score: inf
ROOT
ATOM      1  C   UNL     1     -27.655 -23.042 -22.532  1.00  0.00     0.000 C 
ENDROOT
BRANCH   1   2
ATOM      2  C   UNL     1     -27.650 -21.595 -23.052  1.00  0.00     0.000 C 
BRANCH   2   3
ATOM      3  C   UNL     1     -28.914 -21.250 -23.854  1.00  0.00     0.000 C 
BRANCH   3   4
ATOM      4  C   UNL     1     -30.204 -21.698 -23.145  1.00  0.00     0.006 C 
BRANCH   4   5
ATOM      5  C   UNL     1     -31.453 -21.037 -23.742  1.00  0.00     0.053 C 
BRANCH   5   6
ATOM      6  C   UNL     1     -31.342 -20.875 -25.228  1.00  0.00     0.041 C 
ATOM      7  O   UNL     1     -31.334 -21.887 -25.976  1.00  0.00    -0.550 OA
ATOM      8  O   UNL     1     -31.217 -19.608 -25.784  1.00  0.00    -0.550 OA
ENDBRANCH   5   6
ENDBRANCH   4   5
ENDBRANCH   3   4
ENDBRANCH   2   3
ENDBRANCH   1   2
BRANCH   1   9
ATOM      9  C   UNL     1     -27.666 -23.125 -20.996  1.00  0.00     0.000 C 
BRANCH   9  10
ATOM     10  C   UNL     1     -29.080 -23.035 -20.383  1.00  0.00    -0.000 C 
BRANCH  10  11
ATOM     11  C   UNL     1     -29.143 -22.049 -19.202  1.00  0.00    -0.000 C 
BRANCH  11  12
ATOM     12  C   UNL     1     -27.843 -22.049 -18.370  1.00  0.00    -0.000 C 
BRANCH  12  13
ATOM     13  C   UNL     1     -27.856 -23.054 -17.207  1.00  0.00    -0.003 C 
ATOM     14  C   UNL     1     -26.653 -22.910 -16.277  1.00  0.00     0.004 C 
ENDBRANCH  12  13
ENDBRANCH  11  12
ENDBRANCH  10  11
ENDBRANCH   9  10
ENDBRANCH   1   9
TORSDOF 10
ENDMDL
MODEL 7
REMARK VINA RESULT:    -3.289      3.500      4.691
REMARK INTER + INTRA:          -5.685
REMARK INTER:                  -4.801
REMARK INTRA:                  -0.884
REMARK UNBOUND:                -0.473
REMARK SMILES CCCCCCCCCCCC(=O)[O-]
REMARK SMILES IDX 7 1 8 2 9 3 10 4 11 5 12 6 13 7 14 8 6 9 5 10 4 11 3 12 2 13
REMARK SMILES IDX 1 14
REMARK H PARENT
REMARK Flexibility Score: inf
ROOT
ATOM      1  C   UNL     1     -28.699 -21.906 -21.644  1.00  0.00     0.000 C 
ENDROOT
BRANCH   1   2
ATOM      2  C   UNL     1     -29.536 -23.125 -21.224  1.00  0.00     0.000 C 
BRANCH   2   3
ATOM      3  C   UNL     1     -31.035 -22.805 -21.114  1.00  0.00     0.000 C 
BRANCH   3   4
ATOM      4  C   UNL     1     -31.325 -21.297 -21.214  1.00  0.00     0.006 C 
BRANCH   4   5
ATOM      5  C   UNL     1     -32.415 -20.985 -22.248  1.00  0.00     0.053 C 
BRANCH   5   6
ATOM      6  C   UNL     1     -32.844 -19.550 -22.189  1.00  0.00     0.041 C 
ATOM      7  O   UNL     1     -33.254 -18.968 -23.227  1.00  0.00    -0.550 OA
ATOM      8  O   UNL     1     -32.762 -18.846 -20.993  1.00  0.00    -0.550 OA
ENDBRANCH   5   6
ENDBRANCH   4   5
ENDBRANCH   3   4
ENDBRANCH   2   3
ENDBRANCH   1   2
BRANCH   1   9
ATOM      9  C   UNL     1     -28.031 -22.085 -23.019  1.00  0.00     0.000 C 
BRANCH   9  10
ATOM     10  C   UNL     1     -28.519 -21.075 -24.079  1.00  0.00    -0.000 C 
BRANCH  10  11
ATOM     11  C   UNL     1     -29.972 -21.343 -24.516  1.00  0.00    -0.000 C 
BRANCH  11  12
ATOM     12  C   UNL     1     -30.582 -20.149 -25.280  1.00  0.00    -0.000 C 
BRANCH  12  13
ATOM     13  C   UNL     1     -31.027 -20.495 -26.710  1.00  0.00    -0.003 C 
ATOM     14  C   UNL     1     -30.700 -21.933 -27.107  1.00  0.00     0.004 C 
ENDBRANCH  12  13
ENDBRANCH  11  12
ENDBRANCH  10  11
ENDBRANCH   9  10
ENDBRANCH   1   9
TORSDOF 10
ENDMDL
MODEL 8
REMARK VINA RESULT:    -3.143      4.461      6.806
REMARK INTER + INTRA:          -5.453
REMARK INTER:                  -4.994
REMARK INTRA:                  -0.460
REMARK UNBOUND:                -0.473
REMARK SMILES CCCCCCCCCCCC(=O)[O-]
REMARK SMILES IDX 7 1 8 2 9 3 10 4 11 5 12 6 13 7 14 8 6 9 5 10 4 11 3 12 2 13
REMARK SMILES IDX 1 14
REMARK H PARENT
REMARK Flexibility Score: inf
ROOT
ATOM      1  C   UNL     1     -30.711 -21.388 -21.190  1.00  0.00     0.000 C 
ENDROOT
BRANCH   1   2
ATOM      2  C   UNL     1     -31.800 -21.468 -22.273  1.00  0.00     0.000 C 
BRANCH   2   3
ATOM      3  C   UNL     1     -32.063 -20.113 -22.948  1.00  0.00     0.000 C 
BRANCH   3   4
ATOM      4  C   UNL     1     -31.762 -20.138 -24.457  1.00  0.00     0.006 C 
BRANCH   4   5
ATOM      5  C   UNL     1     -31.534 -21.563 -24.979  1.00  0.00     0.053 C 
BRANCH   5   6
ATOM      6  C   UNL     1     -31.180 -21.573 -26.435  1.00  0.00     0.041 C 
ATOM      7  O   UNL     1     -31.315 -22.625 -27.113  1.00  0.00    -0.550 OA
ATOM      8  O   UNL     1     -30.672 -20.427 -27.037  1.00  0.00    -0.550 OA
ENDBRANCH   5   6
ENDBRANCH   4   5
ENDBRANCH   3   4
ENDBRANCH   2   3
ENDBRANCH   1   2
BRANCH   1   9
ATOM      9  C   UNL     1     -30.596 -22.680 -20.363  1.00  0.00     0.000 C 
BRANCH   9  10
ATOM     10  C   UNL     1     -29.324 -22.744 -19.491  1.00  0.00    -0.000 C 
BRANCH  10  11
ATOM     11  C   UNL     1     -28.072 -23.110 -20.310  1.00  0.00    -0.000 C 
BRANCH  11  12
ATOM     12  C   UNL     1     -28.350 -23.125 -21.828  1.00  0.00    -0.000 C 
BRANCH  12  13
ATOM     13  C   UNL     1     -27.376 -22.258 -22.641  1.00  0.00    -0.003 C 
ATOM     14  C   UNL     1     -28.083 -21.256 -23.552  1.00  0.00     0.004 C 
ENDBRANCH  12  13
ENDBRANCH  11  12
ENDBRANCH  10  11
ENDBRANCH   9  10
ENDBRANCH   1   9
TORSDOF 10
ENDMDL
MODEL 9
REMARK VINA RESULT:    -2.978      4.107      6.106
REMARK INTER + INTRA:          -5.193
REMARK INTER:                  -4.128
REMARK INTRA:                  -1.065
REMARK UNBOUND:                -0.473
REMARK SMILES CCCCCCCCCCCC(=O)[O-]
REMARK SMILES IDX 7 1 8 2 9 3 10 4 11 5 12 6 13 7 14 8 6 9 5 10 4 11 3 12 2 13
REMARK SMILES IDX 1 14
REMARK H PARENT
REMARK Flexibility Score: inf
ROOT
ATOM      1  C   UNL     1     -28.135 -23.125 -20.770  1.00  0.00     0.000 C 
ENDROOT
BRANCH   1   2
ATOM      2  C   UNL     1     -28.440 -23.052 -22.275  1.00  0.00     0.000 C 
BRANCH   2   3
ATOM      3  C   UNL     1     -27.583 -22.005 -23.003  1.00  0.00     0.000 C 
BRANCH   3   4
ATOM      4  C   UNL     1     -28.429 -21.035 -23.847  1.00  0.00     0.006 C 
BRANCH   4   5
ATOM      5  C   UNL     1     -29.776 -21.646 -24.256  1.00  0.00     0.053 C 
BRANCH   5   6
ATOM      6  C   UNL     1     -30.391 -20.915 -25.410  1.00  0.00     0.041 C 
ATOM      7  O   UNL     1     -30.628 -19.682 -25.326  1.00  0.00    -0.550 OA
ATOM      8  O   UNL     1     -30.732 -21.603 -26.569  1.00  0.00    -0.550 OA
ENDBRANCH   5   6
ENDBRANCH   4   5
ENDBRANCH   3   4
ENDBRANCH   2   3
ENDBRANCH   1   2
BRANCH   1   9
ATOM      9  C   UNL     1     -29.296 -22.613 -19.900  1.00  0.00     0.000 C 
BRANCH   9  10
ATOM     10  C   UNL     1     -29.344 -21.075 -19.776  1.00  0.00    -0.000 C 
BRANCH  10  11
ATOM     11  C   UNL     1     -30.325 -20.439 -20.778  1.00  0.00    -0.000 C 
BRANCH  11  12
ATOM     12  C   UNL     1     -31.478 -21.393 -21.155  1.00  0.00    -0.000 C 
BRANCH  12  13
ATOM     13  C   UNL     1     -32.353 -20.877 -22.309  1.00  0.00    -0.003 C 
ATOM     14  C   UNL     1     -32.788 -19.425 -22.127  1.00  0.00     0.004 C 
ENDBRANCH  12  13
ENDBRANCH  11  12
ENDBRANCH  10  11
ENDBRANCH   9  10
ENDBRANCH   1   9
TORSDOF 10
ENDMDL
