MODEL 1
REMARK VINA RESULT:    -5.757      0.000      0.000
REMARK INTER + INTRA:         -12.395
REMARK INTER:                 -11.143
REMARK INTRA:                  -1.253
REMARK UNBOUND:                -1.253
REMARK SMILES CCCCCCCCCCCCCCCCCC(=O)[O-]
REMARK SMILES IDX 10 1 11 2 12 3 13 4 14 5 15 6 16 7 17 8 18 9 19 10 20 11
REMARK SMILES IDX 9 12 8 13 7 14 6 15 5 16 4 17 3 18 2 19 1 20
REMARK H PARENT
REMARK Flexibility Score: inf
ROOT
ATOM      1  C   UNL     1       0.534 -26.715  -0.642  1.00  0.00     0.000 C 
ENDROOT
BRANCH   1   2
ATOM      2  C   UNL     1       1.332 -27.059   0.629  1.00  0.00     0.000 C 
BRANCH   2   3
ATOM      3  C   UNL     1       1.761 -28.534   0.755  1.00  0.00     0.000 C 
BRANCH   3   4
ATOM      4  C   UNL     1       3.242 -28.816   0.441  1.00  0.00     0.000 C 
BRANCH   4   5
ATOM      5  C   UNL     1       4.028 -29.327   1.656  1.00  0.00     0.000 C 
BRANCH   5   6
ATOM      6  C   UNL     1       3.318 -28.947   2.965  1.00  0.00     0.000 C 
BRANCH   6   7
ATOM      7  C   UNL     1       3.702 -29.863   4.138  1.00  0.00     0.006 C 
BRANCH   7   8
ATOM      8  C   UNL     1       2.952 -29.516   5.430  1.00  0.00     0.053 C 
BRANCH   8   9
ATOM      9  C   UNL     1       2.177 -30.700   5.921  1.00  0.00     0.041 C 
ATOM     10  O   UNL     1       2.554 -31.868   5.634  1.00  0.00    -0.550 OA
ATOM     11  O   UNL     1       1.013 -30.514   6.658  1.00  0.00    -0.550 OA
ENDBRANCH   8   9
ENDBRANCH   7   8
ENDBRANCH   6   7
ENDBRANCH   5   6
ENDBRANCH   4   5
ENDBRANCH   3   4
ENDBRANCH   2   3
ENDBRANCH   1   2
BRANCH   1  12
ATOM     12  C   UNL     1      -0.777 -25.975  -0.342  1.00  0.00     0.000 C 
BRANCH  12  13
ATOM     13  C   UNL     1      -1.324 -25.296  -1.607  1.00  0.00    -0.000 C 
BRANCH  13  14
ATOM     14  C   UNL     1      -2.168 -24.045  -1.301  1.00  0.00    -0.000 C 
BRANCH  14  15
ATOM     15  C   UNL     1      -2.165 -23.609   0.175  1.00  0.00    -0.000 C 
BRANCH  15  16
ATOM     16  C   UNL     1      -3.564 -23.656   0.815  1.00  0.00    -0.000 C 
BRANCH  16  17
ATOM     17  C   UNL     1      -4.088 -25.090   0.990  1.00  0.00    -0.000 C 
BRANCH  17  18
ATOM     18  C   UNL     1      -5.316 -25.380   0.107  1.00  0.00    -0.000 C 
BRANCH  18  19
ATOM     19  C   UNL     1      -5.167 -26.677  -0.703  1.00  0.00    -0.003 C 
ATOM     20  C   UNL     1      -4.863 -26.424  -2.179  1.00  0.00     0.004 C 
ENDBRANCH  18  19
ENDBRANCH  17  18
ENDBRANCH  16  17
ENDBRANCH  15  16
ENDBRANCH  14  15
ENDBRANCH  13  14
ENDBRANCH  12  13
ENDBRANCH   1  12
TORSDOF 16
ENDMDL
MODEL 2
REMARK VINA RESULT:    -5.688      1.225      2.534
REMARK INTER + INTRA:         -12.260
REMARK INTER:                 -11.069
REMARK INTRA:                  -1.191
REMARK UNBOUND:                -1.253
REMARK SMILES CCCCCCCCCCCCCCCCCC(=O)[O-]
REMARK SMILES IDX 10 1 11 2 12 3 13 4 14 5 15 6 16 7 17 8 18 9 19 10 20 11
REMARK SMILES IDX 9 12 8 13 7 14 6 15 5 16 4 17 3 18 2 19 1 20
REMARK H PARENT
REMARK Flexibility Score: inf
ROOT
ATOM      1  C   UNL     1       2.336 -28.267  -0.142  1.00  0.00     0.000 C 
ENDROOT
BRANCH   1   2
ATOM      2  C   UNL     1       3.455 -28.826   0.755  1.00  0.00     0.000 C 
BRANCH   2   3
ATOM      3  C   UNL     1       3.102 -28.935   2.252  1.00  0.00     0.000 C 
BRANCH   3   4
ATOM      4  C   UNL     1       4.150 -29.653   3.122  1.00  0.00     0.000 C 
BRANCH   4   5
ATOM      5  C   UNL     1       3.876 -31.156   3.276  1.00  0.00     0.000 C 
BRANCH   5   6
ATOM      6  C   UNL     1       4.681 -31.741   4.446  1.00  0.00     0.000 C 
BRANCH   6   7
ATOM      7  C   UNL     1       4.200 -31.232   5.814  1.00  0.00     0.006 C 
BRANCH   7   8
ATOM      8  C   UNL     1       2.701 -31.468   6.040  1.00  0.00     0.053 C 
BRANCH   8   9
ATOM      9  C   UNL     1       2.000 -30.172   6.308  1.00  0.00     0.041 C 
ATOM     10  O   UNL     1       2.657 -29.100   6.387  1.00  0.00    -0.550 OA
ATOM     11  O   UNL     1       0.625 -30.153   6.514  1.00  0.00    -0.550 OA
ENDBRANCH   8   9
ENDBRANCH   7   8
ENDBRANCH   6   7
ENDBRANCH   5   6
ENDBRANCH   4   5
ENDBRANCH   3   4
ENDBRANCH   2   3
ENDBRANCH   1   2
BRANCH   1  12
ATOM     12  C   UNL     1       1.209 -27.596   0.656  1.00  0.00     0.000 C 
BRANCH  12  13
ATOM     13  C   UNL     1       0.813 -26.254   0.022  1.00  0.00    -0.000 C 
BRANCH  13  14
ATOM     14  C   UNL     1      -0.682 -26.173  -0.334  1.00  0.00    -0.000 C 
BRANCH  14  15
ATOM     15  C   UNL     1      -0.996 -25.424  -1.641  1.00  0.00    -0.000 C 
BRANCH  15  16
ATOM     16  C   UNL     1      -2.114 -24.378  -1.477  1.00  0.00    -0.000 C 
BRANCH  16  17
ATOM     17  C   UNL     1      -2.263 -23.893  -0.026  1.00  0.00    -0.000 C 
BRANCH  17  18
ATOM     18  C   UNL     1      -3.716 -23.987   0.478  1.00  0.00    -0.000 C 
BRANCH  18  19
ATOM     19  C   UNL     1      -3.944 -25.198   1.397  1.00  0.00    -0.003 C 
ATOM     20  C   UNL     1      -4.299 -26.469   0.627  1.00  0.00     0.004 C 
ENDBRANCH  18  19
ENDBRANCH  17  18
ENDBRANCH  16  17
ENDBRANCH  15  16
ENDBRANCH  14  15
ENDBRANCH  13  14
ENDBRANCH  12  13
ENDBRANCH   1  12
TORSDOF 16
ENDMDL
MODEL 3
REMARK VINA RESULT:    -5.644      3.323      8.611
REMARK INTER + INTRA:         -12.177
REMARK INTER:                 -10.957
REMARK INTRA:                  -1.220
REMARK UNBOUND:                -1.253
REMARK SMILES CCCCCCCCCCCCCCCCCC(=O)[O-]
REMARK SMILES IDX 10 1 11 2 12 3 13 4 14 5 15 6 16 7 17 8 18 9 19 10 20 11
REMARK SMILES IDX 9 12 8 13 7 14 6 15 5 16 4 17 3 18 2 19 1 20
REMARK H PARENT
REMARK Flexibility Score: inf
ROOT
ATOM      1  C   UNL     1       0.523 -26.257   0.165  1.00  0.00     0.000 C 
ENDROOT
BRANCH   1   2
ATOM      2  C   UNL     1      -0.916 -26.179  -0.375  1.00  0.00     0.000 C 
BRANCH   2   3
ATOM      3  C   UNL     1      -1.127 -25.190  -1.539  1.00  0.00     0.000 C 
BRANCH   3   4
ATOM      4  C   UNL     1      -2.136 -24.059  -1.263  1.00  0.00     0.000 C 
BRANCH   4   5
ATOM      5  C   UNL     1      -2.135 -23.597   0.201  1.00  0.00     0.000 C 
BRANCH   5   6
ATOM      6  C   UNL     1      -3.557 -23.618   0.782  1.00  0.00     0.000 C 
BRANCH   6   7
ATOM      7  C   UNL     1      -4.059 -25.041   1.076  1.00  0.00     0.006 C 
BRANCH   7   8
ATOM      8  C   UNL     1      -5.205 -25.468   0.151  1.00  0.00     0.053 C 
BRANCH   8   9
ATOM      9  C   UNL     1      -4.770 -26.589  -0.742  1.00  0.00     0.041 C 
ATOM     10  O   UNL     1      -4.436 -27.700  -0.249  1.00  0.00    -0.550 OA
ATOM     11  O   UNL     1      -4.689 -26.395  -2.116  1.00  0.00    -0.550 OA
ENDBRANCH   8   9
ENDBRANCH   7   8
ENDBRANCH   6   7
ENDBRANCH   5   6
ENDBRANCH   4   5
ENDBRANCH   3   4
ENDBRANCH   2   3
ENDBRANCH   1   2
BRANCH   1  12
ATOM     12  C   UNL     1       1.451 -27.099  -0.722  1.00  0.00     0.000 C 
BRANCH  12  13
ATOM     13  C   UNL     1       1.699 -28.481  -0.099  1.00  0.00    -0.000 C 
BRANCH  13  14
ATOM     14  C   UNL     1       2.993 -28.543   0.732  1.00  0.00    -0.000 C 
BRANCH  14  15
ATOM     15  C   UNL     1       2.801 -28.992   2.192  1.00  0.00    -0.000 C 
BRANCH  15  16
ATOM     16  C   UNL     1       4.111 -29.465   2.849  1.00  0.00    -0.000 C 
BRANCH  16  17
ATOM     17  C   UNL     1       3.961 -29.709   4.359  1.00  0.00    -0.000 C 
BRANCH  17  18
ATOM     18  C   UNL     1       2.770 -30.628   4.691  1.00  0.00    -0.000 C 
BRANCH  18  19
ATOM     19  C   UNL     1       2.370 -30.561   6.174  1.00  0.00    -0.003 C 
ATOM     20  C   UNL     1       2.336 -29.133   6.716  1.00  0.00     0.004 C 
ENDBRANCH  18  19
ENDBRANCH  17  18
ENDBRANCH  16  17
ENDBRANCH  15  16
ENDBRANCH  14  15
ENDBRANCH  13  14
ENDBRANCH  12  13
ENDBRANCH   1  12
TORSDOF 16
ENDMDL
MODEL 4
REMARK VINA RESULT:    -5.639      1.163      2.385
REMARK INTER + INTRA:         -12.167
REMARK INTER:                 -11.136
REMARK INTRA:                  -1.031
REMARK UNBOUND:                -1.253
REMARK SMILES CCCCCCCCCCCCCCCCCC(=O)[O-]
REMARK SMILES IDX 10 1 11 2 12 3 13 4 14 5 15 6 16 7 17 8 18 9 19 10 20 11
REMARK SMILES IDX 9 12 8 13 7 14 6 15 5 16 4 17 3 18 2 19 1 20
REMARK H PARENT
REMARK Flexibility Score: inf
ROOT
ATOM      1  C   UNL     1       2.779 -27.191  -1.451  1.00  0.00     0.000 C 
ENDROOT
BRANCH   1   2
ATOM      2  C   UNL     1       2.855 -28.392  -0.491  1.00  0.00     0.000 C 
BRANCH   2   3
ATOM      3  C   UNL     1       4.281 -28.852  -0.127  1.00  0.00     0.000 C 
BRANCH   3   4
ATOM      4  C   UNL     1       4.472 -29.300   1.334  1.00  0.00     0.000 C 
BRANCH   4   5
ATOM      5  C   UNL     1       3.190 -29.185   2.170  1.00  0.00     0.000 C 
BRANCH   5   6
ATOM      6  C   UNL     1       3.511 -29.237   3.672  1.00  0.00     0.000 C 
BRANCH   6   7
ATOM      7  C   UNL     1       4.155 -30.567   4.097  1.00  0.00     0.006 C 
BRANCH   7   8
ATOM      8  C   UNL     1       4.072 -30.809   5.610  1.00  0.00     0.053 C 
BRANCH   8   9
ATOM      9  C   UNL     1       2.650 -30.739   6.074  1.00  0.00     0.041 C 
ATOM     10  O   UNL     1       2.289 -29.841   6.880  1.00  0.00    -0.550 OA
ATOM     11  O   UNL     1       1.732 -31.694   5.652  1.00  0.00    -0.550 OA
ENDBRANCH   8   9
ENDBRANCH   7   8
ENDBRANCH   6   7
ENDBRANCH   5   6
ENDBRANCH   4   5
ENDBRANCH   3   4
ENDBRANCH   2   3
ENDBRANCH   1   2
BRANCH   1  12
ATOM     12  C   UNL     1       1.360 -26.619  -1.583  1.00  0.00     0.000 C 
BRANCH  12  13
ATOM     13  C   UNL     1       0.634 -26.637  -0.229  1.00  0.00    -0.000 C 
BRANCH  13  14
ATOM     14  C   UNL     1      -0.796 -26.073  -0.305  1.00  0.00    -0.000 C 
BRANCH  14  15
ATOM     15  C   UNL     1      -1.060 -25.142  -1.502  1.00  0.00    -0.000 C 
BRANCH  15  16
ATOM     16  C   UNL     1      -2.515 -24.641  -1.561  1.00  0.00    -0.000 C 
BRANCH  16  17
ATOM     17  C   UNL     1      -3.512 -25.646  -0.962  1.00  0.00    -0.000 C 
BRANCH  17  18
ATOM     18  C   UNL     1      -4.539 -24.972  -0.032  1.00  0.00    -0.000 C 
BRANCH  18  19
ATOM     19  C   UNL     1      -3.935 -23.808   0.769  1.00  0.00    -0.003 C 
ATOM     20  C   UNL     1      -4.846 -23.330   1.900  1.00  0.00     0.004 C 
ENDBRANCH  18  19
ENDBRANCH  17  18
ENDBRANCH  16  17
ENDBRANCH  15  16
ENDBRANCH  14  15
ENDBRANCH  13  14
ENDBRANCH  12  13
ENDBRANCH   1  12
TORSDOF 16
ENDMDL
MODEL 5
REMARK VINA RESULT:    -5.446      3.724      9.024
REMARK INTER + INTRA:         -11.792
REMARK INTER:                 -10.661
REMARK INTRA:                  -1.131
REMARK UNBOUND:                -1.253
REMARK SMILES CCCCCCCCCCCCCCCCCC(=O)[O-]
REMARK SMILES IDX 10 1 11 2 12 3 13 4 14 5 15 6 16 7 17 8 18 9 19 10 20 11
REMARK SMILES IDX 9 12 8 13 7 14 6 15 5 16 4 17 3 18 2 19 1 20
REMARK H PARENT
REMARK Flexibility Score: inf
ROOT
ATOM      1  C   UNL     1       3.192 -28.739   0.197  1.00  0.00     0.000 C 
ENDROOT
BRANCH   1   2
ATOM      2  C   UNL     1       2.210 -27.685  -0.344  1.00  0.00     0.000 C 
BRANCH   2   3
ATOM      3  C   UNL     1       1.079 -27.283   0.623  1.00  0.00     0.000 C 
BRANCH   3   4
ATOM      4  C   UNL     1      -0.280 -26.993  -0.041  1.00  0.00     0.000 C 
BRANCH   4   5
ATOM      5  C   UNL     1      -0.552 -25.493  -0.221  1.00  0.00     0.000 C 
BRANCH   5   6
ATOM      6  C   UNL     1      -1.399 -25.239  -1.479  1.00  0.00     0.000 C 
BRANCH   6   7
ATOM      7  C   UNL     1      -2.669 -24.424  -1.187  1.00  0.00     0.006 C 
BRANCH   7   8
ATOM      8  C   UNL     1      -2.692 -23.853   0.237  1.00  0.00     0.053 C 
BRANCH   8   9
ATOM      9  C   UNL     1      -4.084 -23.877   0.790  1.00  0.00     0.041 C 
ATOM     10  O   UNL     1      -4.438 -23.032   1.654  1.00  0.00    -0.550 OA
ATOM     11  O   UNL     1      -4.977 -24.862   0.384  1.00  0.00    -0.550 OA
ENDBRANCH   8   9
ENDBRANCH   7   8
ENDBRANCH   6   7
ENDBRANCH   5   6
ENDBRANCH   4   5
ENDBRANCH   3   4
ENDBRANCH   2   3
ENDBRANCH   1   2
BRANCH   1  12
ATOM     12  C   UNL     1       2.689 -29.423   1.477  1.00  0.00     0.000 C 
BRANCH  12  13
ATOM     13  C   UNL     1       3.670 -29.202   2.638  1.00  0.00    -0.000 C 
BRANCH  13  14
ATOM     14  C   UNL     1       5.063 -29.800   2.370  1.00  0.00    -0.000 C 
BRANCH  14  15
ATOM     15  C   UNL     1       5.795 -30.318   3.621  1.00  0.00    -0.000 C 
BRANCH  15  16
ATOM     16  C   UNL     1       4.992 -30.103   4.916  1.00  0.00    -0.000 C 
BRANCH  16  17
ATOM     17  C   UNL     1       4.556 -31.424   5.569  1.00  0.00    -0.000 C 
BRANCH  17  18
ATOM     18  C   UNL     1       3.025 -31.556   5.667  1.00  0.00    -0.000 C 
BRANCH  18  19
ATOM     19  C   UNL     1       2.340 -30.227   6.026  1.00  0.00    -0.003 C 
ATOM     20  C   UNL     1       0.916 -30.415   6.548  1.00  0.00     0.004 C 
ENDBRANCH  18  19
ENDBRANCH  17  18
ENDBRANCH  16  17
ENDBRANCH  15  16
ENDBRANCH  14  15
ENDBRANCH  13  14
ENDBRANCH  12  13
ENDBRANCH   1  12
TORSDOF 16
ENDMDL
MODEL 6
REMARK VINA RESULT:    -5.422      3.755      8.823
REMARK INTER + INTRA:         -11.746
REMARK INTER:                 -10.855
REMARK INTRA:                  -0.891
REMARK UNBOUND:                -1.253
REMARK SMILES CCCCCCCCCCCCCCCCCC(=O)[O-]
REMARK SMILES IDX 10 1 11 2 12 3 13 4 14 5 15 6 16 7 17 8 18 9 19 10 20 11
REMARK SMILES IDX 9 12 8 13 7 14 6 15 5 16 4 17 3 18 2 19 1 20
REMARK H PARENT
REMARK Flexibility Score: inf
ROOT
ATOM      1  C   UNL     1       2.303 -27.477  -0.558  1.00  0.00     0.000 C 
ENDROOT
BRANCH   1   2
ATOM      2  C   UNL     1       1.210 -26.829  -1.426  1.00  0.00     0.000 C 
BRANCH   2   3
ATOM      3  C   UNL     1      -0.002 -26.276  -0.651  1.00  0.00     0.000 C 
BRANCH   3   4
ATOM      4  C   UNL     1      -0.941 -25.365  -1.464  1.00  0.00     0.000 C 
BRANCH   4   5
ATOM      5  C   UNL     1      -2.269 -25.080  -0.749  1.00  0.00     0.000 C 
BRANCH   5   6
ATOM      6  C   UNL     1      -2.608 -26.205   0.242  1.00  0.00     0.000 C 
BRANCH   6   7
ATOM      7  C   UNL     1      -3.752 -25.830   1.199  1.00  0.00     0.006 C 
BRANCH   7   8
ATOM      8  C   UNL     1      -4.631 -24.696   0.656  1.00  0.00     0.053 C 
BRANCH   8   9
ATOM      9  C   UNL     1      -4.563 -23.503   1.558  1.00  0.00     0.041 C 
ATOM     10  O   UNL     1      -5.498 -23.266   2.369  1.00  0.00    -0.550 OA
ATOM     11  O   UNL     1      -3.489 -22.625   1.472  1.00  0.00    -0.550 OA
ENDBRANCH   8   9
ENDBRANCH   7   8
ENDBRANCH   6   7
ENDBRANCH   5   6
ENDBRANCH   4   5
ENDBRANCH   3   4
ENDBRANCH   2   3
ENDBRANCH   1   2
BRANCH   1  12
ATOM     12  C   UNL     1       1.783 -27.940   0.811  1.00  0.00     0.000 C 
BRANCH  12  13
ATOM     13  C   UNL     1       2.534 -29.193   1.286  1.00  0.00    -0.000 C 
BRANCH  13  14
ATOM     14  C   UNL     1       3.524 -28.904   2.429  1.00  0.00    -0.000 C 
BRANCH  14  15
ATOM     15  C   UNL     1       4.808 -29.751   2.401  1.00  0.00    -0.000 C 
BRANCH  15  16
ATOM     16  C   UNL     1       4.770 -30.927   3.394  1.00  0.00    -0.000 C 
BRANCH  16  17
ATOM     17  C   UNL     1       4.553 -30.471   4.845  1.00  0.00    -0.000 C 
BRANCH  17  18
ATOM     18  C   UNL     1       3.226 -30.988   5.432  1.00  0.00    -0.000 C 
BRANCH  18  19
ATOM     19  C   UNL     1       2.440 -29.891   6.169  1.00  0.00    -0.003 C 
ATOM     20  C   UNL     1       1.022 -30.324   6.539  1.00  0.00     0.004 C 
ENDBRANCH  18  19
ENDBRANCH  17  18
ENDBRANCH  16  17
ENDBRANCH  15  16
ENDBRANCH  14  15
ENDBRANCH  13  14
ENDBRANCH  12  13
ENDBRANCH   1  12
TORSDOF 16
ENDMDL
MODEL 7
REMARK VINA RESULT:    -5.381      1.438      3.240
REMARK INTER + INTRA:         -11.666
REMARK INTER:                 -10.255
REMARK INTRA:                  -1.411
REMARK UNBOUND:                -1.253
REMARK SMILES CCCCCCCCCCCCCCCCCC(=O)[O-]
REMARK SMILES IDX 10 1 11 2 12 3 13 4 14 5 15 6 16 7 17 8 18 9 19 10 20 11
REMARK SMILES IDX 9 12 8 13 7 14 6 15 5 16 4 17 3 18 2 19 1 20
REMARK H PARENT
REMARK Flexibility Score: inf
ROOT
ATOM      1  C   UNL     1      -1.917 -24.172  -1.128  1.00  0.00     0.000 C 
ENDROOT
BRANCH   1   2
ATOM      2  C   UNL     1      -1.142 -25.461  -1.457  1.00  0.00     0.000 C 
BRANCH   2   3
ATOM      3  C   UNL     1      -0.008 -25.814  -0.473  1.00  0.00     0.000 C 
BRANCH   3   4
ATOM      4  C   UNL     1       0.186 -27.319  -0.210  1.00  0.00     0.000 C 
BRANCH   4   5
ATOM      5  C   UNL     1       1.281 -27.611   0.825  1.00  0.00     0.000 C 
BRANCH   5   6
ATOM      6  C   UNL     1       2.510 -28.247   0.155  1.00  0.00     0.000 C 
BRANCH   6   7
ATOM      7  C   UNL     1       3.448 -28.932   1.162  1.00  0.00     0.006 C 
BRANCH   7   8
ATOM      8  C   UNL     1       2.941 -28.835   2.606  1.00  0.00     0.053 C 
BRANCH   8   9
ATOM      9  C   UNL     1       3.889 -29.518   3.542  1.00  0.00     0.041 C 
ATOM     10  O   UNL     1       4.955 -30.029   3.105  1.00  0.00    -0.550 OA
ATOM     11  O   UNL     1       3.576 -29.629   4.892  1.00  0.00    -0.550 OA
ENDBRANCH   8   9
ENDBRANCH   7   8
ENDBRANCH   6   7
ENDBRANCH   5   6
ENDBRANCH   4   5
ENDBRANCH   3   4
ENDBRANCH   2   3
ENDBRANCH   1   2
BRANCH   1  12
ATOM     12  C   UNL     1      -2.031 -23.912   0.381  1.00  0.00     0.000 C 
BRANCH  12  13
ATOM     13  C   UNL     1      -3.386 -23.277   0.726  1.00  0.00    -0.000 C 
BRANCH  13  14
ATOM     14  C   UNL     1      -4.346 -24.252   1.432  1.00  0.00    -0.000 C 
BRANCH  14  15
ATOM     15  C   UNL     1      -4.350 -25.681   0.861  1.00  0.00    -0.000 C 
BRANCH  15  16
ATOM     16  C   UNL     1      -5.381 -25.871  -0.266  1.00  0.00    -0.000 C 
BRANCH  16  17
ATOM     17  C   UNL     1      -4.776 -26.527  -1.518  1.00  0.00    -0.000 C 
BRANCH  17  18
ATOM     18  C   UNL     1      -5.694 -26.404  -2.749  1.00  0.00    -0.000 C 
BRANCH  18  19
ATOM     19  C   UNL     1      -6.119 -24.953  -3.025  1.00  0.00    -0.003 C 
ATOM     20  C   UNL     1      -4.932 -24.025  -3.277  1.00  0.00     0.004 C 
ENDBRANCH  18  19
ENDBRANCH  17  18
ENDBRANCH  16  17
ENDBRANCH  15  16
ENDBRANCH  14  15
ENDBRANCH  13  14
ENDBRANCH  12  13
ENDBRANCH   1  12
TORSDOF 16
ENDMDL
MODEL 8
REMARK VINA RESULT:    -5.363      1.649      3.306
REMARK INTER + INTRA:         -11.633
REMARK INTER:                 -10.452
REMARK INTRA:                  -1.181
REMARK UNBOUND:                -1.253
REMARK SMILES CCCCCCCCCCCCCCCCCC(=O)[O-]
REMARK SMILES IDX 10 1 11 2 12 3 13 4 14 5 15 6 16 7 17 8 18 9 19 10 20 11
REMARK SMILES IDX 9 12 8 13 7 14 6 15 5 16 4 17 3 18 2 19 1 20
REMARK H PARENT
REMARK Flexibility Score: inf
ROOT
ATOM      1  C   UNL     1       2.017 -28.181   1.366  1.00  0.00     0.000 C 
ENDROOT
BRANCH   1   2
ATOM      2  C   UNL     1       3.136 -28.879   2.160  1.00  0.00     0.000 C 
BRANCH   2   3
ATOM      3  C   UNL     1       4.337 -29.357   1.318  1.00  0.00     0.000 C 
BRANCH   3   4
ATOM      4  C   UNL     1       5.614 -29.673   2.119  1.00  0.00     0.000 C 
BRANCH   4   5
ATOM      5  C   UNL     1       5.581 -31.057   2.781  1.00  0.00     0.000 C 
BRANCH   5   6
ATOM      6  C   UNL     1       5.308 -30.935   4.289  1.00  0.00     0.000 C 
BRANCH   6   7
ATOM      7  C   UNL     1       3.875 -31.339   4.670  1.00  0.00     0.006 C 
BRANCH   7   8
ATOM      8  C   UNL     1       3.312 -30.504   5.827  1.00  0.00     0.053 C 
BRANCH   8   9
ATOM      9  C   UNL     1       1.862 -30.814   6.041  1.00  0.00     0.041 C 
ATOM     10  O   UNL     1       1.085 -29.933   6.494  1.00  0.00    -0.550 OA
ATOM     11  O   UNL     1       1.378 -32.092   5.783  1.00  0.00    -0.550 OA
ENDBRANCH   8   9
ENDBRANCH   7   8
ENDBRANCH   6   7
ENDBRANCH   5   6
ENDBRANCH   4   5
ENDBRANCH   3   4
ENDBRANCH   2   3
ENDBRANCH   1   2
BRANCH   1  12
ATOM     12  C   UNL     1       2.285 -28.151  -0.146  1.00  0.00     0.000 C 
BRANCH  12  13
ATOM     13  C   UNL     1       1.366 -27.138  -0.845  1.00  0.00    -0.000 C 
BRANCH  13  14
ATOM     14  C   UNL     1       0.405 -26.428   0.125  1.00  0.00    -0.000 C 
BRANCH  14  15
ATOM     15  C   UNL     1      -1.008 -27.034   0.193  1.00  0.00    -0.000 C 
BRANCH  15  16
ATOM     16  C   UNL     1      -2.116 -26.000  -0.078  1.00  0.00    -0.000 C 
BRANCH  16  17
ATOM     17  C   UNL     1      -1.887 -25.213  -1.378  1.00  0.00    -0.000 C 
BRANCH  17  18
ATOM     18  C   UNL     1      -1.772 -23.697  -1.136  1.00  0.00    -0.000 C 
BRANCH  18  19
ATOM     19  C   UNL     1      -1.828 -23.332   0.356  1.00  0.00    -0.003 C 
ATOM     20  C   UNL     1      -0.871 -22.200   0.727  1.00  0.00     0.004 C 
ENDBRANCH  18  19
ENDBRANCH  17  18
ENDBRANCH  16  17
ENDBRANCH  15  16
ENDBRANCH  14  15
ENDBRANCH  13  14
ENDBRANCH  12  13
ENDBRANCH   1  12
TORSDOF 16
ENDMDL
MODEL 9
REMARK VINA RESULT:    -5.321      5.534      7.256
REMARK INTER + INTRA:         -11.552
REMARK INTER:                 -10.302
REMARK INTRA:                  -1.249
REMARK UNBOUND:                -1.253
REMARK SMILES CCCCCCCCCCCCCCCCCC(=O)[O-]
REMARK SMILES IDX 10 1 11 2 12 3 13 4 14 5 15 6 16 7 17 8 18 9 19 10 20 11
REMARK SMILES IDX 9 12 8 13 7 14 6 15 5 16 4 17 3 18 2 19 1 20
REMARK H PARENT
REMARK Flexibility Score: inf
ROOT
ATOM      1  C   UNL     1       2.393 -27.150  -1.539  1.00  0.00     0.000 C 
ENDROOT
BRANCH   1   2
ATOM      2  C   UNL     1       3.837 -27.347  -2.035  1.00  0.00     0.000 C 
BRANCH   2   3
ATOM      3  C   UNL     1       4.608 -28.503  -1.366  1.00  0.00     0.000 C 
BRANCH   3   4
ATOM      4  C   UNL     1       6.133 -28.308  -1.275  1.00  0.00     0.000 C 
BRANCH   4   5
ATOM      5  C   UNL     1       6.604 -26.972  -1.867  1.00  0.00     0.000 C 
BRANCH   5   6
ATOM      6  C   UNL     1       7.530 -27.204  -3.071  1.00  0.00     0.000 C 
BRANCH   6   7
ATOM      7  C   UNL     1       6.769 -27.257  -4.406  1.00  0.00     0.006 C 
BRANCH   7   8
ATOM      8  C   UNL     1       6.039 -25.946  -4.724  1.00  0.00     0.053 C 
BRANCH   8   9
ATOM      9  C   UNL     1       5.436 -26.001  -6.094  1.00  0.00     0.041 C 
ATOM     10  O   UNL     1       4.351 -25.406  -6.334  1.00  0.00    -0.550 OA
ATOM     11  O   UNL     1       6.048 -26.746  -7.095  1.00  0.00    -0.550 OA
ENDBRANCH   8   9
ENDBRANCH   7   8
ENDBRANCH   6   7
ENDBRANCH   5   6
ENDBRANCH   4   5
ENDBRANCH   3   4
ENDBRANCH   2   3
ENDBRANCH   1   2
BRANCH   1  12
ATOM     12  C   UNL     1       1.992 -28.156  -0.451  1.00  0.00     0.000 C 
BRANCH  12  13
ATOM     13  C   UNL     1       1.192 -27.466   0.665  1.00  0.00    -0.000 C 
BRANCH  13  14
ATOM     14  C   UNL     1       0.579 -26.125   0.225  1.00  0.00    -0.000 C 
BRANCH  14  15
ATOM     15  C   UNL     1      -0.847 -26.223  -0.346  1.00  0.00    -0.000 C 
BRANCH  15  16
ATOM     16  C   UNL     1      -1.048 -25.362  -1.606  1.00  0.00    -0.000 C 
BRANCH  16  17
ATOM     17  C   UNL     1      -2.197 -24.353  -1.457  1.00  0.00    -0.000 C 
BRANCH  17  18
ATOM     18  C   UNL     1      -2.447 -23.957   0.010  1.00  0.00    -0.000 C 
BRANCH  18  19
ATOM     19  C   UNL     1      -3.905 -24.180   0.442  1.00  0.00    -0.003 C 
ATOM     20  C   UNL     1      -4.356 -23.210   1.533  1.00  0.00     0.004 C 
ENDBRANCH  18  19
ENDBRANCH  17  18
ENDBRANCH  16  17
ENDBRANCH  15  16
ENDBRANCH  14  15
ENDBRANCH  13  14
ENDBRANCH  12  13
ENDBRANCH   1  12
TORSDOF 16
ENDMDL
