MODEL 1
REMARK VINA RESULT:    -4.248      0.000      0.000
REMARK INTER + INTRA:          -8.942
REMARK INTER:                  -6.483
REMARK INTRA:                  -2.459
REMARK UNBOUND:                -2.459
REMARK SMILES CC(=O)CCC=C(C)CCC=C(C)CCC=C(C)C
REMARK SMILES IDX 10 1 11 2 12 3 13 4 14 5 15 6 16 7 18 8 17 9 19 10 9 11 7 12
REMARK SMILES IDX 6 13 8 14 5 15 4 16 2 17 3 18 1 19
REMARK H PARENT
REMARK Flexibility Score: inf
ROOT
ATOM      1  C   UNL     1       8.088  -1.037  -1.876  1.00  0.00     0.032 C 
ENDROOT
BRANCH   1   2
ATOM      2  C   UNL     1       7.360  -1.677  -0.721  1.00  0.00    -0.028 C 
ATOM      3  C   UNL     1       6.054  -1.474  -0.433  1.00  0.00    -0.077 C 
ATOM      4  C   UNL     1       5.171  -0.607  -1.303  1.00  0.00     0.039 C 
BRANCH   3   5
ATOM      5  C   UNL     1       5.453  -2.152   0.778  1.00  0.00     0.034 C 
BRANCH   5   6
ATOM      6  C   UNL     1       5.837  -3.635   0.818  1.00  0.00     0.032 C 
BRANCH   6   7
ATOM      7  C   UNL     1       5.402  -4.335  -0.445  1.00  0.00    -0.028 C 
ATOM      8  C   UNL     1       7.661  -5.333  -0.861  1.00  0.00     0.039 C 
ATOM      9  C   UNL     1       6.216  -5.081  -1.223  1.00  0.00    -0.080 C 
ATOM     10  C   UNL     1       5.648  -5.691  -2.479  1.00  0.00     0.039 C 
ENDBRANCH   6   7
ENDBRANCH   5   6
ENDBRANCH   3   5
ENDBRANCH   1   2
BRANCH   1  11
ATOM     11  C   UNL     1       8.911  -2.077  -2.644  1.00  0.00     0.034 C 
BRANCH  11  12
ATOM     12  C   UNL     1       8.046  -2.804  -3.649  1.00  0.00    -0.077 C 
ATOM     13  C   UNL     1       6.867  -2.251  -4.017  1.00  0.00    -0.028 C 
ATOM     14  C   UNL     1       8.526  -4.115  -4.226  1.00  0.00     0.039 C 
BRANCH  13  15
ATOM     15  C   UNL     1       5.863  -2.906  -4.935  1.00  0.00     0.035 C 
BRANCH  15  16
ATOM     16  C   UNL     1       4.466  -2.946  -4.301  1.00  0.00     0.079 C 
BRANCH  16  17
ATOM     17  C   UNL     1       3.455  -3.573  -5.228  1.00  0.00     0.130 C 
ATOM     18  O   UNL     1       2.464  -4.112  -4.761  1.00  0.00    -0.300 OA
ATOM     19  C   UNL     1       3.646  -3.552  -6.717  1.00  0.00     0.087 C 
ENDBRANCH  16  17
ENDBRANCH  15  16
ENDBRANCH  13  15
ENDBRANCH  11  12
ENDBRANCH   1  11
TORSDOF 9
ENDMDL
MODEL 2
REMARK VINA RESULT:    -4.220      3.390      7.833
REMARK INTER + INTRA:          -8.898
REMARK INTER:                  -7.901
REMARK INTRA:                  -0.998
REMARK UNBOUND:                -2.459
REMARK SMILES CC(=O)CCC=C(C)CCC=C(C)CCC=C(C)C
REMARK SMILES IDX 10 1 11 2 12 3 13 4 14 5 15 6 16 7 18 8 17 9 19 10 9 11 7 12
REMARK SMILES IDX 6 13 8 14 5 15 4 16 2 17 3 18 1 19
REMARK H PARENT
REMARK Flexibility Score: inf
ROOT
ATOM      1  C   UNL     1       3.591  -3.638  -5.449  1.00  0.00     0.032 C 
ENDROOT
BRANCH   1   2
ATOM      2  C   UNL     1       3.521  -2.838  -6.725  1.00  0.00    -0.028 C 
ATOM      3  C   UNL     1       3.677  -3.360  -7.964  1.00  0.00    -0.077 C 
ATOM      4  C   UNL     1       3.885  -4.841  -8.185  1.00  0.00     0.039 C 
BRANCH   3   5
ATOM      5  C   UNL     1       3.618  -2.439  -9.162  1.00  0.00     0.034 C 
BRANCH   5   6
ATOM      6  C   UNL     1       2.921  -1.123  -8.803  1.00  0.00     0.032 C 
BRANCH   6   7
ATOM      7  C   UNL     1       3.666   0.054  -9.382  1.00  0.00    -0.028 C 
ATOM      8  C   UNL     1       2.220   1.743  -8.227  1.00  0.00     0.039 C 
ATOM      9  C   UNL     1       3.349   1.347  -9.151  1.00  0.00    -0.080 C 
ATOM     10  C   UNL     1       4.163   2.418  -9.829  1.00  0.00     0.039 C 
ENDBRANCH   6   7
ENDBRANCH   5   6
ENDBRANCH   3   5
ENDBRANCH   1   2
BRANCH   1  11
ATOM     11  C   UNL     1       4.849  -3.280  -4.650  1.00  0.00     0.034 C 
BRANCH  11  12
ATOM     12  C   UNL     1       4.486  -2.879  -3.237  1.00  0.00    -0.077 C 
ATOM     13  C   UNL     1       4.782  -1.629  -2.816  1.00  0.00    -0.028 C 
ATOM     14  C   UNL     1       3.791  -3.878  -2.342  1.00  0.00     0.039 C 
BRANCH  13  15
ATOM     15  C   UNL     1       4.564  -1.124  -1.410  1.00  0.00     0.035 C 
BRANCH  15  16
ATOM     16  C   UNL     1       5.830  -1.275  -0.557  1.00  0.00     0.079 C 
BRANCH  16  17
ATOM     17  C   UNL     1       5.561  -2.067   0.698  1.00  0.00     0.130 C 
ATOM     18  O   UNL     1       5.108  -1.502   1.680  1.00  0.00    -0.300 OA
ATOM     19  C   UNL     1       5.844  -3.539   0.765  1.00  0.00     0.087 C 
ENDBRANCH  16  17
ENDBRANCH  15  16
ENDBRANCH  13  15
ENDBRANCH  11  12
ENDBRANCH   1  11
TORSDOF 9
ENDMDL
MODEL 3
REMARK VINA RESULT:    -4.172      2.551      5.016
REMARK INTER + INTRA:          -8.826
REMARK INTER:                  -7.495
REMARK INTRA:                  -1.331
REMARK UNBOUND:                -2.459
REMARK SMILES CC(=O)CCC=C(C)CCC=C(C)CCC=C(C)C
REMARK SMILES IDX 10 1 11 2 12 3 13 4 14 5 15 6 16 7 18 8 17 9 19 10 9 11 7 12
REMARK SMILES IDX 6 13 8 14 5 15 4 16 2 17 3 18 1 19
REMARK H PARENT
REMARK Flexibility Score: inf
ROOT
ATOM      1  C   UNL     1       4.236  -3.360  -4.942  1.00  0.00     0.032 C 
ENDROOT
BRANCH   1   2
ATOM      2  C   UNL     1       5.564  -3.026  -4.310  1.00  0.00    -0.028 C 
ATOM      3  C   UNL     1       6.015  -3.559  -3.152  1.00  0.00    -0.077 C 
ATOM      4  C   UNL     1       5.229  -4.607  -2.397  1.00  0.00     0.039 C 
BRANCH   3   5
ATOM      5  C   UNL     1       7.354  -3.111  -2.608  1.00  0.00     0.034 C 
BRANCH   5   6
ATOM      6  C   UNL     1       7.293  -1.651  -2.147  1.00  0.00     0.032 C 
BRANCH   6   7
ATOM      7  C   UNL     1       6.568  -1.535  -0.830  1.00  0.00    -0.028 C 
ATOM      8  C   UNL     1       4.587  -0.381  -1.839  1.00  0.00     0.039 C 
ATOM      9  C   UNL     1       5.362  -0.946  -0.672  1.00  0.00    -0.080 C 
ATOM     10  C   UNL     1       4.776  -0.871   0.715  1.00  0.00     0.039 C 
ENDBRANCH   6   7
ENDBRANCH   5   6
ENDBRANCH   3   5
ENDBRANCH   1   2
BRANCH   1  11
ATOM     11  C   UNL     1       4.395  -4.473  -5.984  1.00  0.00     0.034 C 
BRANCH  11  12
ATOM     12  C   UNL     1       3.911  -4.006  -7.339  1.00  0.00    -0.077 C 
ATOM     13  C   UNL     1       3.755  -2.680  -7.555  1.00  0.00    -0.028 C 
ATOM     14  C   UNL     1       3.631  -5.027  -8.416  1.00  0.00     0.039 C 
BRANCH  13  15
ATOM     15  C   UNL     1       3.194  -2.078  -8.821  1.00  0.00     0.035 C 
BRANCH  15  16
ATOM     16  C   UNL     1       3.473  -0.571  -8.897  1.00  0.00     0.079 C 
BRANCH  16  17
ATOM     17  C   UNL     1       2.239   0.238  -8.587  1.00  0.00     0.130 C 
ATOM     18  O   UNL     1       1.191  -0.335  -8.339  1.00  0.00    -0.300 OA
ATOM     19  C   UNL     1       2.274   1.739  -8.580  1.00  0.00     0.087 C 
ENDBRANCH  16  17
ENDBRANCH  15  16
ENDBRANCH  13  15
ENDBRANCH  11  12
ENDBRANCH   1  11
TORSDOF 9
ENDMDL
MODEL 4
REMARK VINA RESULT:    -4.125      1.088      3.810
REMARK INTER + INTRA:          -8.754
REMARK INTER:                  -6.391
REMARK INTRA:                  -2.362
REMARK UNBOUND:                -2.459
REMARK SMILES CC(=O)CCC=C(C)CCC=C(C)CCC=C(C)C
REMARK SMILES IDX 10 1 11 2 12 3 13 4 14 5 15 6 16 7 18 8 17 9 19 10 9 11 7 12
REMARK SMILES IDX 6 13 8 14 5 15 4 16 2 17 3 18 1 19
REMARK H PARENT
REMARK Flexibility Score: inf
ROOT
ATOM      1  C   UNL     1       8.310  -5.557  -2.935  1.00  0.00     0.032 C 
ENDROOT
BRANCH   1   2
ATOM      2  C   UNL     1       8.615  -4.195  -2.365  1.00  0.00    -0.028 C 
ATOM      3  C   UNL     1       8.554  -3.041  -3.069  1.00  0.00    -0.077 C 
ATOM      4  C   UNL     1       8.108  -3.010  -4.513  1.00  0.00     0.039 C 
BRANCH   3   5
ATOM      5  C   UNL     1       8.919  -1.742  -2.385  1.00  0.00     0.034 C 
BRANCH   5   6
ATOM      6  C   UNL     1       7.977  -1.462  -1.210  1.00  0.00     0.032 C 
BRANCH   6   7
ATOM      7  C   UNL     1       6.711  -0.795  -1.686  1.00  0.00    -0.028 C 
ATOM      8  C   UNL     1       5.452  -1.323   0.414  1.00  0.00     0.039 C 
ATOM      9  C   UNL     1       5.561  -0.745  -0.978  1.00  0.00    -0.080 C 
ATOM     10  C   UNL     1       4.364  -0.075  -1.599  1.00  0.00     0.039 C 
ENDBRANCH   6   7
ENDBRANCH   5   6
ENDBRANCH   3   5
ENDBRANCH   1   2
BRANCH   1  11
ATOM     11  C   UNL     1       7.193  -6.242  -2.139  1.00  0.00     0.034 C 
BRANCH  11  12
ATOM     12  C   UNL     1       6.061  -5.274  -1.871  1.00  0.00    -0.077 C 
ATOM     13  C   UNL     1       5.256  -4.911  -2.895  1.00  0.00    -0.028 C 
ATOM     14  C   UNL     1       5.852  -4.753  -0.469  1.00  0.00     0.039 C 
BRANCH  13  15
ATOM     15  C   UNL     1       4.151  -3.887  -2.795  1.00  0.00     0.035 C 
BRANCH  15  16
ATOM     16  C   UNL     1       4.175  -2.918  -3.984  1.00  0.00     0.079 C 
BRANCH  16  17
ATOM     17  C   UNL     1       3.523  -3.520  -5.203  1.00  0.00     0.130 C 
ATOM     18  O   UNL     1       2.326  -3.763  -5.188  1.00  0.00    -0.300 OA
ATOM     19  C   UNL     1       4.317  -3.832  -6.438  1.00  0.00     0.087 C 
ENDBRANCH  16  17
ENDBRANCH  15  16
ENDBRANCH  13  15
ENDBRANCH  11  12
ENDBRANCH   1  11
TORSDOF 9
ENDMDL
MODEL 5
REMARK VINA RESULT:    -4.108      2.329      4.488
REMARK INTER + INTRA:          -8.728
REMARK INTER:                  -6.382
REMARK INTRA:                  -2.346
REMARK UNBOUND:                -2.459
REMARK SMILES CC(=O)CCC=C(C)CCC=C(C)CCC=C(C)C
REMARK SMILES IDX 10 1 11 2 12 3 13 4 14 5 15 6 16 7 18 8 17 9 19 10 9 11 7 12
REMARK SMILES IDX 6 13 8 14 5 15 4 16 2 17 3 18 1 19
REMARK H PARENT
REMARK Flexibility Score: inf
ROOT
ATOM      1  C   UNL     1       7.359  -2.369  -4.102  1.00  0.00     0.032 C 
ENDROOT
BRANCH   1   2
ATOM      2  C   UNL     1       7.946  -3.356  -3.124  1.00  0.00    -0.028 C 
ATOM      3  C   UNL     1       8.596  -3.012  -1.989  1.00  0.00    -0.077 C 
ATOM      4  C   UNL     1       8.748  -1.570  -1.562  1.00  0.00     0.039 C 
BRANCH   3   5
ATOM      5  C   UNL     1       9.168  -4.103  -1.110  1.00  0.00     0.034 C 
BRANCH   5   6
ATOM      6  C   UNL     1       9.428  -5.375  -1.923  1.00  0.00     0.032 C 
BRANCH   6   7
ATOM      7  C   UNL     1       8.773  -6.569  -1.273  1.00  0.00    -0.028 C 
ATOM      8  C   UNL     1       6.844  -6.580  -2.871  1.00  0.00     0.039 C 
ATOM      9  C   UNL     1       7.600  -7.107  -1.673  1.00  0.00    -0.080 C 
ATOM     10  C   UNL     1       7.048  -8.278  -0.902  1.00  0.00     0.039 C 
ENDBRANCH   6   7
ENDBRANCH   5   6
ENDBRANCH   3   5
ENDBRANCH   1   2
BRANCH   1  11
ATOM     11  C   UNL     1       5.881  -2.679  -4.367  1.00  0.00     0.034 C 
BRANCH  11  12
ATOM     12  C   UNL     1       5.085  -2.612  -3.083  1.00  0.00    -0.077 C 
ATOM     13  C   UNL     1       5.129  -1.480  -2.345  1.00  0.00    -0.028 C 
ATOM     14  C   UNL     1       4.253  -3.802  -2.668  1.00  0.00     0.039 C 
BRANCH  13  15
ATOM     15  C   UNL     1       4.463  -1.305  -1.001  1.00  0.00     0.035 C 
BRANCH  15  16
ATOM     16  C   UNL     1       5.497  -1.132   0.119  1.00  0.00     0.079 C 
BRANCH  16  17
ATOM     17  C   UNL     1       5.504  -2.315   1.054  1.00  0.00     0.130 C 
ATOM     18  O   UNL     1       5.188  -2.160   2.223  1.00  0.00    -0.300 OA
ATOM     19  C   UNL     1       5.897  -3.683   0.577  1.00  0.00     0.087 C 
ENDBRANCH  16  17
ENDBRANCH  15  16
ENDBRANCH  13  15
ENDBRANCH  11  12
ENDBRANCH   1  11
TORSDOF 9
ENDMDL
MODEL 6
REMARK VINA RESULT:    -4.083      1.064      2.811
REMARK INTER + INTRA:          -8.690
REMARK INTER:                  -6.219
REMARK INTRA:                  -2.471
REMARK UNBOUND:                -2.459
REMARK SMILES CC(=O)CCC=C(C)CCC=C(C)CCC=C(C)C
REMARK SMILES IDX 10 1 11 2 12 3 13 4 14 5 15 6 16 7 18 8 17 9 19 10 9 11 7 12
REMARK SMILES IDX 6 13 8 14 5 15 4 16 2 17 3 18 1 19
REMARK H PARENT
REMARK Flexibility Score: inf
ROOT
ATOM      1  C   UNL     1       9.157  -4.503  -1.261  1.00  0.00     0.032 C 
ENDROOT
BRANCH   1   2
ATOM      2  C   UNL     1       7.981  -4.206  -0.365  1.00  0.00    -0.028 C 
ATOM      3  C   UNL     1       6.756  -4.766  -0.501  1.00  0.00    -0.077 C 
ATOM      4  C   UNL     1       6.468  -5.808  -1.558  1.00  0.00     0.039 C 
BRANCH   3   5
ATOM      5  C   UNL     1       5.651  -4.354   0.446  1.00  0.00     0.034 C 
BRANCH   5   6
ATOM      6  C   UNL     1       5.735  -2.857   0.762  1.00  0.00     0.032 C 
BRANCH   6   7
ATOM      7  C   UNL     1       4.959  -2.052  -0.250  1.00  0.00    -0.028 C 
ATOM      8  C   UNL     1       6.968  -0.753  -0.994  1.00  0.00     0.039 C 
ATOM      9  C   UNL     1       5.494  -1.087  -1.030  1.00  0.00    -0.080 C 
ATOM     10  C   UNL     1       4.586  -0.338  -1.971  1.00  0.00     0.039 C 
ENDBRANCH   6   7
ENDBRANCH   5   6
ENDBRANCH   3   5
ENDBRANCH   1   2
BRANCH   1  11
ATOM     11  C   UNL     1       9.350  -3.387  -2.294  1.00  0.00     0.034 C 
BRANCH  11  12
ATOM     12  C   UNL     1       8.413  -3.579  -3.465  1.00  0.00    -0.077 C 
ATOM     13  C   UNL     1       7.422  -2.680  -3.662  1.00  0.00    -0.028 C 
ATOM     14  C   UNL     1       8.617  -4.756  -4.389  1.00  0.00     0.039 C 
BRANCH  13  15
ATOM     15  C   UNL     1       6.360  -2.796  -4.730  1.00  0.00     0.035 C 
BRANCH  15  16
ATOM     16  C   UNL     1       5.039  -3.320  -4.153  1.00  0.00     0.079 C 
BRANCH  16  17
ATOM     17  C   UNL     1       4.137  -3.860  -5.235  1.00  0.00     0.130 C 
ATOM     18  O   UNL     1       4.150  -5.054  -5.487  1.00  0.00    -0.300 OA
ATOM     19  C   UNL     1       3.225  -2.956  -6.011  1.00  0.00     0.087 C 
ENDBRANCH  16  17
ENDBRANCH  15  16
ENDBRANCH  13  15
ENDBRANCH  11  12
ENDBRANCH   1  11
TORSDOF 9
ENDMDL
MODEL 7
REMARK VINA RESULT:    -4.083      2.802      6.964
REMARK INTER + INTRA:          -8.689
REMARK INTER:                  -7.521
REMARK INTRA:                  -1.168
REMARK UNBOUND:                -2.459
REMARK SMILES CC(=O)CCC=C(C)CCC=C(C)CCC=C(C)C
REMARK SMILES IDX 10 1 11 2 12 3 13 4 14 5 15 6 16 7 18 8 17 9 19 10 9 11 7 12
REMARK SMILES IDX 6 13 8 14 5 15 4 16 2 17 3 18 1 19
REMARK H PARENT
REMARK Flexibility Score: inf
ROOT
ATOM      1  C   UNL     1       5.663  -2.895  -4.350  1.00  0.00     0.032 C 
ENDROOT
BRANCH   1   2
ATOM      2  C   UNL     1       5.536  -3.241  -5.812  1.00  0.00    -0.028 C 
ATOM      3  C   UNL     1       4.361  -3.441  -6.452  1.00  0.00    -0.077 C 
ATOM      4  C   UNL     1       3.033  -3.277  -5.748  1.00  0.00     0.039 C 
BRANCH   3   5
ATOM      5  C   UNL     1       4.376  -3.817  -7.917  1.00  0.00     0.034 C 
BRANCH   5   6
ATOM      6  C   UNL     1       3.386  -2.958  -8.709  1.00  0.00     0.032 C 
BRANCH   6   7
ATOM      7  C   UNL     1       4.003  -1.631  -9.078  1.00  0.00    -0.028 C 
ATOM      8  C   UNL     1       2.019  -0.312  -8.303  1.00  0.00     0.039 C 
ATOM      9  C   UNL     1       3.391  -0.436  -8.923  1.00  0.00    -0.080 C 
ATOM     10  C   UNL     1       4.118   0.805  -9.372  1.00  0.00     0.039 C 
ENDBRANCH   6   7
ENDBRANCH   5   6
ENDBRANCH   3   5
ENDBRANCH   1   2
BRANCH   1  11
ATOM     11  C   UNL     1       7.120  -2.586  -3.988  1.00  0.00     0.034 C 
BRANCH  11  12
ATOM     12  C   UNL     1       7.203  -1.937  -2.624  1.00  0.00    -0.077 C 
ATOM     13  C   UNL     1       6.080  -1.415  -2.080  1.00  0.00    -0.028 C 
ATOM     14  C   UNL     1       8.529  -1.904  -1.902  1.00  0.00     0.039 C 
BRANCH  13  15
ATOM     15  C   UNL     1       6.033  -0.658  -0.774  1.00  0.00     0.035 C 
BRANCH  15  16
ATOM     16  C   UNL     1       4.840  -1.097   0.085  1.00  0.00     0.079 C 
BRANCH  16  17
ATOM     17  C   UNL     1       5.278  -1.967   1.237  1.00  0.00     0.130 C 
ATOM     18  O   UNL     1       5.388  -1.479   2.351  1.00  0.00    -0.300 OA
ATOM     19  C   UNL     1       5.586  -3.422   1.040  1.00  0.00     0.087 C 
ENDBRANCH  16  17
ENDBRANCH  15  16
ENDBRANCH  13  15
ENDBRANCH  11  12
ENDBRANCH   1  11
TORSDOF 9
ENDMDL
MODEL 8
REMARK VINA RESULT:    -4.059      1.619      3.663
REMARK INTER + INTRA:          -8.654
REMARK INTER:                  -6.255
REMARK INTRA:                  -2.399
REMARK UNBOUND:                -2.459
REMARK SMILES CC(=O)CCC=C(C)CCC=C(C)CCC=C(C)C
REMARK SMILES IDX 10 1 11 2 12 3 13 4 14 5 15 6 16 7 18 8 17 9 19 10 9 11 7 12
REMARK SMILES IDX 6 13 8 14 5 15 4 16 2 17 3 18 1 19
REMARK H PARENT
REMARK Flexibility Score: inf
ROOT
ATOM      1  C   UNL     1       5.850  -1.195  -0.664  1.00  0.00     0.032 C 
ENDROOT
BRANCH   1   2
ATOM      2  C   UNL     1       7.197  -1.042  -1.323  1.00  0.00    -0.028 C 
ATOM      3  C   UNL     1       8.170  -1.981  -1.303  1.00  0.00    -0.077 C 
ATOM      4  C   UNL     1       7.965  -3.328  -0.647  1.00  0.00     0.039 C 
BRANCH   3   5
ATOM      5  C   UNL     1       9.492  -1.686  -1.977  1.00  0.00     0.034 C 
BRANCH   5   6
ATOM      6  C   UNL     1       9.783  -2.712  -3.076  1.00  0.00     0.032 C 
BRANCH   6   7
ATOM      7  C   UNL     1       8.946  -2.438  -4.301  1.00  0.00    -0.028 C 
ATOM      8  C   UNL     1       7.667  -4.583  -4.101  1.00  0.00     0.039 C 
ATOM      9  C   UNL     1       8.008  -3.280  -4.787  1.00  0.00    -0.080 C 
ATOM     10  C   UNL     1       7.274  -2.888  -6.044  1.00  0.00     0.039 C 
ENDBRANCH   6   7
ENDBRANCH   5   6
ENDBRANCH   3   5
ENDBRANCH   1   2
BRANCH   1  11
ATOM     11  C   UNL     1       4.725  -1.135  -1.703  1.00  0.00     0.034 C 
BRANCH  11  12
ATOM     12  C   UNL     1       4.521  -2.490  -2.344  1.00  0.00    -0.077 C 
ATOM     13  C   UNL     1       4.409  -2.565  -3.690  1.00  0.00    -0.028 C 
ATOM     14  C   UNL     1       4.463  -3.720  -1.470  1.00  0.00     0.039 C 
BRANCH  13  15
ATOM     15  C   UNL     1       4.110  -3.831  -4.456  1.00  0.00     0.035 C 
BRANCH  15  16
ATOM     16  C   UNL     1       3.054  -3.594  -5.543  1.00  0.00     0.079 C 
BRANCH  16  17
ATOM     17  C   UNL     1       3.617  -3.826  -6.923  1.00  0.00     0.130 C 
ATOM     18  O   UNL     1       3.866  -4.963  -7.288  1.00  0.00    -0.300 OA
ATOM     19  C   UNL     1       3.882  -2.682  -7.857  1.00  0.00     0.087 C 
ENDBRANCH  16  17
ENDBRANCH  15  16
ENDBRANCH  13  15
ENDBRANCH  11  12
ENDBRANCH   1  11
TORSDOF 9
ENDMDL
MODEL 9
REMARK VINA RESULT:    -3.984      1.233      3.793
REMARK INTER + INTRA:          -8.538
REMARK INTER:                  -5.941
REMARK INTRA:                  -2.597
REMARK UNBOUND:                -2.459
REMARK SMILES CC(=O)CCC=C(C)CCC=C(C)CCC=C(C)C
REMARK SMILES IDX 10 1 11 2 12 3 13 4 14 5 15 6 16 7 18 8 17 9 19 10 9 11 7 12
REMARK SMILES IDX 6 13 8 14 5 15 4 16 2 17 3 18 1 19
REMARK H PARENT
REMARK Flexibility Score: inf
ROOT
ATOM      1  C   UNL     1       8.517  -5.652  -1.578  1.00  0.00     0.032 C 
ENDROOT
BRANCH   1   2
ATOM      2  C   UNL     1       8.713  -4.157  -1.539  1.00  0.00    -0.028 C 
ATOM      3  C   UNL     1       8.795  -3.368  -2.634  1.00  0.00    -0.077 C 
ATOM      4  C   UNL     1       8.636  -3.924  -4.031  1.00  0.00     0.039 C 
BRANCH   3   5
ATOM      5  C   UNL     1       9.027  -1.884  -2.455  1.00  0.00     0.034 C 
BRANCH   5   6
ATOM      6  C   UNL     1       8.258  -1.355  -1.241  1.00  0.00     0.032 C 
BRANCH   6   7
ATOM      7  C   UNL     1       6.908  -0.822  -1.653  1.00  0.00    -0.028 C 
ATOM      8  C   UNL     1       5.745  -1.762   0.357  1.00  0.00     0.039 C 
ATOM      9  C   UNL     1       5.766  -1.016  -0.958  1.00  0.00    -0.080 C 
ATOM     10  C   UNL     1       4.483  -0.454  -1.513  1.00  0.00     0.039 C 
ENDBRANCH   6   7
ENDBRANCH   5   6
ENDBRANCH   3   5
ENDBRANCH   1   2
BRANCH   1  11
ATOM     11  C   UNL     1       7.110  -6.029  -1.101  1.00  0.00     0.034 C 
BRANCH  11  12
ATOM     12  C   UNL     1       6.081  -5.680  -2.153  1.00  0.00    -0.077 C 
ATOM     13  C   UNL     1       5.287  -4.604  -1.958  1.00  0.00    -0.028 C 
ATOM     14  C   UNL     1       5.979  -6.532  -3.396  1.00  0.00     0.039 C 
BRANCH  13  15
ATOM     15  C   UNL     1       4.158  -4.193  -2.874  1.00  0.00     0.035 C 
BRANCH  15  16
ATOM     16  C   UNL     1       4.633  -3.191  -3.934  1.00  0.00     0.079 C 
BRANCH  16  17
ATOM     17  C   UNL     1       4.579  -3.783  -5.320  1.00  0.00     0.130 C 
ATOM     18  O   UNL     1       3.728  -4.617  -5.585  1.00  0.00    -0.300 OA
ATOM     19  C   UNL     1       5.555  -3.369  -6.382  1.00  0.00     0.087 C 
ENDBRANCH  16  17
ENDBRANCH  15  16
ENDBRANCH  13  15
ENDBRANCH  11  12
ENDBRANCH   1  11
TORSDOF 9
ENDMDL
