MODEL 1
REMARK VINA RESULT:    -8.270      0.000      0.000
REMARK INTER + INTRA:         -12.806
REMARK INTER:                 -11.412
REMARK INTRA:                  -1.394
REMARK UNBOUND:                -1.394
REMARK SMILES CC[C@@H](CC[C@@H](C)[C@H]1CC[C@@H]2[C@H]3CC=C4C[C@@H](O)CC[C@]4(C)[C@H]3CC[C@@]21C)C(C)C
REMARK SMILES IDX 5 1 4 2 3 3 2 4 1 5 28 6 29 7 30 8 6 9 7 10 8 11 9 12 26 13
REMARK SMILES IDX 10 14 11 15 25 16 27 17 12 18 24 19 23 20 13 21 21 22 14 23
REMARK SMILES IDX 15 24 20 25 22 26 16 27 19 28 17 29 18 30
REMARK H PARENT 18 31
REMARK Flexibility Score: inf
ROOT
ATOM      1  C   UNL     1      28.331 -27.538  32.370  1.00  0.00     0.004 C 
ENDROOT
BRANCH   1   2
ATOM      2  C   UNL     1      29.148 -27.960  33.608  1.00  0.00     0.004 C 
BRANCH   2   3
ATOM      3  C   UNL     1      29.245 -26.846  34.689  1.00  0.00    -0.009 C 
BRANCH   3   4
ATOM      4  C   UNL     1      28.722 -27.370  36.057  1.00  0.00     0.000 C 
ATOM      5  C   UNL     1      28.814 -28.889  36.218  1.00  0.00     0.004 C 
ENDBRANCH   3   4
BRANCH   3   6
ATOM      6  C   UNL     1      28.546 -25.517  34.239  1.00  0.00    -0.014 C 
ATOM      7  C   UNL     1      29.412 -24.264  34.455  1.00  0.00     0.007 C 
ATOM      8  C   UNL     1      27.167 -25.327  34.897  1.00  0.00     0.007 C 
ENDBRANCH   3   6
ENDBRANCH   2   3
ENDBRANCH   1   2
BRANCH   1   9
ATOM      9  C   UNL     1      27.144 -28.498  32.088  1.00  0.00    -0.011 C 
ATOM     10  C   UNL     1      26.680 -29.244  33.360  1.00  0.00     0.008 C 
BRANCH   9  11
ATOM     11  C   UNL     1      26.002 -27.848  31.219  1.00  0.00    -0.002 C 
ATOM     12  C   UNL     1      25.403 -26.625  31.916  1.00  0.00     0.005 C 
ATOM     13  C   UNL     1      26.244 -27.380  29.725  1.00  0.00    -0.026 C 
ATOM     14  C   UNL     1      26.018 -25.425  31.230  1.00  0.00     0.005 C 
ATOM     15  C   UNL     1      26.164 -25.810  29.749  1.00  0.00    -0.001 C 
ATOM     16  C   UNL     1      25.107 -27.975  28.842  1.00  0.00     0.007 C 
ATOM     17  C   UNL     1      27.604 -27.825  29.115  1.00  0.00     0.012 C 
ATOM     18  C   UNL     1      24.998 -25.178  28.906  1.00  0.00     0.000 C 
ATOM     19  C   UNL     1      25.062 -27.347  27.450  1.00  0.00     0.005 C 
ATOM     20  C   UNL     1      24.768 -25.826  27.498  1.00  0.00     0.003 C 
ATOM     21  C   UNL     1      25.126 -23.627  28.854  1.00  0.00     0.031 C 
ATOM     22  C   UNL     1      25.357 -25.012  26.288  1.00  0.00    -0.008 C 
ATOM     23  C   UNL     1      24.662 -22.990  27.573  1.00  0.00    -0.027 C 
ATOM     24  C   UNL     1      24.816 -23.582  26.373  1.00  0.00    -0.065 C 
ATOM     25  C   UNL     1      24.888 -25.688  24.956  1.00  0.00     0.014 C 
ATOM     26  C   UNL     1      26.905 -24.953  26.316  1.00  0.00     0.016 C 
ATOM     27  C   UNL     1      24.674 -22.726  25.128  1.00  0.00     0.063 C 
ATOM     28  C   UNL     1      24.993 -24.781  23.727  1.00  0.00     0.033 C 
ATOM     29  C   UNL     1      24.153 -23.523  23.929  1.00  0.00     0.118 C 
BRANCH  29  30
ATOM     30  O   UNL     1      24.219 -22.737  22.769  1.00  0.00    -0.393 OA
ATOM     31  H   UNL     1      24.719 -23.266  22.092  1.00  0.00     0.210 HD
ENDBRANCH  29  30
ENDBRANCH   9  11
ENDBRANCH   1   9
TORSDOF 7
ENDMDL
MODEL 2
REMARK VINA RESULT:    -8.226      1.589      2.267
REMARK INTER + INTRA:         -12.747
REMARK INTER:                 -11.274
REMARK INTRA:                  -1.473
REMARK UNBOUND:                -1.394
REMARK SMILES CC[C@@H](CC[C@@H](C)[C@H]1CC[C@@H]2[C@H]3CC=C4C[C@@H](O)CC[C@]4(C)[C@H]3CC[C@@]21C)C(C)C
REMARK SMILES IDX 5 1 4 2 3 3 2 4 1 5 28 6 29 7 30 8 6 9 7 10 8 11 9 12 26 13
REMARK SMILES IDX 10 14 11 15 25 16 27 17 12 18 24 19 23 20 13 21 21 22 14 23
REMARK SMILES IDX 15 24 20 25 22 26 16 27 19 28 17 29 18 30
REMARK H PARENT 18 31
REMARK Flexibility Score: inf
ROOT
ATOM      1  C   UNL     1      26.300 -27.805  35.197  1.00  0.00     0.004 C 
ENDROOT
BRANCH   1   2
ATOM      2  C   UNL     1      26.774 -26.389  35.583  1.00  0.00     0.004 C 
BRANCH   2   3
ATOM      3  C   UNL     1      28.320 -26.270  35.699  1.00  0.00    -0.009 C 
BRANCH   3   4
ATOM      4  C   UNL     1      28.706 -25.345  36.888  1.00  0.00     0.000 C 
ATOM      5  C   UNL     1      27.527 -24.960  37.786  1.00  0.00     0.004 C 
ENDBRANCH   3   4
BRANCH   3   6
ATOM      6  C   UNL     1      28.987 -25.835  34.349  1.00  0.00    -0.014 C 
ATOM      7  C   UNL     1      30.199 -26.697  33.956  1.00  0.00     0.007 C 
ATOM      8  C   UNL     1      29.373 -24.344  34.338  1.00  0.00     0.007 C 
ENDBRANCH   3   6
ENDBRANCH   2   3
ENDBRANCH   1   2
BRANCH   1   9
ATOM      9  C   UNL     1      26.853 -28.260  33.820  1.00  0.00    -0.011 C 
ATOM     10  C   UNL     1      27.745 -29.518  33.935  1.00  0.00     0.008 C 
BRANCH   9  11
ATOM     11  C   UNL     1      25.763 -28.295  32.684  1.00  0.00    -0.002 C 
ATOM     12  C   UNL     1      24.420 -27.764  33.187  1.00  0.00     0.005 C 
ATOM     13  C   UNL     1      25.979 -27.579  31.288  1.00  0.00    -0.026 C 
ATOM     14  C   UNL     1      24.314 -26.353  32.653  1.00  0.00     0.005 C 
ATOM     15  C   UNL     1      24.967 -26.375  31.261  1.00  0.00    -0.001 C 
ATOM     16  C   UNL     1      25.645 -28.602  30.162  1.00  0.00     0.007 C 
ATOM     17  C   UNL     1      27.423 -27.053  31.042  1.00  0.00     0.012 C 
ATOM     18  C   UNL     1      23.864 -26.442  30.144  1.00  0.00     0.000 C 
ATOM     19  C   UNL     1      25.522 -27.941  28.791  1.00  0.00     0.005 C 
ATOM     20  C   UNL     1      24.369 -26.905  28.736  1.00  0.00     0.003 C 
ATOM     21  C   UNL     1      23.039 -25.122  30.096  1.00  0.00     0.031 C 
ATOM     22  C   UNL     1      24.587 -25.747  27.694  1.00  0.00    -0.008 C 
ATOM     23  C   UNL     1      22.565 -24.714  28.728  1.00  0.00    -0.027 C 
ATOM     24  C   UNL     1      23.291 -24.934  27.616  1.00  0.00    -0.065 C 
ATOM     25  C   UNL     1      24.910 -26.382  26.301  1.00  0.00     0.014 C 
ATOM     26  C   UNL     1      25.738 -24.795  28.103  1.00  0.00     0.016 C 
ATOM     27  C   UNL     1      22.925 -24.167  26.359  1.00  0.00     0.063 C 
ATOM     28  C   UNL     1      24.701 -25.432  25.119  1.00  0.00     0.033 C 
ATOM     29  C   UNL     1      23.254 -24.948  25.083  1.00  0.00     0.118 C 
BRANCH  29  30
ATOM     30  O   UNL     1      23.074 -24.125  23.960  1.00  0.00    -0.393 OA
ATOM     31  H   UNL     1      22.644 -23.289  24.283  1.00  0.00     0.210 HD
ENDBRANCH  29  30
ENDBRANCH   9  11
ENDBRANCH   1   9
TORSDOF 7
ENDMDL
MODEL 3
REMARK VINA RESULT:    -8.096      1.118      1.765
REMARK INTER + INTRA:         -12.566
REMARK INTER:                 -11.157
REMARK INTRA:                  -1.409
REMARK UNBOUND:                -1.394
REMARK SMILES CC[C@@H](CC[C@@H](C)[C@H]1CC[C@@H]2[C@H]3CC=C4C[C@@H](O)CC[C@]4(C)[C@H]3CC[C@@]21C)C(C)C
REMARK SMILES IDX 5 1 4 2 3 3 2 4 1 5 28 6 29 7 30 8 6 9 7 10 8 11 9 12 26 13
REMARK SMILES IDX 10 14 11 15 25 16 27 17 12 18 24 19 23 20 13 21 21 22 14 23
REMARK SMILES IDX 15 24 20 25 22 26 16 27 19 28 17 29 18 30
REMARK H PARENT 18 31
REMARK Flexibility Score: inf
ROOT
ATOM      1  C   UNL     1      26.194 -26.760  34.266  1.00  0.00     0.004 C 
ENDROOT
BRANCH   1   2
ATOM      2  C   UNL     1      27.423 -25.877  34.564  1.00  0.00     0.004 C 
BRANCH   2   3
ATOM      3  C   UNL     1      28.213 -26.330  35.824  1.00  0.00    -0.009 C 
BRANCH   3   4
ATOM      4  C   UNL     1      28.619 -25.097  36.682  1.00  0.00     0.000 C 
ATOM      5  C   UNL     1      27.617 -24.751  37.786  1.00  0.00     0.004 C 
ENDBRANCH   3   4
BRANCH   3   6
ATOM      6  C   UNL     1      29.431 -27.249  35.466  1.00  0.00    -0.014 C 
ATOM      7  C   UNL     1      29.906 -27.099  34.010  1.00  0.00     0.007 C 
ATOM      8  C   UNL     1      29.163 -28.730  35.785  1.00  0.00     0.007 C 
ENDBRANCH   3   6
ENDBRANCH   2   3
ENDBRANCH   1   2
BRANCH   1   9
ATOM      9  C   UNL     1      26.366 -27.600  32.972  1.00  0.00    -0.011 C 
ATOM     10  C   UNL     1      26.595 -29.099  33.274  1.00  0.00     0.008 C 
BRANCH   9  11
ATOM     11  C   UNL     1      25.292 -27.279  31.866  1.00  0.00    -0.002 C 
ATOM     12  C   UNL     1      24.343 -26.169  32.319  1.00  0.00     0.005 C 
ATOM     13  C   UNL     1      25.700 -26.880  30.388  1.00  0.00    -0.026 C 
ATOM     14  C   UNL     1      24.816 -24.916  31.614  1.00  0.00     0.005 C 
ATOM     15  C   UNL     1      25.302 -25.367  30.226  1.00  0.00    -0.001 C 
ATOM     16  C   UNL     1      24.886 -27.771  29.404  1.00  0.00     0.007 C 
ATOM     17  C   UNL     1      27.210 -27.061  30.057  1.00  0.00     0.012 C 
ATOM     18  C   UNL     1      24.204 -25.067  29.143  1.00  0.00     0.000 C 
ATOM     19  C   UNL     1      24.966 -27.271  27.963  1.00  0.00     0.005 C 
ATOM     20  C   UNL     1      24.367 -25.851  27.796  1.00  0.00     0.003 C 
ATOM     21  C   UNL     1      24.023 -23.534  28.943  1.00  0.00     0.031 C 
ATOM     22  C   UNL     1      24.988 -25.019  26.614  1.00  0.00    -0.008 C 
ATOM     23  C   UNL     1      23.679 -23.109  27.542  1.00  0.00    -0.027 C 
ATOM     24  C   UNL     1      24.163 -23.738  26.455  1.00  0.00    -0.065 C 
ATOM     25  C   UNL     1      24.914 -25.875  25.307  1.00  0.00     0.014 C 
ATOM     26  C   UNL     1      26.461 -24.622  26.885  1.00  0.00     0.016 C 
ATOM     27  C   UNL     1      24.078 -23.027  25.117  1.00  0.00     0.063 C 
ATOM     28  C   UNL     1      25.053 -25.060  24.019  1.00  0.00     0.033 C 
ATOM     29  C   UNL     1      23.953 -24.003  23.944  1.00  0.00     0.118 C 
BRANCH  29  30
ATOM     30  O   UNL     1      24.068 -23.308  22.731  1.00  0.00    -0.393 OA
ATOM     31  H   UNL     1      24.785 -22.631  22.854  1.00  0.00     0.210 HD
ENDBRANCH  29  30
ENDBRANCH   9  11
ENDBRANCH   1   9
TORSDOF 7
ENDMDL
MODEL 4
REMARK VINA RESULT:    -7.803      1.312      2.540
REMARK INTER + INTRA:         -12.163
REMARK INTER:                 -10.838
REMARK INTRA:                  -1.325
REMARK UNBOUND:                -1.394
REMARK SMILES CC[C@@H](CC[C@@H](C)[C@H]1CC[C@@H]2[C@H]3CC=C4C[C@@H](O)CC[C@]4(C)[C@H]3CC[C@@]21C)C(C)C
REMARK SMILES IDX 5 1 4 2 3 3 2 4 1 5 28 6 29 7 30 8 6 9 7 10 8 11 9 12 26 13
REMARK SMILES IDX 10 14 11 15 25 16 27 17 12 18 24 19 23 20 13 21 21 22 14 23
REMARK SMILES IDX 15 24 20 25 22 26 16 27 19 28 17 29 18 30
REMARK H PARENT 18 31
REMARK Flexibility Score: inf
ROOT
ATOM      1  C   UNL     1      27.166 -28.937  33.683  1.00  0.00     0.004 C 
ENDROOT
BRANCH   1   2
ATOM      2  C   UNL     1      27.432 -28.519  35.144  1.00  0.00     0.004 C 
BRANCH   2   3
ATOM      3  C   UNL     1      28.074 -27.109  35.272  1.00  0.00    -0.009 C 
BRANCH   3   4
ATOM      4  C   UNL     1      29.625 -27.219  35.296  1.00  0.00     0.000 C 
ATOM      5  C   UNL     1      30.300 -26.780  33.994  1.00  0.00     0.004 C 
ENDBRANCH   3   4
BRANCH   3   6
ATOM      6  C   UNL     1      27.503 -26.302  36.489  1.00  0.00    -0.014 C 
ATOM      7  C   UNL     1      28.462 -25.219  37.012  1.00  0.00     0.007 C 
ATOM      8  C   UNL     1      27.059 -27.218  37.644  1.00  0.00     0.007 C 
ENDBRANCH   3   6
ENDBRANCH   2   3
ENDBRANCH   1   2
BRANCH   1   9
ATOM      9  C   UNL     1      25.967 -28.174  33.057  1.00  0.00    -0.011 C 
ATOM     10  C   UNL     1      24.877 -27.840  34.102  1.00  0.00     0.008 C 
BRANCH   9  11
ATOM     11  C   UNL     1      26.398 -26.989  32.114  1.00  0.00    -0.002 C 
ATOM     12  C   UNL     1      27.800 -27.214  31.545  1.00  0.00     0.005 C 
ATOM     13  C   UNL     1      25.526 -26.546  30.868  1.00  0.00    -0.026 C 
ATOM     14  C   UNL     1      27.590 -27.699  30.127  1.00  0.00     0.005 C 
ATOM     15  C   UNL     1      26.362 -26.941  29.596  1.00  0.00    -0.001 C 
ATOM     16  C   UNL     1      25.331 -25.002  30.939  1.00  0.00     0.007 C 
ATOM     17  C   UNL     1      24.117 -27.201  30.793  1.00  0.00     0.012 C 
ATOM     18  C   UNL     1      26.814 -25.745  28.683  1.00  0.00     0.000 C 
ATOM     19  C   UNL     1      24.771 -24.425  29.640  1.00  0.00     0.005 C 
ATOM     20  C   UNL     1      25.725 -24.646  28.437  1.00  0.00     0.003 C 
ATOM     21  C   UNL     1      27.470 -26.263  27.370  1.00  0.00     0.031 C 
ATOM     22  C   UNL     1      25.001 -24.729  27.043  1.00  0.00    -0.008 C 
ATOM     23  C   UNL     1      27.231 -25.408  26.156  1.00  0.00    -0.027 C 
ATOM     24  C   UNL     1      26.078 -24.744  25.954  1.00  0.00    -0.065 C 
ATOM     25  C   UNL     1      24.087 -23.469  26.880  1.00  0.00     0.014 C 
ATOM     26  C   UNL     1      24.142 -26.009  26.900  1.00  0.00     0.016 C 
ATOM     27  C   UNL     1      25.782 -24.230  24.557  1.00  0.00     0.063 C 
ATOM     28  C   UNL     1      23.681 -23.177  25.432  1.00  0.00     0.033 C 
ATOM     29  C   UNL     1      24.924 -22.962  24.572  1.00  0.00     0.118 C 
BRANCH  29  30
ATOM     30  O   UNL     1      24.525 -22.640  23.265  1.00  0.00    -0.393 OA
ATOM     31  H   UNL     1      24.528 -21.649  23.200  1.00  0.00     0.210 HD
ENDBRANCH  29  30
ENDBRANCH   9  11
ENDBRANCH   1   9
TORSDOF 7
ENDMDL
MODEL 5
REMARK VINA RESULT:    -7.775      3.358      6.968
REMARK INTER + INTRA:         -12.124
REMARK INTER:                  -9.974
REMARK INTRA:                  -2.149
REMARK UNBOUND:                -1.394
REMARK SMILES CC[C@@H](CC[C@@H](C)[C@H]1CC[C@@H]2[C@H]3CC=C4C[C@@H](O)CC[C@]4(C)[C@H]3CC[C@@]21C)C(C)C
REMARK SMILES IDX 5 1 4 2 3 3 2 4 1 5 28 6 29 7 30 8 6 9 7 10 8 11 9 12 26 13
REMARK SMILES IDX 10 14 11 15 25 16 27 17 12 18 24 19 23 20 13 21 21 22 14 23
REMARK SMILES IDX 15 24 20 25 22 26 16 27 19 28 17 29 18 30
REMARK H PARENT 18 31
REMARK Flexibility Score: inf
ROOT
ATOM      1  C   UNL     1      27.153 -24.959  39.848  1.00  0.00     0.004 C 
ENDROOT
BRANCH   1   2
ATOM      2  C   UNL     1      26.403 -26.099  40.566  1.00  0.00     0.004 C 
BRANCH   2   3
ATOM      3  C   UNL     1      25.749 -27.116  39.587  1.00  0.00    -0.009 C 
BRANCH   3   4
ATOM      4  C   UNL     1      24.236 -27.281  39.908  1.00  0.00     0.000 C 
ATOM      5  C   UNL     1      23.319 -26.407  39.050  1.00  0.00     0.004 C 
ENDBRANCH   3   4
BRANCH   3   6
ATOM      6  C   UNL     1      26.515 -28.482  39.547  1.00  0.00    -0.014 C 
ATOM      7  C   UNL     1      26.471 -29.171  38.173  1.00  0.00     0.007 C 
ATOM      8  C   UNL     1      26.039 -29.455  40.641  1.00  0.00     0.007 C 
ENDBRANCH   3   6
ENDBRANCH   2   3
ENDBRANCH   1   2
BRANCH   1   9
ATOM      9  C   UNL     1      26.312 -24.322  38.709  1.00  0.00    -0.011 C 
ATOM     10  C   UNL     1      25.619 -23.013  39.155  1.00  0.00     0.008 C 
BRANCH   9  11
ATOM     11  C   UNL     1      27.067 -24.260  37.328  1.00  0.00    -0.002 C 
ATOM     12  C   UNL     1      28.432 -24.944  37.411  1.00  0.00     0.005 C 
ATOM     13  C   UNL     1      26.422 -24.814  35.991  1.00  0.00    -0.026 C 
ATOM     14  C   UNL     1      28.248 -26.299  36.763  1.00  0.00     0.005 C 
ATOM     15  C   UNL     1      27.262 -26.085  35.603  1.00  0.00    -0.001 C 
ATOM     16  C   UNL     1      26.556 -23.713  34.898  1.00  0.00     0.007 C 
ATOM     17  C   UNL     1      24.918 -25.195  36.103  1.00  0.00     0.012 C 
ATOM     18  C   UNL     1      28.038 -25.996  34.240  1.00  0.00     0.000 C 
ATOM     19  C   UNL     1      26.248 -24.241  33.498  1.00  0.00     0.005 C 
ATOM     20  C   UNL     1      27.234 -25.355  33.058  1.00  0.00     0.003 C 
ATOM     21  C   UNL     1      28.680 -27.366  33.873  1.00  0.00     0.031 C 
ATOM     22  C   UNL     1      26.634 -26.382  32.028  1.00  0.00    -0.008 C 
ATOM     23  C   UNL     1      28.737 -27.671  32.401  1.00  0.00    -0.027 C 
ATOM     24  C   UNL     1      27.774 -27.283  31.544  1.00  0.00    -0.065 C 
ATOM     25  C   UNL     1      26.027 -25.586  30.825  1.00  0.00     0.014 C 
ATOM     26  C   UNL     1      25.537 -27.275  32.658  1.00  0.00     0.016 C 
ATOM     27  C   UNL     1      27.718 -27.947  30.181  1.00  0.00     0.063 C 
ATOM     28  C   UNL     1      25.822 -26.427  29.562  1.00  0.00     0.033 C 
ATOM     29  C   UNL     1      27.152 -27.019  29.103  1.00  0.00     0.118 C 
BRANCH  29  30
ATOM     30  O   UNL     1      26.948 -27.737  27.914  1.00  0.00    -0.393 OA
ATOM     31  H   UNL     1      26.114 -27.385  27.505  1.00  0.00     0.210 HD
ENDBRANCH  29  30
ENDBRANCH   9  11
ENDBRANCH   1   9
TORSDOF 7
ENDMDL
MODEL 6
REMARK VINA RESULT:    -7.749      4.940      7.446
REMARK INTER + INTRA:         -12.088
REMARK INTER:                  -9.646
REMARK INTRA:                  -2.441
REMARK UNBOUND:                -1.394
REMARK SMILES CC[C@@H](CC[C@@H](C)[C@H]1CC[C@@H]2[C@H]3CC=C4C[C@@H](O)CC[C@]4(C)[C@H]3CC[C@@]21C)C(C)C
REMARK SMILES IDX 5 1 4 2 3 3 2 4 1 5 28 6 29 7 30 8 6 9 7 10 8 11 9 12 26 13
REMARK SMILES IDX 10 14 11 15 25 16 27 17 12 18 24 19 23 20 13 21 21 22 14 23
REMARK SMILES IDX 15 24 20 25 22 26 16 27 19 28 17 29 18 30
REMARK H PARENT 18 31
REMARK Flexibility Score: inf
ROOT
ATOM      1  C   UNL     1      24.009 -19.618  31.917  1.00  0.00     0.004 C 
ENDROOT
BRANCH   1   2
ATOM      2  C   UNL     1      22.701 -18.936  31.465  1.00  0.00     0.004 C 
BRANCH   2   3
ATOM      3  C   UNL     1      22.676 -18.602  29.946  1.00  0.00    -0.009 C 
BRANCH   3   4
ATOM      4  C   UNL     1      22.552 -17.067  29.731  1.00  0.00     0.000 C 
ATOM      5  C   UNL     1      23.882 -16.370  29.438  1.00  0.00     0.004 C 
ENDBRANCH   3   4
BRANCH   3   6
ATOM      6  C   UNL     1      21.580 -19.415  29.175  1.00  0.00    -0.014 C 
ATOM      7  C   UNL     1      21.419 -18.989  27.706  1.00  0.00     0.007 C 
ATOM      8  C   UNL     1      20.216 -19.384  29.887  1.00  0.00     0.007 C 
ENDBRANCH   3   6
ENDBRANCH   2   3
ENDBRANCH   1   2
BRANCH   1   9
ATOM      9  C   UNL     1      25.054 -19.712  30.773  1.00  0.00    -0.011 C 
ATOM     10  C   UNL     1      26.333 -18.898  31.080  1.00  0.00     0.008 C 
BRANCH   9  11
ATOM     11  C   UNL     1      25.285 -21.179  30.250  1.00  0.00    -0.002 C 
ATOM     12  C   UNL     1      24.403 -22.180  30.998  1.00  0.00     0.005 C 
ATOM     13  C   UNL     1      25.120 -21.564  28.722  1.00  0.00    -0.026 C 
ATOM     14  C   UNL     1      23.253 -22.487  30.064  1.00  0.00     0.005 C 
ATOM     15  C   UNL     1      23.845 -22.481  28.645  1.00  0.00    -0.001 C 
ATOM     16  C   UNL     1      26.390 -22.351  28.282  1.00  0.00     0.007 C 
ATOM     17  C   UNL     1      24.953 -20.353  27.760  1.00  0.00     0.012 C 
ATOM     18  C   UNL     1      24.097 -23.953  28.155  1.00  0.00     0.000 C 
ATOM     19  C   UNL     1      26.212 -23.033  26.927  1.00  0.00     0.005 C 
ATOM     20  C   UNL     1      25.079 -24.092  26.943  1.00  0.00     0.003 C 
ATOM     21  C   UNL     1      22.751 -24.707  27.944  1.00  0.00     0.031 C 
ATOM     22  C   UNL     1      24.386 -24.322  25.549  1.00  0.00    -0.008 C 
ATOM     23  C   UNL     1      22.750 -25.709  26.822  1.00  0.00    -0.027 C 
ATOM     24  C   UNL     1      23.444 -25.522  25.684  1.00  0.00    -0.065 C 
ATOM     25  C   UNL     1      25.493 -24.622  24.485  1.00  0.00     0.014 C 
ATOM     26  C   UNL     1      23.556 -23.096  25.095  1.00  0.00     0.016 C 
ATOM     27  C   UNL     1      23.090 -26.375  24.480  1.00  0.00     0.063 C 
ATOM     28  C   UNL     1      24.970 -25.300  23.216  1.00  0.00     0.033 C 
ATOM     29  C   UNL     1      24.294 -26.622  23.567  1.00  0.00     0.118 C 
BRANCH  29  30
ATOM     30  O   UNL     1      23.874 -27.250  22.384  1.00  0.00    -0.393 OA
ATOM     31  H   UNL     1      23.237 -27.965  22.648  1.00  0.00     0.210 HD
ENDBRANCH  29  30
ENDBRANCH   9  11
ENDBRANCH   1   9
TORSDOF 7
ENDMDL
MODEL 7
REMARK VINA RESULT:    -7.708      3.563      9.440
REMARK INTER + INTRA:         -12.031
REMARK INTER:                 -10.930
REMARK INTRA:                  -1.101
REMARK UNBOUND:                -1.394
REMARK SMILES CC[C@@H](CC[C@@H](C)[C@H]1CC[C@@H]2[C@H]3CC=C4C[C@@H](O)CC[C@]4(C)[C@H]3CC[C@@]21C)C(C)C
REMARK SMILES IDX 5 1 4 2 3 3 2 4 1 5 28 6 29 7 30 8 6 9 7 10 8 11 9 12 26 13
REMARK SMILES IDX 10 14 11 15 25 16 27 17 12 18 24 19 23 20 13 21 21 22 14 23
REMARK SMILES IDX 15 24 20 25 22 26 16 27 19 28 17 29 18 30
REMARK H PARENT 18 31
REMARK Flexibility Score: inf
ROOT
ATOM      1  C   UNL     1      25.893 -25.943  26.899  1.00  0.00     0.004 C 
ENDROOT
BRANCH   1   2
ATOM      2  C   UNL     1      25.928 -24.776  25.891  1.00  0.00     0.004 C 
BRANCH   2   3
ATOM      3  C   UNL     1      24.826 -24.877  24.798  1.00  0.00    -0.009 C 
BRANCH   3   4
ATOM      4  C   UNL     1      24.002 -23.560  24.736  1.00  0.00     0.000 C 
ATOM      5  C   UNL     1      24.854 -22.300  24.568  1.00  0.00     0.004 C 
ENDBRANCH   3   4
BRANCH   3   6
ATOM      6  C   UNL     1      23.928 -26.149  24.973  1.00  0.00    -0.014 C 
ATOM      7  C   UNL     1      23.960 -27.096  23.761  1.00  0.00     0.007 C 
ATOM      8  C   UNL     1      22.472 -25.796  25.329  1.00  0.00     0.007 C 
ENDBRANCH   3   6
ENDBRANCH   2   3
ENDBRANCH   1   2
BRANCH   1   9
ATOM      9  C   UNL     1      25.536 -25.476  28.335  1.00  0.00    -0.011 C 
ATOM     10  C   UNL     1      24.359 -24.472  28.348  1.00  0.00     0.008 C 
BRANCH   9  11
ATOM     11  C   UNL     1      25.442 -26.654  29.376  1.00  0.00    -0.002 C 
ATOM     12  C   UNL     1      26.455 -27.755  29.060  1.00  0.00     0.005 C 
ATOM     13  C   UNL     1      25.584 -26.413  30.935  1.00  0.00    -0.026 C 
ATOM     14  C   UNL     1      27.593 -27.553  30.038  1.00  0.00     0.005 C 
ATOM     15  C   UNL     1      26.946 -27.081  31.350  1.00  0.00    -0.001 C 
ATOM     16  C   UNL     1      24.389 -27.116  31.644  1.00  0.00     0.007 C 
ATOM     17  C   UNL     1      25.582 -24.918  31.366  1.00  0.00     0.012 C 
ATOM     18  C   UNL     1      26.833 -28.278  32.362  1.00  0.00     0.000 C 
ATOM     19  C   UNL     1      24.583 -27.212  33.156  1.00  0.00     0.005 C 
ATOM     20  C   UNL     1      25.822 -28.061  33.539  1.00  0.00     0.003 C 
ATOM     21  C   UNL     1      28.242 -28.738  32.840  1.00  0.00     0.031 C 
ATOM     22  C   UNL     1      26.478 -27.668  34.914  1.00  0.00    -0.008 C 
ATOM     23  C   UNL     1      28.305 -29.236  34.258  1.00  0.00    -0.027 C 
ATOM     24  C   UNL     1      27.548 -28.715  35.242  1.00  0.00    -0.065 C 
ATOM     25  C   UNL     1      25.367 -27.670  36.016  1.00  0.00     0.014 C 
ATOM     26  C   UNL     1      27.153 -26.275  34.868  1.00  0.00     0.016 C 
ATOM     27  C   UNL     1      27.942 -29.004  36.678  1.00  0.00     0.063 C 
ATOM     28  C   UNL     1      25.907 -27.755  37.446  1.00  0.00     0.033 C 
ATOM     29  C   UNL     1      26.735 -29.026  37.621  1.00  0.00     0.118 C 
BRANCH  29  30
ATOM     30  O   UNL     1      27.171 -29.109  38.952  1.00  0.00    -0.393 OA
ATOM     31  H   UNL     1      26.356 -29.138  39.520  1.00  0.00     0.210 HD
ENDBRANCH  29  30
ENDBRANCH   9  11
ENDBRANCH   1   9
TORSDOF 7
ENDMDL
MODEL 8
REMARK VINA RESULT:    -7.698      3.801      9.233
REMARK INTER + INTRA:         -12.017
REMARK INTER:                 -10.966
REMARK INTRA:                  -1.051
REMARK UNBOUND:                -1.394
REMARK SMILES CC[C@@H](CC[C@@H](C)[C@H]1CC[C@@H]2[C@H]3CC=C4C[C@@H](O)CC[C@]4(C)[C@H]3CC[C@@]21C)C(C)C
REMARK SMILES IDX 5 1 4 2 3 3 2 4 1 5 28 6 29 7 30 8 6 9 7 10 8 11 9 12 26 13
REMARK SMILES IDX 10 14 11 15 25 16 27 17 12 18 24 19 23 20 13 21 21 22 14 23
REMARK SMILES IDX 15 24 20 25 22 26 16 27 19 28 17 29 18 30
REMARK H PARENT 18 31
REMARK Flexibility Score: inf
ROOT
ATOM      1  C   UNL     1      26.756 -26.514  27.634  1.00  0.00     0.004 C 
ENDROOT
BRANCH   1   2
ATOM      2  C   UNL     1      26.406 -25.514  26.514  1.00  0.00     0.004 C 
BRANCH   2   3
ATOM      3  C   UNL     1      27.583 -24.566  26.147  1.00  0.00    -0.009 C 
BRANCH   3   4
ATOM      4  C   UNL     1      27.620 -23.349  27.114  1.00  0.00     0.000 C 
ATOM      5  C   UNL     1      26.240 -22.879  27.578  1.00  0.00     0.004 C 
ENDBRANCH   3   4
BRANCH   3   6
ATOM      6  C   UNL     1      27.559 -24.143  24.638  1.00  0.00    -0.014 C 
ATOM      7  C   UNL     1      28.148 -22.746  24.381  1.00  0.00     0.007 C 
ATOM      8  C   UNL     1      26.153 -24.246  24.021  1.00  0.00     0.007 C 
ENDBRANCH   3   6
ENDBRANCH   2   3
ENDBRANCH   1   2
BRANCH   1   9
ATOM      9  C   UNL     1      25.596 -26.697  28.650  1.00  0.00    -0.011 C 
ATOM     10  C   UNL     1      24.217 -26.774  27.954  1.00  0.00     0.008 C 
BRANCH   9  11
ATOM     11  C   UNL     1      25.879 -27.802  29.735  1.00  0.00    -0.002 C 
ATOM     12  C   UNL     1      27.346 -28.231  29.722  1.00  0.00     0.005 C 
ATOM     13  C   UNL     1      25.539 -27.583  31.267  1.00  0.00    -0.026 C 
ATOM     14  C   UNL     1      27.988 -27.523  30.896  1.00  0.00     0.005 C 
ATOM     15  C   UNL     1      26.925 -27.492  32.005  1.00  0.00    -0.001 C 
ATOM     16  C   UNL     1      24.732 -28.819  31.765  1.00  0.00     0.007 C 
ATOM     17  C   UNL     1      24.699 -26.310  31.572  1.00  0.00     0.012 C 
ATOM     18  C   UNL     1      27.207 -28.621  33.061  1.00  0.00     0.000 C 
ATOM     19  C   UNL     1      24.614 -28.863  33.288  1.00  0.00     0.005 C 
ATOM     20  C   UNL     1      25.995 -28.987  33.983  1.00  0.00     0.003 C 
ATOM     21  C   UNL     1      28.515 -28.328  33.853  1.00  0.00     0.031 C 
ATOM     22  C   UNL     1      26.050 -28.372  35.430  1.00  0.00    -0.008 C 
ATOM     23  C   UNL     1      28.507 -28.782  35.288  1.00  0.00    -0.027 C 
ATOM     24  C   UNL     1      27.399 -28.750  36.051  1.00  0.00    -0.065 C 
ATOM     25  C   UNL     1      24.879 -28.974  36.275  1.00  0.00     0.014 C 
ATOM     26  C   UNL     1      25.933 -26.827  35.418  1.00  0.00     0.016 C 
ATOM     27  C   UNL     1      27.561 -28.858  37.556  1.00  0.00     0.063 C 
ATOM     28  C   UNL     1      25.064 -28.831  37.788  1.00  0.00     0.033 C 
ATOM     29  C   UNL     1      26.354 -29.519  38.227  1.00  0.00     0.118 C 
BRANCH  29  30
ATOM     30  O   UNL     1      26.472 -29.424  39.622  1.00  0.00    -0.393 OA
ATOM     31  H   UNL     1      27.124 -30.119  39.903  1.00  0.00     0.210 HD
ENDBRANCH  29  30
ENDBRANCH   9  11
ENDBRANCH   1   9
TORSDOF 7
ENDMDL
MODEL 9
REMARK VINA RESULT:    -7.647      6.405     10.028
REMARK INTER + INTRA:         -11.948
REMARK INTER:                 -10.251
REMARK INTRA:                  -1.697
REMARK UNBOUND:                -1.394
REMARK SMILES CC[C@@H](CC[C@@H](C)[C@H]1CC[C@@H]2[C@H]3CC=C4C[C@@H](O)CC[C@]4(C)[C@H]3CC[C@@]21C)C(C)C
REMARK SMILES IDX 5 1 4 2 3 3 2 4 1 5 28 6 29 7 30 8 6 9 7 10 8 11 9 12 26 13
REMARK SMILES IDX 10 14 11 15 25 16 27 17 12 18 24 19 23 20 13 21 21 22 14 23
REMARK SMILES IDX 15 24 20 25 22 26 16 27 19 28 17 29 18 30
REMARK H PARENT 18 31
REMARK Flexibility Score: inf
ROOT
ATOM      1  C   UNL     1      27.616 -26.222  36.636  1.00  0.00     0.004 C 
ENDROOT
BRANCH   1   2
ATOM      2  C   UNL     1      28.889 -26.997  36.240  1.00  0.00     0.004 C 
BRANCH   2   3
ATOM      3  C   UNL     1      29.341 -26.728  34.777  1.00  0.00    -0.009 C 
BRANCH   3   4
ATOM      4  C   UNL     1      28.665 -25.440  34.228  1.00  0.00     0.000 C 
ATOM      5  C   UNL     1      29.503 -24.172  34.410  1.00  0.00     0.004 C 
ENDBRANCH   3   4
BRANCH   3   6
ATOM      6  C   UNL     1      29.125 -27.972  33.847  1.00  0.00    -0.014 C 
ATOM      7  C   UNL     1      28.078 -27.739  32.744  1.00  0.00     0.007 C 
ATOM      8  C   UNL     1      28.782 -29.245  34.641  1.00  0.00     0.007 C 
ENDBRANCH   3   6
ENDBRANCH   2   3
ENDBRANCH   1   2
BRANCH   1   9
ATOM      9  C   UNL     1      26.781 -26.964  37.714  1.00  0.00    -0.011 C 
ATOM     10  C   UNL     1      26.859 -26.272  39.094  1.00  0.00     0.008 C 
BRANCH   9  11
ATOM     11  C   UNL     1      25.336 -27.361  37.227  1.00  0.00    -0.002 C 
ATOM     12  C   UNL     1      25.199 -27.208  35.712  1.00  0.00     0.005 C 
ATOM     13  C   UNL     1      24.701 -28.777  37.546  1.00  0.00    -0.026 C 
ATOM     14  C   UNL     1      25.307 -28.609  35.150  1.00  0.00     0.005 C 
ATOM     15  C   UNL     1      24.616 -29.530  36.168  1.00  0.00    -0.001 C 
ATOM     16  C   UNL     1      23.277 -28.547  38.135  1.00  0.00     0.007 C 
ATOM     17  C   UNL     1      25.504 -29.638  38.564  1.00  0.00     0.012 C 
ATOM     18  C   UNL     1      23.166 -29.888  35.680  1.00  0.00     0.000 C 
ATOM     19  C   UNL     1      22.456 -29.833  38.194  1.00  0.00     0.005 C 
ATOM     20  C   UNL     1      22.207 -30.440  36.789  1.00  0.00     0.003 C 
ATOM     21  C   UNL     1      23.212 -30.785  34.408  1.00  0.00     0.031 C 
ATOM     22  C   UNL     1      22.011 -32.001  36.782  1.00  0.00    -0.008 C 
ATOM     23  C   UNL     1      22.104 -31.795  34.297  1.00  0.00    -0.027 C 
ATOM     24  C   UNL     1      21.580 -32.415  35.372  1.00  0.00    -0.065 C 
ATOM     25  C   UNL     1      20.897 -32.369  37.817  1.00  0.00     0.014 C 
ATOM     26  C   UNL     1      23.314 -32.760  37.138  1.00  0.00     0.016 C 
ATOM     27  C   UNL     1      20.755 -33.668  35.145  1.00  0.00     0.063 C 
ATOM     28  C   UNL     1      20.285 -33.757  37.607  1.00  0.00     0.033 C 
ATOM     29  C   UNL     1      19.673 -33.855  36.212  1.00  0.00     0.118 C 
BRANCH  29  30
ATOM     30  O   UNL     1      19.070 -35.114  36.064  1.00  0.00    -0.393 OA
ATOM     31  H   UNL     1      18.097 -34.953  35.943  1.00  0.00     0.210 HD
ENDBRANCH  29  30
ENDBRANCH   9  11
ENDBRANCH   1   9
TORSDOF 7
ENDMDL
