MODEL 1
REMARK VINA RESULT:    -3.105      0.000      0.000
REMARK INTER + INTRA:          -7.048
REMARK INTER:                  -5.464
REMARK INTRA:                  -1.583
REMARK UNBOUND:                -1.583
REMARK SMILES CCCCCCCCCCCCCCC(=O)[O-]
REMARK SMILES IDX 9 1 10 2 11 3 12 4 13 5 14 6 15 7 16 8 17 9 8 10 7 11 6 12
REMARK SMILES IDX 5 13 4 14 3 15 2 16 1 17
REMARK H PARENT
REMARK Flexibility Score: inf
ROOT
ATOM      1  C   UNL     1      62.643  28.759  60.117  1.00  0.00     0.000 C 
ENDROOT
BRANCH   1   2
ATOM      2  C   UNL     1      63.231  29.172  61.483  1.00  0.00     0.000 C 
BRANCH   2   3
ATOM      3  C   UNL     1      64.651  29.762  61.432  1.00  0.00     0.000 C 
BRANCH   3   4
ATOM      4  C   UNL     1      65.423  29.354  60.166  1.00  0.00     0.000 C 
BRANCH   4   5
ATOM      5  C   UNL     1      66.835  29.969  60.105  1.00  0.00     0.006 C 
BRANCH   5   6
ATOM      6  C   UNL     1      67.939  28.984  59.687  1.00  0.00     0.053 C 
BRANCH   6   7
ATOM      7  C   UNL     1      68.266  28.009  60.774  1.00  0.00     0.041 C 
ATOM      8  O   UNL     1      68.324  26.776  60.524  1.00  0.00    -0.550 OA
ATOM      9  O   UNL     1      68.472  28.458  62.072  1.00  0.00    -0.550 OA
ENDBRANCH   6   7
ENDBRANCH   5   6
ENDBRANCH   4   5
ENDBRANCH   3   4
ENDBRANCH   2   3
ENDBRANCH   1   2
BRANCH   1  10
ATOM     10  C   UNL     1      61.646  29.763  59.506  1.00  0.00     0.000 C 
BRANCH  10  11
ATOM     11  C   UNL     1      62.225  30.668  58.400  1.00  0.00    -0.000 C 
BRANCH  11  12
ATOM     12  C   UNL     1      62.789  32.014  58.887  1.00  0.00    -0.000 C 
BRANCH  12  13
ATOM     13  C   UNL     1      64.264  32.220  58.499  1.00  0.00    -0.000 C 
BRANCH  13  14
ATOM     14  C   UNL     1      64.854  33.511  59.089  1.00  0.00    -0.000 C 
BRANCH  14  15
ATOM     15  C   UNL     1      64.805  33.534  60.627  1.00  0.00    -0.000 C 
BRANCH  15  16
ATOM     16  C   UNL     1      64.428  34.916  61.183  1.00  0.00    -0.003 C 
ATOM     17  C   UNL     1      65.399  35.409  62.255  1.00  0.00     0.004 C 
ENDBRANCH  15  16
ENDBRANCH  14  15
ENDBRANCH  13  14
ENDBRANCH  12  13
ENDBRANCH  11  12
ENDBRANCH  10  11
ENDBRANCH   1  10
TORSDOF 13
ENDMDL
MODEL 2
REMARK VINA RESULT:    -3.102     13.230     15.635
REMARK INTER + INTRA:          -7.043
REMARK INTER:                  -5.163
REMARK INTRA:                  -1.880
REMARK UNBOUND:                -1.583
REMARK SMILES CCCCCCCCCCCCCCC(=O)[O-]
REMARK SMILES IDX 9 1 10 2 11 3 12 4 13 5 14 6 15 7 16 8 17 9 8 10 7 11 6 12
REMARK SMILES IDX 5 13 4 14 3 15 2 16 1 17
REMARK H PARENT
REMARK Flexibility Score: inf
ROOT
ATOM      1  C   UNL     1      60.500  18.154  51.102  1.00  0.00     0.000 C 
ENDROOT
BRANCH   1   2
ATOM      2  C   UNL     1      60.997  19.575  50.765  1.00  0.00     0.000 C 
BRANCH   2   3
ATOM      3  C   UNL     1      60.235  20.282  49.630  1.00  0.00     0.000 C 
BRANCH   3   4
ATOM      4  C   UNL     1      61.039  21.428  48.994  1.00  0.00     0.000 C 
BRANCH   4   5
ATOM      5  C   UNL     1      61.349  22.562  49.989  1.00  0.00     0.006 C 
BRANCH   5   6
ATOM      6  C   UNL     1      60.221  23.594  50.149  1.00  0.00     0.053 C 
BRANCH   6   7
ATOM      7  C   UNL     1      60.734  25.000  50.112  1.00  0.00     0.041 C 
ATOM      8  O   UNL     1      61.735  25.328  50.802  1.00  0.00    -0.550 OA
ATOM      9  O   UNL     1      60.085  25.957  49.343  1.00  0.00    -0.550 OA
ENDBRANCH   6   7
ENDBRANCH   5   6
ENDBRANCH   4   5
ENDBRANCH   3   4
ENDBRANCH   2   3
ENDBRANCH   1   2
BRANCH   1  10
ATOM     10  C   UNL     1      59.536  17.537  50.070  1.00  0.00     0.000 C 
BRANCH  10  11
ATOM     11  C   UNL     1      58.193  17.044  50.644  1.00  0.00    -0.000 C 
BRANCH  11  12
ATOM     12  C   UNL     1      56.984  17.948  50.347  1.00  0.00    -0.000 C 
BRANCH  12  13
ATOM     13  C   UNL     1      56.461  18.676  51.597  1.00  0.00    -0.000 C 
BRANCH  13  14
ATOM     14  C   UNL     1      57.147  18.200  52.888  1.00  0.00    -0.000 C 
BRANCH  14  15
ATOM     15  C   UNL     1      57.942  19.321  53.582  1.00  0.00    -0.000 C 
BRANCH  15  16
ATOM     16  C   UNL     1      57.856  20.657  52.827  1.00  0.00    -0.003 C 
ATOM     17  C   UNL     1      59.055  21.566  53.090  1.00  0.00     0.004 C 
ENDBRANCH  15  16
ENDBRANCH  14  15
ENDBRANCH  13  14
ENDBRANCH  12  13
ENDBRANCH  11  12
ENDBRANCH  10  11
ENDBRANCH   1  10
TORSDOF 13
ENDMDL
MODEL 3
REMARK VINA RESULT:    -3.089     11.079     13.049
REMARK INTER + INTRA:          -7.019
REMARK INTER:                  -5.490
REMARK INTRA:                  -1.529
REMARK UNBOUND:                -1.583
REMARK SMILES CCCCCCCCCCCCCCC(=O)[O-]
REMARK SMILES IDX 9 1 10 2 11 3 12 4 13 5 14 6 15 7 16 8 17 9 8 10 7 11 6 12
REMARK SMILES IDX 5 13 4 14 3 15 2 16 1 17
REMARK H PARENT
REMARK Flexibility Score: inf
ROOT
ATOM      1  C   UNL     1      60.843  26.802  50.524  1.00  0.00     0.000 C 
ENDROOT
BRANCH   1   2
ATOM      2  C   UNL     1      60.047  25.977  49.492  1.00  0.00     0.000 C 
BRANCH   2   3
ATOM      3  C   UNL     1      59.423  24.679  50.034  1.00  0.00     0.000 C 
BRANCH   3   4
ATOM      4  C   UNL     1      59.872  24.353  51.468  1.00  0.00     0.000 C 
BRANCH   4   5
ATOM      5  C   UNL     1      60.758  23.095  51.544  1.00  0.00     0.006 C 
BRANCH   5   6
ATOM      6  C   UNL     1      61.734  22.934  50.367  1.00  0.00     0.053 C 
BRANCH   6   7
ATOM      7  C   UNL     1      61.541  21.635  49.649  1.00  0.00     0.041 C 
ATOM      8  O   UNL     1      61.129  21.623  48.460  1.00  0.00    -0.550 OA
ATOM      9  O   UNL     1      61.783  20.435  50.306  1.00  0.00    -0.550 OA
ENDBRANCH   6   7
ENDBRANCH   5   6
ENDBRANCH   4   5
ENDBRANCH   3   4
ENDBRANCH   2   3
ENDBRANCH   1   2
BRANCH   1  10
ATOM     10  C   UNL     1      60.691  28.331  50.394  1.00  0.00     0.000 C 
BRANCH  10  11
ATOM     11  C   UNL     1      59.760  28.984  51.436  1.00  0.00    -0.000 C 
BRANCH  11  12
ATOM     12  C   UNL     1      59.050  28.002  52.384  1.00  0.00    -0.000 C 
BRANCH  12  13
ATOM     13  C   UNL     1      57.519  28.023  52.227  1.00  0.00    -0.000 C 
BRANCH  13  14
ATOM     14  C   UNL     1      56.928  26.619  52.017  1.00  0.00    -0.000 C 
BRANCH  14  15
ATOM     15  C   UNL     1      56.102  26.514  50.723  1.00  0.00    -0.000 C 
BRANCH  15  16
ATOM     16  C   UNL     1      54.880  27.445  50.728  1.00  0.00    -0.003 C 
ATOM     17  C   UNL     1      54.031  27.319  49.464  1.00  0.00     0.004 C 
ENDBRANCH  15  16
ENDBRANCH  14  15
ENDBRANCH  13  14
ENDBRANCH  12  13
ENDBRANCH  11  12
ENDBRANCH  10  11
ENDBRANCH   1  10
TORSDOF 13
ENDMDL
MODEL 4
REMARK VINA RESULT:    -3.075     13.665     16.273
REMARK INTER + INTRA:          -6.996
REMARK INTER:                  -5.460
REMARK INTRA:                  -1.536
REMARK UNBOUND:                -1.583
REMARK SMILES CCCCCCCCCCCCCCC(=O)[O-]
REMARK SMILES IDX 9 1 10 2 11 3 12 4 13 5 14 6 15 7 16 8 17 9 8 10 7 11 6 12
REMARK SMILES IDX 5 13 4 14 3 15 2 16 1 17
REMARK H PARENT
REMARK Flexibility Score: inf
ROOT
ATOM      1  C   UNL     1      60.642  20.049  51.224  1.00  0.00     0.000 C 
ENDROOT
BRANCH   1   2
ATOM      2  C   UNL     1      60.315  20.206  49.724  1.00  0.00     0.000 C 
BRANCH   2   3
ATOM      3  C   UNL     1      60.965  21.419  49.037  1.00  0.00     0.000 C 
BRANCH   3   4
ATOM      4  C   UNL     1      61.793  22.281  50.004  1.00  0.00     0.000 C 
BRANCH   4   5
ATOM      5  C   UNL     1      61.323  23.748  50.046  1.00  0.00     0.006 C 
BRANCH   5   6
ATOM      6  C   UNL     1      59.888  23.940  50.566  1.00  0.00     0.053 C 
BRANCH   6   7
ATOM      7  C   UNL     1      59.287  25.228  50.095  1.00  0.00     0.041 C 
ATOM      8  O   UNL     1      60.014  26.242  49.926  1.00  0.00    -0.550 OA
ATOM      9  O   UNL     1      57.919  25.317  49.876  1.00  0.00    -0.550 OA
ENDBRANCH   6   7
ENDBRANCH   5   6
ENDBRANCH   4   5
ENDBRANCH   3   4
ENDBRANCH   2   3
ENDBRANCH   1   2
BRANCH   1  10
ATOM     10  C   UNL     1      61.384  18.750  51.598  1.00  0.00     0.000 C 
BRANCH  10  11
ATOM     11  C   UNL     1      60.473  17.564  51.973  1.00  0.00    -0.000 C 
BRANCH  11  12
ATOM     12  C   UNL     1      60.119  16.620  50.811  1.00  0.00    -0.000 C 
BRANCH  12  13
ATOM     13  C   UNL     1      58.604  16.390  50.668  1.00  0.00    -0.000 C 
BRANCH  13  14
ATOM     14  C   UNL     1      57.937  17.418  49.740  1.00  0.00    -0.000 C 
BRANCH  14  15
ATOM     15  C   UNL     1      56.708  18.085  50.384  1.00  0.00    -0.000 C 
BRANCH  15  16
ATOM     16  C   UNL     1      57.074  18.930  51.614  1.00  0.00    -0.003 C 
ATOM     17  C   UNL     1      56.433  18.413  52.902  1.00  0.00     0.004 C 
ENDBRANCH  15  16
ENDBRANCH  14  15
ENDBRANCH  13  14
ENDBRANCH  12  13
ENDBRANCH  11  12
ENDBRANCH  10  11
ENDBRANCH   1  10
TORSDOF 13
ENDMDL
MODEL 5
REMARK VINA RESULT:    -3.070     10.586     13.141
REMARK INTER + INTRA:          -6.987
REMARK INTER:                  -5.443
REMARK INTRA:                  -1.544
REMARK UNBOUND:                -1.583
REMARK SMILES CCCCCCCCCCCCCCC(=O)[O-]
REMARK SMILES IDX 9 1 10 2 11 3 12 4 13 5 14 6 15 7 16 8 17 9 8 10 7 11 6 12
REMARK SMILES IDX 5 13 4 14 3 15 2 16 1 17
REMARK H PARENT
REMARK Flexibility Score: inf
ROOT
ATOM      1  C   UNL     1      58.747  28.111  52.726  1.00  0.00     0.000 C 
ENDROOT
BRANCH   1   2
ATOM      2  C   UNL     1      58.971  27.258  51.460  1.00  0.00     0.000 C 
BRANCH   2   3
ATOM      3  C   UNL     1      57.931  26.149  51.226  1.00  0.00     0.000 C 
BRANCH   3   4
ATOM      4  C   UNL     1      58.320  25.196  50.083  1.00  0.00     0.000 C 
BRANCH   4   5
ATOM      5  C   UNL     1      59.830  25.214  49.781  1.00  0.00     0.006 C 
BRANCH   5   6
ATOM      6  C   UNL     1      60.552  23.886  50.065  1.00  0.00     0.053 C 
BRANCH   6   7
ATOM      7  C   UNL     1      60.329  23.414  51.469  1.00  0.00     0.041 C 
ATOM      8  O   UNL     1      60.775  24.080  52.440  1.00  0.00    -0.550 OA
ATOM      9  O   UNL     1      59.659  22.221  51.702  1.00  0.00    -0.550 OA
ENDBRANCH   6   7
ENDBRANCH   5   6
ENDBRANCH   4   5
ENDBRANCH   3   4
ENDBRANCH   2   3
ENDBRANCH   1   2
BRANCH   1  10
ATOM     10  C   UNL     1      58.248  29.546  52.466  1.00  0.00     0.000 C 
BRANCH  10  11
ATOM     11  C   UNL     1      56.725  29.679  52.259  1.00  0.00    -0.000 C 
BRANCH  11  12
ATOM     12  C   UNL     1      55.868  28.681  53.058  1.00  0.00    -0.000 C 
BRANCH  12  13
ATOM     13  C   UNL     1      54.844  27.938  52.181  1.00  0.00    -0.000 C 
BRANCH  13  14
ATOM     14  C   UNL     1      54.432  28.748  50.941  1.00  0.00    -0.000 C 
BRANCH  14  15
ATOM     15  C   UNL     1      54.001  27.851  49.767  1.00  0.00    -0.000 C 
BRANCH  15  16
ATOM     16  C   UNL     1      54.652  26.461  49.819  1.00  0.00    -0.003 C 
ATOM     17  C   UNL     1      54.357  25.619  48.578  1.00  0.00     0.004 C 
ENDBRANCH  15  16
ENDBRANCH  14  15
ENDBRANCH  13  14
ENDBRANCH  12  13
ENDBRANCH  11  12
ENDBRANCH  10  11
ENDBRANCH   1  10
TORSDOF 13
ENDMDL
MODEL 6
REMARK VINA RESULT:    -3.051      3.442      6.478
REMARK INTER + INTRA:          -6.953
REMARK INTER:                  -5.631
REMARK INTRA:                  -1.323
REMARK UNBOUND:                -1.583
REMARK SMILES CCCCCCCCCCCCCCC(=O)[O-]
REMARK SMILES IDX 9 1 10 2 11 3 12 4 13 5 14 6 15 7 16 8 17 9 8 10 7 11 6 12
REMARK SMILES IDX 5 13 4 14 3 15 2 16 1 17
REMARK H PARENT
REMARK Flexibility Score: inf
ROOT
ATOM      1  C   UNL     1      65.568  28.819  59.805  1.00  0.00     0.000 C 
ENDROOT
BRANCH   1   2
ATOM      2  C   UNL     1      66.162  30.097  60.433  1.00  0.00     0.000 C 
BRANCH   2   3
ATOM      3  C   UNL     1      65.132  31.164  60.844  1.00  0.00     0.000 C 
BRANCH   3   4
ATOM      4  C   UNL     1      64.243  31.618  59.675  1.00  0.00     0.000 C 
BRANCH   4   5
ATOM      5  C   UNL     1      63.964  33.133  59.693  1.00  0.00     0.006 C 
BRANCH   5   6
ATOM      6  C   UNL     1      65.067  33.975  60.355  1.00  0.00     0.053 C 
BRANCH   6   7
ATOM      7  C   UNL     1      64.513  34.950  61.347  1.00  0.00     0.041 C 
ATOM      8  O   UNL     1      63.346  35.401  61.208  1.00  0.00    -0.550 OA
ATOM      9  O   UNL     1      65.299  35.388  62.405  1.00  0.00    -0.550 OA
ENDBRANCH   6   7
ENDBRANCH   5   6
ENDBRANCH   4   5
ENDBRANCH   3   4
ENDBRANCH   2   3
ENDBRANCH   1   2
BRANCH   1  10
ATOM     10  C   UNL     1      65.108  27.749  60.814  1.00  0.00     0.000 C 
BRANCH  10  11
ATOM     11  C   UNL     1      63.582  27.538  60.890  1.00  0.00    -0.000 C 
BRANCH  11  12
ATOM     12  C   UNL     1      62.808  28.630  61.650  1.00  0.00    -0.000 C 
BRANCH  12  13
ATOM     13  C   UNL     1      61.496  29.028  60.951  1.00  0.00    -0.000 C 
BRANCH  13  14
ATOM     14  C   UNL     1      60.811  27.838  60.260  1.00  0.00    -0.000 C 
BRANCH  14  15
ATOM     15  C   UNL     1      59.398  27.571  60.808  1.00  0.00    -0.000 C 
BRANCH  15  16
ATOM     16  C   UNL     1      59.381  26.466  61.876  1.00  0.00    -0.003 C 
ATOM     17  C   UNL     1      60.563  25.505  61.755  1.00  0.00     0.004 C 
ENDBRANCH  15  16
ENDBRANCH  14  15
ENDBRANCH  13  14
ENDBRANCH  12  13
ENDBRANCH  11  12
ENDBRANCH  10  11
ENDBRANCH   1  10
TORSDOF 13
ENDMDL
MODEL 7
REMARK VINA RESULT:    -3.037      3.569      5.189
REMARK INTER + INTRA:          -6.927
REMARK INTER:                  -5.064
REMARK INTRA:                  -1.863
REMARK UNBOUND:                -1.583
REMARK SMILES CCCCCCCCCCCCCCC(=O)[O-]
REMARK SMILES IDX 9 1 10 2 11 3 12 4 13 5 14 6 15 7 16 8 17 9 8 10 7 11 6 12
REMARK SMILES IDX 5 13 4 14 3 15 2 16 1 17
REMARK H PARENT
REMARK Flexibility Score: inf
ROOT
ATOM      1  C   UNL     1      61.612  29.250  59.467  1.00  0.00     0.000 C 
ENDROOT
BRANCH   1   2
ATOM      2  C   UNL     1      61.599  29.060  60.998  1.00  0.00     0.000 C 
BRANCH   2   3
ATOM      3  C   UNL     1      62.802  28.293  61.572  1.00  0.00     0.000 C 
BRANCH   3   4
ATOM      4  C   UNL     1      63.142  27.026  60.770  1.00  0.00     0.000 C 
BRANCH   4   5
ATOM      5  C   UNL     1      62.994  25.737  61.601  1.00  0.00     0.006 C 
BRANCH   5   6
ATOM      6  C   UNL     1      62.259  25.924  62.938  1.00  0.00     0.053 C 
BRANCH   6   7
ATOM      7  C   UNL     1      60.860  25.393  62.891  1.00  0.00     0.041 C 
ATOM      8  O   UNL     1      59.977  25.992  62.223  1.00  0.00    -0.550 OA
ATOM      9  O   UNL     1      60.524  24.254  63.612  1.00  0.00    -0.550 OA
ENDBRANCH   6   7
ENDBRANCH   5   6
ENDBRANCH   4   5
ENDBRANCH   3   4
ENDBRANCH   2   3
ENDBRANCH   1   2
BRANCH   1  10
ATOM     10  C   UNL     1      61.655  30.716  58.991  1.00  0.00     0.000 C 
BRANCH  10  11
ATOM     11  C   UNL     1      63.039  31.210  58.524  1.00  0.00    -0.000 C 
BRANCH  11  12
ATOM     12  C   UNL     1      63.605  32.405  59.311  1.00  0.00    -0.000 C 
BRANCH  12  13
ATOM     13  C   UNL     1      65.015  32.141  59.867  1.00  0.00    -0.000 C 
BRANCH  13  14
ATOM     14  C   UNL     1      65.027  31.049  60.949  1.00  0.00    -0.000 C 
BRANCH  14  15
ATOM     15  C   UNL     1      66.019  29.915  60.632  1.00  0.00    -0.000 C 
BRANCH  15  16
ATOM     16  C   UNL     1      66.265  29.753  59.124  1.00  0.00    -0.003 C 
ATOM     17  C   UNL     1      65.818  28.392  58.593  1.00  0.00     0.004 C 
ENDBRANCH  15  16
ENDBRANCH  14  15
ENDBRANCH  13  14
ENDBRANCH  12  13
ENDBRANCH  11  12
ENDBRANCH  10  11
ENDBRANCH   1  10
TORSDOF 13
ENDMDL
MODEL 8
REMARK VINA RESULT:    -3.035     10.897     13.229
REMARK INTER + INTRA:          -6.925
REMARK INTER:                  -4.871
REMARK INTRA:                  -2.054
REMARK UNBOUND:                -1.583
REMARK SMILES CCCCCCCCCCCCCCC(=O)[O-]
REMARK SMILES IDX 9 1 10 2 11 3 12 4 13 5 14 6 15 7 16 8 17 9 8 10 7 11 6 12
REMARK SMILES IDX 5 13 4 14 3 15 2 16 1 17
REMARK H PARENT
REMARK Flexibility Score: inf
ROOT
ATOM      1  C   UNL     1      60.723  28.398  51.496  1.00  0.00     0.000 C 
ENDROOT
BRANCH   1   2
ATOM      2  C   UNL     1      59.435  29.225  51.681  1.00  0.00     0.000 C 
BRANCH   2   3
ATOM      3  C   UNL     1      58.357  28.568  52.561  1.00  0.00     0.000 C 
BRANCH   3   4
ATOM      4  C   UNL     1      57.945  27.174  52.061  1.00  0.00     0.000 C 
BRANCH   4   5
ATOM      5  C   UNL     1      56.493  27.130  51.548  1.00  0.00     0.006 C 
BRANCH   5   6
ATOM      6  C   UNL     1      56.154  25.891  50.703  1.00  0.00     0.053 C 
BRANCH   6   7
ATOM      7  C   UNL     1      55.079  26.171  49.699  1.00  0.00     0.041 C 
ATOM      8  O   UNL     1      54.764  25.299  48.848  1.00  0.00    -0.550 OA
ATOM      9  O   UNL     1      54.449  27.409  49.682  1.00  0.00    -0.550 OA
ENDBRANCH   6   7
ENDBRANCH   5   6
ENDBRANCH   4   5
ENDBRANCH   3   4
ENDBRANCH   2   3
ENDBRANCH   1   2
BRANCH   1  10
ATOM     10  C   UNL     1      61.080  28.064  50.034  1.00  0.00     0.000 C 
BRANCH  10  11
ATOM     11  C   UNL     1      61.190  26.559  49.716  1.00  0.00    -0.000 C 
BRANCH  11  12
ATOM     12  C   UNL     1      59.853  25.854  49.427  1.00  0.00    -0.000 C 
BRANCH  12  13
ATOM     13  C   UNL     1      59.702  24.525  50.188  1.00  0.00    -0.000 C 
BRANCH  13  14
ATOM     14  C   UNL     1      60.829  24.299  51.208  1.00  0.00    -0.000 C 
BRANCH  14  15
ATOM     15  C   UNL     1      60.315  24.266  52.659  1.00  0.00    -0.000 C 
BRANCH  15  16
ATOM     16  C   UNL     1      60.823  25.455  53.489  1.00  0.00    -0.003 C 
ATOM     17  C   UNL     1      62.327  25.682  53.344  1.00  0.00     0.004 C 
ENDBRANCH  15  16
ENDBRANCH  14  15
ENDBRANCH  13  14
ENDBRANCH  12  13
ENDBRANCH  11  12
ENDBRANCH  10  11
ENDBRANCH   1  10
TORSDOF 13
ENDMDL
MODEL 9
REMARK VINA RESULT:    -3.020      2.608      3.981
REMARK INTER + INTRA:          -6.898
REMARK INTER:                  -5.496
REMARK INTRA:                  -1.402
REMARK UNBOUND:                -1.583
REMARK SMILES CCCCCCCCCCCCCCC(=O)[O-]
REMARK SMILES IDX 9 1 10 2 11 3 12 4 13 5 14 6 15 7 16 8 17 9 8 10 7 11 6 12
REMARK SMILES IDX 5 13 4 14 3 15 2 16 1 17
REMARK H PARENT
REMARK Flexibility Score: inf
ROOT
ATOM      1  C   UNL     1      66.215  27.469  59.414  1.00  0.00     0.000 C 
ENDROOT
BRANCH   1   2
ATOM      2  C   UNL     1      67.440  28.350  59.734  1.00  0.00     0.000 C 
BRANCH   2   3
ATOM      3  C   UNL     1      67.716  28.566  61.232  1.00  0.00     0.000 C 
BRANCH   3   4
ATOM      4  C   UNL     1      69.203  28.408  61.594  1.00  0.00     0.000 C 
BRANCH   4   5
ATOM      5  C   UNL     1      70.136  29.147  60.616  1.00  0.00     0.006 C 
BRANCH   5   6
ATOM      6  C   UNL     1      71.353  29.812  61.278  1.00  0.00     0.053 C 
BRANCH   6   7
ATOM      7  C   UNL     1      71.944  30.887  60.419  1.00  0.00     0.041 C 
ATOM      8  O   UNL     1      73.108  31.309  60.644  1.00  0.00    -0.550 OA
ATOM      9  O   UNL     1      71.195  31.445  59.391  1.00  0.00    -0.550 OA
ENDBRANCH   6   7
ENDBRANCH   5   6
ENDBRANCH   4   5
ENDBRANCH   3   4
ENDBRANCH   2   3
ENDBRANCH   1   2
BRANCH   1  10
ATOM     10  C   UNL     1      65.332  27.112  60.626  1.00  0.00     0.000 C 
BRANCH  10  11
ATOM     11  C   UNL     1      63.876  27.613  60.544  1.00  0.00    -0.000 C 
BRANCH  11  12
ATOM     12  C   UNL     1      63.719  29.125  60.304  1.00  0.00    -0.000 C 
BRANCH  12  13
ATOM     13  C   UNL     1      64.273  29.974  61.462  1.00  0.00    -0.000 C 
BRANCH  13  14
ATOM     14  C   UNL     1      65.181  31.114  60.975  1.00  0.00    -0.000 C 
BRANCH  14  15
ATOM     15  C   UNL     1      64.839  31.572  59.546  1.00  0.00    -0.000 C 
BRANCH  15  16
ATOM     16  C   UNL     1      64.609  33.089  59.454  1.00  0.00    -0.003 C 
ATOM     17  C   UNL     1      64.905  33.815  60.765  1.00  0.00     0.004 C 
ENDBRANCH  15  16
ENDBRANCH  14  15
ENDBRANCH  13  14
ENDBRANCH  12  13
ENDBRANCH  11  12
ENDBRANCH  10  11
ENDBRANCH   1  10
TORSDOF 13
ENDMDL
