MODEL 1
REMARK VINA RESULT:    -2.980      0.000      0.000
REMARK INTER + INTRA:          -8.030
REMARK INTER:                  -5.593
REMARK INTRA:                  -2.436
REMARK UNBOUND:                -2.436
REMARK SMILES O=C([O-])CCCCCCCCCCCCCCC(=O)[O-]
REMARK SMILES IDX 10 1 9 2 8 3 7 4 6 5 5 6 4 7 2 8 1 9 3 10 11 11 12 12 13 13
REMARK SMILES IDX 14 14 15 15 16 16 17 17 18 18 19 19 20 20
REMARK H PARENT
REMARK Flexibility Score: inf
ROOT
ATOM      1  C   UNL     1     -18.626  40.927  95.157  1.00  0.00     0.000 C 
ENDROOT
BRANCH   1   2
ATOM      2  C   UNL     1     -18.878  41.479  93.746  1.00  0.00     0.000 C 
BRANCH   2   3
ATOM      3  C   UNL     1     -19.503  40.406  92.841  1.00  0.00     0.000 C 
BRANCH   3   4
ATOM      4  C   UNL     1     -20.282  39.336  93.627  1.00  0.00     0.000 C 
BRANCH   4   5
ATOM      5  C   UNL     1     -20.473  37.996  92.894  1.00  0.00     0.000 C 
BRANCH   5   6
ATOM      6  C   UNL     1     -19.669  37.906  91.585  1.00  0.00     0.006 C 
BRANCH   6   7
ATOM      7  C   UNL     1     -19.131  36.492  91.331  1.00  0.00     0.053 C 
BRANCH   7   8
ATOM      8  C   UNL     1     -18.944  36.221  89.870  1.00  0.00     0.041 C 
ATOM      9  O   UNL     1     -19.942  36.119  89.110  1.00  0.00    -0.550 OA
ATOM     10  O   UNL     1     -17.664  36.111  89.343  1.00  0.00    -0.550 OA
ENDBRANCH   7   8
ENDBRANCH   6   7
ENDBRANCH   5   6
ENDBRANCH   4   5
ENDBRANCH   3   4
ENDBRANCH   2   3
ENDBRANCH   1   2
BRANCH   1  11
ATOM     11  C   UNL     1     -17.172  41.121  95.623  1.00  0.00     0.000 C 
BRANCH  11  12
ATOM     12  C   UNL     1     -16.305  39.845  95.619  1.00  0.00     0.000 C 
BRANCH  12  13
ATOM     13  C   UNL     1     -17.035  38.552  95.209  1.00  0.00     0.000 C 
BRANCH  13  14
ATOM     14  C   UNL     1     -16.489  37.947  93.904  1.00  0.00     0.000 C 
BRANCH  14  15
ATOM     15  C   UNL     1     -15.944  39.010  92.934  1.00  0.00     0.000 C 
BRANCH  15  16
ATOM     16  C   UNL     1     -16.217  38.742  91.440  1.00  0.00     0.006 C 
BRANCH  16  17
ATOM     17  C   UNL     1     -15.045  38.101  90.680  1.00  0.00     0.053 C 
BRANCH  17  18
ATOM     18  C   UNL     1     -13.739  38.761  91.002  1.00  0.00     0.041 C 
ATOM     19  O   UNL     1     -13.495  39.922  90.580  1.00  0.00    -0.550 OA
ATOM     20  O   UNL     1     -12.806  38.109  91.798  1.00  0.00    -0.550 OA
ENDBRANCH  17  18
ENDBRANCH  16  17
ENDBRANCH  15  16
ENDBRANCH  14  15
ENDBRANCH  13  14
ENDBRANCH  12  13
ENDBRANCH  11  12
ENDBRANCH   1  11
TORSDOF 15
ENDMDL
MODEL 2
REMARK VINA RESULT:    -2.900      2.349      4.790
REMARK INTER + INTRA:          -7.880
REMARK INTER:                  -5.503
REMARK INTRA:                  -2.378
REMARK UNBOUND:                -2.436
REMARK SMILES O=C([O-])CCCCCCCCCCCCCCC(=O)[O-]
REMARK SMILES IDX 10 1 9 2 8 3 7 4 6 5 5 6 4 7 2 8 1 9 3 10 11 11 12 12 13 13
REMARK SMILES IDX 14 14 15 15 16 16 17 17 18 18 19 19 20 20
REMARK H PARENT
REMARK Flexibility Score: inf
ROOT
ATOM      1  C   UNL     1     -18.861  41.345  93.773  1.00  0.00     0.000 C 
ENDROOT
BRANCH   1   2
ATOM      2  C   UNL     1     -20.246  40.998  93.211  1.00  0.00     0.000 C 
BRANCH   2   3
ATOM      3  C   UNL     1     -20.218  39.651  92.474  1.00  0.00     0.000 C 
BRANCH   3   4
ATOM      4  C   UNL     1     -18.802  39.060  92.354  1.00  0.00     0.000 C 
BRANCH   4   5
ATOM      5  C   UNL     1     -18.335  38.764  90.917  1.00  0.00     0.000 C 
BRANCH   5   6
ATOM      6  C   UNL     1     -16.945  38.107  90.860  1.00  0.00     0.006 C 
BRANCH   6   7
ATOM      7  C   UNL     1     -16.130  38.365  92.134  1.00  0.00     0.053 C 
BRANCH   7   8
ATOM      8  C   UNL     1     -14.756  38.873  91.823  1.00  0.00     0.041 C 
ATOM      9  O   UNL     1     -14.483  39.305  90.672  1.00  0.00    -0.550 OA
ATOM     10  O   UNL     1     -13.783  38.898  92.814  1.00  0.00    -0.550 OA
ENDBRANCH   7   8
ENDBRANCH   6   7
ENDBRANCH   5   6
ENDBRANCH   4   5
ENDBRANCH   3   4
ENDBRANCH   2   3
ENDBRANCH   1   2
BRANCH   1  11
ATOM     11  C   UNL     1     -18.846  41.442  95.309  1.00  0.00     0.000 C 
BRANCH  11  12
ATOM     12  C   UNL     1     -17.466  41.235  95.967  1.00  0.00     0.000 C 
BRANCH  12  13
ATOM     13  C   UNL     1     -16.384  40.628  95.055  1.00  0.00     0.000 C 
BRANCH  13  14
ATOM     14  C   UNL     1     -15.724  39.378  95.663  1.00  0.00     0.000 C 
BRANCH  14  15
ATOM     15  C   UNL     1     -16.728  38.465  96.389  1.00  0.00     0.000 C 
BRANCH  15  16
ATOM     16  C   UNL     1     -17.628  37.613  95.471  1.00  0.00     0.006 C 
BRANCH  16  17
ATOM     17  C   UNL     1     -19.132  37.726  95.764  1.00  0.00     0.053 C 
BRANCH  17  18
ATOM     18  C   UNL     1     -19.874  36.484  95.377  1.00  0.00     0.041 C 
ATOM     19  O   UNL     1     -20.121  35.599  96.237  1.00  0.00    -0.550 OA
ATOM     20  O   UNL     1     -20.324  36.319  94.073  1.00  0.00    -0.550 OA
ENDBRANCH  17  18
ENDBRANCH  16  17
ENDBRANCH  15  16
ENDBRANCH  14  15
ENDBRANCH  13  14
ENDBRANCH  12  13
ENDBRANCH  11  12
ENDBRANCH   1  11
TORSDOF 15
ENDMDL
MODEL 3
REMARK VINA RESULT:    -2.876      1.681      4.850
REMARK INTER + INTRA:          -7.833
REMARK INTER:                  -5.851
REMARK INTRA:                  -1.982
REMARK UNBOUND:                -2.436
REMARK SMILES O=C([O-])CCCCCCCCCCCCCCC(=O)[O-]
REMARK SMILES IDX 10 1 9 2 8 3 7 4 6 5 5 6 4 7 2 8 1 9 3 10 11 11 12 12 13 13
REMARK SMILES IDX 14 14 15 15 16 16 17 17 18 18 19 19 20 20
REMARK H PARENT
REMARK Flexibility Score: inf
ROOT
ATOM      1  C   UNL     1     -18.714  40.078  96.982  1.00  0.00     0.000 C 
ENDROOT
BRANCH   1   2
ATOM      2  C   UNL     1     -18.408  41.492  96.469  1.00  0.00     0.000 C 
BRANCH   2   3
ATOM      3  C   UNL     1     -18.026  41.466  94.981  1.00  0.00     0.000 C 
BRANCH   3   4
ATOM      4  C   UNL     1     -16.971  40.395  94.649  1.00  0.00     0.000 C 
BRANCH   4   5
ATOM      5  C   UNL     1     -15.522  40.771  95.008  1.00  0.00     0.000 C 
BRANCH   5   6
ATOM      6  C   UNL     1     -14.527  39.622  94.769  1.00  0.00     0.006 C 
BRANCH   6   7
ATOM      7  C   UNL     1     -14.060  39.554  93.309  1.00  0.00     0.053 C 
BRANCH   7   8
ATOM      8  C   UNL     1     -14.771  38.479  92.547  1.00  0.00     0.041 C 
ATOM      9  O   UNL     1     -14.763  37.292  92.965  1.00  0.00    -0.550 OA
ATOM     10  O   UNL     1     -15.469  38.794  91.388  1.00  0.00    -0.550 OA
ENDBRANCH   7   8
ENDBRANCH   6   7
ENDBRANCH   5   6
ENDBRANCH   4   5
ENDBRANCH   3   4
ENDBRANCH   2   3
ENDBRANCH   1   2
BRANCH   1  11
ATOM     11  C   UNL     1     -20.031  39.512  96.423  1.00  0.00     0.000 C 
BRANCH  11  12
ATOM     12  C   UNL     1     -19.899  38.186  95.646  1.00  0.00     0.000 C 
BRANCH  12  13
ATOM     13  C   UNL     1     -20.529  38.178  94.241  1.00  0.00     0.000 C 
BRANCH  13  14
ATOM     14  C   UNL     1     -21.123  39.541  93.845  1.00  0.00     0.000 C 
BRANCH  14  15
ATOM     15  C   UNL     1     -20.521  40.101  92.544  1.00  0.00     0.000 C 
BRANCH  15  16
ATOM     16  C   UNL     1     -19.242  39.394  92.052  1.00  0.00     0.006 C 
BRANCH  16  17
ATOM     17  C   UNL     1     -19.323  38.849  90.617  1.00  0.00     0.053 C 
BRANCH  17  18
ATOM     18  C   UNL     1     -19.159  37.361  90.572  1.00  0.00     0.041 C 
ATOM     19  O   UNL     1     -20.050  36.611  91.049  1.00  0.00    -0.550 OA
ATOM     20  O   UNL     1     -18.039  36.801  89.971  1.00  0.00    -0.550 OA
ENDBRANCH  17  18
ENDBRANCH  16  17
ENDBRANCH  15  16
ENDBRANCH  14  15
ENDBRANCH  13  14
ENDBRANCH  12  13
ENDBRANCH  11  12
ENDBRANCH   1  11
TORSDOF 15
ENDMDL
MODEL 4
REMARK VINA RESULT:    -2.859     17.727     19.565
REMARK INTER + INTRA:          -7.803
REMARK INTER:                  -5.088
REMARK INTRA:                  -2.715
REMARK UNBOUND:                -2.436
REMARK SMILES O=C([O-])CCCCCCCCCCCCCCC(=O)[O-]
REMARK SMILES IDX 10 1 9 2 8 3 7 4 6 5 5 6 4 7 2 8 1 9 3 10 11 11 12 12 13 13
REMARK SMILES IDX 14 14 15 15 16 16 17 17 18 18 19 19 20 20
REMARK H PARENT
REMARK Flexibility Score: inf
ROOT
ATOM      1  C   UNL     1      -7.936  30.880 107.654  1.00  0.00     0.000 C 
ENDROOT
BRANCH   1   2
ATOM      2  C   UNL     1      -7.922  30.720 106.127  1.00  0.00     0.000 C 
BRANCH   2   3
ATOM      3  C   UNL     1      -7.661  32.067 105.437  1.00  0.00     0.000 C 
BRANCH   3   4
ATOM      4  C   UNL     1      -6.827  31.933 104.150  1.00  0.00     0.000 C 
BRANCH   4   5
ATOM      5  C   UNL     1      -6.223  30.539 103.904  1.00  0.00     0.000 C 
BRANCH   5   6
ATOM      6  C   UNL     1      -4.745  30.590 103.480  1.00  0.00     0.006 C 
BRANCH   6   7
ATOM      7  C   UNL     1      -4.311  32.001 103.062  1.00  0.00     0.053 C 
BRANCH   7   8
ATOM      8  C   UNL     1      -2.918  32.014 102.511  1.00  0.00     0.041 C 
ATOM      9  O   UNL     1      -2.088  32.876 102.902  1.00  0.00    -0.550 OA
ATOM     10  O   UNL     1      -2.528  31.055 101.585  1.00  0.00    -0.550 OA
ENDBRANCH   7   8
ENDBRANCH   6   7
ENDBRANCH   5   6
ENDBRANCH   4   5
ENDBRANCH   3   4
ENDBRANCH   2   3
ENDBRANCH   1   2
BRANCH   1  11
ATOM     11  C   UNL     1      -6.642  30.377 108.320  1.00  0.00     0.000 C 
BRANCH  11  12
ATOM     12  C   UNL     1      -5.861  29.315 107.519  1.00  0.00     0.000 C 
BRANCH  12  13
ATOM     13  C   UNL     1      -4.470  29.753 107.023  1.00  0.00     0.000 C 
BRANCH  13  14
ATOM     14  C   UNL     1      -3.985  31.055 107.682  1.00  0.00     0.000 C 
BRANCH  14  15
ATOM     15  C   UNL     1      -3.794  32.201 106.674  1.00  0.00     0.000 C 
BRANCH  15  16
ATOM     16  C   UNL     1      -4.620  33.473 106.957  1.00  0.00     0.006 C 
BRANCH  16  17
ATOM     17  C   UNL     1      -4.674  34.474 105.793  1.00  0.00     0.053 C 
BRANCH  17  18
ATOM     18  C   UNL     1      -3.744  35.630 106.003  1.00  0.00     0.041 C 
ATOM     19  O   UNL     1      -2.992  35.663 107.012  1.00  0.00    -0.550 OA
ATOM     20  O   UNL     1      -3.682  36.654 105.067  1.00  0.00    -0.550 OA
ENDBRANCH  17  18
ENDBRANCH  16  17
ENDBRANCH  15  16
ENDBRANCH  14  15
ENDBRANCH  13  14
ENDBRANCH  12  13
ENDBRANCH  11  12
ENDBRANCH   1  11
TORSDOF 15
ENDMDL
MODEL 5
REMARK VINA RESULT:    -2.851      2.083      3.170
REMARK INTER + INTRA:          -7.787
REMARK INTER:                  -5.669
REMARK INTRA:                  -2.118
REMARK UNBOUND:                -2.436
REMARK SMILES O=C([O-])CCCCCCCCCCCCCCC(=O)[O-]
REMARK SMILES IDX 10 1 9 2 8 3 7 4 6 5 5 6 4 7 2 8 1 9 3 10 11 11 12 12 13 13
REMARK SMILES IDX 14 14 15 15 16 16 17 17 18 18 19 19 20 20
REMARK H PARENT
REMARK Flexibility Score: inf
ROOT
ATOM      1  C   UNL     1     -20.309  41.476  93.108  1.00  0.00     0.000 C 
ENDROOT
BRANCH   1   2
ATOM      2  C   UNL     1     -20.931  40.133  92.699  1.00  0.00     0.000 C 
BRANCH   2   3
ATOM      3  C   UNL     1     -19.969  39.331  91.809  1.00  0.00     0.000 C 
BRANCH   3   4
ATOM      4  C   UNL     1     -19.764  37.885  92.294  1.00  0.00     0.000 C 
BRANCH   4   5
ATOM      5  C   UNL     1     -19.882  37.682  93.816  1.00  0.00     0.000 C 
BRANCH   5   6
ATOM      6  C   UNL     1     -18.552  37.270  94.472  1.00  0.00     0.006 C 
BRANCH   6   7
ATOM      7  C   UNL     1     -17.336  37.770  93.681  1.00  0.00     0.053 C 
BRANCH   7   8
ATOM      8  C   UNL     1     -16.349  36.673  93.425  1.00  0.00     0.041 C 
ATOM      9  O   UNL     1     -16.561  35.825  92.520  1.00  0.00    -0.550 OA
ATOM     10  O   UNL     1     -15.178  36.606  94.170  1.00  0.00    -0.550 OA
ENDBRANCH   7   8
ENDBRANCH   6   7
ENDBRANCH   5   6
ENDBRANCH   4   5
ENDBRANCH   3   4
ENDBRANCH   2   3
ENDBRANCH   1   2
BRANCH   1  11
ATOM     11  C   UNL     1     -18.903  41.324  93.714  1.00  0.00     0.000 C 
BRANCH  11  12
ATOM     12  C   UNL     1     -18.868  40.990  95.219  1.00  0.00     0.000 C 
BRANCH  12  13
ATOM     13  C   UNL     1     -17.489  41.117  95.892  1.00  0.00     0.000 C 
BRANCH  13  14
ATOM     14  C   UNL     1     -16.331  41.146  94.879  1.00  0.00     0.000 C 
BRANCH  14  15
ATOM     15  C   UNL     1     -15.183  40.194  95.256  1.00  0.00     0.000 C 
BRANCH  15  16
ATOM     16  C   UNL     1     -13.795  40.586  94.708  1.00  0.00     0.006 C 
BRANCH  16  17
ATOM     17  C   UNL     1     -13.101  39.491  93.883  1.00  0.00     0.053 C 
BRANCH  17  18
ATOM     18  C   UNL     1     -13.365  39.641  92.416  1.00  0.00     0.041 C 
ATOM     19  O   UNL     1     -12.494  40.150  91.663  1.00  0.00    -0.550 OA
ATOM     20  O   UNL     1     -14.561  39.187  91.874  1.00  0.00    -0.550 OA
ENDBRANCH  17  18
ENDBRANCH  16  17
ENDBRANCH  15  16
ENDBRANCH  14  15
ENDBRANCH  13  14
ENDBRANCH  12  13
ENDBRANCH  11  12
ENDBRANCH   1  11
TORSDOF 15
ENDMDL
MODEL 6
REMARK VINA RESULT:    -2.829      3.633      5.355
REMARK INTER + INTRA:          -7.747
REMARK INTER:                  -5.604
REMARK INTRA:                  -2.143
REMARK UNBOUND:                -2.436
REMARK SMILES O=C([O-])CCCCCCCCCCCCCCC(=O)[O-]
REMARK SMILES IDX 10 1 9 2 8 3 7 4 6 5 5 6 4 7 2 8 1 9 3 10 11 11 12 12 13 13
REMARK SMILES IDX 14 14 15 15 16 16 17 17 18 18 19 19 20 20
REMARK H PARENT
REMARK Flexibility Score: inf
ROOT
ATOM      1  C   UNL     1     -18.310  41.165  93.734  1.00  0.00     0.000 C 
ENDROOT
BRANCH   1   2
ATOM      2  C   UNL     1     -17.935  41.498  95.185  1.00  0.00     0.000 C 
BRANCH   2   3
ATOM      3  C   UNL     1     -16.791  40.598  95.676  1.00  0.00     0.000 C 
BRANCH   3   4
ATOM      4  C   UNL     1     -17.219  39.131  95.866  1.00  0.00     0.000 C 
BRANCH   4   5
ATOM      5  C   UNL     1     -17.700  38.768  97.283  1.00  0.00     0.000 C 
BRANCH   5   6
ATOM      6  C   UNL     1     -19.204  38.451  97.345  1.00  0.00     0.006 C 
BRANCH   6   7
ATOM      7  C   UNL     1     -20.062  39.722  97.397  1.00  0.00     0.053 C 
BRANCH   7   8
ATOM      8  C   UNL     1     -19.697  40.593  98.559  1.00  0.00     0.041 C 
ATOM      9  O   UNL     1     -19.820  40.166  99.737  1.00  0.00    -0.550 OA
ATOM     10  O   UNL     1     -19.193  41.869  98.340  1.00  0.00    -0.550 OA
ENDBRANCH   7   8
ENDBRANCH   6   7
ENDBRANCH   5   6
ENDBRANCH   4   5
ENDBRANCH   3   4
ENDBRANCH   2   3
ENDBRANCH   1   2
BRANCH   1  11
ATOM     11  C   UNL     1     -19.819  41.298  93.462  1.00  0.00     0.000 C 
BRANCH  11  12
ATOM     12  C   UNL     1     -20.598  39.968  93.412  1.00  0.00     0.000 C 
BRANCH  12  13
ATOM     13  C   UNL     1     -19.744  38.711  93.165  1.00  0.00     0.000 C 
BRANCH  13  14
ATOM     14  C   UNL     1     -19.651  38.337  91.675  1.00  0.00     0.000 C 
BRANCH  14  15
ATOM     15  C   UNL     1     -18.330  38.787  91.027  1.00  0.00     0.000 C 
BRANCH  15  16
ATOM     16  C   UNL     1     -17.082  37.982  91.444  1.00  0.00     0.006 C 
BRANCH  16  17
ATOM     17  C   UNL     1     -16.086  38.754  92.323  1.00  0.00     0.053 C 
BRANCH  17  18
ATOM     18  C   UNL     1     -14.736  38.858  91.683  1.00  0.00     0.041 C 
ATOM     19  O   UNL     1     -13.703  38.956  92.396  1.00  0.00    -0.550 OA
ATOM     20  O   UNL     1     -14.615  38.810  90.300  1.00  0.00    -0.550 OA
ENDBRANCH  17  18
ENDBRANCH  16  17
ENDBRANCH  15  16
ENDBRANCH  14  15
ENDBRANCH  13  14
ENDBRANCH  12  13
ENDBRANCH  11  12
ENDBRANCH   1  11
TORSDOF 15
ENDMDL
MODEL 7
REMARK VINA RESULT:    -2.814      3.457      5.312
REMARK INTER + INTRA:          -7.717
REMARK INTER:                  -5.889
REMARK INTRA:                  -1.828
REMARK UNBOUND:                -2.436
REMARK SMILES O=C([O-])CCCCCCCCCCCCCCC(=O)[O-]
REMARK SMILES IDX 10 1 9 2 8 3 7 4 6 5 5 6 4 7 2 8 1 9 3 10 11 11 12 12 13 13
REMARK SMILES IDX 14 14 15 15 16 16 17 17 18 18 19 19 20 20
REMARK H PARENT
REMARK Flexibility Score: inf
ROOT
ATOM      1  C   UNL     1     -20.910  40.002  93.404  1.00  0.00     0.000 C 
ENDROOT
BRANCH   1   2
ATOM      2  C   UNL     1     -19.534  40.413  92.861  1.00  0.00     0.000 C 
BRANCH   2   3
ATOM      3  C   UNL     1     -18.906  41.511  93.732  1.00  0.00     0.000 C 
BRANCH   3   4
ATOM      4  C   UNL     1     -17.530  41.117  94.298  1.00  0.00     0.000 C 
BRANCH   4   5
ATOM      5  C   UNL     1     -17.421  41.145  95.833  1.00  0.00     0.000 C 
BRANCH   5   6
ATOM      6  C   UNL     1     -18.784  41.307  96.530  1.00  0.00     0.006 C 
BRANCH   6   7
ATOM      7  C   UNL     1     -19.386  39.958  96.944  1.00  0.00     0.053 C 
BRANCH   7   8
ATOM      8  C   UNL     1     -19.446  39.808  98.433  1.00  0.00     0.041 C 
ATOM      9  O   UNL     1     -20.048  40.663  99.134  1.00  0.00    -0.550 OA
ATOM     10  O   UNL     1     -18.859  38.707  99.045  1.00  0.00    -0.550 OA
ENDBRANCH   7   8
ENDBRANCH   6   7
ENDBRANCH   5   6
ENDBRANCH   4   5
ENDBRANCH   3   4
ENDBRANCH   2   3
ENDBRANCH   1   2
BRANCH   1  11
ATOM     11  C   UNL     1     -21.125  38.478  93.398  1.00  0.00     0.000 C 
BRANCH  11  12
ATOM     12  C   UNL     1     -19.838  37.634  93.296  1.00  0.00     0.000 C 
BRANCH  12  13
ATOM     13  C   UNL     1     -19.940  36.379  92.408  1.00  0.00     0.000 C 
BRANCH  13  14
ATOM     14  C   UNL     1     -18.820  36.300  91.356  1.00  0.00     0.000 C 
BRANCH  14  15
ATOM     15  C   UNL     1     -18.475  37.670  90.746  1.00  0.00     0.000 C 
BRANCH  15  16
ATOM     16  C   UNL     1     -16.975  38.028  90.735  1.00  0.00     0.006 C 
BRANCH  16  17
ATOM     17  C   UNL     1     -16.431  38.547  92.075  1.00  0.00     0.053 C 
BRANCH  17  18
ATOM     18  C   UNL     1     -14.936  38.651  92.071  1.00  0.00     0.041 C 
ATOM     19  O   UNL     1     -14.260  38.095  92.976  1.00  0.00    -0.550 OA
ATOM     20  O   UNL     1     -14.288  39.333  91.049  1.00  0.00    -0.550 OA
ENDBRANCH  17  18
ENDBRANCH  16  17
ENDBRANCH  15  16
ENDBRANCH  14  15
ENDBRANCH  13  14
ENDBRANCH  12  13
ENDBRANCH  11  12
ENDBRANCH   1  11
TORSDOF 15
ENDMDL
MODEL 8
REMARK VINA RESULT:    -2.806      3.551      6.140
REMARK INTER + INTRA:          -7.703
REMARK INTER:                  -5.354
REMARK INTRA:                  -2.349
REMARK UNBOUND:                -2.436
REMARK SMILES O=C([O-])CCCCCCCCCCCCCCC(=O)[O-]
REMARK SMILES IDX 10 1 9 2 8 3 7 4 6 5 5 6 4 7 2 8 1 9 3 10 11 11 12 12 13 13
REMARK SMILES IDX 14 14 15 15 16 16 17 17 18 18 19 19 20 20
REMARK H PARENT
REMARK Flexibility Score: inf
ROOT
ATOM      1  C   UNL     1     -16.518  38.119  93.422  1.00  0.00     0.000 C 
ENDROOT
BRANCH   1   2
ATOM      2  C   UNL     1     -15.833  39.487  93.545  1.00  0.00     0.000 C 
BRANCH   2   3
ATOM      3  C   UNL     1     -15.747  39.928  95.013  1.00  0.00     0.000 C 
BRANCH   3   4
ATOM      4  C   UNL     1     -16.746  41.046  95.366  1.00  0.00     0.000 C 
BRANCH   4   5
ATOM      5  C   UNL     1     -17.739  41.411  94.248  1.00  0.00     0.000 C 
BRANCH   5   6
ATOM      6  C   UNL     1     -19.203  41.126  94.628  1.00  0.00     0.006 C 
BRANCH   6   7
ATOM      7  C   UNL     1     -19.419  39.667  95.049  1.00  0.00     0.053 C 
BRANCH   7   8
ATOM      8  C   UNL     1     -20.012  39.565  96.420  1.00  0.00     0.041 C 
ATOM      9  O   UNL     1     -19.627  40.335  97.339  1.00  0.00    -0.550 OA
ATOM     10  O   UNL     1     -21.014  38.637  96.676  1.00  0.00    -0.550 OA
ENDBRANCH   7   8
ENDBRANCH   6   7
ENDBRANCH   5   6
ENDBRANCH   4   5
ENDBRANCH   3   4
ENDBRANCH   2   3
ENDBRANCH   1   2
BRANCH   1  11
ATOM     11  C   UNL     1     -17.121  37.876  92.027  1.00  0.00     0.000 C 
BRANCH  11  12
ATOM     12  C   UNL     1     -18.193  38.894  91.588  1.00  0.00     0.000 C 
BRANCH  12  13
ATOM     13  C   UNL     1     -19.637  38.360  91.555  1.00  0.00     0.000 C 
BRANCH  13  14
ATOM     14  C   UNL     1     -19.704  36.823  91.524  1.00  0.00     0.000 C 
BRANCH  14  15
ATOM     15  C   UNL     1     -20.942  36.264  92.247  1.00  0.00     0.000 C 
BRANCH  15  16
ATOM     16  C   UNL     1     -20.996  36.531  93.765  1.00  0.00     0.006 C 
BRANCH  16  17
ATOM     17  C   UNL     1     -19.810  35.961  94.558  1.00  0.00     0.053 C 
BRANCH  17  18
ATOM     18  C   UNL     1     -19.622  34.495  94.309  1.00  0.00     0.041 C 
ATOM     19  O   UNL     1     -20.525  33.678  94.626  1.00  0.00    -0.550 OA
ATOM     20  O   UNL     1     -18.464  34.036  93.695  1.00  0.00    -0.550 OA
ENDBRANCH  17  18
ENDBRANCH  16  17
ENDBRANCH  15  16
ENDBRANCH  14  15
ENDBRANCH  13  14
ENDBRANCH  12  13
ENDBRANCH  11  12
ENDBRANCH   1  11
TORSDOF 15
ENDMDL
