MODEL 1
REMARK VINA RESULT:    -7.145      0.000      0.000
REMARK INTER + INTRA:         -12.290
REMARK INTER:                 -10.487
REMARK INTRA:                  -1.804
REMARK UNBOUND:                -1.804
REMARK SMILES O=c1c(O[C@H]2O[C@H](CO)[C@@H](O)[C@H](O)[C@@H]2O)c(-c2ccc(O)c(O)c2)oc2cc(O)cc(O)c12
REMARK SMILES IDX 4 1 3 2 16 3 25 4 2 5 26 6 1 7 33 8 27 9 31 10 28 11 30 12
REMARK SMILES IDX 17 13 18 14 19 15 20 16 24 17 22 18 21 19 23 21 32 23 29 25
REMARK SMILES IDX 5 27 14 28 6 29 12 30 7 31 10 32 15 33 13 35 8 37 9 38 11 40
REMARK H PARENT 21 20 23 22 32 24 29 26 15 34 13 36 9 39 11 41
REMARK Flexibility Score: inf
ROOT
ATOM      1  O   UNL     1      -1.058 -20.247  28.374  1.00  0.00    -0.454 OA
ENDROOT
BRANCH   1   2
ATOM      2  C   UNL     1      -0.966 -21.555  28.891  1.00  0.00     0.214 A 
ATOM      3  C   UNL     1      -0.220 -22.502  28.168  1.00  0.00     0.180 A 
ATOM      4  O   UNL     1      -0.213 -23.774  28.543  1.00  0.00    -0.452 OA
ATOM      5  C   UNL     1      -1.602 -21.977  30.084  1.00  0.00     0.239 A 
ATOM      6  C   UNL     1      -0.853 -24.225  29.611  1.00  0.00     0.146 A 
ATOM      7  O   UNL     1      -2.276 -21.159  30.761  1.00  0.00    -0.285 OA
ATOM      8  C   UNL     1      -1.515 -23.332  30.488  1.00  0.00     0.111 A 
ATOM      9  C   UNL     1      -0.873 -25.605  29.844  1.00  0.00     0.094 A 
ATOM     10  C   UNL     1      -2.117 -23.865  31.668  1.00  0.00     0.134 A 
ATOM     11  C   UNL     1      -1.551 -26.121  30.951  1.00  0.00     0.123 A 
ATOM     12  C   UNL     1      -2.162 -25.253  31.854  1.00  0.00     0.093 A 
BRANCH   3  13
ATOM     13  C   UNL     1       0.622 -22.122  27.015  1.00  0.00     0.025 A 
ATOM     14  C   UNL     1       1.970 -21.760  27.171  1.00  0.00     0.016 A 
ATOM     15  C   UNL     1       2.742 -21.431  26.053  1.00  0.00     0.051 A 
ATOM     16  C   UNL     1       2.179 -21.470  24.770  1.00  0.00     0.157 A 
ATOM     17  C   UNL     1       0.047 -22.110  25.736  1.00  0.00     0.062 A 
ATOM     18  C   UNL     1       0.836 -21.824  24.608  1.00  0.00     0.158 A 
BRANCH  16  19
ATOM     19  O   UNL     1       2.941 -21.140  23.652  1.00  0.00    -0.504 OA
ATOM     20  H   UNL     1       2.549 -20.623  22.877  1.00  0.00     0.293 HD
ENDBRANCH  16  19
BRANCH  18  21
ATOM     21  O   UNL     1       0.294 -21.890  23.325  1.00  0.00    -0.504 OA
ATOM     22  H   UNL     1       0.779 -21.504  22.520  1.00  0.00     0.293 HD
ENDBRANCH  18  21
ENDBRANCH   3  13
BRANCH  10  23
ATOM     23  O   UNL     1      -2.641 -23.078  32.699  1.00  0.00    -0.507 OA
ATOM     24  H   UNL     1      -3.165 -22.228  32.549  1.00  0.00     0.293 HD
ENDBRANCH  10  23
BRANCH  11  25
ATOM     25  O   UNL     1      -1.616 -27.498  31.166  1.00  0.00    -0.508 OA
ATOM     26  H   UNL     1      -2.169 -28.102  30.569  1.00  0.00     0.293 HD
ENDBRANCH  11  25
ENDBRANCH   1   2
BRANCH   1  27
ATOM     27  C   UNL     1      -0.449 -19.057  28.888  1.00  0.00     0.339 C 
ATOM     28  C   UNL     1      -1.519 -17.981  29.119  1.00  0.00     0.214 C 
ATOM     29  O   UNL     1       0.574 -18.588  28.022  1.00  0.00    -0.332 OA
ATOM     30  C   UNL     1      -2.089 -17.470  27.775  1.00  0.00     0.180 C 
ATOM     31  C   UNL     1       0.068 -18.293  26.726  1.00  0.00     0.179 C 
ATOM     32  C   UNL     1      -0.975 -17.152  26.766  1.00  0.00     0.177 C 
BRANCH  28  33
ATOM     33  O   UNL     1      -1.014 -16.942  29.922  1.00  0.00    -0.384 OA
ATOM     34  H   UNL     1      -1.596 -16.145  29.805  1.00  0.00     0.211 HD
ENDBRANCH  28  33
BRANCH  30  35
ATOM     35  O   UNL     1      -2.884 -16.329  27.978  1.00  0.00    -0.387 OA
ATOM     36  H   UNL     1      -3.183 -16.356  28.923  1.00  0.00     0.211 HD
ENDBRANCH  30  35
BRANCH  31  37
ATOM     37  C   UNL     1       1.245 -17.903  25.826  1.00  0.00     0.191 C 
BRANCH  37  38
ATOM     38  O   UNL     1       0.962 -18.245  24.495  1.00  0.00    -0.394 OA
ATOM     39  H   UNL     1       1.506 -19.048  24.289  1.00  0.00     0.210 HD
ENDBRANCH  37  38
ENDBRANCH  31  37
BRANCH  32  40
ATOM     40  O   UNL     1      -1.563 -17.004  25.497  1.00  0.00    -0.387 OA
ATOM     41  H   UNL     1      -1.523 -16.041  25.261  1.00  0.00     0.211 HD
ENDBRANCH  32  40
ENDBRANCH   1  27
TORSDOF 12
ENDMDL
MODEL 2
REMARK VINA RESULT:    -7.072      1.953      6.540
REMARK INTER + INTRA:         -12.183
REMARK INTER:                 -11.034
REMARK INTRA:                  -1.148
REMARK UNBOUND:                -1.804
REMARK SMILES O=c1c(O[C@H]2O[C@H](CO)[C@@H](O)[C@H](O)[C@@H]2O)c(-c2ccc(O)c(O)c2)oc2cc(O)cc(O)c12
REMARK SMILES IDX 4 1 3 2 16 3 25 4 2 5 26 6 1 7 33 8 27 9 31 10 28 11 30 12
REMARK SMILES IDX 17 13 18 14 19 15 20 16 24 17 22 18 21 19 23 21 32 23 29 25
REMARK SMILES IDX 5 27 14 28 6 29 12 30 7 31 10 32 15 33 13 35 8 37 9 38 11 40
REMARK H PARENT 21 20 23 22 32 24 29 26 15 34 13 36 9 39 11 41
REMARK Flexibility Score: inf
ROOT
ATOM      1  O   UNL     1      -0.098 -20.884  28.738  1.00  0.00    -0.454 OA
ENDROOT
BRANCH   1   2
ATOM      2  C   UNL     1      -0.461 -19.813  27.896  1.00  0.00     0.214 A 
ATOM      3  C   UNL     1      -0.059 -19.865  26.549  1.00  0.00     0.180 A 
ATOM      4  O   UNL     1      -0.262 -18.825  25.752  1.00  0.00    -0.452 OA
ATOM      5  C   UNL     1      -1.186 -18.677  28.333  1.00  0.00     0.239 A 
ATOM      6  C   UNL     1      -0.872 -17.714  26.138  1.00  0.00     0.146 A 
ATOM      7  O   UNL     1      -1.566 -18.596  29.529  1.00  0.00    -0.285 OA
ATOM      8  C   UNL     1      -1.442 -17.615  27.431  1.00  0.00     0.111 A 
ATOM      9  C   UNL     1      -0.925 -16.636  25.247  1.00  0.00     0.094 A 
ATOM     10  C   UNL     1      -2.159 -16.426  27.764  1.00  0.00     0.134 A 
ATOM     11  C   UNL     1      -1.545 -15.443  25.624  1.00  0.00     0.123 A 
ATOM     12  C   UNL     1      -2.158 -15.346  26.871  1.00  0.00     0.093 A 
BRANCH   3  13
ATOM     13  C   UNL     1       0.541 -21.077  25.957  1.00  0.00     0.025 A 
ATOM     14  C   UNL     1       1.834 -21.506  26.301  1.00  0.00     0.016 A 
ATOM     15  C   UNL     1       2.359 -22.674  25.739  1.00  0.00     0.051 A 
ATOM     16  C   UNL     1       1.595 -23.429  24.838  1.00  0.00     0.157 A 
ATOM     17  C   UNL     1      -0.201 -21.806  25.016  1.00  0.00     0.062 A 
ATOM     18  C   UNL     1       0.309 -23.004  24.487  1.00  0.00     0.158 A 
BRANCH  16  19
ATOM     19  O   UNL     1       2.113 -24.591  24.271  1.00  0.00    -0.504 OA
ATOM     20  H   UNL     1       2.766 -24.559  23.501  1.00  0.00     0.293 HD
ENDBRANCH  16  19
BRANCH  18  21
ATOM     21  O   UNL     1      -0.454 -23.779  23.613  1.00  0.00    -0.504 OA
ATOM     22  H   UNL     1      -1.468 -23.793  23.661  1.00  0.00     0.293 HD
ENDBRANCH  18  21
ENDBRANCH   3  13
BRANCH  10  23
ATOM     23  O   UNL     1      -2.918 -16.274  28.930  1.00  0.00    -0.507 OA
ATOM     24  H   UNL     1      -3.872 -15.941  28.942  1.00  0.00     0.293 HD
ENDBRANCH  10  23
BRANCH  11  25
ATOM     25  O   UNL     1      -1.563 -14.348  24.760  1.00  0.00    -0.508 OA
ATOM     26  H   UNL     1      -1.264 -13.428  25.063  1.00  0.00     0.293 HD
ENDBRANCH  11  25
ENDBRANCH   1   2
BRANCH   1  27
ATOM     27  C   UNL     1      -0.689 -22.186  28.804  1.00  0.00     0.339 C 
ATOM     28  C   UNL     1      -1.866 -22.176  29.791  1.00  0.00     0.214 C 
ATOM     29  O   UNL     1       0.271 -23.170  29.158  1.00  0.00    -0.332 OA
ATOM     30  C   UNL     1      -1.368 -22.000  31.244  1.00  0.00     0.180 C 
ATOM     31  C   UNL     1       0.859 -22.894  30.424  1.00  0.00     0.179 C 
ATOM     32  C   UNL     1      -0.188 -22.932  31.561  1.00  0.00     0.177 C 
BRANCH  28  33
ATOM     33  O   UNL     1      -2.661 -23.325  29.627  1.00  0.00    -0.384 OA
ATOM     34  H   UNL     1      -2.831 -23.452  28.656  1.00  0.00     0.211 HD
ENDBRANCH  28  33
BRANCH  30  35
ATOM     35  O   UNL     1      -2.412 -22.231  32.155  1.00  0.00    -0.387 OA
ATOM     36  H   UNL     1      -3.055 -22.835  31.703  1.00  0.00     0.211 HD
ENDBRANCH  30  35
BRANCH  31  37
ATOM     37  C   UNL     1       1.958 -23.932  30.681  1.00  0.00     0.191 C 
BRANCH  37  38
ATOM     38  O   UNL     1       2.700 -23.569  31.814  1.00  0.00    -0.394 OA
ATOM     39  H   UNL     1       3.116 -24.401  32.157  1.00  0.00     0.210 HD
ENDBRANCH  37  38
ENDBRANCH  31  37
BRANCH  32  40
ATOM     40  O   UNL     1       0.402 -22.500  32.762  1.00  0.00    -0.387 OA
ATOM     41  H   UNL     1       1.204 -23.062  32.919  1.00  0.00     0.211 HD
ENDBRANCH  32  40
ENDBRANCH   1  27
TORSDOF 12
ENDMDL
MODEL 3
REMARK VINA RESULT:    -7.016      2.716      7.966
REMARK INTER + INTRA:         -12.101
REMARK INTER:                 -10.682
REMARK INTRA:                  -1.419
REMARK UNBOUND:                -1.804
REMARK SMILES O=c1c(O[C@H]2O[C@H](CO)[C@@H](O)[C@H](O)[C@@H]2O)c(-c2ccc(O)c(O)c2)oc2cc(O)cc(O)c12
REMARK SMILES IDX 4 1 3 2 16 3 25 4 2 5 26 6 1 7 33 8 27 9 31 10 28 11 30 12
REMARK SMILES IDX 17 13 18 14 19 15 20 16 24 17 22 18 21 19 23 21 32 23 29 25
REMARK SMILES IDX 5 27 14 28 6 29 12 30 7 31 10 32 15 33 13 35 8 37 9 38 11 40
REMARK H PARENT 21 20 23 22 32 24 29 26 15 34 13 36 9 39 11 41
REMARK Flexibility Score: inf
ROOT
ATOM      1  O   UNL     1       1.141 -24.362  27.404  1.00  0.00    -0.454 OA
ENDROOT
BRANCH   1   2
ATOM      2  C   UNL     1       0.743 -23.157  26.790  1.00  0.00     0.214 A 
ATOM      3  C   UNL     1      -0.134 -22.313  27.494  1.00  0.00     0.180 A 
ATOM      4  O   UNL     1      -0.639 -21.236  26.908  1.00  0.00    -0.452 OA
ATOM      5  C   UNL     1       1.157 -22.758  25.495  1.00  0.00     0.239 A 
ATOM      6  C   UNL     1      -0.336 -20.865  25.673  1.00  0.00     0.146 A 
ATOM      7  O   UNL     1       1.944 -23.483  24.835  1.00  0.00    -0.285 OA
ATOM      8  C   UNL     1       0.646 -21.564  24.929  1.00  0.00     0.111 A 
ATOM      9  C   UNL     1      -1.018 -19.778  25.115  1.00  0.00     0.094 A 
ATOM     10  C   UNL     1       0.992 -21.069  23.636  1.00  0.00     0.134 A 
ATOM     11  C   UNL     1      -0.738 -19.367  23.811  1.00  0.00     0.123 A 
ATOM     12  C   UNL     1       0.263 -20.008  23.083  1.00  0.00     0.093 A 
BRANCH   3  13
ATOM     13  C   UNL     1      -0.480 -22.550  28.910  1.00  0.00     0.025 A 
ATOM     14  C   UNL     1      -1.533 -23.403  29.282  1.00  0.00     0.016 A 
ATOM     15  C   UNL     1      -1.814 -23.624  30.633  1.00  0.00     0.051 A 
ATOM     16  C   UNL     1      -1.042 -23.003  31.626  1.00  0.00     0.157 A 
ATOM     17  C   UNL     1       0.257 -21.891  29.904  1.00  0.00     0.062 A 
ATOM     18  C   UNL     1       0.004 -22.148  31.262  1.00  0.00     0.158 A 
BRANCH  16  19
ATOM     19  O   UNL     1      -1.319 -23.214  32.974  1.00  0.00    -0.504 OA
ATOM     20  H   UNL     1      -0.656 -22.969  33.696  1.00  0.00     0.293 HD
ENDBRANCH  16  19
BRANCH  18  21
ATOM     21  O   UNL     1       0.785 -21.560  32.257  1.00  0.00    -0.504 OA
ATOM     22  H   UNL     1       0.536 -21.626  33.239  1.00  0.00     0.293 HD
ENDBRANCH  18  21
ENDBRANCH   3  13
BRANCH  10  23
ATOM     23  O   UNL     1       2.064 -21.553  22.877  1.00  0.00    -0.507 OA
ATOM     24  H   UNL     1       2.785 -22.160  23.243  1.00  0.00     0.293 HD
ENDBRANCH  10  23
BRANCH  11  25
ATOM     25  O   UNL     1      -1.446 -18.314  23.230  1.00  0.00    -0.508 OA
ATOM     26  H   UNL     1      -2.014 -18.450  22.401  1.00  0.00     0.293 HD
ENDBRANCH  11  25
ENDBRANCH   1   2
BRANCH   1  27
ATOM     27  C   UNL     1       2.442 -24.961  27.397  1.00  0.00     0.339 C 
ATOM     28  C   UNL     1       2.403 -26.301  28.145  1.00  0.00     0.214 C 
ATOM     29  O   UNL     1       3.412 -24.088  27.955  1.00  0.00    -0.332 OA
ATOM     30  C   UNL     1       2.182 -26.083  29.660  1.00  0.00     0.180 C 
ATOM     31  C   UNL     1       3.097 -23.746  29.299  1.00  0.00     0.179 C 
ATOM     32  C   UNL     1       3.101 -24.988  30.220  1.00  0.00     0.177 C 
BRANCH  28  33
ATOM     33  O   UNL     1       3.558 -27.056  27.871  1.00  0.00    -0.384 OA
ATOM     34  H   UNL     1       4.354 -26.508  28.106  1.00  0.00     0.211 HD
ENDBRANCH  28  33
BRANCH  30  35
ATOM     35  O   UNL     1       2.386 -27.281  30.366  1.00  0.00    -0.387 OA
ATOM     36  H   UNL     1       2.896 -27.045  31.183  1.00  0.00     0.211 HD
ENDBRANCH  30  35
BRANCH  31  37
ATOM     37  C   UNL     1       4.125 -22.720  29.789  1.00  0.00     0.191 C 
BRANCH  37  38
ATOM     38  O   UNL     1       3.581 -21.964  30.838  1.00  0.00    -0.394 OA
ATOM     39  H   UNL     1       2.615 -21.860  30.639  1.00  0.00     0.210 HD
ENDBRANCH  37  38
ENDBRANCH  31  37
BRANCH  32  40
ATOM     40  O   UNL     1       2.632 -24.632  31.497  1.00  0.00    -0.387 OA
ATOM     41  H   UNL     1       1.835 -25.191  31.688  1.00  0.00     0.211 HD
ENDBRANCH  32  40
ENDBRANCH   1  27
TORSDOF 12
ENDMDL
MODEL 4
REMARK VINA RESULT:    -6.857      1.063      2.329
REMARK INTER + INTRA:         -11.868
REMARK INTER:                 -10.745
REMARK INTRA:                  -1.123
REMARK UNBOUND:                -1.804
REMARK SMILES O=c1c(O[C@H]2O[C@H](CO)[C@@H](O)[C@H](O)[C@@H]2O)c(-c2ccc(O)c(O)c2)oc2cc(O)cc(O)c12
REMARK SMILES IDX 4 1 3 2 16 3 25 4 2 5 26 6 1 7 33 8 27 9 31 10 28 11 30 12
REMARK SMILES IDX 17 13 18 14 19 15 20 16 24 17 22 18 21 19 23 21 32 23 29 25
REMARK SMILES IDX 5 27 14 28 6 29 12 30 7 31 10 32 15 33 13 35 8 37 9 38 11 40
REMARK H PARENT 21 20 23 22 32 24 29 26 15 34 13 36 9 39 11 41
REMARK Flexibility Score: inf
ROOT
ATOM      1  O   UNL     1      -0.711 -19.882  28.046  1.00  0.00    -0.454 OA
ENDROOT
BRANCH   1   2
ATOM      2  C   UNL     1      -0.731 -21.164  28.631  1.00  0.00     0.214 A 
ATOM      3  C   UNL     1      -0.104 -22.216  27.940  1.00  0.00     0.180 A 
ATOM      4  O   UNL     1      -0.209 -23.462  28.383  1.00  0.00    -0.452 OA
ATOM      5  C   UNL     1      -1.366 -21.459  29.862  1.00  0.00     0.239 A 
ATOM      6  C   UNL     1      -0.855 -23.792  29.491  1.00  0.00     0.146 A 
ATOM      7  O   UNL     1      -1.935 -20.545  30.511  1.00  0.00    -0.285 OA
ATOM      8  C   UNL     1      -1.399 -22.794  30.336  1.00  0.00     0.111 A 
ATOM      9  C   UNL     1      -1.002 -25.149  29.799  1.00  0.00     0.094 A 
ATOM     10  C   UNL     1      -2.011 -23.204  31.559  1.00  0.00     0.134 A 
ATOM     11  C   UNL     1      -1.691 -25.538  30.950  1.00  0.00     0.123 A 
ATOM     12  C   UNL     1      -2.185 -24.569  31.821  1.00  0.00     0.093 A 
BRANCH   3  13
ATOM     13  C   UNL     1       0.733 -21.981  26.746  1.00  0.00     0.025 A 
ATOM     14  C   UNL     1       2.022 -21.430  26.843  1.00  0.00     0.016 A 
ATOM     15  C   UNL     1       2.795 -21.246  25.693  1.00  0.00     0.051 A 
ATOM     16  C   UNL     1       2.293 -21.618  24.438  1.00  0.00     0.157 A 
ATOM     17  C   UNL     1       0.214 -22.305  25.484  1.00  0.00     0.062 A 
ATOM     18  C   UNL     1       1.008 -22.162  24.334  1.00  0.00     0.158 A 
BRANCH  16  19
ATOM     19  O   UNL     1       3.056 -21.434  23.287  1.00  0.00    -0.504 OA
ATOM     20  H   UNL     1       3.421 -20.527  23.033  1.00  0.00     0.293 HD
ENDBRANCH  16  19
BRANCH  18  21
ATOM     21  O   UNL     1       0.531 -22.558  23.084  1.00  0.00    -0.504 OA
ATOM     22  H   UNL     1      -0.461 -22.544  22.864  1.00  0.00     0.293 HD
ENDBRANCH  18  21
ENDBRANCH   3  13
BRANCH  10  23
ATOM     23  O   UNL     1      -2.422 -22.317  32.560  1.00  0.00    -0.507 OA
ATOM     24  H   UNL     1      -1.888 -21.510  32.852  1.00  0.00     0.293 HD
ENDBRANCH  10  23
BRANCH  11  25
ATOM     25  O   UNL     1      -1.882 -26.889  31.241  1.00  0.00    -0.508 OA
ATOM     26  H   UNL     1      -2.560 -27.449  30.737  1.00  0.00     0.293 HD
ENDBRANCH  11  25
ENDBRANCH   1   2
BRANCH   1  27
ATOM     27  C   UNL     1      -1.572 -19.374  27.021  1.00  0.00     0.339 C 
ATOM     28  C   UNL     1      -0.738 -18.945  25.804  1.00  0.00     0.214 C 
ATOM     29  O   UNL     1      -2.368 -18.301  27.502  1.00  0.00    -0.332 OA
ATOM     30  C   UNL     1       0.112 -17.695  26.128  1.00  0.00     0.180 C 
ATOM     31  C   UNL     1      -1.565 -17.223  27.971  1.00  0.00     0.179 C 
ATOM     32  C   UNL     1      -0.713 -16.610  26.835  1.00  0.00     0.177 C 
BRANCH  28  33
ATOM     33  O   UNL     1      -1.561 -18.763  24.678  1.00  0.00    -0.384 OA
ATOM     34  H   UNL     1      -2.232 -18.060  24.891  1.00  0.00     0.211 HD
ENDBRANCH  28  33
BRANCH  30  35
ATOM     35  O   UNL     1       0.683 -17.169  24.957  1.00  0.00    -0.387 OA
ATOM     36  H   UNL     1      -0.069 -16.860  24.389  1.00  0.00     0.211 HD
ENDBRANCH  30  35
BRANCH  31  37
ATOM     37  C   UNL     1      -2.491 -16.160  28.573  1.00  0.00     0.191 C 
BRANCH  37  38
ATOM     38  O   UNL     1      -2.566 -16.327  29.964  1.00  0.00    -0.394 OA
ATOM     39  H   UNL     1      -3.513 -16.536  30.171  1.00  0.00     0.210 HD
ENDBRANCH  37  38
ENDBRANCH  31  37
BRANCH  32  40
ATOM     40  O   UNL     1       0.176 -15.662  27.371  1.00  0.00    -0.387 OA
ATOM     41  H   UNL     1       0.682 -15.267  26.615  1.00  0.00     0.211 HD
ENDBRANCH  32  40
ENDBRANCH   1  27
TORSDOF 12
ENDMDL
MODEL 5
REMARK VINA RESULT:    -6.827      1.496      1.980
REMARK INTER + INTRA:         -11.824
REMARK INTER:                 -10.511
REMARK INTRA:                  -1.312
REMARK UNBOUND:                -1.804
REMARK SMILES O=c1c(O[C@H]2O[C@H](CO)[C@@H](O)[C@H](O)[C@@H]2O)c(-c2ccc(O)c(O)c2)oc2cc(O)cc(O)c12
REMARK SMILES IDX 4 1 3 2 16 3 25 4 2 5 26 6 1 7 33 8 27 9 31 10 28 11 30 12
REMARK SMILES IDX 17 13 18 14 19 15 20 16 24 17 22 18 21 19 23 21 32 23 29 25
REMARK SMILES IDX 5 27 14 28 6 29 12 30 7 31 10 32 15 33 13 35 8 37 9 38 11 40
REMARK H PARENT 21 20 23 22 32 24 29 26 15 34 13 36 9 39 11 41
REMARK Flexibility Score: inf
ROOT
ATOM      1  O   UNL     1       0.357 -20.613  28.243  1.00  0.00    -0.454 OA
ENDROOT
BRANCH   1   2
ATOM      2  C   UNL     1       0.119 -21.901  28.766  1.00  0.00     0.214 A 
ATOM      3  C   UNL     1       0.625 -23.006  28.059  1.00  0.00     0.180 A 
ATOM      4  O   UNL     1       0.315 -24.239  28.438  1.00  0.00    -0.452 OA
ATOM      5  C   UNL     1      -0.622 -22.146  29.948  1.00  0.00     0.239 A 
ATOM      6  C   UNL     1      -0.434 -24.513  29.495  1.00  0.00     0.146 A 
ATOM      7  O   UNL     1      -1.088 -21.184  30.610  1.00  0.00    -0.285 OA
ATOM      8  C   UNL     1      -0.875 -23.479  30.357  1.00  0.00     0.111 A 
ATOM      9  C   UNL     1      -0.794 -25.844  29.732  1.00  0.00     0.094 A 
ATOM     10  C   UNL     1      -1.608 -23.841  31.527  1.00  0.00     0.134 A 
ATOM     11  C   UNL     1      -1.596 -26.172  30.827  1.00  0.00     0.123 A 
ATOM     12  C   UNL     1      -1.994 -25.175  31.716  1.00  0.00     0.093 A 
BRANCH   3  13
ATOM     13  C   UNL     1       1.553 -22.850  26.922  1.00  0.00     0.025 A 
ATOM     14  C   UNL     1       2.909 -22.537  27.111  1.00  0.00     0.016 A 
ATOM     15  C   UNL     1       3.765 -22.423  26.011  1.00  0.00     0.051 A 
ATOM     16  C   UNL     1       3.277 -22.630  24.713  1.00  0.00     0.157 A 
ATOM     17  C   UNL     1       1.057 -23.006  25.620  1.00  0.00     0.062 A 
ATOM     18  C   UNL     1       1.926 -22.937  24.517  1.00  0.00     0.158 A 
BRANCH  16  19
ATOM     19  O   UNL     1       4.121 -22.515  23.612  1.00  0.00    -0.504 OA
ATOM     20  H   UNL     1       4.604 -21.652  23.403  1.00  0.00     0.293 HD
ENDBRANCH  16  19
BRANCH  18  21
ATOM     21  O   UNL     1       1.457 -23.172  23.225  1.00  0.00    -0.504 OA
ATOM     22  H   UNL     1       0.514 -22.919  22.945  1.00  0.00     0.293 HD
ENDBRANCH  18  21
ENDBRANCH   3  13
BRANCH  10  23
ATOM     23  O   UNL     1      -1.943 -22.942  32.546  1.00  0.00    -0.507 OA
ATOM     24  H   UNL     1      -1.957 -23.183  33.527  1.00  0.00     0.293 HD
ENDBRANCH  10  23
BRANCH  11  25
ATOM     25  O   UNL     1      -1.998 -27.490  31.045  1.00  0.00    -0.508 OA
ATOM     26  H   UNL     1      -1.530 -28.268  30.594  1.00  0.00     0.293 HD
ENDBRANCH  11  25
ENDBRANCH   1   2
BRANCH   1  27
ATOM     27  C   UNL     1      -0.608 -19.604  27.926  1.00  0.00     0.339 C 
ATOM     28  C   UNL     1      -1.454 -20.050  26.726  1.00  0.00     0.214 C 
ATOM     29  O   UNL     1       0.018 -18.354  27.679  1.00  0.00    -0.332 OA
ATOM     30  C   UNL     1      -0.609 -20.073  25.431  1.00  0.00     0.180 C 
ATOM     31  C   UNL     1       0.936 -18.434  26.595  1.00  0.00     0.179 C 
ATOM     32  C   UNL     1       0.225 -18.794  25.270  1.00  0.00     0.177 C 
BRANCH  28  33
ATOM     33  O   UNL     1      -2.606 -19.250  26.606  1.00  0.00    -0.384 OA
ATOM     34  H   UNL     1      -3.394 -19.795  26.872  1.00  0.00     0.211 HD
ENDBRANCH  28  33
BRANCH  30  35
ATOM     35  O   UNL     1      -1.434 -20.246  24.306  1.00  0.00    -0.387 OA
ATOM     36  H   UNL     1      -2.199 -20.805  24.598  1.00  0.00     0.211 HD
ENDBRANCH  30  35
BRANCH  31  37
ATOM     37  C   UNL     1       1.647 -17.082  26.465  1.00  0.00     0.191 C 
BRANCH  37  38
ATOM     38  O   UNL     1       1.048 -16.325  25.448  1.00  0.00    -0.394 OA
ATOM     39  H   UNL     1       0.237 -15.914  25.843  1.00  0.00     0.210 HD
ENDBRANCH  37  38
ENDBRANCH  31  37
BRANCH  32  40
ATOM     40  O   UNL     1       1.183 -19.018  24.265  1.00  0.00    -0.387 OA
ATOM     41  H   UNL     1       1.790 -19.734  24.587  1.00  0.00     0.211 HD
ENDBRANCH  32  40
ENDBRANCH   1  27
TORSDOF 12
ENDMDL
MODEL 6
REMARK VINA RESULT:    -6.756      2.704      5.293
REMARK INTER + INTRA:         -11.720
REMARK INTER:                 -10.105
REMARK INTRA:                  -1.615
REMARK UNBOUND:                -1.804
REMARK SMILES O=c1c(O[C@H]2O[C@H](CO)[C@@H](O)[C@H](O)[C@@H]2O)c(-c2ccc(O)c(O)c2)oc2cc(O)cc(O)c12
REMARK SMILES IDX 4 1 3 2 16 3 25 4 2 5 26 6 1 7 33 8 27 9 31 10 28 11 30 12
REMARK SMILES IDX 17 13 18 14 19 15 20 16 24 17 22 18 21 19 23 21 32 23 29 25
REMARK SMILES IDX 5 27 14 28 6 29 12 30 7 31 10 32 15 33 13 35 8 37 9 38 11 40
REMARK H PARENT 21 20 23 22 32 24 29 26 15 34 13 36 9 39 11 41
REMARK Flexibility Score: inf
ROOT
ATOM      1  O   UNL     1       1.334 -21.575  26.575  1.00  0.00    -0.454 OA
ENDROOT
BRANCH   1   2
ATOM      2  C   UNL     1       1.636 -22.614  27.478  1.00  0.00     0.214 A 
ATOM      3  C   UNL     1       1.475 -22.364  28.853  1.00  0.00     0.180 A 
ATOM      4  O   UNL     1       1.870 -23.261  29.745  1.00  0.00    -0.452 OA
ATOM      5  C   UNL     1       2.116 -23.887  27.083  1.00  0.00     0.239 A 
ATOM      6  C   UNL     1       2.391 -24.435  29.421  1.00  0.00     0.146 A 
ATOM      7  O   UNL     1       2.270 -24.150  25.863  1.00  0.00    -0.285 OA
ATOM      8  C   UNL     1       2.464 -24.845  28.067  1.00  0.00     0.111 A 
ATOM      9  C   UNL     1       2.881 -25.255  30.444  1.00  0.00     0.094 A 
ATOM     10  C   UNL     1       2.957 -26.154  27.783  1.00  0.00     0.134 A 
ATOM     11  C   UNL     1       3.452 -26.492  30.142  1.00  0.00     0.123 A 
ATOM     12  C   UNL     1       3.483 -26.935  28.820  1.00  0.00     0.093 A 
BRANCH   3  13
ATOM     13  C   UNL     1       0.818 -21.140  29.354  1.00  0.00     0.025 A 
ATOM     14  C   UNL     1       1.558 -20.040  29.819  1.00  0.00     0.016 A 
ATOM     15  C   UNL     1       0.901 -18.889  30.262  1.00  0.00     0.051 A 
ATOM     16  C   UNL     1      -0.500 -18.820  30.236  1.00  0.00     0.157 A 
ATOM     17  C   UNL     1      -0.583 -21.089  29.378  1.00  0.00     0.062 A 
ATOM     18  C   UNL     1      -1.243 -19.914  29.780  1.00  0.00     0.158 A 
BRANCH  16  19
ATOM     19  O   UNL     1      -1.161 -17.678  30.679  1.00  0.00    -0.504 OA
ATOM     20  H   UNL     1      -0.892 -17.207  31.531  1.00  0.00     0.293 HD
ENDBRANCH  16  19
BRANCH  18  21
ATOM     21  O   UNL     1      -2.634 -19.825  29.729  1.00  0.00    -0.504 OA
ATOM     22  H   UNL     1      -3.215 -20.113  30.510  1.00  0.00     0.293 HD
ENDBRANCH  18  21
ENDBRANCH   3  13
BRANCH  10  23
ATOM     23  O   UNL     1       2.913 -26.745  26.515  1.00  0.00    -0.507 OA
ATOM     24  H   UNL     1       2.070 -27.110  26.092  1.00  0.00     0.293 HD
ENDBRANCH  10  23
BRANCH  11  25
ATOM     25  O   UNL     1       3.985 -27.295  31.150  1.00  0.00    -0.508 OA
ATOM     26  H   UNL     1       4.795 -27.004  31.687  1.00  0.00     0.293 HD
ENDBRANCH  11  25
ENDBRANCH   1   2
BRANCH   1  27
ATOM     27  C   UNL     1       0.327 -21.564  25.557  1.00  0.00     0.339 C 
ATOM     28  C   UNL     1       0.952 -21.183  24.208  1.00  0.00     0.214 C 
ATOM     29  O   UNL     1      -0.738 -20.688  25.897  1.00  0.00    -0.332 OA
ATOM     30  C   UNL     1       1.398 -19.703  24.203  1.00  0.00     0.180 C 
ATOM     31  C   UNL     1      -0.281 -19.352  26.070  1.00  0.00     0.179 C 
ATOM     32  C   UNL     1       0.310 -18.776  24.763  1.00  0.00     0.177 C 
BRANCH  28  33
ATOM     33  O   UNL     1       0.075 -21.487  23.150  1.00  0.00    -0.384 OA
ATOM     34  H   UNL     1       0.608 -21.563  22.314  1.00  0.00     0.211 HD
ENDBRANCH  28  33
BRANCH  30  35
ATOM     35  O   UNL     1       1.745 -19.296  22.903  1.00  0.00    -0.387 OA
ATOM     36  H   UNL     1       1.485 -18.343  22.825  1.00  0.00     0.211 HD
ENDBRANCH  30  35
BRANCH  31  37
ATOM     37  C   UNL     1      -1.461 -18.496  26.542  1.00  0.00     0.191 C 
BRANCH  37  38
ATOM     38  O   UNL     1      -2.625 -19.278  26.597  1.00  0.00    -0.394 OA
ATOM     39  H   UNL     1      -2.327 -20.218  26.708  1.00  0.00     0.210 HD
ENDBRANCH  37  38
ENDBRANCH  31  37
BRANCH  32  40
ATOM     40  O   UNL     1       0.891 -17.521  25.019  1.00  0.00    -0.387 OA
ATOM     41  H   UNL     1       0.169 -16.842  24.967  1.00  0.00     0.211 HD
ENDBRANCH  32  40
ENDBRANCH   1  27
TORSDOF 12
ENDMDL
MODEL 7
REMARK VINA RESULT:    -6.738      2.113      7.591
REMARK INTER + INTRA:         -11.693
REMARK INTER:                 -10.345
REMARK INTRA:                  -1.349
REMARK UNBOUND:                -1.804
REMARK SMILES O=c1c(O[C@H]2O[C@H](CO)[C@@H](O)[C@H](O)[C@@H]2O)c(-c2ccc(O)c(O)c2)oc2cc(O)cc(O)c12
REMARK SMILES IDX 4 1 3 2 16 3 25 4 2 5 26 6 1 7 33 8 27 9 31 10 28 11 30 12
REMARK SMILES IDX 17 13 18 14 19 15 20 16 24 17 22 18 21 19 23 21 32 23 29 25
REMARK SMILES IDX 5 27 14 28 6 29 12 30 7 31 10 32 15 33 13 35 8 37 9 38 11 40
REMARK H PARENT 21 20 23 22 32 24 29 26 15 34 13 36 9 39 11 41
REMARK Flexibility Score: inf
ROOT
ATOM      1  O   UNL     1       0.156 -20.775  25.653  1.00  0.00    -0.454 OA
ENDROOT
BRANCH   1   2
ATOM      2  C   UNL     1      -0.344 -19.535  26.101  1.00  0.00     0.214 A 
ATOM      3  C   UNL     1      -0.842 -19.457  27.413  1.00  0.00     0.180 A 
ATOM      4  O   UNL     1      -1.442 -18.352  27.835  1.00  0.00    -0.452 OA
ATOM      5  C   UNL     1      -0.395 -18.370  25.297  1.00  0.00     0.239 A 
ATOM      6  C   UNL     1      -1.575 -17.263  27.093  1.00  0.00     0.146 A 
ATOM      7  O   UNL     1       0.045 -18.398  24.119  1.00  0.00    -0.285 OA
ATOM      8  C   UNL     1      -0.983 -17.186  25.808  1.00  0.00     0.111 A 
ATOM      9  C   UNL     1      -2.329 -16.198  27.599  1.00  0.00     0.094 A 
ATOM     10  C   UNL     1      -1.089 -15.959  25.088  1.00  0.00     0.134 A 
ATOM     11  C   UNL     1      -2.507 -15.040  26.840  1.00  0.00     0.123 A 
ATOM     12  C   UNL     1      -1.886 -14.925  25.597  1.00  0.00     0.093 A 
BRANCH   3  13
ATOM     13  C   UNL     1      -0.673 -20.559  28.382  1.00  0.00     0.025 A 
ATOM     14  C   UNL     1       0.479 -20.673  29.179  1.00  0.00     0.016 A 
ATOM     15  C   UNL     1       0.592 -21.715  30.104  1.00  0.00     0.051 A 
ATOM     16  C   UNL     1      -0.445 -22.646  30.249  1.00  0.00     0.157 A 
ATOM     17  C   UNL     1      -1.686 -21.521  28.493  1.00  0.00     0.062 A 
ATOM     18  C   UNL     1      -1.592 -22.542  29.455  1.00  0.00     0.158 A 
BRANCH  16  19
ATOM     19  O   UNL     1      -0.338 -23.689  31.165  1.00  0.00    -0.504 OA
ATOM     20  H   UNL     1      -0.855 -23.687  32.034  1.00  0.00     0.293 HD
ENDBRANCH  16  19
BRANCH  18  21
ATOM     21  O   UNL     1      -2.632 -23.455  29.628  1.00  0.00    -0.504 OA
ATOM     22  H   UNL     1      -2.717 -24.283  29.046  1.00  0.00     0.293 HD
ENDBRANCH  18  21
ENDBRANCH   3  13
BRANCH  10  23
ATOM     23  O   UNL     1      -0.401 -15.691  23.899  1.00  0.00    -0.507 OA
ATOM     24  H   UNL     1      -0.724 -15.977  22.984  1.00  0.00     0.293 HD
ENDBRANCH  10  23
BRANCH  11  25
ATOM     25  O   UNL     1      -3.294 -13.991  27.316  1.00  0.00    -0.508 OA
ATOM     26  H   UNL     1      -3.835 -14.080  28.169  1.00  0.00     0.293 HD
ENDBRANCH  11  25
ENDBRANCH   1   2
BRANCH   1  27
ATOM     27  C   UNL     1       1.383 -21.026  24.959  1.00  0.00     0.339 C 
ATOM     28  C   UNL     1       1.128 -21.967  23.772  1.00  0.00     0.214 C 
ATOM     29  O   UNL     1       2.369 -21.554  25.832  1.00  0.00    -0.332 OA
ATOM     30  C   UNL     1       0.765 -23.388  24.261  1.00  0.00     0.180 C 
ATOM     31  C   UNL     1       1.945 -22.777  26.422  1.00  0.00     0.179 C 
ATOM     32  C   UNL     1       1.723 -23.877  25.358  1.00  0.00     0.177 C 
BRANCH  28  33
ATOM     33  O   UNL     1       2.225 -21.962  22.890  1.00  0.00    -0.384 OA
ATOM     34  H   UNL     1       2.729 -22.810  23.013  1.00  0.00     0.211 HD
ENDBRANCH  28  33
BRANCH  30  35
ATOM     35  O   UNL     1       0.769 -24.296  23.189  1.00  0.00    -0.387 OA
ATOM     36  H   UNL     1      -0.180 -24.473  22.963  1.00  0.00     0.211 HD
ENDBRANCH  30  35
BRANCH  31  37
ATOM     37  C   UNL     1       3.010 -23.222  27.430  1.00  0.00     0.191 C 
BRANCH  37  38
ATOM     38  O   UNL     1       3.855 -24.174  26.841  1.00  0.00    -0.394 OA
ATOM     39  H   UNL     1       3.877 -23.969  25.871  1.00  0.00     0.210 HD
ENDBRANCH  37  38
ENDBRANCH  31  37
BRANCH  32  40
ATOM     40  O   UNL     1       1.154 -25.012  25.963  1.00  0.00    -0.387 OA
ATOM     41  H   UNL     1       1.709 -25.794  25.709  1.00  0.00     0.211 HD
ENDBRANCH  32  40
ENDBRANCH   1  27
TORSDOF 12
ENDMDL
MODEL 8
REMARK VINA RESULT:    -6.710      2.567      7.447
REMARK INTER + INTRA:         -11.652
REMARK INTER:                 -10.241
REMARK INTRA:                  -1.411
REMARK UNBOUND:                -1.804
REMARK SMILES O=c1c(O[C@H]2O[C@H](CO)[C@@H](O)[C@H](O)[C@@H]2O)c(-c2ccc(O)c(O)c2)oc2cc(O)cc(O)c12
REMARK SMILES IDX 4 1 3 2 16 3 25 4 2 5 26 6 1 7 33 8 27 9 31 10 28 11 30 12
REMARK SMILES IDX 17 13 18 14 19 15 20 16 24 17 22 18 21 19 23 21 32 23 29 25
REMARK SMILES IDX 5 27 14 28 6 29 12 30 7 31 10 32 15 33 13 35 8 37 9 38 11 40
REMARK H PARENT 21 20 23 22 32 24 29 26 15 34 13 36 9 39 11 41
REMARK Flexibility Score: inf
ROOT
ATOM      1  O   UNL     1      -0.693 -18.425  26.968  1.00  0.00    -0.454 OA
ENDROOT
BRANCH   1   2
ATOM      2  C   UNL     1      -1.229 -17.381  27.750  1.00  0.00     0.214 A 
ATOM      3  C   UNL     1      -1.426 -17.617  29.122  1.00  0.00     0.180 A 
ATOM      4  O   UNL     1      -2.048 -16.716  29.871  1.00  0.00    -0.452 OA
ATOM      5  C   UNL     1      -1.603 -16.118  27.229  1.00  0.00     0.239 A 
ATOM      6  C   UNL     1      -2.478 -15.552  29.410  1.00  0.00     0.146 A 
ATOM      7  O   UNL     1      -1.439 -15.868  26.008  1.00  0.00    -0.285 OA
ATOM      8  C   UNL     1      -2.203 -15.156  28.078  1.00  0.00     0.111 A 
ATOM      9  C   UNL     1      -3.225 -14.730  30.261  1.00  0.00     0.094 A 
ATOM     10  C   UNL     1      -2.619 -13.856  27.660  1.00  0.00     0.134 A 
ATOM     11  C   UNL     1      -3.711 -13.503  29.806  1.00  0.00     0.123 A 
ATOM     12  C   UNL     1      -3.404 -13.073  28.517  1.00  0.00     0.093 A 
BRANCH   3  13
ATOM     13  C   UNL     1      -0.908 -18.827  29.792  1.00  0.00     0.025 A 
ATOM     14  C   UNL     1       0.426 -18.922  30.221  1.00  0.00     0.016 A 
ATOM     15  C   UNL     1       0.873 -20.074  30.874  1.00  0.00     0.051 A 
ATOM     16  C   UNL     1      -0.009 -21.137  31.114  1.00  0.00     0.157 A 
ATOM     17  C   UNL     1      -1.775 -19.912  29.987  1.00  0.00     0.062 A 
ATOM     18  C   UNL     1      -1.337 -21.051  30.685  1.00  0.00     0.158 A 
BRANCH  16  19
ATOM     19  O   UNL     1       0.431 -22.289  31.761  1.00  0.00    -0.504 OA
ATOM     20  H   UNL     1       0.211 -22.469  32.731  1.00  0.00     0.293 HD
ENDBRANCH  16  19
BRANCH  18  21
ATOM     21  O   UNL     1      -2.214 -22.101  30.956  1.00  0.00    -0.504 OA
ATOM     22  H   UNL     1      -2.490 -22.334  31.905  1.00  0.00     0.293 HD
ENDBRANCH  18  21
ENDBRANCH   3  13
BRANCH  10  23
ATOM     23  O   UNL     1      -2.255 -13.275  26.440  1.00  0.00    -0.507 OA
ATOM     24  H   UNL     1      -2.888 -13.153  25.662  1.00  0.00     0.293 HD
ENDBRANCH  10  23
BRANCH  11  25
ATOM     25  O   UNL     1      -4.495 -12.698  30.633  1.00  0.00    -0.508 OA
ATOM     26  H   UNL     1      -5.305 -13.067  31.119  1.00  0.00     0.293 HD
ENDBRANCH  11  25
ENDBRANCH   1   2
BRANCH   1  27
ATOM     27  C   UNL     1      -1.394 -19.303  26.081  1.00  0.00     0.339 C 
ATOM     28  C   UNL     1      -0.669 -20.655  26.006  1.00  0.00     0.214 C 
ATOM     29  O   UNL     1      -1.539 -18.725  24.793  1.00  0.00    -0.332 OA
ATOM     30  C   UNL     1       0.688 -20.516  25.278  1.00  0.00     0.180 C 
ATOM     31  C   UNL     1      -0.277 -18.430  24.206  1.00  0.00     0.179 C 
ATOM     32  C   UNL     1       0.559 -19.711  23.977  1.00  0.00     0.177 C 
BRANCH  28  33
ATOM     33  O   UNL     1      -1.498 -21.631  25.422  1.00  0.00    -0.384 OA
ATOM     34  H   UNL     1      -0.938 -22.418  25.188  1.00  0.00     0.211 HD
ENDBRANCH  28  33
BRANCH  30  35
ATOM     35  O   UNL     1       1.232 -21.782  25.000  1.00  0.00    -0.387 OA
ATOM     36  H   UNL     1       0.645 -22.446  25.445  1.00  0.00     0.211 HD
ENDBRANCH  30  35
BRANCH  31  37
ATOM     37  C   UNL     1      -0.521 -17.711  22.875  1.00  0.00     0.191 C 
BRANCH  37  38
ATOM     38  O   UNL     1      -1.540 -16.759  23.028  1.00  0.00    -0.394 OA
ATOM     39  H   UNL     1      -1.948 -16.924  23.916  1.00  0.00     0.210 HD
ENDBRANCH  37  38
ENDBRANCH  31  37
BRANCH  32  40
ATOM     40  O   UNL     1       1.851 -19.361  23.547  1.00  0.00    -0.387 OA
ATOM     41  H   UNL     1       2.393 -19.172  24.356  1.00  0.00     0.211 HD
ENDBRANCH  32  40
ENDBRANCH   1  27
TORSDOF 12
ENDMDL
MODEL 9
REMARK VINA RESULT:    -6.691      7.004     10.751
REMARK INTER + INTRA:         -11.623
REMARK INTER:                 -10.640
REMARK INTRA:                  -0.983
REMARK UNBOUND:                -1.804
REMARK SMILES O=c1c(O[C@H]2O[C@H](CO)[C@@H](O)[C@H](O)[C@@H]2O)c(-c2ccc(O)c(O)c2)oc2cc(O)cc(O)c12
REMARK SMILES IDX 4 1 3 2 16 3 25 4 2 5 26 6 1 7 33 8 27 9 31 10 28 11 30 12
REMARK SMILES IDX 17 13 18 14 19 15 20 16 24 17 22 18 21 19 23 21 32 23 29 25
REMARK SMILES IDX 5 27 14 28 6 29 12 30 7 31 10 32 15 33 13 35 8 37 9 38 11 40
REMARK H PARENT 21 20 23 22 32 24 29 26 15 34 13 36 9 39 11 41
REMARK Flexibility Score: inf
ROOT
ATOM      1  O   UNL     1      -3.770 -13.713  29.766  1.00  0.00    -0.454 OA
ENDROOT
BRANCH   1   2
ATOM      2  C   UNL     1      -2.739 -13.715  28.804  1.00  0.00     0.214 A 
ATOM      3  C   UNL     1      -1.836 -12.637  28.800  1.00  0.00     0.180 A 
ATOM      4  O   UNL     1      -0.933 -12.527  27.835  1.00  0.00    -0.452 OA
ATOM      5  C   UNL     1      -2.575 -14.728  27.827  1.00  0.00     0.239 A 
ATOM      6  C   UNL     1      -0.791 -13.413  26.861  1.00  0.00     0.146 A 
ATOM      7  O   UNL     1      -3.360 -15.710  27.801  1.00  0.00    -0.285 OA
ATOM      8  C   UNL     1      -1.553 -14.608  26.853  1.00  0.00     0.111 A 
ATOM      9  C   UNL     1       0.115 -13.135  25.831  1.00  0.00     0.094 A 
ATOM     10  C   UNL     1      -1.299 -15.564  25.824  1.00  0.00     0.134 A 
ATOM     11  C   UNL     1       0.281 -14.037  24.778  1.00  0.00     0.123 A 
ATOM     12  C   UNL     1      -0.420 -15.242  24.782  1.00  0.00     0.093 A 
BRANCH   3  13
ATOM     13  C   UNL     1      -1.814 -11.630  29.879  1.00  0.00     0.025 A 
ATOM     14  C   UNL     1      -2.439 -10.380  29.738  1.00  0.00     0.016 A 
ATOM     15  C   UNL     1      -2.420  -9.462  30.792  1.00  0.00     0.051 A 
ATOM     16  C   UNL     1      -1.785  -9.786  31.999  1.00  0.00     0.157 A 
ATOM     17  C   UNL     1      -1.136 -11.932  31.069  1.00  0.00     0.062 A 
ATOM     18  C   UNL     1      -1.155 -11.027  32.144  1.00  0.00     0.158 A 
BRANCH  16  19
ATOM     19  O   UNL     1      -1.757  -8.875  33.052  1.00  0.00    -0.504 OA
ATOM     20  H   UNL     1      -2.607  -8.498  33.449  1.00  0.00     0.293 HD
ENDBRANCH  16  19
BRANCH  18  21
ATOM     21  O   UNL     1      -0.553 -11.352  33.360  1.00  0.00    -0.504 OA
ATOM     22  H   UNL     1      -0.624 -10.743  34.169  1.00  0.00     0.293 HD
ENDBRANCH  18  21
ENDBRANCH   3  13
BRANCH  10  23
ATOM     23  O   UNL     1      -1.847 -16.852  25.805  1.00  0.00    -0.507 OA
ATOM     24  H   UNL     1      -1.469 -17.618  25.266  1.00  0.00     0.293 HD
ENDBRANCH  10  23
BRANCH  11  25
ATOM     25  O   UNL     1       1.147 -13.747  23.724  1.00  0.00    -0.508 OA
ATOM     26  H   UNL     1       0.908 -13.970  22.764  1.00  0.00     0.293 HD
ENDBRANCH  11  25
ENDBRANCH   1   2
BRANCH   1  27
ATOM     27  C   UNL     1      -4.826 -12.758  29.916  1.00  0.00     0.339 C 
ATOM     28  C   UNL     1      -5.092 -12.504  31.406  1.00  0.00     0.214 C 
ATOM     29  O   UNL     1      -6.004 -13.185  29.248  1.00  0.00    -0.332 OA
ATOM     30  C   UNL     1      -5.717 -13.749  32.077  1.00  0.00     0.180 C 
ATOM     31  C   UNL     1      -6.469 -14.431  29.753  1.00  0.00     0.179 C 
ATOM     32  C   UNL     1      -6.869 -14.330  31.243  1.00  0.00     0.177 C 
BRANCH  28  33
ATOM     33  O   UNL     1      -5.872 -11.346  31.581  1.00  0.00    -0.384 OA
ATOM     34  H   UNL     1      -5.878 -10.840  30.725  1.00  0.00     0.211 HD
ENDBRANCH  28  33
BRANCH  30  35
ATOM     35  O   UNL     1      -6.177 -13.437  33.368  1.00  0.00    -0.387 OA
ATOM     36  H   UNL     1      -6.815 -12.685  33.267  1.00  0.00     0.211 HD
ENDBRANCH  30  35
BRANCH  31  37
ATOM     37  C   UNL     1      -7.671 -14.874  28.910  1.00  0.00     0.191 C 
BRANCH  37  38
ATOM     38  O   UNL     1      -7.867 -13.975  27.852  1.00  0.00    -0.394 OA
ATOM     39  H   UNL     1      -7.023 -13.965  27.331  1.00  0.00     0.210 HD
ENDBRANCH  37  38
ENDBRANCH  31  37
BRANCH  32  40
ATOM     40  O   UNL     1      -7.169 -15.610  31.740  1.00  0.00    -0.387 OA
ATOM     41  H   UNL     1      -6.736 -15.694  32.629  1.00  0.00     0.211 HD
ENDBRANCH  32  40
ENDBRANCH   1  27
TORSDOF 12
ENDMDL
