MODEL 1
REMARK VINA RESULT:    -0.044      0.000      0.000
REMARK INTER + INTRA:           1.184
REMARK INTER:                  -0.065
REMARK INTRA:                   1.249
REMARK UNBOUND:                 1.249
REMARK SMILES Cc1cc2c(C(C)C)c(O)c(O)c(C=O)c2c(O)c1-c1c(C)cc2c(C(C)C)c(O)c(O)c(C=O)c2c1O
REMARK SMILES IDX 1 1 2 2 3 3 4 4 16 5 13 6 11 7 9 8 5 9 17 10 19 11 20 12
REMARK SMILES IDX 37 13 21 14 36 15 23 16 22 17 24 18 33 19 25 20 31 21 29 22
REMARK SMILES IDX 38 23 34 25 35 26 26 27 27 28 28 29 32 30 30 32 18 34 6 36
REMARK SMILES IDX 7 37 8 38 14 39 15 40 10 41 12 43
REMARK H PARENT 38 24 32 31 30 33 18 35 10 42 12 44
REMARK Flexibility Score: inf
ROOT
ATOM      1  C   UNL     1       9.708  33.669  27.698  1.00  0.00     0.045 C 
ATOM      2  C   UNL     1      10.806  34.656  27.384  1.00  0.00    -0.039 A 
ATOM      3  C   UNL     1      10.478  35.888  26.818  1.00  0.00     0.013 A 
ATOM      4  C   UNL     1      11.460  36.856  26.511  1.00  0.00    -0.006 A 
ATOM      5  C   UNL     1      12.837  36.515  26.679  1.00  0.00     0.039 A 
ATOM      6  C   UNL     1      13.833  37.442  26.246  1.00  0.00     0.072 A 
ATOM      7  C   UNL     1      13.450  38.636  25.601  1.00  0.00     0.169 A 
ATOM      8  C   UNL     1      12.099  38.958  25.446  1.00  0.00     0.162 A 
ATOM      9  C   UNL     1      11.092  38.139  25.999  1.00  0.00     0.008 A 
ATOM     10  C   UNL     1      13.171  35.240  27.235  1.00  0.00     0.132 A 
ATOM     11  C   UNL     1      12.155  34.334  27.606  1.00  0.00     0.031 A 
ENDROOT
BRANCH  11  12
ATOM     12  C   UNL     1      12.506  33.016  28.197  1.00  0.00     0.031 A 
ATOM     13  C   UNL     1      13.081  32.944  29.484  1.00  0.00     0.132 A 
ATOM     14  C   UNL     1      12.261  31.839  27.470  1.00  0.00    -0.039 A 
ATOM     15  C   UNL     1      13.394  31.678  30.064  1.00  0.00     0.039 A 
ATOM     16  C   UNL     1      12.666  30.610  27.995  1.00  0.00     0.013 A 
ATOM     17  C   UNL     1      11.575  31.885  26.127  1.00  0.00     0.045 C 
ATOM     18  C   UNL     1      13.306  30.512  29.249  1.00  0.00    -0.006 A 
ATOM     19  C   UNL     1      13.819  31.542  31.417  1.00  0.00     0.072 A 
ATOM     20  C   UNL     1      13.824  29.268  29.719  1.00  0.00     0.008 A 
ATOM     21  C   UNL     1      14.201  30.283  31.916  1.00  0.00     0.169 A 
ATOM     22  C   UNL     1      14.171  29.146  31.083  1.00  0.00     0.162 A 
BRANCH  13  23
ATOM     23  O   UNL     1      13.375  34.127  30.171  1.00  0.00    -0.507 OA
ATOM     24  H   UNL     1      14.065  34.195  30.908  1.00  0.00     0.293 HD
ENDBRANCH  13  23
BRANCH  19  25
ATOM     25  C   UNL     1      13.753  32.669  32.380  1.00  0.00     0.264 C 
ATOM     26  O   UNL     1      14.448  32.663  33.431  1.00  0.00    -0.298 OA
ENDBRANCH  19  25
BRANCH  20  27
ATOM     27  C   UNL     1      14.001  28.064  28.775  1.00  0.00     0.017 C 
ATOM     28  C   UNL     1      15.410  28.038  28.175  1.00  0.00     0.012 C 
ATOM     29  C   UNL     1      12.922  27.974  27.679  1.00  0.00     0.012 C 
ENDBRANCH  20  27
BRANCH  21  30
ATOM     30  O   UNL     1      14.604  30.191  33.254  1.00  0.00    -0.504 OA
ATOM     31  H   UNL     1      15.337  30.744  33.672  1.00  0.00     0.293 HD
ENDBRANCH  21  30
BRANCH  22  32
ATOM     32  O   UNL     1      14.443  27.875  31.597  1.00  0.00    -0.504 OA
ATOM     33  H   UNL     1      14.102  27.009  31.205  1.00  0.00     0.293 HD
ENDBRANCH  22  32
ENDBRANCH  11  12
BRANCH  10  34
ATOM     34  O   UNL     1      14.509  34.866  27.406  1.00  0.00    -0.507 OA
ATOM     35  H   UNL     1      15.271  35.522  27.513  1.00  0.00     0.293 HD
ENDBRANCH  10  34
BRANCH   9  36
ATOM     36  C   UNL     1       9.634  38.634  26.022  1.00  0.00     0.017 C 
ATOM     37  C   UNL     1       8.875  38.041  27.214  1.00  0.00     0.012 C 
ATOM     38  C   UNL     1       8.876  38.398  24.703  1.00  0.00     0.012 C 
ENDBRANCH   9  36
BRANCH   6  39
ATOM     39  C   UNL     1      15.275  37.190  26.442  1.00  0.00     0.264 C 
ATOM     40  O   UNL     1      16.011  38.066  26.968  1.00  0.00    -0.298 OA
ENDBRANCH   6  39
BRANCH   8  41
ATOM     41  O   UNL     1      11.748  40.108  24.736  1.00  0.00    -0.504 OA
ATOM     42  H   UNL     1      12.220  40.400  23.889  1.00  0.00     0.293 HD
ENDBRANCH   8  41
BRANCH   7  43
ATOM     43  O   UNL     1      14.398  39.551  25.124  1.00  0.00    -0.504 OA
ATOM     44  H   UNL     1      14.253  40.157  24.328  1.00  0.00     0.293 HD
ENDBRANCH   7  43
TORSDOF 11
ENDMDL
MODEL 2
REMARK VINA RESULT:     0.537      4.424     11.024
REMARK INTER + INTRA:           2.038
REMARK INTER:                   1.740
REMARK INTRA:                   0.298
REMARK UNBOUND:                 1.249
REMARK SMILES Cc1cc2c(C(C)C)c(O)c(O)c(C=O)c2c(O)c1-c1c(C)cc2c(C(C)C)c(O)c(O)c(C=O)c2c1O
REMARK SMILES IDX 1 1 2 2 3 3 4 4 16 5 13 6 11 7 9 8 5 9 17 10 19 11 20 12
REMARK SMILES IDX 37 13 21 14 36 15 23 16 22 17 24 18 33 19 25 20 31 21 29 22
REMARK SMILES IDX 38 23 34 25 35 26 26 27 27 28 28 29 32 30 30 32 18 34 6 36
REMARK SMILES IDX 7 37 8 38 14 39 15 40 10 41 12 43
REMARK H PARENT 38 24 32 31 30 33 18 35 10 42 12 44
REMARK Flexibility Score: inf
ROOT
ATOM      1  C   UNL     1       8.875  37.706  23.417  1.00  0.00     0.045 C 
ATOM      2  C   UNL     1      10.236  37.646  24.067  1.00  0.00    -0.039 A 
ATOM      3  C   UNL     1      10.383  36.979  25.284  1.00  0.00     0.013 A 
ATOM      4  C   UNL     1      11.632  36.882  25.936  1.00  0.00    -0.006 A 
ATOM      5  C   UNL     1      12.751  37.584  25.389  1.00  0.00     0.039 A 
ATOM      6  C   UNL     1      13.979  37.594  26.117  1.00  0.00     0.072 A 
ATOM      7  C   UNL     1      14.052  36.979  27.383  1.00  0.00     0.169 A 
ATOM      8  C   UNL     1      12.951  36.293  27.904  1.00  0.00     0.162 A 
ATOM      9  C   UNL     1      11.773  36.133  27.145  1.00  0.00     0.008 A 
ATOM     10  C   UNL     1      12.588  38.287  24.155  1.00  0.00     0.132 A 
ATOM     11  C   UNL     1      11.342  38.291  23.492  1.00  0.00     0.031 A 
ENDROOT
BRANCH  11  12
ATOM     12  C   UNL     1      11.182  39.012  22.201  1.00  0.00     0.031 A 
ATOM     13  C   UNL     1      10.422  40.199  22.139  1.00  0.00     0.132 A 
ATOM     14  C   UNL     1      11.796  38.508  21.043  1.00  0.00    -0.039 A 
ATOM     15  C   UNL     1      10.290  40.906  20.907  1.00  0.00     0.039 A 
ATOM     16  C   UNL     1      11.577  39.142  19.818  1.00  0.00     0.013 A 
ATOM     17  C   UNL     1      12.678  37.285  21.100  1.00  0.00     0.045 C 
ATOM     18  C   UNL     1      10.765  40.292  19.712  1.00  0.00    -0.006 A 
ATOM     19  C   UNL     1       9.676  42.189  20.825  1.00  0.00     0.072 A 
ATOM     20  C   UNL     1      10.450  40.859  18.440  1.00  0.00     0.008 A 
ATOM     21  C   UNL     1       9.490  42.806  19.574  1.00  0.00     0.169 A 
ATOM     22  C   UNL     1       9.906  42.161  18.391  1.00  0.00     0.162 A 
BRANCH  13  23
ATOM     23  O   UNL     1       9.767  40.656  23.289  1.00  0.00    -0.507 OA
ATOM     24  H   UNL     1      10.242  40.917  24.143  1.00  0.00     0.293 HD
ENDBRANCH  13  23
BRANCH  19  25
ATOM     25  C   UNL     1       9.332  42.976  22.034  1.00  0.00     0.264 C 
ATOM     26  O   UNL     1       9.942  44.044  22.307  1.00  0.00    -0.298 OA
ENDBRANCH  19  25
BRANCH  20  27
ATOM     27  C   UNL     1      10.701  40.085  17.132  1.00  0.00     0.017 C 
ATOM     28  C   UNL     1       9.831  38.826  17.063  1.00  0.00     0.012 C 
ATOM     29  C   UNL     1      12.185  39.757  16.882  1.00  0.00     0.012 C 
ENDBRANCH  20  27
BRANCH  21  30
ATOM     30  O   UNL     1       8.890  44.071  19.538  1.00  0.00    -0.504 OA
ATOM     31  H   UNL     1       7.904  44.236  19.405  1.00  0.00     0.293 HD
ENDBRANCH  21  30
BRANCH  22  32
ATOM     32  O   UNL     1       9.827  42.811  17.156  1.00  0.00    -0.504 OA
ATOM     33  H   UNL     1       9.361  42.443  16.338  1.00  0.00     0.293 HD
ENDBRANCH  22  32
ENDBRANCH  11  12
BRANCH  10  34
ATOM     34  O   UNL     1      13.657  38.995  23.593  1.00  0.00    -0.507 OA
ATOM     35  H   UNL     1      13.889  39.951  23.827  1.00  0.00     0.293 HD
ENDBRANCH  10  34
BRANCH   9  36
ATOM     36  C   UNL     1      10.671  35.178  27.641  1.00  0.00     0.017 C 
ATOM     37  C   UNL     1      10.840  33.784  27.028  1.00  0.00     0.012 C 
ATOM     38  C   UNL     1       9.243  35.713  27.429  1.00  0.00     0.012 C 
ENDBRANCH   9  36
BRANCH   6  39
ATOM     39  C   UNL     1      15.196  38.243  25.589  1.00  0.00     0.264 C 
ATOM     40  O   UNL     1      15.415  39.464  25.806  1.00  0.00    -0.298 OA
ENDBRANCH   6  39
BRANCH   8  41
ATOM     41  O   UNL     1      13.027  35.760  29.193  1.00  0.00    -0.504 OA
ATOM     42  H   UNL     1      13.802  35.191  29.512  1.00  0.00     0.293 HD
ENDBRANCH   8  41
BRANCH   7  43
ATOM     43  O   UNL     1      15.227  37.003  28.146  1.00  0.00    -0.504 OA
ATOM     44  H   UNL     1      15.904  36.252  28.171  1.00  0.00     0.293 HD
ENDBRANCH   7  43
TORSDOF 11
ENDMDL
MODEL 3
REMARK VINA RESULT:     0.995     10.751     13.846
REMARK INTER + INTRA:           2.710
REMARK INTER:                   1.837
REMARK INTRA:                   0.873
REMARK UNBOUND:                 1.249
REMARK SMILES Cc1cc2c(C(C)C)c(O)c(O)c(C=O)c2c(O)c1-c1c(C)cc2c(C(C)C)c(O)c(O)c(C=O)c2c1O
REMARK SMILES IDX 1 1 2 2 3 3 4 4 16 5 13 6 11 7 9 8 5 9 17 10 19 11 20 12
REMARK SMILES IDX 37 13 21 14 36 15 23 16 22 17 24 18 33 19 25 20 31 21 29 22
REMARK SMILES IDX 38 23 34 25 35 26 26 27 27 28 28 29 32 30 30 32 18 34 6 36
REMARK SMILES IDX 7 37 8 38 14 39 15 40 10 41 12 43
REMARK H PARENT 38 24 32 31 30 33 18 35 10 42 12 44
REMARK Flexibility Score: inf
ROOT
ATOM      1  C   UNL     1      13.781  46.132  22.105  1.00  0.00     0.045 C 
ATOM      2  C   UNL     1      13.619  44.724  21.588  1.00  0.00    -0.039 A 
ATOM      3  C   UNL     1      12.368  44.300  21.137  1.00  0.00     0.013 A 
ATOM      4  C   UNL     1      12.157  42.997  20.634  1.00  0.00    -0.006 A 
ATOM      5  C   UNL     1      13.228  42.054  20.696  1.00  0.00     0.039 A 
ATOM      6  C   UNL     1      12.977  40.702  20.309  1.00  0.00     0.072 A 
ATOM      7  C   UNL     1      11.675  40.305  19.945  1.00  0.00     0.169 A 
ATOM      8  C   UNL     1      10.637  41.239  19.886  1.00  0.00     0.162 A 
ATOM      9  C   UNL     1      10.884  42.610  20.111  1.00  0.00     0.008 A 
ATOM     10  C   UNL     1      14.502  42.486  21.182  1.00  0.00     0.132 A 
ATOM     11  C   UNL     1      14.693  43.820  21.599  1.00  0.00     0.031 A 
ENDROOT
BRANCH  11  12
ATOM     12  C   UNL     1      16.024  44.268  22.090  1.00  0.00     0.031 A 
ATOM     13  C   UNL     1      17.116  44.359  21.202  1.00  0.00     0.132 A 
ATOM     14  C   UNL     1      16.188  44.604  23.444  1.00  0.00    -0.039 A 
ATOM     15  C   UNL     1      18.387  44.813  21.666  1.00  0.00     0.039 A 
ATOM     16  C   UNL     1      17.456  44.946  23.918  1.00  0.00     0.013 A 
ATOM     17  C   UNL     1      15.017  44.591  24.395  1.00  0.00     0.045 C 
ATOM     18  C   UNL     1      18.583  44.979  23.068  1.00  0.00    -0.006 A 
ATOM     19  C   UNL     1      19.472  45.080  20.783  1.00  0.00     0.072 A 
ATOM     20  C   UNL     1      19.893  45.210  23.586  1.00  0.00     0.008 A 
ATOM     21  C   UNL     1      20.731  45.441  21.297  1.00  0.00     0.169 A 
ATOM     22  C   UNL     1      20.932  45.540  22.689  1.00  0.00     0.162 A 
BRANCH  13  23
ATOM     23  O   UNL     1      16.952  43.962  19.869  1.00  0.00    -0.507 OA
ATOM     24  H   UNL     1      16.489  43.109  19.588  1.00  0.00     0.293 HD
ENDBRANCH  13  23
BRANCH  19  25
ATOM     25  C   UNL     1      19.297  45.119  19.310  1.00  0.00     0.264 C 
ATOM     26  O   UNL     1      20.060  44.464  18.550  1.00  0.00    -0.298 OA
ENDBRANCH  19  25
BRANCH  20  27
ATOM     27  C   UNL     1      20.187  45.116  25.095  1.00  0.00     0.017 C 
ATOM     28  C   UNL     1      20.199  43.657  25.563  1.00  0.00     0.012 C 
ATOM     29  C   UNL     1      19.250  45.976  25.963  1.00  0.00     0.012 C 
ENDBRANCH  20  27
BRANCH  21  30
ATOM     30  O   UNL     1      21.768  45.703  20.394  1.00  0.00    -0.504 OA
ATOM     31  H   UNL     1      21.997  46.616  20.029  1.00  0.00     0.293 HD
ENDBRANCH  21  30
BRANCH  22  32
ATOM     32  O   UNL     1      22.145  46.003  23.205  1.00  0.00    -0.504 OA
ATOM     33  H   UNL     1      22.245  46.797  23.822  1.00  0.00     0.293 HD
ENDBRANCH  22  32
ENDBRANCH  11  12
BRANCH  10  34
ATOM     34  O   UNL     1      15.573  41.588  21.267  1.00  0.00    -0.507 OA
ATOM     35  H   UNL     1      15.767  40.871  20.581  1.00  0.00     0.293 HD
ENDBRANCH  10  34
BRANCH   9  36
ATOM     36  C   UNL     1       9.783  43.643  19.809  1.00  0.00     0.017 C 
ATOM     37  C   UNL     1       8.960  43.947  21.065  1.00  0.00     0.012 C 
ATOM     38  C   UNL     1       8.875  43.257  18.626  1.00  0.00     0.012 C 
ENDBRANCH   9  36
BRANCH   6  39
ATOM     39  C   UNL     1      14.047  39.684  20.285  1.00  0.00     0.264 C 
ATOM     40  O   UNL     1      13.767  38.466  20.129  1.00  0.00    -0.298 OA
ENDBRANCH   6  39
BRANCH   8  41
ATOM     41  O   UNL     1       9.342  40.804  19.597  1.00  0.00    -0.504 OA
ATOM     42  H   UNL     1       8.834  40.153  20.184  1.00  0.00     0.293 HD
ENDBRANCH   8  41
BRANCH   7  43
ATOM     43  O   UNL     1      11.380  38.979  19.599  1.00  0.00    -0.504 OA
ATOM     44  H   UNL     1      10.585  38.464  19.952  1.00  0.00     0.293 HD
ENDBRANCH   7  43
TORSDOF 11
ENDMDL
MODEL 4
REMARK VINA RESULT:     1.413      4.489      8.325
REMARK INTER + INTRA:           3.324
REMARK INTER:                   2.823
REMARK INTRA:                   0.500
REMARK UNBOUND:                 1.249
REMARK SMILES Cc1cc2c(C(C)C)c(O)c(O)c(C=O)c2c(O)c1-c1c(C)cc2c(C(C)C)c(O)c(O)c(C=O)c2c1O
REMARK SMILES IDX 1 1 2 2 3 3 4 4 16 5 13 6 11 7 9 8 5 9 17 10 19 11 20 12
REMARK SMILES IDX 37 13 21 14 36 15 23 16 22 17 24 18 33 19 25 20 31 21 29 22
REMARK SMILES IDX 38 23 34 25 35 26 26 27 27 28 28 29 32 30 30 32 18 34 6 36
REMARK SMILES IDX 7 37 8 38 14 39 15 40 10 41 12 43
REMARK H PARENT 38 24 32 31 30 33 18 35 10 42 12 44
REMARK Flexibility Score: inf
ROOT
ATOM      1  C   UNL     1      12.659  37.284  21.180  1.00  0.00     0.045 C 
ATOM      2  C   UNL     1      11.798  38.518  21.063  1.00  0.00    -0.039 A 
ATOM      3  C   UNL     1      11.642  39.127  19.818  1.00  0.00     0.013 A 
ATOM      4  C   UNL     1      10.841  40.278  19.644  1.00  0.00    -0.006 A 
ATOM      5  C   UNL     1      10.270  40.899  20.797  1.00  0.00     0.039 A 
ATOM      6  C   UNL     1       9.571  42.134  20.638  1.00  0.00     0.072 A 
ATOM      7  C   UNL     1       9.516  42.753  19.373  1.00  0.00     0.169 A 
ATOM      8  C   UNL     1      10.076  42.132  18.253  1.00  0.00     0.162 A 
ATOM      9  C   UNL     1      10.638  40.842  18.347  1.00  0.00     0.008 A 
ATOM     10  C   UNL     1      10.454  40.285  22.075  1.00  0.00     0.132 A 
ATOM     11  C   UNL     1      11.193  39.089  22.194  1.00  0.00     0.031 A 
ENDROOT
BRANCH  11  12
ATOM     12  C   UNL     1      11.370  38.446  23.524  1.00  0.00     0.031 A 
ATOM     13  C   UNL     1      12.644  38.401  24.128  1.00  0.00     0.132 A 
ATOM     14  C   UNL     1      10.260  37.887  24.179  1.00  0.00    -0.039 A 
ATOM     15  C   UNL     1      12.811  37.809  25.416  1.00  0.00     0.039 A 
ATOM     16  C   UNL     1      10.444  37.215  25.389  1.00  0.00     0.013 A 
ATOM     17  C   UNL     1       8.875  37.993  23.590  1.00  0.00     0.045 C 
ATOM     18  C   UNL     1      11.718  37.092  25.985  1.00  0.00    -0.006 A 
ATOM     19  C   UNL     1      14.036  37.884  26.138  1.00  0.00     0.072 A 
ATOM     20  C   UNL     1      11.913  36.300  27.156  1.00  0.00     0.008 A 
ATOM     21  C   UNL     1      14.177  37.209  27.365  1.00  0.00     0.169 A 
ATOM     22  C   UNL     1      13.111  36.449  27.888  1.00  0.00     0.162 A 
BRANCH  13  23
ATOM     23  O   UNL     1      13.750  38.908  23.436  1.00  0.00    -0.507 OA
ATOM     24  H   UNL     1      13.689  39.615  22.716  1.00  0.00     0.293 HD
ENDBRANCH  13  23
BRANCH  19  25
ATOM     25  C   UNL     1      15.150  38.765  25.710  1.00  0.00     0.264 C 
ATOM     26  O   UNL     1      16.204  38.283  25.216  1.00  0.00    -0.298 OA
ENDBRANCH  19  25
BRANCH  20  27
ATOM     27  C   UNL     1      10.843  35.300  27.636  1.00  0.00     0.017 C 
ATOM     28  C   UNL     1      10.982  33.957  26.911  1.00  0.00     0.012 C 
ATOM     29  C   UNL     1       9.405  35.842  27.544  1.00  0.00     0.012 C 
ENDBRANCH  20  27
BRANCH  21  30
ATOM     30  O   UNL     1      15.395  37.316  28.047  1.00  0.00    -0.504 OA
ATOM     31  H   UNL     1      16.275  36.952  27.713  1.00  0.00     0.293 HD
ENDBRANCH  21  30
BRANCH  22  32
ATOM     32  O   UNL     1      13.203  35.866  29.155  1.00  0.00    -0.504 OA
ATOM     33  H   UNL     1      13.445  36.359  30.003  1.00  0.00     0.293 HD
ENDBRANCH  22  32
ENDBRANCH  11  12
BRANCH  10  34
ATOM     34  O   UNL     1       9.919  40.869  23.229  1.00  0.00    -0.507 OA
ATOM     35  H   UNL     1       8.939  40.838  23.478  1.00  0.00     0.293 HD
ENDBRANCH  10  34
BRANCH   9  36
ATOM     36  C   UNL     1      11.030  40.086  17.063  1.00  0.00     0.017 C 
ATOM     37  C   UNL     1      10.238  38.782  16.933  1.00  0.00     0.012 C 
ATOM     38  C   UNL     1      12.544  39.838  16.926  1.00  0.00     0.012 C 
ENDBRANCH   9  36
BRANCH   6  39
ATOM     39  C   UNL     1       8.900  42.805  21.770  1.00  0.00     0.264 C 
ATOM     40  O   UNL     1       9.028  44.045  21.945  1.00  0.00    -0.298 OA
ENDBRANCH   6  39
BRANCH   8  41
ATOM     41  O   UNL     1      10.074  42.803  17.028  1.00  0.00    -0.504 OA
ATOM     42  H   UNL     1      10.842  43.385  16.715  1.00  0.00     0.293 HD
ENDBRANCH   8  41
BRANCH   7  43
ATOM     43  O   UNL     1       8.875  43.985  19.184  1.00  0.00    -0.504 OA
ATOM     44  H   UNL     1       8.849  44.723  19.874  1.00  0.00     0.293 HD
ENDBRANCH   7  43
TORSDOF 11
ENDMDL
MODEL 5
REMARK VINA RESULT:     1.605      4.092      6.951
REMARK INTER + INTRA:           3.605
REMARK INTER:                   3.919
REMARK INTRA:                  -0.315
REMARK UNBOUND:                 1.249
REMARK SMILES Cc1cc2c(C(C)C)c(O)c(O)c(C=O)c2c(O)c1-c1c(C)cc2c(C(C)C)c(O)c(O)c(C=O)c2c1O
REMARK SMILES IDX 1 1 2 2 3 3 4 4 16 5 13 6 11 7 9 8 5 9 17 10 19 11 20 12
REMARK SMILES IDX 37 13 21 14 36 15 23 16 22 17 24 18 33 19 25 20 31 21 29 22
REMARK SMILES IDX 38 23 34 25 35 26 26 27 27 28 28 29 32 30 30 32 18 34 6 36
REMARK SMILES IDX 7 37 8 38 14 39 15 40 10 41 12 43
REMARK H PARENT 38 24 32 31 30 33 18 35 10 42 12 44
REMARK Flexibility Score: inf
ROOT
ATOM      1  C   UNL     1       9.697  39.844  25.447  1.00  0.00     0.045 C 
ATOM      2  C   UNL     1      10.411  39.779  24.119  1.00  0.00    -0.039 A 
ATOM      3  C   UNL     1      10.222  40.803  23.190  1.00  0.00     0.013 A 
ATOM      4  C   UNL     1      10.869  40.802  21.934  1.00  0.00    -0.006 A 
ATOM      5  C   UNL     1      11.648  39.663  21.563  1.00  0.00     0.039 A 
ATOM      6  C   UNL     1      12.194  39.603  20.245  1.00  0.00     0.072 A 
ATOM      7  C   UNL     1      11.902  40.622  19.316  1.00  0.00     0.169 A 
ATOM      8  C   UNL     1      11.142  41.732  19.694  1.00  0.00     0.162 A 
ATOM      9  C   UNL     1      10.717  41.897  21.029  1.00  0.00     0.008 A 
ATOM     10  C   UNL     1      11.818  38.604  22.509  1.00  0.00     0.132 A 
ATOM     11  C   UNL     1      11.221  38.682  23.785  1.00  0.00     0.031 A 
ENDROOT
BRANCH  11  12
ATOM     12  C   UNL     1      11.412  37.585  24.770  1.00  0.00     0.031 A 
ATOM     13  C   UNL     1      10.475  36.534  24.855  1.00  0.00     0.132 A 
ATOM     14  C   UNL     1      12.535  37.596  25.615  1.00  0.00    -0.039 A 
ATOM     15  C   UNL     1      10.671  35.466  25.781  1.00  0.00     0.039 A 
ATOM     16  C   UNL     1      12.669  36.608  26.592  1.00  0.00     0.013 A 
ATOM     17  C   UNL     1      13.591  38.666  25.488  1.00  0.00     0.045 C 
ATOM     18  C   UNL     1      11.712  35.582  26.748  1.00  0.00    -0.006 A 
ATOM     19  C   UNL     1       9.847  34.304  25.792  1.00  0.00     0.072 A 
ATOM     20  C   UNL     1      11.796  34.651  27.827  1.00  0.00     0.008 A 
ATOM     21  C   UNL     1      10.026  33.319  26.782  1.00  0.00     0.169 A 
ATOM     22  C   UNL     1      11.016  33.475  27.773  1.00  0.00     0.162 A 
BRANCH  13  23
ATOM     23  O   UNL     1       9.331  36.567  24.049  1.00  0.00    -0.507 OA
ATOM     24  H   UNL     1       8.502  37.104  24.269  1.00  0.00     0.293 HD
ENDBRANCH  13  23
BRANCH  19  25
ATOM     25  C   UNL     1       8.875  34.017  24.709  1.00  0.00     0.264 C 
ATOM     26  O   UNL     1       8.999  32.995  23.982  1.00  0.00    -0.298 OA
ENDBRANCH  19  25
BRANCH  20  27
ATOM     27  C   UNL     1      12.721  34.901  29.033  1.00  0.00     0.017 C 
ATOM     28  C   UNL     1      13.071  33.587  29.739  1.00  0.00     0.012 C 
ATOM     29  C   UNL     1      12.175  35.944  30.026  1.00  0.00     0.012 C 
ENDBRANCH  20  27
BRANCH  21  30
ATOM     30  O   UNL     1       9.201  32.188  26.752  1.00  0.00    -0.504 OA
ATOM     31  H   UNL     1       8.734  31.795  27.556  1.00  0.00     0.293 HD
ENDBRANCH  21  30
BRANCH  22  32
ATOM     32  O   UNL     1      11.274  32.454  28.693  1.00  0.00    -0.504 OA
ATOM     33  H   UNL     1      10.843  32.374  29.603  1.00  0.00     0.293 HD
ENDBRANCH  22  32
ENDBRANCH  11  12
BRANCH  10  34
ATOM     34  O   UNL     1      12.565  37.467  22.178  1.00  0.00    -0.507 OA
ATOM     35  H   UNL     1      13.552  37.483  21.955  1.00  0.00     0.293 HD
ENDBRANCH  10  34
BRANCH   9  36
ATOM     36  C   UNL     1      10.090  43.233  21.470  1.00  0.00     0.017 C 
ATOM     37  C   UNL     1       8.875  43.578  20.603  1.00  0.00     0.012 C 
ATOM     38  C   UNL     1      11.091  44.403  21.522  1.00  0.00     0.012 C 
ENDBRANCH   9  36
BRANCH   6  39
ATOM     39  C   UNL     1      13.061  38.490  19.807  1.00  0.00     0.264 C 
ATOM     40  O   UNL     1      14.313  38.624  19.788  1.00  0.00    -0.298 OA
ENDBRANCH   6  39
BRANCH   8  41
ATOM     41  O   UNL     1      10.803  42.687  18.732  1.00  0.00    -0.504 OA
ATOM     42  H   UNL     1      11.266  42.756  17.835  1.00  0.00     0.293 HD
ENDBRANCH   8  41
BRANCH   7  43
ATOM     43  O   UNL     1      12.385  40.579  18.001  1.00  0.00    -0.504 OA
ATOM     44  H   UNL     1      11.797  40.594  17.179  1.00  0.00     0.293 HD
ENDBRANCH   7  43
TORSDOF 11
ENDMDL
MODEL 6
REMARK VINA RESULT:     1.676      4.042     10.891
REMARK INTER + INTRA:           3.710
REMARK INTER:                   3.223
REMARK INTRA:                   0.487
REMARK UNBOUND:                 1.249
REMARK SMILES Cc1cc2c(C(C)C)c(O)c(O)c(C=O)c2c(O)c1-c1c(C)cc2c(C(C)C)c(O)c(O)c(C=O)c2c1O
REMARK SMILES IDX 1 1 2 2 3 3 4 4 16 5 13 6 11 7 9 8 5 9 17 10 19 11 20 12
REMARK SMILES IDX 37 13 21 14 36 15 23 16 22 17 24 18 33 19 25 20 31 21 29 22
REMARK SMILES IDX 38 23 34 25 35 26 26 27 27 28 28 29 32 30 30 32 18 34 6 36
REMARK SMILES IDX 7 37 8 38 14 39 15 40 10 41 12 43
REMARK H PARENT 38 24 32 31 30 33 18 35 10 42 12 44
REMARK Flexibility Score: inf
ROOT
ATOM      1  C   UNL     1      13.094  38.781  25.600  1.00  0.00     0.045 C 
ATOM      2  C   UNL     1      12.218  37.553  25.655  1.00  0.00    -0.039 A 
ATOM      3  C   UNL     1      12.447  36.593  26.641  1.00  0.00     0.013 A 
ATOM      4  C   UNL     1      11.655  35.429  26.749  1.00  0.00    -0.006 A 
ATOM      5  C   UNL     1      10.666  35.174  25.749  1.00  0.00     0.039 A 
ATOM      6  C   UNL     1       9.956  33.936  25.783  1.00  0.00     0.072 A 
ATOM      7  C   UNL     1      10.286  32.962  26.748  1.00  0.00     0.169 A 
ATOM      8  C   UNL     1      11.253  33.226  27.722  1.00  0.00     0.162 A 
ATOM      9  C   UNL     1      11.862  34.495  27.811  1.00  0.00     0.008 A 
ATOM     10  C   UNL     1      10.452  36.150  24.725  1.00  0.00     0.132 A 
ATOM     11  C   UNL     1      11.210  37.340  24.702  1.00  0.00     0.031 A 
ENDROOT
BRANCH  11  12
ATOM     12  C   UNL     1      10.973  38.357  23.643  1.00  0.00     0.031 A 
ATOM     13  C   UNL     1      11.843  38.446  22.535  1.00  0.00     0.132 A 
ATOM     14  C   UNL     1       9.877  39.228  23.748  1.00  0.00    -0.039 A 
ATOM     15  C   UNL     1      11.602  39.403  21.505  1.00  0.00     0.039 A 
ATOM     16  C   UNL     1       9.704  40.234  22.794  1.00  0.00     0.013 A 
ATOM     17  C   UNL     1       8.888  39.100  24.881  1.00  0.00     0.045 C 
ATOM     18  C   UNL     1      10.596  40.392  21.712  1.00  0.00    -0.006 A 
ATOM     19  C   UNL     1      12.349  39.424  20.292  1.00  0.00     0.072 A 
ATOM     20  C   UNL     1      10.481  41.496  20.815  1.00  0.00     0.008 A 
ATOM     21  C   UNL     1      12.133  40.443  19.345  1.00  0.00     0.169 A 
ATOM     22  C   UNL     1      11.181  41.454  19.589  1.00  0.00     0.162 A 
BRANCH  13  23
ATOM     23  O   UNL     1      12.965  37.612  22.475  1.00  0.00    -0.507 OA
ATOM     24  H   UNL     1      13.384  37.291  21.612  1.00  0.00     0.293 HD
ENDBRANCH  13  23
BRANCH  19  25
ATOM     25  C   UNL     1      13.272  38.325  19.916  1.00  0.00     0.264 C 
ATOM     26  O   UNL     1      14.517  38.512  19.874  1.00  0.00    -0.298 OA
ENDBRANCH  19  25
BRANCH  20  27
ATOM     27  C   UNL     1       9.606  42.717  21.154  1.00  0.00     0.017 C 
ATOM     28  C   UNL     1       8.876  43.233  19.909  1.00  0.00     0.012 C 
ATOM     29  C   UNL     1      10.370  43.849  21.865  1.00  0.00     0.012 C 
ENDBRANCH  20  27
BRANCH  21  30
ATOM     30  O   UNL     1      12.881  40.421  18.162  1.00  0.00    -0.504 OA
ATOM     31  H   UNL     1      13.601  39.747  17.949  1.00  0.00     0.293 HD
ENDBRANCH  21  30
BRANCH  22  32
ATOM     32  O   UNL     1      10.881  42.405  18.610  1.00  0.00    -0.504 OA
ATOM     33  H   UNL     1      11.497  42.671  17.854  1.00  0.00     0.293 HD
ENDBRANCH  22  32
ENDBRANCH  11  12
BRANCH  10  34
ATOM     34  O   UNL     1       9.500  35.931  23.723  1.00  0.00    -0.507 OA
ATOM     35  H   UNL     1       8.839  35.166  23.726  1.00  0.00     0.293 HD
ENDBRANCH  10  34
BRANCH   9  36
ATOM     36  C   UNL     1      12.742  34.835  29.029  1.00  0.00     0.017 C 
ATOM     37  C   UNL     1      12.997  33.589  29.883  1.00  0.00     0.012 C 
ATOM     38  C   UNL     1      12.201  35.996  29.883  1.00  0.00     0.012 C 
ENDBRANCH   9  36
BRANCH   6  39
ATOM     39  C   UNL     1       8.877  33.626  24.824  1.00  0.00     0.264 C 
ATOM     40  O   UNL     1       9.008  32.686  23.996  1.00  0.00    -0.298 OA
ENDBRANCH   6  39
BRANCH   8  41
ATOM     41  O   UNL     1      11.614  32.216  28.617  1.00  0.00    -0.504 OA
ATOM     42  H   UNL     1      12.559  31.860  28.696  1.00  0.00     0.293 HD
ENDBRANCH   8  41
BRANCH   7  43
ATOM     43  O   UNL     1       9.641  31.719  26.789  1.00  0.00    -0.504 OA
ATOM     44  H   UNL     1       9.640  31.054  26.027  1.00  0.00     0.293 HD
ENDBRANCH   7  43
TORSDOF 11
ENDMDL
MODEL 7
REMARK VINA RESULT:     1.786      1.658      2.768
REMARK INTER + INTRA:           3.870
REMARK INTER:                   3.821
REMARK INTRA:                   0.049
REMARK UNBOUND:                 1.249
REMARK SMILES Cc1cc2c(C(C)C)c(O)c(O)c(C=O)c2c(O)c1-c1c(C)cc2c(C(C)C)c(O)c(O)c(C=O)c2c1O
REMARK SMILES IDX 1 1 2 2 3 3 4 4 16 5 13 6 11 7 9 8 5 9 17 10 19 11 20 12
REMARK SMILES IDX 37 13 21 14 36 15 23 16 22 17 24 18 33 19 25 20 31 21 29 22
REMARK SMILES IDX 38 23 34 25 35 26 26 27 27 28 28 29 32 30 30 32 18 34 6 36
REMARK SMILES IDX 7 37 8 38 14 39 15 40 10 41 12 43
REMARK H PARENT 38 24 32 31 30 33 18 35 10 42 12 44
REMARK Flexibility Score: inf
ROOT
ATOM      1  C   UNL     1      10.163  33.943  27.789  1.00  0.00     0.045 C 
ATOM      2  C   UNL     1      11.150  35.005  27.369  1.00  0.00    -0.039 A 
ATOM      3  C   UNL     1      10.715  36.065  26.573  1.00  0.00     0.013 A 
ATOM      4  C   UNL     1      11.589  37.093  26.156  1.00  0.00    -0.006 A 
ATOM      5  C   UNL     1      12.980  36.981  26.463  1.00  0.00     0.039 A 
ATOM      6  C   UNL     1      13.883  37.951  25.931  1.00  0.00     0.072 A 
ATOM      7  C   UNL     1      13.406  38.952  25.060  1.00  0.00     0.169 A 
ATOM      8  C   UNL     1      12.043  39.052  24.771  1.00  0.00     0.162 A 
ATOM      9  C   UNL     1      11.105  38.207  25.401  1.00  0.00     0.008 A 
ATOM     10  C   UNL     1      13.425  35.879  27.258  1.00  0.00     0.132 A 
ATOM     11  C   UNL     1      12.505  34.916  27.725  1.00  0.00     0.031 A 
ENDROOT
BRANCH  11  12
ATOM     12  C   UNL     1      12.971  33.779  28.563  1.00  0.00     0.031 A 
ATOM     13  C   UNL     1      13.776  32.766  28.002  1.00  0.00     0.132 A 
ATOM     14  C   UNL     1      12.608  33.720  29.919  1.00  0.00    -0.039 A 
ATOM     15  C   UNL     1      14.246  31.688  28.811  1.00  0.00     0.039 A 
ATOM     16  C   UNL     1      12.980  32.612  30.681  1.00  0.00     0.013 A 
ATOM     17  C   UNL     1      11.815  34.833  30.560  1.00  0.00     0.045 C 
ATOM     18  C   UNL     1      13.727  31.548  30.131  1.00  0.00    -0.006 A 
ATOM     19  C   UNL     1      15.192  30.734  28.338  1.00  0.00     0.072 A 
ATOM     20  C   UNL     1      13.995  30.366  30.885  1.00  0.00     0.008 A 
ATOM     21  C   UNL     1      15.557  29.639  29.144  1.00  0.00     0.169 A 
ATOM     22  C   UNL     1      14.989  29.474  30.423  1.00  0.00     0.162 A 
BRANCH  13  23
ATOM     23  O   UNL     1      14.078  32.806  26.636  1.00  0.00    -0.507 OA
ATOM     24  H   UNL     1      14.036  32.001  26.025  1.00  0.00     0.293 HD
ENDBRANCH  13  23
BRANCH  19  25
ATOM     25  C   UNL     1      15.920  30.915  27.059  1.00  0.00     0.264 C 
ATOM     26  O   UNL     1      17.164  31.117  27.045  1.00  0.00    -0.298 OA
ENDBRANCH  19  25
BRANCH  20  27
ATOM     27  C   UNL     1      13.234  30.054  32.187  1.00  0.00     0.017 C 
ATOM     28  C   UNL     1      14.204  29.815  33.348  1.00  0.00     0.012 C 
ATOM     29  C   UNL     1      12.224  28.900  32.052  1.00  0.00     0.012 C 
ENDBRANCH  20  27
BRANCH  21  30
ATOM     30  O   UNL     1      16.496  28.729  28.644  1.00  0.00    -0.504 OA
ATOM     31  H   UNL     1      17.429  28.606  29.010  1.00  0.00     0.293 HD
ENDBRANCH  21  30
BRANCH  22  32
ATOM     32  O   UNL     1      15.425  28.454  31.274  1.00  0.00    -0.504 OA
ATOM     33  H   UNL     1      14.861  28.018  31.990  1.00  0.00     0.293 HD
ENDBRANCH  22  32
ENDBRANCH  11  12
BRANCH  10  34
ATOM     34  O   UNL     1      14.781  35.729  27.572  1.00  0.00    -0.507 OA
ATOM     35  H   UNL     1      15.491  36.417  27.359  1.00  0.00     0.293 HD
ENDBRANCH  10  34
BRANCH   9  36
ATOM     36  C   UNL     1       9.600  38.491  25.249  1.00  0.00     0.017 C 
ATOM     37  C   UNL     1       8.875  38.331  26.589  1.00  0.00     0.012 C 
ATOM     38  C   UNL     1       8.919  37.663  24.143  1.00  0.00     0.012 C 
ENDBRANCH   9  36
BRANCH   6  39
ATOM     39  C   UNL     1      15.324  37.939  26.254  1.00  0.00     0.264 C 
ATOM     40  O   UNL     1      16.070  38.885  25.885  1.00  0.00    -0.298 OA
ENDBRANCH   6  39
BRANCH   8  41
ATOM     41  O   UNL     1      11.609  40.005  23.846  1.00  0.00    -0.504 OA
ATOM     42  H   UNL     1      11.739  39.905  22.847  1.00  0.00     0.293 HD
ENDBRANCH   8  41
BRANCH   7  43
ATOM     43  O   UNL     1      14.267  39.897  24.485  1.00  0.00    -0.504 OA
ATOM     44  H   UNL     1      14.430  40.820  24.861  1.00  0.00     0.293 HD
ENDBRANCH   7  43
TORSDOF 11
ENDMDL
MODEL 8
REMARK VINA RESULT:     2.202     10.235     13.678
REMARK INTER + INTRA:           4.481
REMARK INTER:                   3.518
REMARK INTRA:                   0.963
REMARK UNBOUND:                 1.249
REMARK SMILES Cc1cc2c(C(C)C)c(O)c(O)c(C=O)c2c(O)c1-c1c(C)cc2c(C(C)C)c(O)c(O)c(C=O)c2c1O
REMARK SMILES IDX 1 1 2 2 3 3 4 4 16 5 13 6 11 7 9 8 5 9 17 10 19 11 20 12
REMARK SMILES IDX 37 13 21 14 36 15 23 16 22 17 24 18 33 19 25 20 31 21 29 22
REMARK SMILES IDX 38 23 34 25 35 26 26 27 27 28 28 29 32 30 30 32 18 34 6 36
REMARK SMILES IDX 7 37 8 38 14 39 15 40 10 41 12 43
REMARK H PARENT 38 24 32 31 30 33 18 35 10 42 12 44
REMARK Flexibility Score: inf
ROOT
ATOM      1  C   UNL     1      15.021  44.180  24.367  1.00  0.00     0.045 C 
ATOM      2  C   UNL     1      16.160  44.286  23.381  1.00  0.00    -0.039 A 
ATOM      3  C   UNL     1      17.410  44.716  23.825  1.00  0.00     0.013 A 
ATOM      4  C   UNL     1      18.516  44.827  22.952  1.00  0.00    -0.006 A 
ATOM      5  C   UNL     1      18.315  44.600  21.555  1.00  0.00     0.039 A 
ATOM      6  C   UNL     1      19.399  44.838  20.657  1.00  0.00     0.072 A 
ATOM      7  C   UNL     1      20.615  45.357  21.144  1.00  0.00     0.169 A 
ATOM      8  C   UNL     1      20.799  45.571  22.513  1.00  0.00     0.162 A 
ATOM      9  C   UNL     1      19.805  45.201  23.443  1.00  0.00     0.008 A 
ATOM     10  C   UNL     1      17.024  44.182  21.102  1.00  0.00     0.132 A 
ATOM     11  C   UNL     1      15.967  44.005  22.020  1.00  0.00     0.031 A 
ENDROOT
BRANCH  11  12
ATOM     12  C   UNL     1      14.631  43.557  21.545  1.00  0.00     0.031 A 
ATOM     13  C   UNL     1      14.445  42.236  21.085  1.00  0.00     0.132 A 
ATOM     14  C   UNL     1      13.550  44.455  21.559  1.00  0.00    -0.039 A 
ATOM     15  C   UNL     1      13.157  41.797  20.654  1.00  0.00     0.039 A 
ATOM     16  C   UNL     1      12.319  44.056  21.038  1.00  0.00     0.013 A 
ATOM     17  C   UNL     1      13.705  45.847  22.120  1.00  0.00     0.045 C 
ATOM     18  C   UNL     1      12.120  42.763  20.507  1.00  0.00    -0.006 A 
ATOM     19  C   UNL     1      12.881  40.435  20.339  1.00  0.00     0.072 A 
ATOM     20  C   UNL     1      10.895  42.407  19.867  1.00  0.00     0.008 A 
ATOM     21  C   UNL     1      11.619  40.068  19.834  1.00  0.00     0.169 A 
ATOM     22  C   UNL     1      10.620  41.042  19.631  1.00  0.00     0.162 A 
BRANCH  13  23
ATOM     23  O   UNL     1      15.544  41.371  21.020  1.00  0.00    -0.507 OA
ATOM     24  H   UNL     1      16.490  41.642  21.253  1.00  0.00     0.293 HD
ENDBRANCH  13  23
BRANCH  19  25
ATOM     25  C   UNL     1      13.839  39.346  20.646  1.00  0.00     0.264 C 
ATOM     26  O   UNL     1      13.458  38.292  21.223  1.00  0.00    -0.298 OA
ENDBRANCH  19  25
BRANCH  20  27
ATOM     27  C   UNL     1       9.871  43.477  19.441  1.00  0.00     0.017 C 
ATOM     28  C   UNL     1       9.145  44.058  20.659  1.00  0.00     0.012 C 
ATOM     29  C   UNL     1       8.875  42.990  18.373  1.00  0.00     0.012 C 
ENDBRANCH  20  27
BRANCH  21  30
ATOM     30  O   UNL     1      11.386  38.718  19.546  1.00  0.00    -0.504 OA
ATOM     31  H   UNL     1      10.896  38.077  20.152  1.00  0.00     0.293 HD
ENDBRANCH  21  30
BRANCH  22  32
ATOM     32  O   UNL     1       9.332  40.673  19.235  1.00  0.00    -0.504 OA
ATOM     33  H   UNL     1       8.862  39.824  19.514  1.00  0.00     0.293 HD
ENDBRANCH  22  32
ENDBRANCH  11  12
BRANCH  10  34
ATOM     34  O   UNL     1      16.786  43.960  19.741  1.00  0.00    -0.507 OA
ATOM     35  H   UNL     1      16.508  44.682  19.089  1.00  0.00     0.293 HD
ENDBRANCH  10  34
BRANCH   9  36
ATOM     36  C   UNL     1      20.123  45.226  24.949  1.00  0.00     0.017 C 
ATOM     37  C   UNL     1      20.286  43.804  25.497  1.00  0.00     0.012 C 
ATOM     38  C   UNL     1      19.114  46.035  25.786  1.00  0.00     0.012 C 
ENDBRANCH   9  36
BRANCH   6  39
ATOM     39  C   UNL     1      19.289  44.567  19.209  1.00  0.00     0.264 C 
ATOM     40  O   UNL     1      20.301  44.221  18.545  1.00  0.00    -0.298 OA
ENDBRANCH   6  39
BRANCH   8  41
ATOM     41  O   UNL     1      21.986  46.157  22.960  1.00  0.00    -0.504 OA
ATOM     42  H   UNL     1      22.881  45.684  22.930  1.00  0.00     0.293 HD
ENDBRANCH   8  41
BRANCH   7  43
ATOM     43  O   UNL     1      21.688  45.643  20.289  1.00  0.00    -0.504 OA
ATOM     44  H   UNL     1      22.239  46.489  20.333  1.00  0.00     0.293 HD
ENDBRANCH   7  43
TORSDOF 11
ENDMDL
