MODEL 1
REMARK VINA RESULT:    -4.229      0.000      0.000
REMARK INTER + INTRA:          -4.229
REMARK INTER:                  -4.229
REMARK INTRA:                   0.000
REMARK UNBOUND:                 0.000
REMARK SMILES CC1=CC[C@H]2[C@@H](C1)C2(C)C
REMARK SMILES IDX 1 1 2 2 3 3 4 4 5 5 6 6 7 7 8 8 9 9 10 10
REMARK H PARENT
REMARK Flexibility Score: inf
ROOT
ATOM      1  C   UNL     1     163.750 162.396 199.289  1.00  0.00     0.039 C 
ATOM      2  C   UNL     1     165.068 162.417 200.014  1.00  0.00    -0.077 C 
ATOM      3  C   UNL     1     166.158 161.903 199.419  1.00  0.00    -0.028 C 
ATOM      4  C   UNL     1     167.497 161.893 200.102  1.00  0.00     0.031 C 
ATOM      5  C   UNL     1     167.734 163.178 200.923  1.00  0.00     0.003 C 
ATOM      6  C   UNL     1     166.487 163.774 201.616  1.00  0.00     0.003 C 
ATOM      7  C   UNL     1     165.163 163.007 201.402  1.00  0.00     0.034 C 
ATOM      8  C   UNL     1     167.618 163.158 202.456  1.00  0.00    -0.029 C 
ATOM      9  C   UNL     1     168.506 164.178 203.176  1.00  0.00     0.012 C 
ATOM     10  C   UNL     1     167.398 161.827 203.201  1.00  0.00     0.012 C 
ENDROOT
TORSDOF 0
ENDMDL
MODEL 2
REMARK VINA RESULT:    -4.226      5.958      7.290
REMARK INTER + INTRA:          -4.226
REMARK INTER:                  -4.226
REMARK INTRA:                   0.000
REMARK UNBOUND:                 0.000
REMARK SMILES CC1=CC[C@H]2[C@@H](C1)C2(C)C
REMARK SMILES IDX 1 1 2 2 3 3 4 4 5 5 6 6 7 7 8 8 9 9 10 10
REMARK H PARENT
REMARK Flexibility Score: inf
ROOT
ATOM      1  C   UNL     1     168.249 169.583 199.293  1.00  0.00     0.039 C 
ATOM      2  C   UNL     1     166.930 169.567 200.018  1.00  0.00    -0.077 C 
ATOM      3  C   UNL     1     165.840 170.073 199.418  1.00  0.00    -0.028 C 
ATOM      4  C   UNL     1     164.501 170.088 200.101  1.00  0.00     0.031 C 
ATOM      5  C   UNL     1     164.265 168.811 200.932  1.00  0.00     0.003 C 
ATOM      6  C   UNL     1     165.513 168.222 201.631  1.00  0.00     0.003 C 
ATOM      7  C   UNL     1     166.836 168.988 201.411  1.00  0.00     0.034 C 
ATOM      8  C   UNL     1     164.381 168.844 202.466  1.00  0.00    -0.029 C 
ATOM      9  C   UNL     1     163.493 167.830 203.194  1.00  0.00     0.012 C 
ATOM     10  C   UNL     1     164.599 170.182 203.199  1.00  0.00     0.012 C 
ENDROOT
TORSDOF 0
ENDMDL
MODEL 3
REMARK VINA RESULT:    -4.204      1.576      3.014
REMARK INTER + INTRA:          -4.204
REMARK INTER:                  -4.204
REMARK INTRA:                   0.000
REMARK UNBOUND:                 0.000
REMARK SMILES CC1=CC[C@H]2[C@@H](C1)C2(C)C
REMARK SMILES IDX 1 1 2 2 3 3 4 4 5 5 6 6 7 7 8 8 9 9 10 10
REMARK H PARENT
REMARK Flexibility Score: inf
ROOT
ATOM      1  C   UNL     1     169.016 162.762 198.521  1.00  0.00     0.039 C 
ATOM      2  C   UNL     1     168.505 162.943 199.925  1.00  0.00    -0.077 C 
ATOM      3  C   UNL     1     168.998 163.937 200.684  1.00  0.00    -0.028 C 
ATOM      4  C   UNL     1     168.527 164.158 202.094  1.00  0.00     0.031 C 
ATOM      5  C   UNL     1     167.013 163.900 202.242  1.00  0.00     0.003 C 
ATOM      6  C   UNL     1     166.437 162.755 201.377  1.00  0.00     0.003 C 
ATOM      7  C   UNL     1     167.449 162.013 200.476  1.00  0.00     0.034 C 
ATOM      8  C   UNL     1     166.502 162.611 202.906  1.00  0.00    -0.029 C 
ATOM      9  C   UNL     1     165.152 162.752 203.618  1.00  0.00     0.012 C 
ATOM     10  C   UNL     1     167.494 161.624 203.554  1.00  0.00     0.012 C 
ENDROOT
TORSDOF 0
ENDMDL
MODEL 4
REMARK VINA RESULT:    -4.200      5.993      6.861
REMARK INTER + INTRA:          -4.200
REMARK INTER:                  -4.200
REMARK INTRA:                   0.000
REMARK UNBOUND:                 0.000
REMARK SMILES CC1=CC[C@H]2[C@@H](C1)C2(C)C
REMARK SMILES IDX 1 1 2 2 3 3 4 4 5 5 6 6 7 7 8 8 9 9 10 10
REMARK H PARENT
REMARK Flexibility Score: inf
ROOT
ATOM      1  C   UNL     1     162.965 169.235 198.504  1.00  0.00     0.039 C 
ATOM      2  C   UNL     1     163.462 169.061 199.914  1.00  0.00    -0.077 C 
ATOM      3  C   UNL     1     162.939 168.092 200.683  1.00  0.00    -0.028 C 
ATOM      4  C   UNL     1     163.394 167.880 202.100  1.00  0.00     0.031 C 
ATOM      5  C   UNL     1     164.912 168.102 202.256  1.00  0.00     0.003 C 
ATOM      6  C   UNL     1     165.523 169.219 201.379  1.00  0.00     0.003 C 
ATOM      7  C   UNL     1     164.536 169.973 200.460  1.00  0.00     0.034 C 
ATOM      8  C   UNL     1     165.451 169.388 202.905  1.00  0.00    -0.029 C 
ATOM      9  C   UNL     1     166.791 169.224 203.629  1.00  0.00     0.012 C 
ATOM     10  C   UNL     1     164.479 170.408 203.531  1.00  0.00     0.012 C 
ENDROOT
TORSDOF 0
ENDMDL
MODEL 5
REMARK VINA RESULT:    -4.055      1.954      4.168
REMARK INTER + INTRA:          -4.055
REMARK INTER:                  -4.055
REMARK INTRA:                   0.000
REMARK UNBOUND:                 0.000
REMARK SMILES CC1=CC[C@H]2[C@@H](C1)C2(C)C
REMARK SMILES IDX 1 1 2 2 3 3 4 4 5 5 6 6 7 7 8 8 9 9 10 10
REMARK H PARENT
REMARK Flexibility Score: inf
ROOT
ATOM      1  C   UNL     1     169.773 163.314 199.736  1.00  0.00     0.039 C 
ATOM      2  C   UNL     1     168.276 163.460 199.669  1.00  0.00    -0.077 C 
ATOM      3  C   UNL     1     167.743 164.645 199.327  1.00  0.00    -0.028 C 
ATOM      4  C   UNL     1     166.255 164.846 199.252  1.00  0.00     0.031 C 
ATOM      5  C   UNL     1     165.535 163.607 198.680  1.00  0.00     0.003 C 
ATOM      6  C   UNL     1     166.139 162.238 199.071  1.00  0.00     0.003 C 
ATOM      7  C   UNL     1     167.383 162.283 199.986  1.00  0.00     0.034 C 
ATOM      8  C   UNL     1     164.760 162.657 199.608  1.00  0.00    -0.029 C 
ATOM      9  C   UNL     1     163.575 161.946 198.947  1.00  0.00     0.012 C 
ATOM     10  C   UNL     1     164.578 163.004 201.099  1.00  0.00     0.012 C 
ENDROOT
TORSDOF 0
ENDMDL
MODEL 6
REMARK VINA RESULT:    -4.046      4.922      6.749
REMARK INTER + INTRA:          -4.046
REMARK INTER:                  -4.046
REMARK INTRA:                   0.000
REMARK UNBOUND:                 0.000
REMARK SMILES CC1=CC[C@H]2[C@@H](C1)C2(C)C
REMARK SMILES IDX 1 1 2 2 3 3 4 4 5 5 6 6 7 7 8 8 9 9 10 10
REMARK H PARENT
REMARK Flexibility Score: inf
ROOT
ATOM      1  C   UNL     1     169.376 167.154 202.950  1.00  0.00     0.039 C 
ATOM      2  C   UNL     1     168.936 167.480 201.548  1.00  0.00    -0.077 C 
ATOM      3  C   UNL     1     168.129 168.533 201.338  1.00  0.00    -0.028 C 
ATOM      4  C   UNL     1     167.655 168.899 199.959  1.00  0.00     0.031 C 
ATOM      5  C   UNL     1     168.754 168.686 198.898  1.00  0.00     0.003 C 
ATOM      6  C   UNL     1     169.686 167.474 199.128  1.00  0.00     0.003 C 
ATOM      7  C   UNL     1     169.398 166.629 200.389  1.00  0.00     0.034 C 
ATOM      8  C   UNL     1     168.700 167.477 197.949  1.00  0.00    -0.029 C 
ATOM      9  C   UNL     1     169.345 167.712 196.579  1.00  0.00     0.012 C 
ATOM     10  C   UNL     1     167.477 166.539 197.955  1.00  0.00     0.012 C 
ENDROOT
TORSDOF 0
ENDMDL
MODEL 7
REMARK VINA RESULT:    -4.044      1.054      2.265
REMARK INTER + INTRA:          -4.044
REMARK INTER:                  -4.044
REMARK INTRA:                   0.000
REMARK UNBOUND:                 0.000
REMARK SMILES CC1=CC[C@H]2[C@@H](C1)C2(C)C
REMARK SMILES IDX 1 1 2 2 3 3 4 4 5 5 6 6 7 7 8 8 9 9 10 10
REMARK H PARENT
REMARK Flexibility Score: inf
ROOT
ATOM      1  C   UNL     1     164.538 161.470 197.879  1.00  0.00     0.039 C 
ATOM      2  C   UNL     1     165.039 162.174 199.110  1.00  0.00    -0.077 C 
ATOM      3  C   UNL     1     164.163 162.569 200.049  1.00  0.00    -0.028 C 
ATOM      4  C   UNL     1     164.610 163.282 201.294  1.00  0.00     0.031 C 
ATOM      5  C   UNL     1     165.944 162.723 201.829  1.00  0.00     0.003 C 
ATOM      6  C   UNL     1     166.962 162.270 200.757  1.00  0.00     0.003 C 
ATOM      7  C   UNL     1     166.517 162.437 199.288  1.00  0.00     0.034 C 
ATOM      8  C   UNL     1     167.255 163.503 201.629  1.00  0.00    -0.029 C 
ATOM      9  C   UNL     1     168.304 163.277 202.722  1.00  0.00     0.012 C 
ATOM     10  C   UNL     1     167.231 164.915 201.012  1.00  0.00     0.012 C 
ENDROOT
TORSDOF 0
ENDMDL
MODEL 8
REMARK VINA RESULT:    -4.029      5.856      6.506
REMARK INTER + INTRA:          -4.029
REMARK INTER:                  -4.029
REMARK INTRA:                   0.000
REMARK UNBOUND:                 0.000
REMARK SMILES CC1=CC[C@H]2[C@@H](C1)C2(C)C
REMARK SMILES IDX 1 1 2 2 3 3 4 4 5 5 6 6 7 7 8 8 9 9 10 10
REMARK H PARENT
REMARK Flexibility Score: inf
ROOT
ATOM      1  C   UNL     1     162.310 168.644 199.919  1.00  0.00     0.039 C 
ATOM      2  C   UNL     1     163.802 168.509 199.777  1.00  0.00    -0.077 C 
ATOM      3  C   UNL     1     164.326 167.332 199.395  1.00  0.00    -0.028 C 
ATOM      4  C   UNL     1     165.810 167.143 199.245  1.00  0.00     0.031 C 
ATOM      5  C   UNL     1     166.492 168.393 198.654  1.00  0.00     0.003 C 
ATOM      6  C   UNL     1     165.900 169.753 199.091  1.00  0.00     0.003 C 
ATOM      7  C   UNL     1     164.703 169.688 200.064  1.00  0.00     0.034 C 
ATOM      8  C   UNL     1     167.306 169.338 199.554  1.00  0.00    -0.029 C 
ATOM      9  C   UNL     1     168.453 170.065 198.844  1.00  0.00     0.012 C 
ATOM     10  C   UNL     1     167.563 168.974 201.030  1.00  0.00     0.012 C 
ENDROOT
TORSDOF 0
ENDMDL
MODEL 9
REMARK VINA RESULT:    -4.005      6.011      7.559
REMARK INTER + INTRA:          -4.005
REMARK INTER:                  -4.005
REMARK INTRA:                   0.000
REMARK UNBOUND:                 0.000
REMARK SMILES CC1=CC[C@H]2[C@@H](C1)C2(C)C
REMARK SMILES IDX 1 1 2 2 3 3 4 4 5 5 6 6 7 7 8 8 9 9 10 10
REMARK H PARENT
REMARK Flexibility Score: inf
ROOT
ATOM      1  C   UNL     1     167.402 168.866 203.359  1.00  0.00     0.039 C 
ATOM      2  C   UNL     1     166.891 169.003 201.950  1.00  0.00    -0.077 C 
ATOM      3  C   UNL     1     165.601 169.316 201.744  1.00  0.00    -0.028 C 
ATOM      4  C   UNL     1     165.037 169.458 200.357  1.00  0.00     0.031 C 
ATOM      5  C   UNL     1     166.042 170.123 199.394  1.00  0.00     0.003 C 
ATOM      6  C   UNL     1     167.529 169.765 199.620  1.00  0.00     0.003 C 
ATOM      7  C   UNL     1     167.821 168.787 200.779  1.00  0.00     0.034 C 
ATOM      8  C   UNL     1     166.802 169.281 198.355  1.00  0.00    -0.029 C 
ATOM      9  C   UNL     1     167.178 170.035 197.075  1.00  0.00     0.012 C 
ATOM     10  C   UNL     1     166.469 167.787 198.172  1.00  0.00     0.012 C 
ENDROOT
TORSDOF 0
ENDMDL
