MODEL 1
REMARK VINA RESULT:    -4.536      0.000      0.000
REMARK INTER + INTRA:          -5.821
REMARK INTER:                  -5.331
REMARK INTRA:                  -0.489
REMARK UNBOUND:                -0.489
REMARK SMILES C=CC(C)=CCC=C(C)C
REMARK SMILES IDX 5 1 3 2 4 3 6 4 7 5 9 6 8 7 10 8 2 9 1 10
REMARK H PARENT
REMARK Flexibility Score: inf
ROOT
ATOM      1  C   UNL     1     109.257 110.244 112.716  1.00  0.00    -0.020 C 
ATOM      2  C   UNL     1     109.272 111.370 113.457  1.00  0.00    -0.055 C 
ATOM      3  C   UNL     1     109.205 112.741 112.822  1.00  0.00     0.044 C 
ENDROOT
BRANCH   1   4
ATOM      4  C   UNL     1     109.158 110.233 111.211  1.00  0.00     0.055 C 
BRANCH   4   5
ATOM      5  C   UNL     1     110.417 109.688 110.584  1.00  0.00    -0.024 C 
ATOM      6  C   UNL     1     111.117 111.924 109.705  1.00  0.00     0.039 C 
ATOM      7  C   UNL     1     111.302 110.438 109.890  1.00  0.00    -0.080 C 
ATOM      8  C   UNL     1     112.528 109.795 109.295  1.00  0.00     0.039 C 
ENDBRANCH   4   5
ENDBRANCH   1   4
BRANCH   2   9
ATOM      9  C   UNL     1     109.433 111.231 114.928  1.00  0.00    -0.005 C 
ATOM     10  C   UNL     1     109.069 110.145 115.611  1.00  0.00     0.009 C 
ENDBRANCH   2   9
TORSDOF 3
ENDMDL
MODEL 2
REMARK VINA RESULT:    -4.521      2.785      3.659
REMARK INTER + INTRA:          -5.803
REMARK INTER:                  -5.322
REMARK INTRA:                  -0.482
REMARK UNBOUND:                -0.489
REMARK SMILES C=CC(C)=CCC=C(C)C
REMARK SMILES IDX 5 1 3 2 4 3 6 4 7 5 9 6 8 7 10 8 2 9 1 10
REMARK H PARENT
REMARK Flexibility Score: inf
ROOT
ATOM      1  C   UNL     1     112.956 112.092 112.679  1.00  0.00    -0.020 C 
ATOM      2  C   UNL     1     112.911 110.982 113.443  1.00  0.00    -0.055 C 
ATOM      3  C   UNL     1     112.935 109.597 112.836  1.00  0.00     0.044 C 
ENDROOT
BRANCH   1   4
ATOM      4  C   UNL     1     113.048 112.069 111.174  1.00  0.00     0.055 C 
BRANCH   4   5
ATOM      5  C   UNL     1     111.754 112.514 110.540  1.00  0.00    -0.024 C 
ATOM      6  C   UNL     1     111.362 110.296 109.448  1.00  0.00     0.039 C 
ATOM      7  C   UNL     1     110.990 111.728 109.748  1.00  0.00    -0.080 C 
ATOM      8  C   UNL     1     109.716 112.270 109.155  1.00  0.00     0.039 C 
ENDBRANCH   4   5
ENDBRANCH   1   4
BRANCH   2   9
ATOM      9  C   UNL     1     112.761 111.155 114.912  1.00  0.00    -0.005 C 
ATOM     10  C   UNL     1     113.234 112.206 115.582  1.00  0.00     0.009 C 
ENDBRANCH   2   9
TORSDOF 3
ENDMDL
MODEL 3
REMARK VINA RESULT:    -4.511      0.564      4.820
REMARK INTER + INTRA:          -5.791
REMARK INTER:                  -5.329
REMARK INTRA:                  -0.462
REMARK UNBOUND:                -0.489
REMARK SMILES C=CC(C)=CCC=C(C)C
REMARK SMILES IDX 5 1 3 2 4 3 6 4 7 5 9 6 8 7 10 8 2 9 1 10
REMARK H PARENT
REMARK Flexibility Score: inf
ROOT
ATOM      1  C   UNL     1     110.422 109.636 110.649  1.00  0.00    -0.020 C 
ATOM      2  C   UNL     1     111.354 110.353 109.990  1.00  0.00    -0.055 C 
ATOM      3  C   UNL     1     111.218 111.847 109.797  1.00  0.00     0.044 C 
ENDROOT
BRANCH   1   4
ATOM      4  C   UNL     1     109.182 110.237 111.261  1.00  0.00     0.055 C 
BRANCH   4   5
ATOM      5  C   UNL     1     109.327 110.383 112.756  1.00  0.00    -0.024 C 
ATOM      6  C   UNL     1     109.144 112.878 112.671  1.00  0.00     0.039 C 
ATOM      7  C   UNL     1     109.325 111.571 113.403  1.00  0.00    -0.080 C 
ATOM      8  C   UNL     1     109.485 111.611 114.901  1.00  0.00     0.039 C 
ENDBRANCH   4   5
ENDBRANCH   1   4
BRANCH   2   9
ATOM      9  C   UNL     1     112.497 109.619 109.386  1.00  0.00    -0.005 C 
ATOM     10  C   UNL     1     112.989 109.888 108.176  1.00  0.00     0.009 C 
ENDBRANCH   2   9
TORSDOF 3
ENDMDL
MODEL 4
REMARK VINA RESULT:    -4.496      2.789      4.965
REMARK INTER + INTRA:          -5.774
REMARK INTER:                  -5.304
REMARK INTRA:                  -0.470
REMARK UNBOUND:                -0.489
REMARK SMILES C=CC(C)=CCC=C(C)C
REMARK SMILES IDX 5 1 3 2 4 3 6 4 7 5 9 6 8 7 10 8 2 9 1 10
REMARK H PARENT
REMARK Flexibility Score: inf
ROOT
ATOM      1  C   UNL     1     111.572 112.508 110.555  1.00  0.00    -0.020 C 
ATOM      2  C   UNL     1     110.807 111.707 109.787  1.00  0.00    -0.055 C 
ATOM      3  C   UNL     1     111.266 110.327 109.372  1.00  0.00     0.044 C 
ENDROOT
BRANCH   1   4
ATOM      4  C   UNL     1     112.929 112.115 111.082  1.00  0.00     0.055 C 
BRANCH   4   5
ATOM      5  C   UNL     1     112.926 112.028 112.588  1.00  0.00    -0.024 C 
ATOM      6  C   UNL     1     112.969 109.526 112.586  1.00  0.00     0.039 C 
ATOM      7  C   UNL     1     112.931 110.866 113.279  1.00  0.00    -0.080 C 
ATOM      8  C   UNL     1     112.919 110.887 114.786  1.00  0.00     0.039 C 
ENDBRANCH   4   5
ENDBRANCH   1   4
BRANCH   2   9
ATOM      9  C   UNL     1     109.515 112.249 109.289  1.00  0.00    -0.005 C 
ATOM     10  C   UNL     1     109.314 112.635 108.029  1.00  0.00     0.009 C 
ENDBRANCH   2   9
TORSDOF 3
ENDMDL
MODEL 5
REMARK VINA RESULT:    -4.488      3.549      4.879
REMARK INTER + INTRA:          -5.765
REMARK INTER:                  -5.279
REMARK INTRA:                  -0.485
REMARK UNBOUND:                -0.489
REMARK SMILES C=CC(C)=CCC=C(C)C
REMARK SMILES IDX 5 1 3 2 4 3 6 4 7 5 9 6 8 7 10 8 2 9 1 10
REMARK H PARENT
REMARK Flexibility Score: inf
ROOT
ATOM      1  C   UNL     1     109.331 110.233 107.838  1.00  0.00    -0.020 C 
ATOM      2  C   UNL     1     109.308 111.358 108.581  1.00  0.00    -0.055 C 
ATOM      3  C   UNL     1     109.144 112.723 107.952  1.00  0.00     0.044 C 
ENDROOT
BRANCH   1   4
ATOM      4  C   UNL     1     109.183 110.217 106.338  1.00  0.00     0.055 C 
BRANCH   4   5
ATOM      5  C   UNL     1     110.423 109.675 105.672  1.00  0.00    -0.024 C 
ATOM      6  C   UNL     1     111.161 111.933 104.885  1.00  0.00     0.039 C 
ATOM      7  C   UNL     1     111.316 110.437 105.001  1.00  0.00    -0.080 C 
ATOM      8  C   UNL     1     112.521 109.796 104.363  1.00  0.00     0.039 C 
ENDBRANCH   4   5
ENDBRANCH   1   4
BRANCH   2   9
ATOM      9  C   UNL     1     109.526 111.228 110.046  1.00  0.00    -0.005 C 
ATOM     10  C   UNL     1     109.115 110.180 110.762  1.00  0.00     0.009 C 
ENDBRANCH   2   9
TORSDOF 3
ENDMDL
MODEL 6
REMARK VINA RESULT:    -4.471      4.172      6.086
REMARK INTER + INTRA:          -5.744
REMARK INTER:                  -5.264
REMARK INTRA:                  -0.480
REMARK UNBOUND:                -0.489
REMARK SMILES C=CC(C)=CCC=C(C)C
REMARK SMILES IDX 5 1 3 2 4 3 6 4 7 5 9 6 8 7 10 8 2 9 1 10
REMARK H PARENT
REMARK Flexibility Score: inf
ROOT
ATOM      1  C   UNL     1     112.926 112.119 107.884  1.00  0.00    -0.020 C 
ATOM      2  C   UNL     1     112.969 111.005 108.641  1.00  0.00    -0.055 C 
ATOM      3  C   UNL     1     113.072 109.627 108.025  1.00  0.00     0.044 C 
ENDROOT
BRANCH   1   4
ATOM      4  C   UNL     1     112.990 112.111 106.378  1.00  0.00     0.055 C 
BRANCH   4   5
ATOM      5  C   UNL     1     111.682 112.557 105.773  1.00  0.00    -0.024 C 
ATOM      6  C   UNL     1     111.234 110.322 104.740  1.00  0.00     0.039 C 
ATOM      7  C   UNL     1     110.887 111.763 105.020  1.00  0.00    -0.080 C 
ATOM      8  C   UNL     1     109.601 112.308 104.454  1.00  0.00     0.039 C 
ENDBRANCH   4   5
ENDBRANCH   1   4
BRANCH   2   9
ATOM      9  C   UNL     1     112.838 111.159 110.114  1.00  0.00    -0.005 C 
ATOM     10  C   UNL     1     113.199 112.260 110.775  1.00  0.00     0.009 C 
ENDBRANCH   2   9
TORSDOF 3
ENDMDL
MODEL 7
REMARK VINA RESULT:    -4.455      1.540      2.947
REMARK INTER + INTRA:          -5.725
REMARK INTER:                  -5.372
REMARK INTRA:                  -0.353
REMARK UNBOUND:                -0.489
REMARK SMILES C=CC(C)=CCC=C(C)C
REMARK SMILES IDX 5 1 3 2 4 3 6 4 7 5 9 6 8 7 10 8 2 9 1 10
REMARK H PARENT
REMARK Flexibility Score: inf
ROOT
ATOM      1  C   UNL     1     111.372 110.605 111.724  1.00  0.00    -0.020 C 
ATOM      2  C   UNL     1     110.051 110.338 111.684  1.00  0.00    -0.055 C 
ATOM      3  C   UNL     1     109.431 109.563 110.543  1.00  0.00     0.044 C 
ENDROOT
BRANCH   1   4
ATOM      4  C   UNL     1     112.350 110.156 110.668  1.00  0.00     0.055 C 
BRANCH   4   5
ATOM      5  C   UNL     1     112.517 111.205 109.596  1.00  0.00    -0.024 C 
ATOM      6  C   UNL     1     112.994 109.513 107.815  1.00  0.00     0.039 C 
ATOM      7  C   UNL     1     112.821 110.929 108.308  1.00  0.00    -0.080 C 
ATOM      8  C   UNL     1     112.974 112.051 107.315  1.00  0.00     0.039 C 
ENDBRANCH   4   5
ENDBRANCH   1   4
BRANCH   2   9
ATOM      9  C   UNL     1     109.197 110.894 112.766  1.00  0.00    -0.005 C 
ATOM     10  C   UNL     1     109.093 112.198 113.026  1.00  0.00     0.009 C 
ENDBRANCH   2   9
TORSDOF 3
ENDMDL
MODEL 8
REMARK VINA RESULT:    -4.442      2.347      3.555
REMARK INTER + INTRA:          -5.711
REMARK INTER:                  -5.260
REMARK INTRA:                  -0.451
REMARK UNBOUND:                -0.489
REMARK SMILES C=CC(C)=CCC=C(C)C
REMARK SMILES IDX 5 1 3 2 4 3 6 4 7 5 9 6 8 7 10 8 2 9 1 10
REMARK H PARENT
REMARK Flexibility Score: inf
ROOT
ATOM      1  C   UNL     1     110.496 110.255 111.717  1.00  0.00    -0.020 C 
ATOM      2  C   UNL     1     111.792 109.969 111.476  1.00  0.00    -0.055 C 
ATOM      3  C   UNL     1     112.261 109.484 110.123  1.00  0.00     0.044 C 
ENDROOT
BRANCH   1   4
ATOM      4  C   UNL     1     109.407 110.137 110.682  1.00  0.00     0.055 C 
BRANCH   4   5
ATOM      5  C   UNL     1     109.252 111.419 109.903  1.00  0.00    -0.024 C 
ATOM      6  C   UNL     1     109.500 110.271 107.693  1.00  0.00     0.039 C 
ATOM      7  C   UNL     1     109.306 111.495 108.553  1.00  0.00    -0.080 C 
ATOM      8  C   UNL     1     109.147 112.828 107.869  1.00  0.00     0.039 C 
ENDBRANCH   4   5
ENDBRANCH   1   4
BRANCH   2   9
ATOM      9  C   UNL     1     112.749 110.075 112.609  1.00  0.00    -0.005 C 
ATOM     10  C   UNL     1     113.034 111.221 113.229  1.00  0.00     0.009 C 
ENDBRANCH   2   9
TORSDOF 3
ENDMDL
MODEL 9
REMARK VINA RESULT:    -4.366      3.136      5.195
REMARK INTER + INTRA:          -5.621
REMARK INTER:                  -5.206
REMARK INTRA:                  -0.415
REMARK UNBOUND:                -0.489
REMARK SMILES C=CC(C)=CCC=C(C)C
REMARK SMILES IDX 5 1 3 2 4 3 6 4 7 5 9 6 8 7 10 8 2 9 1 10
REMARK H PARENT
REMARK Flexibility Score: inf
ROOT
ATOM      1  C   UNL     1     111.210 110.430 108.818  1.00  0.00    -0.020 C 
ATOM      2  C   UNL     1     111.143 111.332 107.819  1.00  0.00    -0.055 C 
ATOM      3  C   UNL     1     112.387 111.957 107.227  1.00  0.00     0.044 C 
ENDROOT
BRANCH   1   4
ATOM      4  C   UNL     1     112.502 109.948 109.427  1.00  0.00     0.055 C 
BRANCH   4   5
ATOM      5  C   UNL     1     112.509 110.146 110.923  1.00  0.00    -0.024 C 
ATOM      6  C   UNL     1     113.288 112.518 110.748  1.00  0.00     0.039 C 
ATOM      7  C   UNL     1     112.875 111.297 111.532  1.00  0.00    -0.080 C 
ATOM      8  C   UNL     1     112.855 111.391 113.035  1.00  0.00     0.039 C 
ENDBRANCH   4   5
ENDBRANCH   1   4
BRANCH   2   9
ATOM      9  C   UNL     1     109.796 111.758 107.356  1.00  0.00    -0.005 C 
ATOM     10  C   UNL     1     109.164 112.837 107.821  1.00  0.00     0.009 C 
ENDBRANCH   2   9
TORSDOF 3
ENDMDL
