MODEL 1
REMARK VINA RESULT:    -3.255      0.000      0.000
REMARK INTER + INTRA:          -4.535
REMARK INTER:                  -4.397
REMARK INTRA:                  -0.138
REMARK UNBOUND:                -0.138
REMARK SMILES [NH3+]CCCC[C@H]([NH3+])C(=O)[O-]
REMARK SMILES IDX 4 1 3 2 2 3 1 4 5 8 6 9 7 10 8 14 9 15 10 16
REMARK H PARENT 1 5 1 6 1 7 7 11 7 12 7 13
REMARK Flexibility Score: inf
ROOT
ATOM      1  C   UNL     1       0.625  12.994  -8.881  1.00  0.00     0.012 C 
ENDROOT
BRANCH   1   2
ATOM      2  C   UNL     1      -0.563  12.227  -8.275  1.00  0.00     0.061 C 
BRANCH   2   3
ATOM      3  C   UNL     1      -1.910  12.659  -8.878  1.00  0.00     0.258 C 
BRANCH   3   4
ATOM      4  N   UNL     1      -1.844  12.795 -10.334  1.00  0.00    -0.358 N 
ATOM      5  H   UNL     1      -2.587  12.219 -10.787  1.00  0.00     0.344 HD
ATOM      6  H   UNL     1      -0.913  12.451 -10.665  1.00  0.00     0.344 HD
ATOM      7  H   UNL     1      -1.949  13.798 -10.612  1.00  0.00     0.344 HD
ENDBRANCH   3   4
ENDBRANCH   2   3
ENDBRANCH   1   2
BRANCH   1   8
ATOM      8  C   UNL     1       1.388  13.832  -7.837  1.00  0.00     0.072 C 
BRANCH   8   9
ATOM      9  C   UNL     1       2.543  14.679  -8.423  1.00  0.00     0.227 C 
BRANCH   9  10
ATOM     10  N   UNL     1       2.029  15.610  -9.435  1.00  0.00    -0.350 N 
ATOM     11  H   UNL     1       1.623  15.088 -10.246  1.00  0.00     0.345 HD
ATOM     12  H   UNL     1       2.803  16.227  -9.775  1.00  0.00     0.345 HD
ATOM     13  H   UNL     1       1.288  16.217  -9.014  1.00  0.00     0.345 HD
ENDBRANCH   9  10
BRANCH   9  14
ATOM     14  C   UNL     1       3.616  13.806  -9.017  1.00  0.00     0.099 C 
ATOM     15  O   UNL     1       3.938  13.925 -10.230  1.00  0.00    -0.544 OA
ATOM     16  O   UNL     1       4.250  12.853  -8.231  1.00  0.00    -0.544 OA
ENDBRANCH   9  14
ENDBRANCH   8   9
ENDBRANCH   1   8
TORSDOF 7
ENDMDL
MODEL 2
REMARK VINA RESULT:    -3.171      1.558      1.743
REMARK INTER + INTRA:          -4.422
REMARK INTER:                  -3.964
REMARK INTRA:                  -0.458
REMARK UNBOUND:                -0.138
REMARK SMILES [NH3+]CCCC[C@H]([NH3+])C(=O)[O-]
REMARK SMILES IDX 4 1 3 2 2 3 1 4 5 8 6 9 7 10 8 14 9 15 10 16
REMARK H PARENT 1 5 1 6 1 7 7 11 7 12 7 13
REMARK Flexibility Score: inf
ROOT
ATOM      1  C   UNL     1       0.517  15.511  -8.089  1.00  0.00     0.012 C 
ENDROOT
BRANCH   1   2
ATOM      2  C   UNL     1      -0.432  14.325  -7.847  1.00  0.00     0.061 C 
BRANCH   2   3
ATOM      3  C   UNL     1      -0.972  13.728  -9.158  1.00  0.00     0.258 C 
BRANCH   3   4
ATOM      4  N   UNL     1      -0.682  12.298  -9.272  1.00  0.00    -0.358 N 
ATOM      5  H   UNL     1      -1.448  11.736  -8.838  1.00  0.00     0.344 HD
ATOM      6  H   UNL     1       0.208  12.090  -8.763  1.00  0.00     0.344 HD
ATOM      7  H   UNL     1      -0.564  12.028 -10.276  1.00  0.00     0.344 HD
ENDBRANCH   3   4
ENDBRANCH   2   3
ENDBRANCH   1   2
BRANCH   1   8
ATOM      8  C   UNL     1       1.401  15.323  -9.337  1.00  0.00     0.072 C 
BRANCH   8   9
ATOM      9  C   UNL     1       2.885  15.020  -9.025  1.00  0.00     0.227 C 
BRANCH   9  10
ATOM     10  N   UNL     1       3.746  15.522 -10.103  1.00  0.00    -0.350 N 
ATOM     11  H   UNL     1       4.315  16.336  -9.774  1.00  0.00     0.345 HD
ATOM     12  H   UNL     1       3.159  15.818 -10.917  1.00  0.00     0.345 HD
ATOM     13  H   UNL     1       4.390  14.762 -10.424  1.00  0.00     0.345 HD
ENDBRANCH   9  10
BRANCH   9  14
ATOM     14  C   UNL     1       3.113  13.545  -8.824  1.00  0.00     0.099 C 
ATOM     15  O   UNL     1       2.295  12.704  -9.284  1.00  0.00    -0.544 OA
ATOM     16  O   UNL     1       4.222  13.104  -8.114  1.00  0.00    -0.544 OA
ENDBRANCH   9  14
ENDBRANCH   8   9
ENDBRANCH   1   8
TORSDOF 7
ENDMDL
MODEL 3
REMARK VINA RESULT:    -3.166      2.980      4.607
REMARK INTER + INTRA:          -4.415
REMARK INTER:                  -4.233
REMARK INTRA:                  -0.182
REMARK UNBOUND:                -0.138
REMARK SMILES [NH3+]CCCC[C@H]([NH3+])C(=O)[O-]
REMARK SMILES IDX 4 1 3 2 2 3 1 4 5 8 6 9 7 10 8 14 9 15 10 16
REMARK H PARENT 1 5 1 6 1 7 7 11 7 12 7 13
REMARK Flexibility Score: inf
ROOT
ATOM      1  C   UNL     1       2.810  13.426  -8.744  1.00  0.00     0.012 C 
ENDROOT
BRANCH   1   2
ATOM      2  C   UNL     1       3.667  14.358  -9.617  1.00  0.00     0.061 C 
BRANCH   2   3
ATOM      3  C   UNL     1       2.966  15.694  -9.914  1.00  0.00     0.258 C 
BRANCH   3   4
ATOM      4  N   UNL     1       3.360  16.744  -8.973  1.00  0.00    -0.358 N 
ATOM      5  H   UNL     1       3.091  16.480  -7.999  1.00  0.00     0.344 HD
ATOM      6  H   UNL     1       2.861  17.629  -9.223  1.00  0.00     0.344 HD
ATOM      7  H   UNL     1       4.391  16.914  -9.027  1.00  0.00     0.344 HD
ENDBRANCH   3   4
ENDBRANCH   2   3
ENDBRANCH   1   2
BRANCH   1   8
ATOM      8  C   UNL     1       1.302  13.714  -8.866  1.00  0.00     0.072 C 
BRANCH   8   9
ATOM      9  C   UNL     1       0.519  13.577  -7.539  1.00  0.00     0.227 C 
BRANCH   9  10
ATOM     10  N   UNL     1       1.438  13.636  -6.396  1.00  0.00    -0.350 N 
ATOM     11  H   UNL     1       2.242  14.274  -6.600  1.00  0.00     0.345 HD
ATOM     12  H   UNL     1       1.803  12.678  -6.184  1.00  0.00     0.345 HD
ATOM     13  H   UNL     1       0.930  13.986  -5.551  1.00  0.00     0.345 HD
ENDBRANCH   9  10
BRANCH   9  14
ATOM     14  C   UNL     1      -0.275  12.298  -7.501  1.00  0.00     0.099 C 
ATOM     15  O   UNL     1      -0.953  11.996  -6.482  1.00  0.00    -0.544 OA
ATOM     16  O   UNL     1      -0.252  11.434  -8.588  1.00  0.00    -0.544 OA
ENDBRANCH   9  14
ENDBRANCH   8   9
ENDBRANCH   1   8
TORSDOF 7
ENDMDL
MODEL 4
REMARK VINA RESULT:    -3.103      1.615      1.799
REMARK INTER + INTRA:          -4.330
REMARK INTER:                  -4.216
REMARK INTRA:                  -0.114
REMARK UNBOUND:                -0.138
REMARK SMILES [NH3+]CCCC[C@H]([NH3+])C(=O)[O-]
REMARK SMILES IDX 4 1 3 2 2 3 1 4 5 8 6 9 7 10 8 14 9 15 10 16
REMARK H PARENT 1 5 1 6 1 7 7 11 7 12 7 13
REMARK Flexibility Score: inf
ROOT
ATOM      1  C   UNL     1       0.621  13.094  -7.917  1.00  0.00     0.012 C 
ENDROOT
BRANCH   1   2
ATOM      2  C   UNL     1      -0.482  12.185  -8.487  1.00  0.00     0.061 C 
BRANCH   2   3
ATOM      3  C   UNL     1      -1.684  12.983  -9.017  1.00  0.00     0.258 C 
BRANCH   3   4
ATOM      4  N   UNL     1      -1.916  12.748 -10.444  1.00  0.00    -0.358 N 
ATOM      5  H   UNL     1      -2.911  12.949 -10.688  1.00  0.00     0.344 HD
ATOM      6  H   UNL     1      -1.722  11.742 -10.657  1.00  0.00     0.344 HD
ATOM      7  H   UNL     1      -1.277  13.342 -11.021  1.00  0.00     0.344 HD
ENDBRANCH   3   4
ENDBRANCH   2   3
ENDBRANCH   1   2
BRANCH   1   8
ATOM      8  C   UNL     1       1.295  13.962  -8.996  1.00  0.00     0.072 C 
BRANCH   8   9
ATOM      9  C   UNL     1       2.830  13.790  -9.083  1.00  0.00     0.227 C 
BRANCH   9  10
ATOM     10  N   UNL     1       3.394  13.564  -7.747  1.00  0.00    -0.350 N 
ATOM     11  H   UNL     1       3.759  14.458  -7.342  1.00  0.00     0.345 HD
ATOM     12  H   UNL     1       4.174  12.868  -7.803  1.00  0.00     0.345 HD
ATOM     13  H   UNL     1       2.658  13.177  -7.112  1.00  0.00     0.345 HD
ENDBRANCH   9  10
BRANCH   9  14
ATOM     14  C   UNL     1       3.480  14.988  -9.724  1.00  0.00     0.099 C 
ATOM     15  O   UNL     1       3.451  16.112  -9.155  1.00  0.00    -0.544 OA
ATOM     16  O   UNL     1       4.105  14.862 -10.957  1.00  0.00    -0.544 OA
ENDBRANCH   9  14
ENDBRANCH   8   9
ENDBRANCH   1   8
TORSDOF 7
ENDMDL
MODEL 5
REMARK VINA RESULT:    -3.090      9.418     10.302
REMARK INTER + INTRA:          -4.312
REMARK INTER:                  -4.229
REMARK INTRA:                  -0.083
REMARK UNBOUND:                -0.138
REMARK SMILES [NH3+]CCCC[C@H]([NH3+])C(=O)[O-]
REMARK SMILES IDX 4 1 3 2 2 3 1 4 5 8 6 9 7 10 8 14 9 15 10 16
REMARK H PARENT 1 5 1 6 1 7 7 11 7 12 7 13
REMARK Flexibility Score: inf
ROOT
ATOM      1  C   UNL     1       9.072   6.548  -8.593  1.00  0.00     0.012 C 
ENDROOT
BRANCH   1   2
ATOM      2  C   UNL     1       8.396   7.236  -7.394  1.00  0.00     0.061 C 
BRANCH   2   3
ATOM      3  C   UNL     1       7.232   6.410  -6.823  1.00  0.00     0.258 C 
BRANCH   3   4
ATOM      4  N   UNL     1       5.974   6.672  -7.526  1.00  0.00    -0.358 N 
ATOM      5  H   UNL     1       5.189   6.154  -7.071  1.00  0.00     0.344 HD
ATOM      6  H   UNL     1       6.061   6.336  -8.513  1.00  0.00     0.344 HD
ATOM      7  H   UNL     1       5.768   7.697  -7.537  1.00  0.00     0.344 HD
ENDBRANCH   3   4
ENDBRANCH   2   3
ENDBRANCH   1   2
BRANCH   1   8
ATOM      8  C   UNL     1       8.562   7.074  -9.948  1.00  0.00     0.072 C 
BRANCH   8   9
ATOM      9  C   UNL     1       9.403   6.621 -11.164  1.00  0.00     0.227 C 
BRANCH   9  10
ATOM     10  N   UNL     1      10.662   7.375 -11.222  1.00  0.00    -0.350 N 
ATOM     11  H   UNL     1      10.514   8.365 -10.917  1.00  0.00     0.345 HD
ATOM     12  H   UNL     1      11.035   7.368 -12.200  1.00  0.00     0.345 HD
ATOM     13  H   UNL     1      11.372   6.927 -10.598  1.00  0.00     0.345 HD
ENDBRANCH   9  10
BRANCH   9  14
ATOM     14  C   UNL     1       8.639   6.786 -12.451  1.00  0.00     0.099 C 
ATOM     15  O   UNL     1       7.850   7.756 -12.606  1.00  0.00    -0.544 OA
ATOM     16  O   UNL     1       8.791   5.858 -13.473  1.00  0.00    -0.544 OA
ENDBRANCH   9  14
ENDBRANCH   8   9
ENDBRANCH   1   8
TORSDOF 7
ENDMDL
MODEL 6
REMARK VINA RESULT:    -3.078      2.717      4.329
REMARK INTER + INTRA:          -4.296
REMARK INTER:                  -3.795
REMARK INTRA:                  -0.501
REMARK UNBOUND:                -0.138
REMARK SMILES [NH3+]CCCC[C@H]([NH3+])C(=O)[O-]
REMARK SMILES IDX 4 1 3 2 2 3 1 4 5 8 6 9 7 10 8 14 9 15 10 16
REMARK H PARENT 1 5 1 6 1 7 7 11 7 12 7 13
REMARK Flexibility Score: inf
ROOT
ATOM      1  C   UNL     1       2.810  14.136  -9.155  1.00  0.00     0.012 C 
ENDROOT
BRANCH   1   2
ATOM      2  C   UNL     1       3.625  13.550  -7.990  1.00  0.00     0.061 C 
BRANCH   2   3
ATOM      3  C   UNL     1       3.443  14.346  -6.687  1.00  0.00     0.258 C 
BRANCH   3   4
ATOM      4  N   UNL     1       2.898  13.519  -5.608  1.00  0.00    -0.358 N 
ATOM      5  H   UNL     1       3.121  13.941  -4.679  1.00  0.00     0.344 HD
ATOM      6  H   UNL     1       3.336  12.571  -5.652  1.00  0.00     0.344 HD
ATOM      7  H   UNL     1       1.863  13.416  -5.715  1.00  0.00     0.344 HD
ENDBRANCH   3   4
ENDBRANCH   2   3
ENDBRANCH   1   2
BRANCH   1   8
ATOM      8  C   UNL     1       1.399  14.584  -8.730  1.00  0.00     0.072 C 
BRANCH   8   9
ATOM      9  C   UNL     1       0.269  13.621  -9.163  1.00  0.00     0.227 C 
BRANCH   9  10
ATOM     10  N   UNL     1      -0.970  14.368  -9.413  1.00  0.00    -0.350 N 
ATOM     11  H   UNL     1      -1.564  14.399  -8.551  1.00  0.00     0.345 HD
ATOM     12  H   UNL     1      -1.509  13.914 -10.186  1.00  0.00     0.345 HD
ATOM     13  H   UNL     1      -0.741  15.346  -9.705  1.00  0.00     0.345 HD
ENDBRANCH   9  10
BRANCH   9  14
ATOM     14  C   UNL     1       0.031  12.553  -8.128  1.00  0.00     0.099 C 
ATOM     15  O   UNL     1      -0.325  11.395  -8.473  1.00  0.00    -0.544 OA
ATOM     16  O   UNL     1       0.190  12.847  -6.780  1.00  0.00    -0.544 OA
ENDBRANCH   9  14
ENDBRANCH   8   9
ENDBRANCH   1   8
TORSDOF 7
ENDMDL
MODEL 7
REMARK VINA RESULT:    -3.075      9.185      9.568
REMARK INTER + INTRA:          -4.292
REMARK INTER:                  -3.776
REMARK INTRA:                  -0.517
REMARK UNBOUND:                -0.138
REMARK SMILES [NH3+]CCCC[C@H]([NH3+])C(=O)[O-]
REMARK SMILES IDX 4 1 3 2 2 3 1 4 5 8 6 9 7 10 8 14 9 15 10 16
REMARK H PARENT 1 5 1 6 1 7 7 11 7 12 7 13
REMARK Flexibility Score: inf
ROOT
ATOM      1  C   UNL     1       1.002   2.991  -8.369  1.00  0.00     0.012 C 
ENDROOT
BRANCH   1   2
ATOM      2  C   UNL     1      -0.199   3.518  -9.174  1.00  0.00     0.061 C 
BRANCH   2   3
ATOM      3  C   UNL     1      -0.066   3.235 -10.680  1.00  0.00     0.258 C 
BRANCH   3   4
ATOM      4  N   UNL     1       0.294   4.435 -11.437  1.00  0.00    -0.358 N 
ATOM      5  H   UNL     1      -0.441   5.168 -11.326  1.00  0.00     0.344 HD
ATOM      6  H   UNL     1       0.363   4.188 -12.451  1.00  0.00     0.344 HD
ATOM      7  H   UNL     1       1.220   4.804 -11.118  1.00  0.00     0.344 HD
ENDBRANCH   3   4
ENDBRANCH   2   3
ENDBRANCH   1   2
BRANCH   1   8
ATOM      8  C   UNL     1       1.750   4.106  -7.615  1.00  0.00     0.072 C 
BRANCH   8   9
ATOM      9  C   UNL     1       3.217   4.304  -8.064  1.00  0.00     0.227 C 
BRANCH   9  10
ATOM     10  N   UNL     1       3.799   5.477  -7.401  1.00  0.00    -0.350 N 
ATOM     11  H   UNL     1       3.194   5.792  -6.607  1.00  0.00     0.345 HD
ATOM     12  H   UNL     1       3.901   6.260  -8.088  1.00  0.00     0.345 HD
ATOM     13  H   UNL     1       4.750   5.240  -7.033  1.00  0.00     0.345 HD
ENDBRANCH   9  10
BRANCH   9  14
ATOM     14  C   UNL     1       3.317   4.451  -9.560  1.00  0.00     0.099 C 
ATOM     15  O   UNL     1       3.904   3.576 -10.250  1.00  0.00    -0.544 OA
ATOM     16  O   UNL     1       2.773   5.565 -10.186  1.00  0.00    -0.544 OA
ENDBRANCH   9  14
ENDBRANCH   8   9
ENDBRANCH   1   8
TORSDOF 7
ENDMDL
MODEL 8
REMARK VINA RESULT:    -3.016      2.661      4.149
REMARK INTER + INTRA:          -4.212
REMARK INTER:                  -3.713
REMARK INTRA:                  -0.498
REMARK UNBOUND:                -0.138
REMARK SMILES [NH3+]CCCC[C@H]([NH3+])C(=O)[O-]
REMARK SMILES IDX 4 1 3 2 2 3 1 4 5 8 6 9 7 10 8 14 9 15 10 16
REMARK H PARENT 1 5 1 6 1 7 7 11 7 12 7 13
REMARK Flexibility Score: inf
ROOT
ATOM      1  C   UNL     1       3.750  14.340  -9.747  1.00  0.00     0.012 C 
ENDROOT
BRANCH   1   2
ATOM      2  C   UNL     1       3.342  15.813  -9.570  1.00  0.00     0.061 C 
BRANCH   2   3
ATOM      3  C   UNL     1       2.693  16.398 -10.835  1.00  0.00     0.258 C 
BRANCH   3   4
ATOM      4  N   UNL     1       1.235  16.473 -10.723  1.00  0.00    -0.358 N 
ATOM      5  H   UNL     1       0.787  16.224 -11.633  1.00  0.00     0.344 HD
ATOM      6  H   UNL     1       0.963  17.453 -10.480  1.00  0.00     0.344 HD
ATOM      7  H   UNL     1       0.894  15.833  -9.969  1.00  0.00     0.344 HD
ENDBRANCH   3   4
ENDBRANCH   2   3
ENDBRANCH   1   2
BRANCH   1   8
ATOM      8  C   UNL     1       3.081  13.409  -8.717  1.00  0.00     0.072 C 
BRANCH   8   9
ATOM      9  C   UNL     1       1.726  13.926  -8.178  1.00  0.00     0.227 C 
BRANCH   9  10
ATOM     10  N   UNL     1       1.620  13.668  -6.737  1.00  0.00    -0.350 N 
ATOM     11  H   UNL     1       2.213  14.340  -6.196  1.00  0.00     0.345 HD
ATOM     12  H   UNL     1       1.926  12.690  -6.527  1.00  0.00     0.345 HD
ATOM     13  H   UNL     1       0.624  13.771  -6.432  1.00  0.00     0.345 HD
ENDBRANCH   9  10
BRANCH   9  14
ATOM     14  C   UNL     1       0.570  13.292  -8.905  1.00  0.00     0.099 C 
ATOM     15  O   UNL     1       0.443  12.038  -8.934  1.00  0.00    -0.544 OA
ATOM     16  O   UNL     1      -0.358  14.089  -9.562  1.00  0.00    -0.544 OA
ENDBRANCH   9  14
ENDBRANCH   8   9
ENDBRANCH   1   8
TORSDOF 7
ENDMDL
MODEL 9
REMARK VINA RESULT:    -2.892      2.590      4.210
REMARK INTER + INTRA:          -4.045
REMARK INTER:                  -3.585
REMARK INTRA:                  -0.460
REMARK UNBOUND:                -0.138
REMARK SMILES [NH3+]CCCC[C@H]([NH3+])C(=O)[O-]
REMARK SMILES IDX 4 1 3 2 2 3 1 4 5 8 6 9 7 10 8 14 9 15 10 16
REMARK H PARENT 1 5 1 6 1 7 7 11 7 12 7 13
REMARK Flexibility Score: inf
ROOT
ATOM      1  C   UNL     1       1.126  15.994  -7.781  1.00  0.00     0.012 C 
ENDROOT
BRANCH   1   2
ATOM      2  C   UNL     1       2.589  16.205  -8.208  1.00  0.00     0.061 C 
BRANCH   2   3
ATOM      3  C   UNL     1       2.834  15.814  -9.675  1.00  0.00     0.258 C 
BRANCH   3   4
ATOM      4  N   UNL     1       3.726  14.660  -9.797  1.00  0.00    -0.358 N 
ATOM      5  H   UNL     1       4.596  14.925 -10.310  1.00  0.00     0.344 HD
ATOM      6  H   UNL     1       3.239  13.910 -10.340  1.00  0.00     0.344 HD
ATOM      7  H   UNL     1       3.968  14.284  -8.851  1.00  0.00     0.344 HD
ENDBRANCH   3   4
ENDBRANCH   2   3
ENDBRANCH   1   2
BRANCH   1   8
ATOM      8  C   UNL     1       0.312  15.195  -8.817  1.00  0.00     0.072 C 
BRANCH   8   9
ATOM      9  C   UNL     1      -0.400  13.948  -8.241  1.00  0.00     0.227 C 
BRANCH   9  10
ATOM     10  N   UNL     1      -0.502  14.047  -6.780  1.00  0.00    -0.350 N 
ATOM     11  H   UNL     1      -1.407  13.643  -6.444  1.00  0.00     0.345 HD
ATOM     12  H   UNL     1      -0.442  15.050  -6.487  1.00  0.00     0.345 HD
ATOM     13  H   UNL     1       0.290  13.529  -6.334  1.00  0.00     0.345 HD
ENDBRANCH   9  10
BRANCH   9  14
ATOM     14  C   UNL     1       0.319  12.681  -8.626  1.00  0.00     0.099 C 
ATOM     15  O   UNL     1       1.507  12.722  -9.045  1.00  0.00    -0.544 OA
ATOM     16  O   UNL     1      -0.332  11.458  -8.534  1.00  0.00    -0.544 OA
ENDBRANCH   9  14
ENDBRANCH   8   9
ENDBRANCH   1   8
TORSDOF 7
ENDMDL
