MODEL 1
REMARK VINA RESULT:    -3.815      0.000      0.000
REMARK INTER + INTRA:          -1.944
REMARK INTER:                  -4.708
REMARK INTRA:                   2.764
REMARK UNBOUND:                 2.764
REMARK SMILES C=C1CC[C@H]2[C@H]([C@H]3[C@H](C)CC[C@@H]13)C2(C)C
REMARK SMILES IDX 3 1 2 2 1 3 12 4 9 5 8 6 10 7 7 8 11 9 4 11 5 12 6 13 13 14
REMARK SMILES IDX 14 16 15 17
REMARK H PARENT
REMARK Flexibility Score: 80.00
ROOT
ATOM      1  C   UNL     1     139.080 134.189 133.514  1.00  0.00     0.031 C 
ENDROOT
BRANCH   1   2
ATOM      2  C   UNL     1     139.832 135.484 133.805  1.00  0.00    -0.074 C 
ATOM      3  C   UNL     1     141.169 135.483 133.646  1.00  0.00     0.008 C 
BRANCH   2   4
ATOM      4  C   UNL     1     139.051 136.643 134.462  1.00  0.00     0.018 C 
ATOM      5  C   UNL     1     139.388 137.733 138.042  1.00  0.00     0.008 C 
ATOM      6  C   UNL     1     139.872 137.052 136.752  1.00  0.00    -0.010 C 
ATOM      7  C   UNL     1     140.515 138.080 135.798  1.00  0.00     0.004 C 
ATOM      8  C   UNL     1     138.711 136.415 135.956  1.00  0.00     0.003 CG0
ATOM      9  C   UNL     1     139.776 137.991 134.465  1.00  0.00     0.008 C 
ATOM     10  G   UNL     1     138.209 134.962 136.229  1.00  0.00     0.000 G0
ENDBRANCH   2   4
ENDBRANCH   1   2
BRANCH   1  11
ATOM     11  C   UNL     1     139.156 133.182 134.691  1.00  0.00     0.009 C 
BRANCH  11  12
ATOM     12  C   UNL     1     139.353 133.908 136.035  1.00  0.00    -0.001 C 
ATOM     13  C   UNL     1     138.206 134.933 136.217  1.00  0.00     0.002 CG0
ATOM     14  C   UNL     1     138.455 133.837 137.266  1.00  0.00    -0.029 C 
ATOM     15  G   UNL     1     138.719 136.386 135.969  1.00  0.00     0.000 G0
ATOM     16  C   UNL     1     139.110 134.192 138.605  1.00  0.00     0.011 C 
ATOM     17  C   UNL     1     137.443 132.682 137.306  1.00  0.00     0.011 C 
ENDBRANCH  11  12
ENDBRANCH   1  11
TORSDOF 0
ENDMDL
MODEL 2
REMARK VINA RESULT:    -3.782      3.371      4.908
REMARK INTER + INTRA:          -1.903
REMARK INTER:                  -4.959
REMARK INTRA:                   3.056
REMARK UNBOUND:                 2.764
REMARK SMILES C=C1CC[C@H]2[C@H]([C@H]3[C@H](C)CC[C@@H]13)C2(C)C
REMARK SMILES IDX 3 1 2 2 1 3 12 4 9 5 8 6 10 7 7 8 11 9 4 11 5 12 6 13 13 14
REMARK SMILES IDX 14 16 15 17
REMARK H PARENT
REMARK Flexibility Score: 80.00
ROOT
ATOM      1  C   UNL     1     138.565 138.885 134.038  1.00  0.00     0.031 C 
ENDROOT
BRANCH   1   2
ATOM      2  C   UNL     1     137.246 139.647 134.106  1.00  0.00    -0.074 C 
ATOM      3  C   UNL     1     137.253 140.947 133.757  1.00  0.00     0.008 C 
BRANCH   2   4
ATOM      4  C   UNL     1     136.038 138.947 134.768  1.00  0.00     0.018 C 
ATOM      5  C   UNL     1     134.853 139.525 138.287  1.00  0.00     0.008 C 
ATOM      6  C   UNL     1     135.591 139.910 136.994  1.00  0.00    -0.010 C 
ATOM      7  C   UNL     1     134.618 140.535 135.973  1.00  0.00     0.004 C 
ATOM      8  C   UNL     1     136.208 138.683 136.285  1.00  0.00     0.003 CG0
ATOM      9  C   UNL     1     134.719 139.719 134.687  1.00  0.00     0.008 C 
ATOM     10  G   UNL     1     137.631 138.146 136.632  1.00  0.00     0.000 G0
ENDBRANCH   2   4
ENDBRANCH   1   2
BRANCH   1  11
ATOM     11  C   UNL     1     139.483 139.179 135.254  1.00  0.00     0.009 C 
BRANCH  11  12
ATOM     12  C   UNL     1     138.665 139.314 136.552  1.00  0.00    -0.001 C 
ATOM     13  C   UNL     1     137.638 138.156 136.612  1.00  0.00     0.002 CG0
ATOM     14  C   UNL     1     138.657 138.362 137.745  1.00  0.00    -0.029 C 
ATOM     15  G   UNL     1     136.202 138.674 136.287  1.00  0.00     0.000 G0
ATOM     16  C   UNL     1     138.207 138.957 139.083  1.00  0.00     0.011 C 
ATOM     17  C   UNL     1     139.814 137.354 137.819  1.00  0.00     0.011 C 
ENDBRANCH  11  12
ENDBRANCH   1  11
TORSDOF 0
ENDMDL
MODEL 3
REMARK VINA RESULT:    -3.763      1.149      4.461
REMARK INTER + INTRA:          -1.879
REMARK INTER:                  -4.647
REMARK INTRA:                   2.768
REMARK UNBOUND:                 2.764
REMARK SMILES C=C1CC[C@H]2[C@H]([C@H]3[C@H](C)CC[C@@H]13)C2(C)C
REMARK SMILES IDX 3 1 2 2 1 3 12 4 9 5 8 6 10 7 7 8 11 9 4 11 5 12 6 13 13 14
REMARK SMILES IDX 14 16 15 17
REMARK H PARENT
REMARK Flexibility Score: 80.00
ROOT
ATOM      1  C   UNL     1     138.619 138.613 137.188  1.00  0.00     0.031 C 
ENDROOT
BRANCH   1   2
ATOM      2  C   UNL     1     138.657 137.357 138.052  1.00  0.00    -0.074 C 
ATOM      3  C   UNL     1     139.563 137.306 139.046  1.00  0.00     0.008 C 
BRANCH   2   4
ATOM      4  C   UNL     1     137.809 136.145 137.607  1.00  0.00     0.018 C 
ATOM      5  C   UNL     1     139.159 133.003 136.051  1.00  0.00     0.008 C 
ATOM      6  C   UNL     1     139.262 134.285 136.893  1.00  0.00    -0.010 C 
ATOM      7  C   UNL     1     138.795 134.029 138.341  1.00  0.00     0.004 C 
ATOM      8  C   UNL     1     138.353 135.413 136.355  1.00  0.00     0.003 CG0
ATOM      9  C   UNL     1     137.682 135.028 138.646  1.00  0.00     0.008 C 
ATOM     10  G   UNL     1     138.822 136.409 135.250  1.00  0.00     0.000 G0
ENDBRANCH   2   4
ENDBRANCH   1   2
BRANCH   1  11
ATOM     11  C   UNL     1     139.728 138.619 136.103  1.00  0.00     0.009 C 
BRANCH  11  12
ATOM     12  C   UNL     1     140.118 137.186 135.695  1.00  0.00    -0.001 C 
ATOM     13  C   UNL     1     138.841 136.436 135.240  1.00  0.00     0.002 CG0
ATOM     14  C   UNL     1     140.051 136.569 134.301  1.00  0.00    -0.029 C 
ATOM     15  G   UNL     1     138.376 135.424 136.333  1.00  0.00     0.000 G0
ATOM     16  C   UNL     1     140.963 135.365 134.048  1.00  0.00     0.011 C 
ATOM     17  C   UNL     1     139.906 137.552 133.128  1.00  0.00     0.011 C 
ENDBRANCH  11  12
ENDBRANCH   1  11
TORSDOF 0
ENDMDL
MODEL 4
REMARK VINA RESULT:    -3.655      5.381      6.839
REMARK INTER + INTRA:          -1.746
REMARK INTER:                  -4.508
REMARK INTRA:                   2.762
REMARK UNBOUND:                 2.764
REMARK SMILES C=C1CC[C@H]2[C@H]([C@H]3[C@H](C)CC[C@@H]13)C2(C)C
REMARK SMILES IDX 3 1 2 2 1 3 12 4 9 5 8 6 10 7 7 8 11 9 4 11 5 12 6 13 13 14
REMARK SMILES IDX 14 16 15 17
REMARK H PARENT
REMARK Flexibility Score: 80.00
ROOT
ATOM      1  C   UNL     1     134.302 139.102 134.970  1.00  0.00     0.031 C 
ENDROOT
BRANCH   1   2
ATOM      2  C   UNL     1     133.482 137.816 134.937  1.00  0.00    -0.074 C 
ATOM      3  C   UNL     1     132.171 137.914 134.647  1.00  0.00     0.008 C 
BRANCH   2   4
ATOM      4  C   UNL     1     134.150 136.518 135.442  1.00  0.00     0.018 C 
ATOM      5  C   UNL     1     133.268 134.717 138.620  1.00  0.00     0.008 C 
ATOM      6  C   UNL     1     132.989 135.669 137.446  1.00  0.00    -0.010 C 
ATOM      7  C   UNL     1     132.494 134.887 136.212  1.00  0.00     0.004 C 
ATOM      8  C   UNL     1     134.260 136.417 136.984  1.00  0.00     0.003 CG0
ATOM      9  C   UNL     1     133.428 135.226 135.052  1.00  0.00     0.008 C 
ATOM     10  G   UNL     1     134.719 137.762 137.630  1.00  0.00     0.000 G0
ENDBRANCH   2   4
ENDBRANCH   1   2
BRANCH   1  11
ATOM     11  C   UNL     1     134.207 139.830 136.336  1.00  0.00     0.009 C 
BRANCH  11  12
ATOM     12  C   UNL     1     133.698 138.884 137.440  1.00  0.00    -0.001 C 
ATOM     13  C   UNL     1     134.740 137.756 137.643  1.00  0.00     0.002 CG0
ATOM     14  C   UNL     1     134.312 138.652 138.817  1.00  0.00    -0.029 C 
ATOM     15  G   UNL     1     134.238 136.420 137.012  1.00  0.00     0.000 G0
ATOM     16  C   UNL     1     133.371 138.107 139.896  1.00  0.00     0.011 C 
ATOM     17  C   UNL     1     135.335 139.697 139.291  1.00  0.00     0.011 C 
ENDBRANCH  11  12
ENDBRANCH   1  11
TORSDOF 0
ENDMDL
MODEL 5
REMARK VINA RESULT:    -3.520      3.529      5.913
REMARK INTER + INTRA:          -1.579
REMARK INTER:                  -4.526
REMARK INTRA:                   2.947
REMARK UNBOUND:                 2.764
REMARK SMILES C=C1CC[C@H]2[C@H]([C@H]3[C@H](C)CC[C@@H]13)C2(C)C
REMARK SMILES IDX 3 1 2 2 1 3 12 4 9 5 8 6 10 7 7 8 11 9 4 11 5 12 6 13 13 14
REMARK SMILES IDX 14 16 15 17
REMARK H PARENT
REMARK Flexibility Score: 80.00
ROOT
ATOM      1  C   UNL     1     134.535 138.684 137.678  1.00  0.00     0.031 C 
ENDROOT
BRANCH   1   2
ATOM      2  C   UNL     1     135.899 138.593 138.354  1.00  0.00    -0.074 C 
ATOM      3  C   UNL     1     136.153 139.437 139.372  1.00  0.00     0.008 C 
BRANCH   2   4
ATOM      4  C   UNL     1     136.975 137.698 137.699  1.00  0.00     0.018 C 
ATOM      5  C   UNL     1     139.887 138.932 135.670  1.00  0.00     0.008 C 
ATOM      6  C   UNL     1     138.768 139.076 136.714  1.00  0.00    -0.010 C 
ATOM      7  C   UNL     1     139.233 138.559 138.091  1.00  0.00     0.004 C 
ATOM      8  C   UNL     1     137.520 138.239 136.353  1.00  0.00     0.003 CG0
ATOM      9  C   UNL     1     138.239 137.488 138.537  1.00  0.00     0.008 C 
ATOM     10  G   UNL     1     136.383 138.786 135.436  1.00  0.00     0.000 G0
ENDBRANCH   2   4
ENDBRANCH   1   2
BRANCH   1  11
ATOM     11  C   UNL     1     134.453 139.854 136.663  1.00  0.00     0.009 C 
BRANCH  11  12
ATOM     12  C   UNL     1     135.826 140.138 136.026  1.00  0.00    -0.001 C 
ATOM     13  C   UNL     1     136.383 138.817 135.439  1.00  0.00     0.002 CG0
ATOM     14  C   UNL     1     136.196 140.056 134.548  1.00  0.00    -0.029 C 
ATOM     15  G   UNL     1     137.519 138.247 136.343  1.00  0.00     0.000 G0
ATOM     16  C   UNL     1     137.414 140.874 134.107  1.00  0.00     0.011 C 
ATOM     17  C   UNL     1     135.025 140.016 133.554  1.00  0.00     0.011 C 
ENDBRANCH  11  12
ENDBRANCH   1  11
TORSDOF 0
ENDMDL
MODEL 6
REMARK VINA RESULT:    -3.415      3.945      6.142
REMARK INTER + INTRA:          -1.449
REMARK INTER:                  -4.443
REMARK INTRA:                   2.994
REMARK UNBOUND:                 2.764
REMARK SMILES C=C1CC[C@H]2[C@H]([C@H]3[C@H](C)CC[C@@H]13)C2(C)C
REMARK SMILES IDX 3 1 2 2 1 3 12 4 9 5 8 6 10 7 7 8 11 9 4 11 5 12 6 13 13 14
REMARK SMILES IDX 14 16 15 17
REMARK H PARENT
REMARK Flexibility Score: 80.00
ROOT
ATOM      1  C   UNL     1     133.722 139.652 135.893  1.00  0.00     0.031 C 
ENDROOT
BRANCH   1   2
ATOM      2  C   UNL     1     133.969 138.529 136.894  1.00  0.00    -0.074 C 
ATOM      3  C   UNL     1     133.721 138.779 138.193  1.00  0.00     0.008 C 
BRANCH   2   4
ATOM      4  C   UNL     1     134.684 137.254 136.392  1.00  0.00     0.018 C 
ATOM      5  C   UNL     1     138.304 136.426 136.967  1.00  0.00     0.008 C 
ATOM      6  C   UNL     1     136.980 137.140 137.285  1.00  0.00    -0.010 C 
ATOM      7  C   UNL     1     136.064 136.240 138.140  1.00  0.00     0.004 C 
ATOM      8  C   UNL     1     136.171 137.468 136.010  1.00  0.00     0.003 CG0
ATOM      9  C   UNL     1     134.737 136.103 137.398  1.00  0.00     0.008 C 
ATOM     10  G   UNL     1     136.386 138.783 135.199  1.00  0.00     0.000 G0
ENDBRANCH   2   4
ENDBRANCH   1   2
BRANCH   1  11
ATOM     11  C   UNL     1     134.876 140.689 135.868  1.00  0.00     0.009 C 
BRANCH  11  12
ATOM     12  C   UNL     1     136.233 140.020 136.155  1.00  0.00    -0.001 C 
ATOM     13  C   UNL     1     136.392 138.800 135.213  1.00  0.00     0.002 CG0
ATOM     14  C   UNL     1     137.436 139.929 135.221  1.00  0.00    -0.029 C 
ATOM     15  G   UNL     1     136.177 137.467 135.996  1.00  0.00     0.000 G0
ATOM     16  C   UNL     1     138.798 139.711 135.888  1.00  0.00     0.011 C 
ATOM     17  C   UNL     1     137.432 140.876 134.010  1.00  0.00     0.011 C 
ENDBRANCH  11  12
ENDBRANCH   1  11
TORSDOF 0
ENDMDL
MODEL 7
REMARK VINA RESULT:    -3.361      5.127      5.982
REMARK INTER + INTRA:          -1.383
REMARK INTER:                  -4.202
REMARK INTRA:                   2.819
REMARK UNBOUND:                 2.764
REMARK SMILES C=C1CC[C@H]2[C@H]([C@H]3[C@H](C)CC[C@@H]13)C2(C)C
REMARK SMILES IDX 3 1 2 2 1 3 12 4 9 5 8 6 10 7 7 8 11 9 4 11 5 12 6 13 13 14
REMARK SMILES IDX 14 16 15 17
REMARK H PARENT
REMARK Flexibility Score: 80.00
ROOT
ATOM      1  C   UNL     1     132.585 133.706 135.345  1.00  0.00     0.031 C 
ENDROOT
BRANCH   1   2
ATOM      2  C   UNL     1     132.610 134.986 134.517  1.00  0.00    -0.074 C 
ATOM      3  C   UNL     1     133.264 134.961 133.340  1.00  0.00     0.008 C 
BRANCH   2   4
ATOM      4  C   UNL     1     132.074 136.281 135.167  1.00  0.00     0.018 C 
ATOM      5  C   UNL     1     134.184 139.170 136.316  1.00  0.00     0.008 C 
ATOM      6  C   UNL     1     133.895 137.915 135.477  1.00  0.00    -0.010 C 
ATOM      7  C   UNL     1     133.109 138.278 134.200  1.00  0.00     0.004 C 
ATOM      8  C   UNL     1     133.015 136.895 136.233  1.00  0.00     0.003 CG0
ATOM      9  C   UNL     1     131.832 137.440 134.197  1.00  0.00     0.008 C 
ATOM     10  G   UNL     1     133.618 135.810 137.179  1.00  0.00     0.000 G0
ENDBRANCH   2   4
ENDBRANCH   1   2
BRANCH   1  11
ATOM     11  C   UNL     1     133.873 133.522 136.191  1.00  0.00     0.009 C 
BRANCH  11  12
ATOM     12  C   UNL     1     134.585 134.867 136.422  1.00  0.00    -0.001 C 
ATOM     13  C   UNL     1     133.625 135.811 137.188  1.00  0.00     0.002 CG0
ATOM     14  C   UNL     1     135.013 135.472 137.756  1.00  0.00    -0.029 C 
ATOM     15  G   UNL     1     133.040 136.898 136.233  1.00  0.00     0.000 G0
ATOM     16  C   UNL     1     136.140 136.508 137.701  1.00  0.00     0.011 C 
ATOM     17  C   UNL     1     135.048 134.514 138.958  1.00  0.00     0.011 C 
ENDBRANCH  11  12
ENDBRANCH   1  11
TORSDOF 0
ENDMDL
MODEL 8
REMARK VINA RESULT:    -3.337      3.111      4.523
REMARK INTER + INTRA:          -1.353
REMARK INTER:                  -4.186
REMARK INTRA:                   2.833
REMARK UNBOUND:                 2.764
REMARK SMILES C=C1CC[C@H]2[C@H]([C@H]3[C@H](C)CC[C@@H]13)C2(C)C
REMARK SMILES IDX 3 1 2 2 1 3 12 4 9 5 8 6 10 7 7 8 11 9 4 11 5 12 6 13 13 14
REMARK SMILES IDX 14 16 15 17
REMARK H PARENT
REMARK Flexibility Score: 80.00
ROOT
ATOM      1  C   UNL     1     136.721 140.454 134.042  1.00  0.00     0.031 C 
ENDROOT
BRANCH   1   2
ATOM      2  C   UNL     1     137.979 139.596 134.113  1.00  0.00    -0.074 C 
ATOM      3  C   UNL     1     138.219 138.749 133.094  1.00  0.00     0.008 C 
BRANCH   2   4
ATOM      4  C   UNL     1     138.781 139.592 135.433  1.00  0.00     0.018 C 
ATOM      5  C   UNL     1     138.911 136.751 137.888  1.00  0.00     0.008 C 
ATOM      6  C   UNL     1     138.686 137.370 136.499  1.00  0.00    -0.010 C 
ATOM      7  C   UNL     1     140.020 137.503 135.736  1.00  0.00     0.004 C 
ATOM      8  C   UNL     1     138.110 138.801 136.584  1.00  0.00     0.003 CG0
ATOM      9  C   UNL     1     140.176 138.970 135.340  1.00  0.00     0.008 C 
ATOM     10  G   UNL     1     136.577 139.081 136.672  1.00  0.00     0.000 G0
ENDBRANCH   2   4
ENDBRANCH   1   2
BRANCH   1  11
ATOM     11  C   UNL     1     135.454 139.690 134.509  1.00  0.00     0.009 C 
BRANCH  11  12
ATOM     12  C   UNL     1     135.819 138.525 135.447  1.00  0.00    -0.001 C 
ATOM     13  C   UNL     1     136.570 139.095 136.676  1.00  0.00     0.002 CG0
ATOM     14  C   UNL     1     135.287 138.266 136.853  1.00  0.00    -0.029 C 
ATOM     15  G   UNL     1     138.098 138.790 136.579  1.00  0.00     0.000 G0
ATOM     16  C   UNL     1     135.370 136.821 137.355  1.00  0.00     0.011 C 
ATOM     17  C   UNL     1     134.021 139.039 137.255  1.00  0.00     0.011 C 
ENDBRANCH  11  12
ENDBRANCH   1  11
TORSDOF 0
ENDMDL
MODEL 9
REMARK VINA RESULT:    -3.312      5.063      6.400
REMARK INTER + INTRA:          -1.323
REMARK INTER:                  -4.140
REMARK INTRA:                   2.817
REMARK UNBOUND:                 2.764
REMARK SMILES C=C1CC[C@H]2[C@H]([C@H]3[C@H](C)CC[C@@H]13)C2(C)C
REMARK SMILES IDX 3 1 2 2 1 3 12 4 9 5 8 6 10 7 7 8 11 9 4 11 5 12 6 13 13 14
REMARK SMILES IDX 14 16 15 17
REMARK H PARENT
REMARK Flexibility Score: 80.00
ROOT
ATOM      1  C   UNL     1     134.194 134.557 137.983  1.00  0.00     0.031 C 
ENDROOT
BRANCH   1   2
ATOM      2  C   UNL     1     134.400 135.981 138.489  1.00  0.00    -0.074 C 
ATOM      3  C   UNL     1     133.640 136.398 139.519  1.00  0.00     0.008 C 
BRANCH   2   4
ATOM      4  C   UNL     1     135.306 136.920 137.663  1.00  0.00     0.018 C 
ATOM      5  C   UNL     1     134.109 139.778 135.537  1.00  0.00     0.008 C 
ATOM      6  C   UNL     1     133.985 138.755 136.678  1.00  0.00    -0.010 C 
ATOM      7  C   UNL     1     134.684 139.269 137.954  1.00  0.00     0.004 C 
ATOM      8  C   UNL     1     134.672 137.413 136.338  1.00  0.00     0.003 CG0
ATOM      9  C   UNL     1     135.709 138.217 138.369  1.00  0.00     0.008 C 
ATOM     10  G   UNL     1     133.936 136.267 135.576  1.00  0.00     0.000 G0
ENDBRANCH   2   4
ENDBRANCH   1   2
BRANCH   1  11
ATOM     11  C   UNL     1     132.980 134.439 137.023  1.00  0.00     0.009 C 
BRANCH  11  12
ATOM     12  C   UNL     1     132.673 135.787 136.343  1.00  0.00    -0.001 C 
ATOM     13  C   UNL     1     133.934 136.250 135.571  1.00  0.00     0.002 CG0
ATOM     14  C   UNL     1     132.590 136.071 134.846  1.00  0.00    -0.029 C 
ATOM     15  G   UNL     1     134.652 137.408 136.331  1.00  0.00     0.000 G0
ATOM     16  C   UNL     1     131.771 137.298 134.434  1.00  0.00     0.011 C 
ATOM     17  C   UNL     1     132.464 134.847 133.927  1.00  0.00     0.011 C 
ENDBRANCH  11  12
ENDBRANCH   1  11
TORSDOF 0
ENDMDL
