MODEL 1
REMARK VINA RESULT:    -4.738      0.000      0.000
REMARK INTER + INTRA:          -6.589
REMARK INTER:                  -6.400
REMARK INTRA:                  -0.189
REMARK UNBOUND:                -0.189
REMARK SMILES CCCCCCCC(=O)[O-]
REMARK SMILES IDX 5 1 6 2 7 3 8 4 9 5 10 6 4 7 3 8 2 9 1 10
REMARK H PARENT
REMARK Flexibility Score: inf
ROOT
ATOM      1  C   UNL     1      25.916  -1.171  61.642  1.00  0.00     0.000 C 
ENDROOT
BRANCH   1   2
ATOM      2  C   UNL     1      25.260  -2.492  62.084  1.00  0.00     0.006 C 
BRANCH   2   3
ATOM      3  C   UNL     1      25.587  -3.648  61.130  1.00  0.00     0.053 C 
BRANCH   3   4
ATOM      4  C   UNL     1      24.653  -3.680  59.958  1.00  0.00     0.041 C 
ATOM      5  O   UNL     1      23.439  -3.969  60.125  1.00  0.00    -0.550 OA
ATOM      6  O   UNL     1      25.116  -3.356  58.689  1.00  0.00    -0.550 OA
ENDBRANCH   3   4
ENDBRANCH   2   3
ENDBRANCH   1   2
BRANCH   1   7
ATOM      7  C   UNL     1      25.093   0.066  62.038  1.00  0.00     0.000 C 
BRANCH   7   8
ATOM      8  C   UNL     1      25.886   1.175  62.760  1.00  0.00    -0.000 C 
BRANCH   8   9
ATOM      9  C   UNL     1      25.492   2.611  62.376  1.00  0.00    -0.003 C 
ATOM     10  C   UNL     1      24.024   2.738  61.971  1.00  0.00     0.004 C 
ENDBRANCH   8   9
ENDBRANCH   7   8
ENDBRANCH   1   7
TORSDOF 6
ENDMDL
MODEL 2
REMARK VINA RESULT:    -4.734      4.398      6.440
REMARK INTER + INTRA:          -6.584
REMARK INTER:                  -6.248
REMARK INTRA:                  -0.335
REMARK UNBOUND:                -0.189
REMARK SMILES CCCCCCCC(=O)[O-]
REMARK SMILES IDX 5 1 6 2 7 3 8 4 9 5 10 6 4 7 3 8 2 9 1 10
REMARK H PARENT
REMARK Flexibility Score: inf
ROOT
ATOM      1  C   UNL     1      24.022   2.852  61.819  1.00  0.00     0.000 C 
ENDROOT
BRANCH   1   2
ATOM      2  C   UNL     1      23.100   2.900  63.050  1.00  0.00     0.006 C 
BRANCH   2   3
ATOM      3  C   UNL     1      23.606   3.882  64.116  1.00  0.00     0.053 C 
BRANCH   3   4
ATOM      4  C   UNL     1      23.968   3.179  65.389  1.00  0.00     0.041 C 
ATOM      5  O   UNL     1      25.173   3.091  65.742  1.00  0.00    -0.550 OA
ATOM      6  O   UNL     1      22.971   2.653  66.202  1.00  0.00    -0.550 OA
ENDBRANCH   3   4
ENDBRANCH   2   3
ENDBRANCH   1   2
BRANCH   1   7
ATOM      7  C   UNL     1      25.495   2.605  62.185  1.00  0.00     0.000 C 
BRANCH   7   8
ATOM      8  C   UNL     1      25.805   1.197  62.734  1.00  0.00    -0.000 C 
BRANCH   8   9
ATOM      9  C   UNL     1      25.072   0.047  62.022  1.00  0.00    -0.003 C 
ATOM     10  C   UNL     1      26.009  -1.080  61.591  1.00  0.00     0.004 C 
ENDBRANCH   8   9
ENDBRANCH   7   8
ENDBRANCH   1   7
TORSDOF 6
ENDMDL
MODEL 3
REMARK VINA RESULT:    -4.718      4.288      6.367
REMARK INTER + INTRA:          -6.563
REMARK INTER:                  -6.312
REMARK INTRA:                  -0.250
REMARK UNBOUND:                -0.189
REMARK SMILES CCCCCCCC(=O)[O-]
REMARK SMILES IDX 5 1 6 2 7 3 8 4 9 5 10 6 4 7 3 8 2 9 1 10
REMARK H PARENT
REMARK Flexibility Score: inf
ROOT
ATOM      1  C   UNL     1      24.591   1.487  62.326  1.00  0.00     0.000 C 
ENDROOT
BRANCH   1   2
ATOM      2  C   UNL     1      24.900   2.954  61.980  1.00  0.00     0.006 C 
BRANCH   2   3
ATOM      3  C   UNL     1      25.525   3.708  63.161  1.00  0.00     0.053 C 
BRANCH   3   4
ATOM      4  C   UNL     1      24.621   3.713  64.356  1.00  0.00     0.041 C 
ATOM      5  O   UNL     1      23.454   4.176  64.264  1.00  0.00    -0.550 OA
ATOM      6  O   UNL     1      25.056   3.175  65.561  1.00  0.00    -0.550 OA
ENDBRANCH   3   4
ENDBRANCH   2   3
ENDBRANCH   1   2
BRANCH   1   7
ATOM      7  C   UNL     1      25.859   0.638  62.518  1.00  0.00     0.000 C 
BRANCH   7   8
ATOM      8  C   UNL     1      25.892  -0.679  61.714  1.00  0.00    -0.000 C 
BRANCH   8   9
ATOM      9  C   UNL     1      24.784  -1.685  62.070  1.00  0.00    -0.003 C 
ATOM     10  C   UNL     1      25.297  -3.118  62.192  1.00  0.00     0.004 C 
ENDBRANCH   8   9
ENDBRANCH   7   8
ENDBRANCH   1   7
TORSDOF 6
ENDMDL
MODEL 4
REMARK VINA RESULT:    -4.710      3.463      5.604
REMARK INTER + INTRA:          -6.551
REMARK INTER:                  -6.307
REMARK INTRA:                  -0.244
REMARK UNBOUND:                -0.189
REMARK SMILES CCCCCCCC(=O)[O-]
REMARK SMILES IDX 5 1 6 2 7 3 8 4 9 5 10 6 4 7 3 8 2 9 1 10
REMARK H PARENT
REMARK Flexibility Score: inf
ROOT
ATOM      1  C   UNL     1      25.981  -1.145  61.573  1.00  0.00     0.000 C 
ENDROOT
BRANCH   1   2
ATOM      2  C   UNL     1      25.148   0.057  62.050  1.00  0.00     0.006 C 
BRANCH   2   3
ATOM      3  C   UNL     1      26.006   1.108  62.768  1.00  0.00     0.053 C 
BRANCH   3   4
ATOM      4  C   UNL     1      25.458   2.490  62.584  1.00  0.00     0.041 C 
ATOM      5  O   UNL     1      24.622   2.723  61.671  1.00  0.00    -0.550 OA
ATOM      6  O   UNL     1      25.843   3.512  63.443  1.00  0.00    -0.550 OA
ENDBRANCH   3   4
ENDBRANCH   2   3
ENDBRANCH   1   2
BRANCH   1   7
ATOM      7  C   UNL     1      25.410  -2.493  62.047  1.00  0.00     0.000 C 
BRANCH   7   8
ATOM      8  C   UNL     1      25.321  -3.583  60.959  1.00  0.00    -0.000 C 
BRANCH   8   9
ATOM      9  C   UNL     1      25.473  -3.074  59.516  1.00  0.00    -0.003 C 
ATOM     10  C   UNL     1      24.157  -3.076  58.740  1.00  0.00     0.004 C 
ENDBRANCH   8   9
ENDBRANCH   7   8
ENDBRANCH   1   7
TORSDOF 6
ENDMDL
MODEL 5
REMARK VINA RESULT:    -4.646      4.006      6.079
REMARK INTER + INTRA:          -6.464
REMARK INTER:                  -6.249
REMARK INTRA:                  -0.215
REMARK UNBOUND:                -0.189
REMARK SMILES CCCCCCCC(=O)[O-]
REMARK SMILES IDX 5 1 6 2 7 3 8 4 9 5 10 6 4 7 3 8 2 9 1 10
REMARK H PARENT
REMARK Flexibility Score: inf
ROOT
ATOM      1  C   UNL     1      25.918   1.210  62.759  1.00  0.00     0.000 C 
ENDROOT
BRANCH   1   2
ATOM      2  C   UNL     1      25.452   2.610  62.325  1.00  0.00     0.006 C 
BRANCH   2   3
ATOM      3  C   UNL     1      23.922   2.725  62.286  1.00  0.00     0.053 C 
BRANCH   3   4
ATOM      4  C   UNL     1      23.395   3.504  63.453  1.00  0.00     0.041 C 
ATOM      5  O   UNL     1      24.173   4.214  64.143  1.00  0.00    -0.550 OA
ATOM      6  O   UNL     1      22.039   3.474  63.754  1.00  0.00    -0.550 OA
ENDBRANCH   3   4
ENDBRANCH   2   3
ENDBRANCH   1   2
BRANCH   1   7
ATOM      7  C   UNL     1      25.095   0.080  62.118  1.00  0.00     0.000 C 
BRANCH   7   8
ATOM      8  C   UNL     1      25.916  -1.129  61.624  1.00  0.00    -0.000 C 
BRANCH   8   9
ATOM      9  C   UNL     1      25.348  -2.503  62.016  1.00  0.00    -0.003 C 
ATOM     10  C   UNL     1      23.822  -2.556  61.957  1.00  0.00     0.004 C 
ENDBRANCH   8   9
ENDBRANCH   7   8
ENDBRANCH   1   7
TORSDOF 6
ENDMDL
MODEL 6
REMARK VINA RESULT:    -4.640      1.857      2.829
REMARK INTER + INTRA:          -6.457
REMARK INTER:                  -6.208
REMARK INTRA:                  -0.249
REMARK UNBOUND:                -0.189
REMARK SMILES CCCCCCCC(=O)[O-]
REMARK SMILES IDX 5 1 6 2 7 3 8 4 9 5 10 6 4 7 3 8 2 9 1 10
REMARK H PARENT
REMARK Flexibility Score: inf
ROOT
ATOM      1  C   UNL     1      25.896   1.272  62.660  1.00  0.00     0.000 C 
ENDROOT
BRANCH   1   2
ATOM      2  C   UNL     1      25.048   0.031  62.327  1.00  0.00     0.006 C 
BRANCH   2   3
ATOM      3  C   UNL     1      25.878  -1.077  61.665  1.00  0.00     0.053 C 
BRANCH   3   4
ATOM      4  C   UNL     1      25.212  -2.414  61.786  1.00  0.00     0.041 C 
ATOM      5  O   UNL     1      25.787  -3.448  61.356  1.00  0.00    -0.550 OA
ATOM      6  O   UNL     1      23.973  -2.522  62.406  1.00  0.00    -0.550 OA
ENDBRANCH   3   4
ENDBRANCH   2   3
ENDBRANCH   1   2
BRANCH   1   7
ATOM      7  C   UNL     1      25.223   2.587  62.234  1.00  0.00     0.000 C 
BRANCH   7   8
ATOM      8  C   UNL     1      25.350   3.745  63.246  1.00  0.00    -0.000 C 
BRANCH   8   9
ATOM      9  C   UNL     1      25.438   3.312  64.719  1.00  0.00    -0.003 C 
ATOM     10  C   UNL     1      24.068   3.128  65.369  1.00  0.00     0.004 C 
ENDBRANCH   8   9
ENDBRANCH   7   8
ENDBRANCH   1   7
TORSDOF 6
ENDMDL
MODEL 7
REMARK VINA RESULT:    -4.554      3.752      5.928
REMARK INTER + INTRA:          -6.341
REMARK INTER:                  -5.990
REMARK INTRA:                  -0.351
REMARK UNBOUND:                -0.189
REMARK SMILES CCCCCCCC(=O)[O-]
REMARK SMILES IDX 5 1 6 2 7 3 8 4 9 5 10 6 4 7 3 8 2 9 1 10
REMARK H PARENT
REMARK Flexibility Score: inf
ROOT
ATOM      1  C   UNL     1      25.448   3.172  64.655  1.00  0.00     0.000 C 
ENDROOT
BRANCH   1   2
ATOM      2  C   UNL     1      24.051   3.303  65.286  1.00  0.00     0.006 C 
BRANCH   2   3
ATOM      3  C   UNL     1      22.980   3.669  64.250  1.00  0.00     0.053 C 
BRANCH   3   4
ATOM      4  C   UNL     1      22.064   2.516  63.969  1.00  0.00     0.041 C 
ATOM      5  O   UNL     1      21.339   2.046  64.884  1.00  0.00    -0.550 OA
ATOM      6  O   UNL     1      21.987   1.985  62.687  1.00  0.00    -0.550 OA
ENDBRANCH   3   4
ENDBRANCH   2   3
ENDBRANCH   1   2
BRANCH   1   7
ATOM      7  C   UNL     1      25.467   3.539  63.162  1.00  0.00     0.000 C 
BRANCH   7   8
ATOM      8  C   UNL     1      25.466   2.339  62.194  1.00  0.00    -0.000 C 
BRANCH   8   9
ATOM      9  C   UNL     1      25.928   1.007  62.810  1.00  0.00    -0.003 C 
ATOM     10  C   UNL     1      25.512  -0.208  61.983  1.00  0.00     0.004 C 
ENDBRANCH   8   9
ENDBRANCH   7   8
ENDBRANCH   1   7
TORSDOF 6
ENDMDL
MODEL 8
REMARK VINA RESULT:    -4.535      2.897      4.466
REMARK INTER + INTRA:          -6.315
REMARK INTER:                  -5.816
REMARK INTRA:                  -0.499
REMARK UNBOUND:                -0.189
REMARK SMILES CCCCCCCC(=O)[O-]
REMARK SMILES IDX 5 1 6 2 7 3 8 4 9 5 10 6 4 7 3 8 2 9 1 10
REMARK H PARENT
REMARK Flexibility Score: inf
ROOT
ATOM      1  C   UNL     1      24.716  -3.000  58.334  1.00  0.00     0.000 C 
ENDROOT
BRANCH   1   2
ATOM      2  C   UNL     1      25.506  -3.280  59.623  1.00  0.00     0.006 C 
BRANCH   2   3
ATOM      3  C   UNL     1      26.223  -2.028  60.147  1.00  0.00     0.053 C 
BRANCH   3   4
ATOM      4  C   UNL     1      25.800  -1.691  61.545  1.00  0.00     0.041 C 
ATOM      5  O   UNL     1      25.875  -0.505  61.960  1.00  0.00    -0.550 OA
ATOM      6  O   UNL     1      25.290  -2.682  62.375  1.00  0.00    -0.550 OA
ENDBRANCH   3   4
ENDBRANCH   2   3
ENDBRANCH   1   2
BRANCH   1   7
ATOM      7  C   UNL     1      23.193  -3.000  58.554  1.00  0.00     0.000 C 
BRANCH   7   8
ATOM      8  C   UNL     1      22.739  -3.367  59.982  1.00  0.00    -0.000 C 
BRANCH   8   9
ATOM      9  C   UNL     1      21.610  -2.491  60.549  1.00  0.00    -0.003 C 
ATOM     10  C   UNL     1      22.092  -1.520  61.625  1.00  0.00     0.004 C 
ENDBRANCH   8   9
ENDBRANCH   7   8
ENDBRANCH   1   7
TORSDOF 6
ENDMDL
MODEL 9
REMARK VINA RESULT:    -4.455      4.388      5.504
REMARK INTER + INTRA:          -6.206
REMARK INTER:                  -5.788
REMARK INTRA:                  -0.419
REMARK UNBOUND:                -0.189
REMARK SMILES CCCCCCCC(=O)[O-]
REMARK SMILES IDX 5 1 6 2 7 3 8 4 9 5 10 6 4 7 3 8 2 9 1 10
REMARK H PARENT
REMARK Flexibility Score: inf
ROOT
ATOM      1  C   UNL     1      23.651   3.002  65.357  1.00  0.00     0.000 C 
ENDROOT
BRANCH   1   2
ATOM      2  C   UNL     1      22.634   3.459  64.296  1.00  0.00     0.006 C 
BRANCH   2   3
ATOM      3  C   UNL     1      21.420   2.525  64.216  1.00  0.00     0.053 C 
BRANCH   3   4
ATOM      4  C   UNL     1      21.572   1.513  63.121  1.00  0.00     0.041 C 
ATOM      5  O   UNL     1      21.010   0.390  63.215  1.00  0.00    -0.550 OA
ATOM      6  O   UNL     1      22.303   1.825  61.981  1.00  0.00    -0.550 OA
ENDBRANCH   3   4
ENDBRANCH   2   3
ENDBRANCH   1   2
BRANCH   1   7
ATOM      7  C   UNL     1      25.096   3.396  65.009  1.00  0.00     0.000 C 
BRANCH   7   8
ATOM      8  C   UNL     1      25.997   2.233  64.545  1.00  0.00    -0.000 C 
BRANCH   8   9
ATOM      9  C   UNL     1      25.784   1.788  63.088  1.00  0.00    -0.003 C 
ATOM     10  C   UNL     1      25.543   2.959  62.137  1.00  0.00     0.004 C 
ENDBRANCH   8   9
ENDBRANCH   7   8
ENDBRANCH   1   7
TORSDOF 6
ENDMDL
