MODEL 1
REMARK VINA RESULT:    -4.945      0.000      0.000
REMARK INTER + INTRA:          -6.602
REMARK INTER:                  -6.390
REMARK INTRA:                  -0.212
REMARK UNBOUND:                -0.212
REMARK SMILES C=CC(=O)CCCCC
REMARK SMILES IDX 6 1 7 2 8 3 9 4 5 5 3 6 4 7 2 8 1 9
REMARK H PARENT
REMARK Flexibility Score: inf
ROOT
ATOM      1  C   UNL     1      -4.574  13.774 -29.824  1.00  0.00     0.008 C 
ENDROOT
BRANCH   1   2
ATOM      2  C   UNL     1      -5.774  14.739 -29.809  1.00  0.00     0.000 C 
BRANCH   2   3
ATOM      3  C   UNL     1      -6.582  14.698 -28.493  1.00  0.00    -0.003 C 
ATOM      4  C   UNL     1      -8.003  15.231 -28.665  1.00  0.00     0.004 C 
ENDBRANCH   2   3
ENDBRANCH   1   2
BRANCH   1   5
ATOM      5  C   UNL     1      -4.568  12.763 -28.666  1.00  0.00     0.080 C 
BRANCH   5   6
ATOM      6  C   UNL     1      -3.341  12.883 -27.802  1.00  0.00     0.155 C 
ATOM      7  O   UNL     1      -2.874  14.027 -27.545  1.00  0.00    -0.295 OA
BRANCH   6   8
ATOM      8  C   UNL     1      -2.721  11.677 -27.218  1.00  0.00     0.039 C 
ATOM      9  C   UNL     1      -2.901  11.328 -25.946  1.00  0.00     0.012 C 
ENDBRANCH   6   8
ENDBRANCH   5   6
ENDBRANCH   1   5
TORSDOF 5
ENDMDL
MODEL 2
REMARK VINA RESULT:    -4.771      1.954      3.942
REMARK INTER + INTRA:          -6.378
REMARK INTER:                  -6.020
REMARK INTRA:                  -0.358
REMARK UNBOUND:                -0.212
REMARK SMILES C=CC(=O)CCCCC
REMARK SMILES IDX 6 1 7 2 8 3 9 4 5 5 3 6 4 7 2 8 1 9
REMARK H PARENT
REMARK Flexibility Score: inf
ROOT
ATOM      1  C   UNL     1      -3.599  13.182 -29.694  1.00  0.00     0.008 C 
ENDROOT
BRANCH   1   2
ATOM      2  C   UNL     1      -3.839  12.886 -31.187  1.00  0.00     0.000 C 
BRANCH   2   3
ATOM      3  C   UNL     1      -3.671  14.124 -32.095  1.00  0.00    -0.003 C 
ATOM      4  C   UNL     1      -5.011  14.726 -32.513  1.00  0.00     0.004 C 
ENDBRANCH   2   3
ENDBRANCH   1   2
BRANCH   1   5
ATOM      5  C   UNL     1      -4.829  12.944 -28.803  1.00  0.00     0.080 C 
BRANCH   5   6
ATOM      6  C   UNL     1      -5.411  14.226 -28.269  1.00  0.00     0.155 C 
ATOM      7  O   UNL     1      -4.993  14.686 -27.170  1.00  0.00    -0.295 OA
BRANCH   6   8
ATOM      8  C   UNL     1      -6.423  14.966 -29.049  1.00  0.00     0.039 C 
ATOM      9  C   UNL     1      -7.685  15.087 -28.644  1.00  0.00     0.012 C 
ENDBRANCH   6   8
ENDBRANCH   5   6
ENDBRANCH   1   5
TORSDOF 5
ENDMDL
MODEL 3
REMARK VINA RESULT:    -4.753      2.376      3.697
REMARK INTER + INTRA:          -6.354
REMARK INTER:                  -5.981
REMARK INTRA:                  -0.373
REMARK UNBOUND:                -0.212
REMARK SMILES C=CC(=O)CCCCC
REMARK SMILES IDX 6 1 7 2 8 3 9 4 5 5 3 6 4 7 2 8 1 9
REMARK H PARENT
REMARK Flexibility Score: inf
ROOT
ATOM      1  C   UNL     1      -5.003  13.127 -28.729  1.00  0.00     0.008 C 
ENDROOT
BRANCH   1   2
ATOM      2  C   UNL     1      -5.600  14.409 -28.118  1.00  0.00     0.000 C 
BRANCH   2   3
ATOM      3  C   UNL     1      -6.507  15.192 -29.092  1.00  0.00    -0.003 C 
ATOM      4  C   UNL     1      -7.971  15.189 -28.657  1.00  0.00     0.004 C 
ENDBRANCH   2   3
ENDBRANCH   1   2
BRANCH   1   5
ATOM      5  C   UNL     1      -3.687  13.351 -29.491  1.00  0.00     0.080 C 
BRANCH   5   6
ATOM      6  C   UNL     1      -3.788  12.965 -30.943  1.00  0.00     0.155 C 
ATOM      7  O   UNL     1      -3.944  11.751 -31.252  1.00  0.00    -0.295 OA
BRANCH   6   8
ATOM      8  C   UNL     1      -3.757  14.002 -31.993  1.00  0.00     0.039 C 
ATOM      9  C   UNL     1      -4.854  14.639 -32.399  1.00  0.00     0.012 C 
ENDBRANCH   6   8
ENDBRANCH   5   6
ENDBRANCH   1   5
TORSDOF 5
ENDMDL
MODEL 4
REMARK VINA RESULT:    -4.676      1.218      4.403
REMARK INTER + INTRA:          -6.255
REMARK INTER:                  -5.941
REMARK INTRA:                  -0.314
REMARK UNBOUND:                -0.212
REMARK SMILES C=CC(=O)CCCCC
REMARK SMILES IDX 6 1 7 2 8 3 9 4 5 5 3 6 4 7 2 8 1 9
REMARK H PARENT
REMARK Flexibility Score: inf
ROOT
ATOM      1  C   UNL     1      -4.361  12.022 -29.374  1.00  0.00     0.008 C 
ENDROOT
BRANCH   1   2
ATOM      2  C   UNL     1      -3.929  11.036 -28.272  1.00  0.00     0.000 C 
BRANCH   2   3
ATOM      3  C   UNL     1      -2.704  11.515 -27.462  1.00  0.00    -0.003 C 
ATOM      4  C   UNL     1      -2.891  11.328 -25.958  1.00  0.00     0.004 C 
ENDBRANCH   2   3
ENDBRANCH   1   2
BRANCH   1   5
ATOM      5  C   UNL     1      -3.975  13.484 -29.094  1.00  0.00     0.080 C 
BRANCH   5   6
ATOM      6  C   UNL     1      -5.067  14.243 -28.389  1.00  0.00     0.155 C 
ATOM      7  O   UNL     1      -4.960  14.478 -27.153  1.00  0.00    -0.295 OA
BRANCH   6   8
ATOM      8  C   UNL     1      -6.227  14.754 -29.146  1.00  0.00     0.039 C 
ATOM      9  C   UNL     1      -7.426  14.916 -28.590  1.00  0.00     0.012 C 
ENDBRANCH   6   8
ENDBRANCH   5   6
ENDBRANCH   1   5
TORSDOF 5
ENDMDL
MODEL 5
REMARK VINA RESULT:    -4.660      1.980      2.824
REMARK INTER + INTRA:          -6.235
REMARK INTER:                  -6.072
REMARK INTRA:                  -0.163
REMARK UNBOUND:                -0.212
REMARK SMILES C=CC(=O)CCCCC
REMARK SMILES IDX 6 1 7 2 8 3 9 4 5 5 3 6 4 7 2 8 1 9
REMARK H PARENT
REMARK Flexibility Score: inf
ROOT
ATOM      1  C   UNL     1      -4.937  13.140 -28.731  1.00  0.00     0.008 C 
ENDROOT
BRANCH   1   2
ATOM      2  C   UNL     1      -5.577  14.374 -28.068  1.00  0.00     0.000 C 
BRANCH   2   3
ATOM      3  C   UNL     1      -6.462  15.200 -29.027  1.00  0.00    -0.003 C 
ATOM      4  C   UNL     1      -7.937  15.167 -28.633  1.00  0.00     0.004 C 
ENDBRANCH   2   3
ENDBRANCH   1   2
BRANCH   1   5
ATOM      5  C   UNL     1      -4.273  13.430 -30.087  1.00  0.00     0.080 C 
BRANCH   5   6
ATOM      6  C   UNL     1      -2.771  13.375 -30.017  1.00  0.00     0.155 C 
ATOM      7  O   UNL     1      -2.195  13.548 -28.907  1.00  0.00    -0.295 OA
BRANCH   6   8
ATOM      8  C   UNL     1      -1.980  13.070 -31.226  1.00  0.00     0.039 C 
ATOM      9  C   UNL     1      -0.661  13.247 -31.279  1.00  0.00     0.012 C 
ENDBRANCH   6   8
ENDBRANCH   5   6
ENDBRANCH   1   5
TORSDOF 5
ENDMDL
MODEL 6
REMARK VINA RESULT:    -4.585      1.483      1.921
REMARK INTER + INTRA:          -6.137
REMARK INTER:                  -5.816
REMARK INTRA:                  -0.321
REMARK UNBOUND:                -0.212
REMARK SMILES C=CC(=O)CCCCC
REMARK SMILES IDX 6 1 7 2 8 3 9 4 5 5 3 6 4 7 2 8 1 9
REMARK H PARENT
REMARK Flexibility Score: inf
ROOT
ATOM      1  C   UNL     1      -4.202  13.525 -30.047  1.00  0.00     0.008 C 
ENDROOT
BRANCH   1   2
ATOM      2  C   UNL     1      -5.397  14.492 -29.934  1.00  0.00     0.000 C 
BRANCH   2   3
ATOM      3  C   UNL     1      -6.150  14.387 -28.589  1.00  0.00    -0.003 C 
ATOM      4  C   UNL     1      -7.543  15.010 -28.651  1.00  0.00     0.004 C 
ENDBRANCH   2   3
ENDBRANCH   1   2
BRANCH   1   5
ATOM      5  C   UNL     1      -4.068  12.554 -28.863  1.00  0.00     0.080 C 
BRANCH   5   6
ATOM      6  C   UNL     1      -2.742  12.681 -28.161  1.00  0.00     0.155 C 
ATOM      7  O   UNL     1      -2.303  11.708 -27.487  1.00  0.00    -0.295 OA
BRANCH   6   8
ATOM      8  C   UNL     1      -1.940  13.912 -28.301  1.00  0.00     0.039 C 
ATOM      9  C   UNL     1      -0.651  13.889 -28.632  1.00  0.00     0.012 C 
ENDBRANCH   6   8
ENDBRANCH   5   6
ENDBRANCH   1   5
TORSDOF 5
ENDMDL
MODEL 7
REMARK VINA RESULT:    -4.541      2.414      4.855
REMARK INTER + INTRA:          -6.080
REMARK INTER:                  -5.980
REMARK INTRA:                  -0.101
REMARK UNBOUND:                -0.212
REMARK SMILES C=CC(=O)CCCCC
REMARK SMILES IDX 6 1 7 2 8 3 9 4 5 5 3 6 4 7 2 8 1 9
REMARK H PARENT
REMARK Flexibility Score: inf
ROOT
ATOM      1  C   UNL     1      -3.154  13.465 -29.652  1.00  0.00     0.008 C 
ENDROOT
BRANCH   1   2
ATOM      2  C   UNL     1      -2.710  12.905 -31.017  1.00  0.00     0.000 C 
BRANCH   2   3
ATOM      3  C   UNL     1      -1.286  13.340 -31.429  1.00  0.00    -0.003 C 
ATOM      4  C   UNL     1      -0.331  12.156 -31.561  1.00  0.00     0.004 C 
ENDBRANCH   2   3
ENDBRANCH   1   2
BRANCH   1   5
ATOM      5  C   UNL     1      -4.592  13.093 -29.260  1.00  0.00     0.080 C 
BRANCH   5   6
ATOM      6  C   UNL     1      -5.270  14.172 -28.458  1.00  0.00     0.155 C 
ATOM      7  O   UNL     1      -4.890  14.396 -27.275  1.00  0.00    -0.295 OA
BRANCH   6   8
ATOM      8  C   UNL     1      -6.332  14.997 -29.068  1.00  0.00     0.039 C 
ATOM      9  C   UNL     1      -7.587  14.984 -28.625  1.00  0.00     0.012 C 
ENDBRANCH   6   8
ENDBRANCH   5   6
ENDBRANCH   1   5
TORSDOF 5
ENDMDL
MODEL 8
REMARK VINA RESULT:    -4.515      2.736      5.152
REMARK INTER + INTRA:          -6.047
REMARK INTER:                  -5.969
REMARK INTRA:                  -0.078
REMARK UNBOUND:                -0.212
REMARK SMILES C=CC(=O)CCCCC
REMARK SMILES IDX 6 1 7 2 8 3 9 4 5 5 3 6 4 7 2 8 1 9
REMARK H PARENT
REMARK Flexibility Score: inf
ROOT
ATOM      1  C   UNL     1      -3.567  13.108 -30.420  1.00  0.00     0.008 C 
ENDROOT
BRANCH   1   2
ATOM      2  C   UNL     1      -2.074  12.818 -30.171  1.00  0.00     0.000 C 
BRANCH   2   3
ATOM      3  C   UNL     1      -1.162  13.230 -31.347  1.00  0.00    -0.003 C 
ATOM      4  C   UNL     1       0.081  12.349 -31.457  1.00  0.00     0.004 C 
ENDBRANCH   2   3
ENDBRANCH   1   2
BRANCH   1   5
ATOM      5  C   UNL     1      -4.351  13.488 -29.153  1.00  0.00     0.080 C 
BRANCH   5   6
ATOM      6  C   UNL     1      -5.506  14.408 -29.445  1.00  0.00     0.155 C 
ATOM      7  O   UNL     1      -5.634  14.894 -30.603  1.00  0.00    -0.295 OA
BRANCH   6   8
ATOM      8  C   UNL     1      -6.509  14.698 -28.401  1.00  0.00     0.039 C 
ATOM      9  C   UNL     1      -7.742  15.107 -28.691  1.00  0.00     0.012 C 
ENDBRANCH   6   8
ENDBRANCH   5   6
ENDBRANCH   1   5
TORSDOF 5
ENDMDL
MODEL 9
REMARK VINA RESULT:    -4.427      2.007      2.599
REMARK INTER + INTRA:          -5.933
REMARK INTER:                  -5.717
REMARK INTRA:                  -0.216
REMARK UNBOUND:                -0.212
REMARK SMILES C=CC(=O)CCCCC
REMARK SMILES IDX 6 1 7 2 8 3 9 4 5 5 3 6 4 7 2 8 1 9
REMARK H PARENT
REMARK Flexibility Score: inf
ROOT
ATOM      1  C   UNL     1      -4.536  13.891 -29.519  1.00  0.00     0.008 C 
ENDROOT
BRANCH   1   2
ATOM      2  C   UNL     1      -5.816  14.730 -29.694  1.00  0.00     0.000 C 
BRANCH   2   3
ATOM      3  C   UNL     1      -6.738  14.715 -28.455  1.00  0.00    -0.003 C 
ATOM      4  C   UNL     1      -8.109  15.325 -28.741  1.00  0.00     0.004 C 
ENDBRANCH   2   3
ENDBRANCH   1   2
BRANCH   1   5
ATOM      5  C   UNL     1      -4.723  12.638 -28.648  1.00  0.00     0.080 C 
BRANCH   5   6
ATOM      6  C   UNL     1      -3.974  11.447 -29.183  1.00  0.00     0.155 C 
ATOM      7  O   UNL     1      -3.471  10.617 -28.376  1.00  0.00    -0.295 OA
BRANCH   6   8
ATOM      8  C   UNL     1      -3.873  11.224 -30.639  1.00  0.00     0.039 C 
ATOM      9  C   UNL     1      -3.976  10.013 -31.184  1.00  0.00     0.012 C 
ENDBRANCH   6   8
ENDBRANCH   5   6
ENDBRANCH   1   5
TORSDOF 5
ENDMDL
