MODEL 1
REMARK VINA RESULT:    -4.859      0.000      0.000
REMARK INTER + INTRA:          -9.227
REMARK INTER:                  -8.552
REMARK INTRA:                  -0.675
REMARK UNBOUND:                -0.675
REMARK SMILES CCCCCCCCCCCCCCC(=O)[O-]
REMARK SMILES IDX 9 1 10 2 11 3 12 4 13 5 14 6 15 7 16 8 17 9 8 10 7 11 6 12
REMARK SMILES IDX 5 13 4 14 3 15 2 16 1 17
REMARK H PARENT
REMARK Flexibility Score: inf
ROOT
ATOM      1  C   UNL     1       1.624  20.134  32.459  1.00  0.00     0.000 C 
ENDROOT
BRANCH   1   2
ATOM      2  C   UNL     1       1.897  19.181  33.642  1.00  0.00     0.000 C 
BRANCH   2   3
ATOM      3  C   UNL     1       2.866  19.794  34.669  1.00  0.00     0.000 C 
BRANCH   3   4
ATOM      4  C   UNL     1       4.306  19.284  34.503  1.00  0.00     0.000 C 
BRANCH   4   5
ATOM      5  C   UNL     1       4.367  17.793  34.137  1.00  0.00     0.006 C 
BRANCH   5   6
ATOM      6  C   UNL     1       5.182  17.578  32.858  1.00  0.00     0.053 C 
BRANCH   6   7
ATOM      7  C   UNL     1       6.360  16.695  33.129  1.00  0.00     0.041 C 
ATOM      8  O   UNL     1       6.742  16.495  34.311  1.00  0.00    -0.550 OA
ATOM      9  O   UNL     1       7.005  16.054  32.079  1.00  0.00    -0.550 OA
ENDBRANCH   6   7
ENDBRANCH   5   6
ENDBRANCH   4   5
ENDBRANCH   3   4
ENDBRANCH   2   3
ENDBRANCH   1   2
BRANCH   1  10
ATOM     10  C   UNL     1       0.628  21.258  32.795  1.00  0.00     0.000 C 
BRANCH  10  11
ATOM     11  C   UNL     1      -0.517  21.365  31.774  1.00  0.00    -0.000 C 
BRANCH  11  12
ATOM     12  C   UNL     1      -0.482  20.236  30.730  1.00  0.00    -0.000 C 
BRANCH  12  13
ATOM     13  C   UNL     1      -1.651  20.318  29.733  1.00  0.00    -0.000 C 
BRANCH  13  14
ATOM     14  C   UNL     1      -1.641  19.145  28.730  1.00  0.00    -0.000 C 
BRANCH  14  15
ATOM     15  C   UNL     1      -2.740  19.241  27.659  1.00  0.00    -0.000 C 
BRANCH  15  16
ATOM     16  C   UNL     1      -2.720  20.574  26.899  1.00  0.00    -0.003 C 
ATOM     17  C   UNL     1      -1.396  20.771  26.166  1.00  0.00     0.004 C 
ENDBRANCH  15  16
ENDBRANCH  14  15
ENDBRANCH  13  14
ENDBRANCH  12  13
ENDBRANCH  11  12
ENDBRANCH  10  11
ENDBRANCH   1  10
TORSDOF 13
ENDMDL
MODEL 2
REMARK VINA RESULT:    -4.781     15.526     18.705
REMARK INTER + INTRA:          -9.088
REMARK INTER:                  -8.637
REMARK INTRA:                  -0.451
REMARK UNBOUND:                -0.675
REMARK SMILES CCCCCCCCCCCCCCC(=O)[O-]
REMARK SMILES IDX 9 1 10 2 11 3 12 4 13 5 14 6 15 7 16 8 17 9 8 10 7 11 6 12
REMARK SMILES IDX 5 13 4 14 3 15 2 16 1 17
REMARK H PARENT
REMARK Flexibility Score: inf
ROOT
ATOM      1  C   UNL     1       2.663   9.328  16.169  1.00  0.00     0.000 C 
ENDROOT
BRANCH   1   2
ATOM      2  C   UNL     1       1.683   8.353  15.482  1.00  0.00     0.000 C 
BRANCH   2   3
ATOM      3  C   UNL     1       0.317   8.310  16.190  1.00  0.00     0.000 C 
BRANCH   3   4
ATOM      4  C   UNL     1       0.065   9.545  17.069  1.00  0.00     0.000 C 
BRANCH   4   5
ATOM      5  C   UNL     1      -1.218   9.424  17.907  1.00  0.00     0.006 C 
BRANCH   5   6
ATOM      6  C   UNL     1      -1.282  10.524  18.969  1.00  0.00     0.053 C 
BRANCH   6   7
ATOM      7  C   UNL     1      -2.009  10.038  20.184  1.00  0.00     0.041 C 
ATOM      8  O   UNL     1      -3.255   9.867  20.149  1.00  0.00    -0.550 OA
ATOM      9  O   UNL     1      -1.303   9.727  21.339  1.00  0.00    -0.550 OA
ENDBRANCH   6   7
ENDBRANCH   5   6
ENDBRANCH   4   5
ENDBRANCH   3   4
ENDBRANCH   2   3
ENDBRANCH   1   2
BRANCH   1  10
ATOM     10  C   UNL     1       3.824   9.771  15.260  1.00  0.00     0.000 C 
BRANCH  10  11
ATOM     11  C   UNL     1       5.162   9.872  16.009  1.00  0.00    -0.000 C 
BRANCH  11  12
ATOM     12  C   UNL     1       6.372   9.660  15.085  1.00  0.00    -0.000 C 
BRANCH  12  13
ATOM     13  C   UNL     1       7.522  10.637  15.384  1.00  0.00    -0.000 C 
BRANCH  13  14
ATOM     14  C   UNL     1       7.588  11.016  16.879  1.00  0.00    -0.000 C 
BRANCH  14  15
ATOM     15  C   UNL     1       8.427  12.274  17.159  1.00  0.00    -0.000 C 
BRANCH  15  16
ATOM     16  C   UNL     1       9.135  12.230  18.520  1.00  0.00    -0.003 C 
ATOM     17  C   UNL     1       9.308  13.633  19.096  1.00  0.00     0.004 C 
ENDBRANCH  15  16
ENDBRANCH  14  15
ENDBRANCH  13  14
ENDBRANCH  12  13
ENDBRANCH  11  12
ENDBRANCH  10  11
ENDBRANCH   1  10
TORSDOF 13
ENDMDL
MODEL 3
REMARK VINA RESULT:    -4.780     15.047     17.343
REMARK INTER + INTRA:          -9.088
REMARK INTER:                  -8.507
REMARK INTRA:                  -0.581
REMARK UNBOUND:                -0.675
REMARK SMILES CCCCCCCCCCCCCCC(=O)[O-]
REMARK SMILES IDX 9 1 10 2 11 3 12 4 13 5 14 6 15 7 16 8 17 9 8 10 7 11 6 12
REMARK SMILES IDX 5 13 4 14 3 15 2 16 1 17
REMARK H PARENT
REMARK Flexibility Score: inf
ROOT
ATOM      1  C   UNL     1       4.117   9.387  16.340  1.00  0.00     0.000 C 
ENDROOT
BRANCH   1   2
ATOM      2  C   UNL     1       4.810   9.793  15.021  1.00  0.00     0.000 C 
BRANCH   2   3
ATOM      3  C   UNL     1       6.088  10.614  15.266  1.00  0.00     0.000 C 
BRANCH   3   4
ATOM      4  C   UNL     1       6.510  10.629  16.744  1.00  0.00     0.000 C 
BRANCH   4   5
ATOM      5  C   UNL     1       8.014  10.881  16.928  1.00  0.00     0.006 C 
BRANCH   5   6
ATOM      6  C   UNL     1       8.295  12.371  17.143  1.00  0.00     0.053 C 
BRANCH   6   7
ATOM      7  C   UNL     1       9.024  12.586  18.432  1.00  0.00     0.041 C 
ATOM      8  O   UNL     1       9.616  11.628  18.993  1.00  0.00    -0.550 OA
ATOM      9  O   UNL     1       9.088  13.857  18.991  1.00  0.00    -0.550 OA
ENDBRANCH   6   7
ENDBRANCH   5   6
ENDBRANCH   4   5
ENDBRANCH   3   4
ENDBRANCH   2   3
ENDBRANCH   1   2
BRANCH   1  10
ATOM     10  C   UNL     1       2.620   9.744  16.381  1.00  0.00     0.000 C 
BRANCH  10  11
ATOM     11  C   UNL     1       1.734   8.669  15.730  1.00  0.00    -0.000 C 
BRANCH  11  12
ATOM     12  C   UNL     1       0.344   8.580  16.380  1.00  0.00    -0.000 C 
BRANCH  12  13
ATOM     13  C   UNL     1       0.158   9.598  17.518  1.00  0.00    -0.000 C 
BRANCH  13  14
ATOM     14  C   UNL     1      -1.304   9.657  18.011  1.00  0.00    -0.000 C 
BRANCH  14  15
ATOM     15  C   UNL     1      -1.598  10.860  18.923  1.00  0.00    -0.000 C 
BRANCH  15  16
ATOM     16  C   UNL     1      -2.372  10.474  20.191  1.00  0.00    -0.003 C 
ATOM     17  C   UNL     1      -1.597   9.453  21.020  1.00  0.00     0.004 C 
ENDBRANCH  15  16
ENDBRANCH  14  15
ENDBRANCH  13  14
ENDBRANCH  12  13
ENDBRANCH  11  12
ENDBRANCH  10  11
ENDBRANCH   1  10
TORSDOF 13
ENDMDL
MODEL 4
REMARK VINA RESULT:    -4.594      4.395      8.451
REMARK INTER + INTRA:          -8.759
REMARK INTER:                  -8.058
REMARK INTRA:                  -0.702
REMARK UNBOUND:                -0.675
REMARK SMILES CCCCCCCCCCCCCCC(=O)[O-]
REMARK SMILES IDX 9 1 10 2 11 3 12 4 13 5 14 6 15 7 16 8 17 9 8 10 7 11 6 12
REMARK SMILES IDX 5 13 4 14 3 15 2 16 1 17
REMARK H PARENT
REMARK Flexibility Score: inf
ROOT
ATOM      1  C   UNL     1       0.484  21.717  33.432  1.00  0.00     0.000 C 
ENDROOT
BRANCH   1   2
ATOM      2  C   UNL     1      -0.487  21.843  32.238  1.00  0.00     0.000 C 
BRANCH   2   3
ATOM      3  C   UNL     1      -0.448  20.604  31.326  1.00  0.00     0.000 C 
BRANCH   3   4
ATOM      4  C   UNL     1      -1.241  20.801  30.024  1.00  0.00     0.000 C 
BRANCH   4   5
ATOM      5  C   UNL     1      -1.542  19.475  29.308  1.00  0.00     0.006 C 
BRANCH   5   6
ATOM      6  C   UNL     1      -1.655  19.685  27.795  1.00  0.00     0.053 C 
BRANCH   6   7
ATOM      7  C   UNL     1      -3.087  19.630  27.365  1.00  0.00     0.041 C 
ATOM      8  O   UNL     1      -3.488  18.703  26.614  1.00  0.00    -0.550 OA
ATOM      9  O   UNL     1      -3.990  20.577  27.831  1.00  0.00    -0.550 OA
ENDBRANCH   6   7
ENDBRANCH   5   6
ENDBRANCH   4   5
ENDBRANCH   3   4
ENDBRANCH   2   3
ENDBRANCH   1   2
BRANCH   1  10
ATOM     10  C   UNL     1       1.625  20.713  33.192  1.00  0.00     0.000 C 
BRANCH  10  11
ATOM     11  C   UNL     1       1.906  19.826  34.416  1.00  0.00    -0.000 C 
BRANCH  11  12
ATOM     12  C   UNL     1       1.961  18.332  34.060  1.00  0.00    -0.000 C 
BRANCH  12  13
ATOM     13  C   UNL     1       3.194  17.629  34.654  1.00  0.00    -0.000 C 
BRANCH  13  14
ATOM     14  C   UNL     1       4.505  18.370  34.315  1.00  0.00    -0.000 C 
BRANCH  14  15
ATOM     15  C   UNL     1       5.028  18.081  32.899  1.00  0.00    -0.000 C 
BRANCH  15  16
ATOM     16  C   UNL     1       5.967  16.868  32.844  1.00  0.00    -0.003 C 
ATOM     17  C   UNL     1       6.613  16.609  34.202  1.00  0.00     0.004 C 
ENDBRANCH  15  16
ENDBRANCH  14  15
ENDBRANCH  13  14
ENDBRANCH  12  13
ENDBRANCH  11  12
ENDBRANCH  10  11
ENDBRANCH   1  10
TORSDOF 13
ENDMDL
MODEL 5
REMARK VINA RESULT:    -4.497      0.882      1.683
REMARK INTER + INTRA:          -8.590
REMARK INTER:                  -8.064
REMARK INTRA:                  -0.526
REMARK UNBOUND:                -0.675
REMARK SMILES CCCCCCCCCCCCCCC(=O)[O-]
REMARK SMILES IDX 9 1 10 2 11 3 12 4 13 5 14 6 15 7 16 8 17 9 8 10 7 11 6 12
REMARK SMILES IDX 5 13 4 14 3 15 2 16 1 17
REMARK H PARENT
REMARK Flexibility Score: inf
ROOT
ATOM      1  C   UNL     1       0.620  21.487  32.891  1.00  0.00     0.000 C 
ENDROOT
BRANCH   1   2
ATOM      2  C   UNL     1       0.275  20.428  33.960  1.00  0.00     0.000 C 
BRANCH   2   3
ATOM      3  C   UNL     1       1.533  19.772  34.555  1.00  0.00     0.000 C 
BRANCH   3   4
ATOM      4  C   UNL     1       2.143  18.710  33.627  1.00  0.00     0.000 C 
BRANCH   4   5
ATOM      5  C   UNL     1       3.680  18.709  33.658  1.00  0.00     0.006 C 
BRANCH   5   6
ATOM      6  C   UNL     1       4.210  17.479  34.401  1.00  0.00     0.053 C 
BRANCH   6   7
ATOM      7  C   UNL     1       5.440  16.952  33.731  1.00  0.00     0.041 C 
ATOM      8  O   UNL     1       5.544  16.990  32.478  1.00  0.00    -0.550 OA
ATOM      9  O   UNL     1       6.492  16.462  34.495  1.00  0.00    -0.550 OA
ENDBRANCH   6   7
ENDBRANCH   5   6
ENDBRANCH   4   5
ENDBRANCH   3   4
ENDBRANCH   2   3
ENDBRANCH   1   2
BRANCH   1  10
ATOM     10  C   UNL     1      -0.414  21.570  31.754  1.00  0.00     0.000 C 
BRANCH  10  11
ATOM     11  C   UNL     1      -0.654  20.215  31.068  1.00  0.00    -0.000 C 
BRANCH  11  12
ATOM     12  C   UNL     1      -1.481  20.346  29.779  1.00  0.00    -0.000 C 
BRANCH  12  13
ATOM     13  C   UNL     1      -1.636  19.006  29.038  1.00  0.00    -0.000 C 
BRANCH  13  14
ATOM     14  C   UNL     1      -2.672  19.091  27.897  1.00  0.00    -0.000 C 
BRANCH  14  15
ATOM     15  C   UNL     1      -2.562  20.375  27.059  1.00  0.00    -0.000 C 
BRANCH  15  16
ATOM     16  C   UNL     1      -1.183  20.549  26.409  1.00  0.00    -0.003 C 
ATOM     17  C   UNL     1      -1.135  21.806  25.545  1.00  0.00     0.004 C 
ENDBRANCH  15  16
ENDBRANCH  14  15
ENDBRANCH  13  14
ENDBRANCH  12  13
ENDBRANCH  11  12
ENDBRANCH  10  11
ENDBRANCH   1  10
TORSDOF 13
ENDMDL
MODEL 6
REMARK VINA RESULT:    -4.448      4.043      8.343
REMARK INTER + INTRA:          -8.502
REMARK INTER:                  -7.510
REMARK INTRA:                  -0.993
REMARK UNBOUND:                -0.675
REMARK SMILES CCCCCCCCCCCCCCC(=O)[O-]
REMARK SMILES IDX 9 1 10 2 11 3 12 4 13 5 14 6 15 7 16 8 17 9 8 10 7 11 6 12
REMARK SMILES IDX 5 13 4 14 3 15 2 16 1 17
REMARK H PARENT
REMARK Flexibility Score: inf
ROOT
ATOM      1  C   UNL     1       1.599  19.897  32.055  1.00  0.00     0.000 C 
ENDROOT
BRANCH   1   2
ATOM      2  C   UNL     1       0.761  21.055  32.638  1.00  0.00     0.000 C 
BRANCH   2   3
ATOM      3  C   UNL     1      -0.493  21.347  31.794  1.00  0.00     0.000 C 
BRANCH   3   4
ATOM      4  C   UNL     1      -0.893  20.164  30.899  1.00  0.00     0.000 C 
BRANCH   4   5
ATOM      5  C   UNL     1      -1.386  20.610  29.513  1.00  0.00     0.006 C 
BRANCH   5   6
ATOM      6  C   UNL     1      -1.932  19.421  28.718  1.00  0.00     0.053 C 
BRANCH   6   7
ATOM      7  C   UNL     1      -2.142  19.800  27.286  1.00  0.00     0.041 C 
ATOM      8  O   UNL     1      -1.347  20.593  26.718  1.00  0.00    -0.550 OA
ATOM      9  O   UNL     1      -3.188  19.239  26.564  1.00  0.00    -0.550 OA
ENDBRANCH   6   7
ENDBRANCH   5   6
ENDBRANCH   4   5
ENDBRANCH   3   4
ENDBRANCH   2   3
ENDBRANCH   1   2
BRANCH   1  10
ATOM     10  C   UNL     1       2.977  19.742  32.722  1.00  0.00     0.000 C 
BRANCH  10  11
ATOM     11  C   UNL     1       2.981  20.189  34.193  1.00  0.00    -0.000 C 
BRANCH  11  12
ATOM     12  C   UNL     1       3.644  19.158  35.121  1.00  0.00    -0.000 C 
BRANCH  12  13
ATOM     13  C   UNL     1       3.576  17.728  34.558  1.00  0.00    -0.000 C 
BRANCH  13  14
ATOM     14  C   UNL     1       4.978  17.113  34.364  1.00  0.00    -0.000 C 
BRANCH  14  15
ATOM     15  C   UNL     1       5.518  17.249  32.931  1.00  0.00    -0.000 C 
BRANCH  15  16
ATOM     16  C   UNL     1       6.889  17.936  32.871  1.00  0.00    -0.003 C 
ATOM     17  C   UNL     1       7.232  18.599  34.203  1.00  0.00     0.004 C 
ENDBRANCH  15  16
ENDBRANCH  14  15
ENDBRANCH  13  14
ENDBRANCH  12  13
ENDBRANCH  11  12
ENDBRANCH  10  11
ENDBRANCH   1  10
TORSDOF 13
ENDMDL
MODEL 7
REMARK VINA RESULT:    -4.425      3.058      4.541
REMARK INTER + INTRA:          -8.462
REMARK INTER:                  -7.672
REMARK INTRA:                  -0.790
REMARK UNBOUND:                -0.675
REMARK SMILES CCCCCCCCCCCCCCC(=O)[O-]
REMARK SMILES IDX 9 1 10 2 11 3 12 4 13 5 14 6 15 7 16 8 17 9 8 10 7 11 6 12
REMARK SMILES IDX 5 13 4 14 3 15 2 16 1 17
REMARK H PARENT
REMARK Flexibility Score: inf
ROOT
ATOM      1  C   UNL     1       3.472  19.519  34.253  1.00  0.00     0.000 C 
ENDROOT
BRANCH   1   2
ATOM      2  C   UNL     1       4.354  18.599  35.125  1.00  0.00     0.000 C 
BRANCH   2   3
ATOM      3  C   UNL     1       5.854  18.887  34.940  1.00  0.00     0.000 C 
BRANCH   3   4
ATOM      4  C   UNL     1       6.631  17.670  34.414  1.00  0.00     0.000 C 
BRANCH   4   5
ATOM      5  C   UNL     1       6.629  17.584  32.880  1.00  0.00     0.006 C 
BRANCH   5   6
ATOM      6  C   UNL     1       6.327  16.157  32.414  1.00  0.00     0.053 C 
BRANCH   6   7
ATOM      7  C   UNL     1       7.445  15.636  31.565  1.00  0.00     0.041 C 
ATOM      8  O   UNL     1       7.379  14.481  31.071  1.00  0.00    -0.550 OA
ATOM      9  O   UNL     1       8.537  16.446  31.281  1.00  0.00    -0.550 OA
ENDBRANCH   6   7
ENDBRANCH   5   6
ENDBRANCH   4   5
ENDBRANCH   3   4
ENDBRANCH   2   3
ENDBRANCH   1   2
BRANCH   1  10
ATOM     10  C   UNL     1       2.592  18.752  33.249  1.00  0.00     0.000 C 
BRANCH  10  11
ATOM     11  C   UNL     1       1.984  19.665  32.171  1.00  0.00    -0.000 C 
BRANCH  11  12
ATOM     12  C   UNL     1       1.365  20.942  32.762  1.00  0.00    -0.000 C 
BRANCH  12  13
ATOM     13  C   UNL     1       0.057  21.344  32.059  1.00  0.00    -0.000 C 
BRANCH  13  14
ATOM     14  C   UNL     1      -0.738  22.394  32.865  1.00  0.00    -0.000 C 
BRANCH  14  15
ATOM     15  C   UNL     1      -0.103  22.738  34.222  1.00  0.00    -0.000 C 
BRANCH  15  16
ATOM     16  C   UNL     1      -0.858  23.843  34.973  1.00  0.00    -0.003 C 
ATOM     17  C   UNL     1      -1.964  24.440  34.107  1.00  0.00     0.004 C 
ENDBRANCH  15  16
ENDBRANCH  14  15
ENDBRANCH  13  14
ENDBRANCH  12  13
ENDBRANCH  11  12
ENDBRANCH  10  11
ENDBRANCH   1  10
TORSDOF 13
ENDMDL
MODEL 8
REMARK VINA RESULT:    -4.408      4.067      8.505
REMARK INTER + INTRA:          -8.433
REMARK INTER:                  -7.791
REMARK INTRA:                  -0.642
REMARK UNBOUND:                -0.675
REMARK SMILES CCCCCCCCCCCCCCC(=O)[O-]
REMARK SMILES IDX 9 1 10 2 11 3 12 4 13 5 14 6 15 7 16 8 17 9 8 10 7 11 6 12
REMARK SMILES IDX 5 13 4 14 3 15 2 16 1 17
REMARK H PARENT
REMARK Flexibility Score: inf
ROOT
ATOM      1  C   UNL     1       1.624  20.115  32.405  1.00  0.00     0.000 C 
ENDROOT
BRANCH   1   2
ATOM      2  C   UNL     1       0.647  21.250  32.781  1.00  0.00     0.000 C 
BRANCH   2   3
ATOM      3  C   UNL     1      -0.538  21.343  31.804  1.00  0.00     0.000 C 
BRANCH   3   4
ATOM      4  C   UNL     1      -0.512  20.241  30.733  1.00  0.00     0.000 C 
BRANCH   4   5
ATOM      5  C   UNL     1      -1.650  20.382  29.711  1.00  0.00     0.006 C 
BRANCH   5   6
ATOM      6  C   UNL     1      -1.504  19.354  28.585  1.00  0.00     0.053 C 
BRANCH   6   7
ATOM      7  C   UNL     1      -2.035  19.906  27.299  1.00  0.00     0.041 C 
ATOM      8  O   UNL     1      -1.283  20.563  26.534  1.00  0.00    -0.550 OA
ATOM      9  O   UNL     1      -3.349  19.654  26.924  1.00  0.00    -0.550 OA
ENDBRANCH   6   7
ENDBRANCH   5   6
ENDBRANCH   4   5
ENDBRANCH   3   4
ENDBRANCH   2   3
ENDBRANCH   1   2
BRANCH   1  10
ATOM     10  C   UNL     1       1.933  19.161  33.572  1.00  0.00     0.000 C 
BRANCH  10  11
ATOM     11  C   UNL     1       3.434  18.859  33.714  1.00  0.00    -0.000 C 
BRANCH  11  12
ATOM     12  C   UNL     1       3.745  17.981  34.937  1.00  0.00    -0.000 C 
BRANCH  12  13
ATOM     13  C   UNL     1       5.086  17.238  34.803  1.00  0.00    -0.000 C 
BRANCH  13  14
ATOM     14  C   UNL     1       6.226  18.174  34.346  1.00  0.00    -0.000 C 
BRANCH  14  15
ATOM     15  C   UNL     1       6.845  17.776  32.996  1.00  0.00    -0.000 C 
BRANCH  15  16
ATOM     16  C   UNL     1       6.247  16.485  32.421  1.00  0.00    -0.003 C 
ATOM     17  C   UNL     1       7.312  15.651  31.715  1.00  0.00     0.004 C 
ENDBRANCH  15  16
ENDBRANCH  14  15
ENDBRANCH  13  14
ENDBRANCH  12  13
ENDBRANCH  11  12
ENDBRANCH  10  11
ENDBRANCH   1  10
TORSDOF 13
ENDMDL
MODEL 9
REMARK VINA RESULT:    -4.009      1.329      2.504
REMARK INTER + INTRA:          -7.729
REMARK INTER:                  -6.799
REMARK INTRA:                  -0.930
REMARK UNBOUND:                -0.675
REMARK SMILES CCCCCCCCCCCCCCC(=O)[O-]
REMARK SMILES IDX 9 1 10 2 11 3 12 4 13 5 14 6 15 7 16 8 17 9 8 10 7 11 6 12
REMARK SMILES IDX 5 13 4 14 3 15 2 16 1 17
REMARK H PARENT
REMARK Flexibility Score: inf
ROOT
ATOM      1  C   UNL     1       2.492  20.276  33.427  1.00  0.00     0.000 C 
ENDROOT
BRANCH   1   2
ATOM      2  C   UNL     1       2.213  18.765  33.275  1.00  0.00     0.000 C 
BRANCH   2   3
ATOM      3  C   UNL     1       2.154  18.047  34.635  1.00  0.00     0.000 C 
BRANCH   3   4
ATOM      4  C   UNL     1       3.531  17.549  35.103  1.00  0.00     0.000 C 
BRANCH   4   5
ATOM      5  C   UNL     1       4.481  17.252  33.932  1.00  0.00     0.006 C 
BRANCH   5   6
ATOM      6  C   UNL     1       5.891  17.770  34.229  1.00  0.00     0.053 C 
BRANCH   6   7
ATOM      7  C   UNL     1       6.818  17.440  33.100  1.00  0.00     0.041 C 
ATOM      8  O   UNL     1       7.604  18.314  32.651  1.00  0.00    -0.550 OA
ATOM      9  O   UNL     1       6.847  16.153  32.578  1.00  0.00    -0.550 OA
ENDBRANCH   6   7
ENDBRANCH   5   6
ENDBRANCH   4   5
ENDBRANCH   3   4
ENDBRANCH   2   3
ENDBRANCH   1   2
BRANCH   1  10
ATOM     10  C   UNL     1       1.891  20.886  34.706  1.00  0.00     0.000 C 
BRANCH  10  11
ATOM     11  C   UNL     1       0.402  21.240  34.554  1.00  0.00    -0.000 C 
BRANCH  11  12
ATOM     12  C   UNL     1       0.182  22.515  33.724  1.00  0.00    -0.000 C 
BRANCH  12  13
ATOM     13  C   UNL     1      -0.778  22.293  32.543  1.00  0.00    -0.000 C 
BRANCH  13  14
ATOM     14  C   UNL     1      -0.508  20.956  31.819  1.00  0.00    -0.000 C 
BRANCH  14  15
ATOM     15  C   UNL     1      -0.855  20.984  30.322  1.00  0.00    -0.000 C 
BRANCH  15  16
ATOM     16  C   UNL     1      -1.334  19.626  29.793  1.00  0.00    -0.003 C 
ATOM     17  C   UNL     1      -1.892  19.751  28.378  1.00  0.00     0.004 C 
ENDBRANCH  15  16
ENDBRANCH  14  15
ENDBRANCH  13  14
ENDBRANCH  12  13
ENDBRANCH  11  12
ENDBRANCH  10  11
ENDBRANCH   1  10
TORSDOF 13
ENDMDL
