MODEL 1
REMARK VINA RESULT:    62.070      0.000      0.000
REMARK INTER + INTRA:          67.230
REMARK INTER:                  67.513
REMARK INTRA:                  -0.283
REMARK UNBOUND:                -0.283
REMARK SMILES C[C@@H]1[C@@H](C)CC[C@@]2(C(=O)[O-])CC[C@@]3(C)C(=CC[C@@H]4[C@@]5(C)CC[C@H](O)C(C)(C)[C@H]5CC[C@@]43C)[C@@H]12
REMARK SMILES IDX 7 1 6 2 11 3 33 4 5 5 12 6 15 7 2 8 3 9 13 10 16 11 1 12
REMARK SMILES IDX 4 13 14 14 31 15 17 16 18 17 30 18 32 19 19 20 29 21 28 22
REMARK SMILES IDX 21 23 20 24 25 25 22 26 23 27 26 28 27 29 8 30 9 31 10 32
REMARK SMILES IDX 24 33
REMARK H PARENT 24 34
REMARK Flexibility Score: inf
ROOT
ATOM      1  C   UNL     1      -0.791 -20.221 -11.740  1.00  0.00     0.017 C 
ATOM      2  C   UNL     1      -2.096 -19.619 -11.161  1.00  0.00     0.014 C 
ATOM      3  C   UNL     1      -0.964 -21.777 -11.940  1.00  0.00     0.014 C 
ATOM      4  C   UNL     1      -0.368 -19.490 -13.086  1.00  0.00     0.030 C 
ATOM      5  C   UNL     1      -2.029 -18.091 -10.981  1.00  0.00     0.004 C 
ATOM      6  C   UNL     1      -1.623 -22.309 -13.254  1.00  0.00     0.013 C 
ATOM      7  C   UNL     1      -0.236 -20.512 -14.234  1.00  0.00    -0.063 C 
ATOM      8  C   UNL     1      -1.196 -18.204 -13.417  1.00  0.00    -0.003 C 
ATOM      9  C   UNL     1      -1.328 -17.327 -12.143  1.00  0.00    -0.011 C 
ATOM     10  C   UNL     1      -1.404 -21.455 -14.564  1.00  0.00    -0.006 C 
ATOM     11  C   UNL     1       1.014 -20.989 -14.421  1.00  0.00    -0.027 C 
ATOM     12  C   UNL     1      -0.555 -17.436 -14.591  1.00  0.00     0.008 C 
ATOM     13  C   UNL     1      -2.067 -16.001 -12.411  1.00  0.00     0.008 C 
ATOM     14  C   UNL     1      -2.726 -20.659 -14.789  1.00  0.00     0.017 C 
ATOM     15  C   UNL     1      -1.085 -22.327 -15.921  1.00  0.00    -0.020 C 
ATOM     16  C   UNL     1       1.247 -22.420 -14.794  1.00  0.00     0.032 C 
ATOM     17  C   UNL     1       0.439 -22.802 -16.045  1.00  0.00     0.006 C 
ATOM     18  C   UNL     1      -1.436 -21.493 -17.193  1.00  0.00     0.008 C 
ATOM     19  C   UNL     1      -2.007 -23.598 -15.946  1.00  0.00     0.012 C 
ATOM     20  C   UNL     1       1.271 -22.499 -17.394  1.00  0.00    -0.025 C 
ATOM     21  C   UNL     1      -1.119 -22.197 -18.506  1.00  0.00     0.005 C 
ATOM     22  C   UNL     1       0.373 -22.549 -18.706  1.00  0.00     0.003 C 
ATOM     23  C   UNL     1       2.471 -23.530 -17.446  1.00  0.00     0.010 C 
ATOM     24  C   UNL     1       1.934 -21.080 -17.346  1.00  0.00     0.012 C 
ATOM     25  C   UNL     1       0.599 -23.788 -19.650  1.00  0.00    -0.006 C 
ATOM     26  C   UNL     1       3.045 -23.947 -18.811  1.00  0.00     0.033 C 
ATOM     27  C   UNL     1       2.107 -23.844 -20.026  1.00  0.00     0.120 C 
ATOM     28  C   UNL     1       0.138 -25.124 -19.011  1.00  0.00     0.014 C 
ATOM     29  C   UNL     1      -0.201 -23.622 -20.976  1.00  0.00     0.014 C 
ENDROOT
BRANCH   1  30
ATOM     30  C   UNL     1       0.274 -20.034 -10.648  1.00  0.00     0.048 C 
ATOM     31  O   UNL     1       0.079 -20.502  -9.495  1.00  0.00    -0.550 OA
ATOM     32  O   UNL     1       1.406 -19.251 -10.858  1.00  0.00    -0.550 OA
ENDBRANCH   1  30
BRANCH  27  33
ATOM     33  O   UNL     1       2.455 -22.706 -20.782  1.00  0.00    -0.393 OA
ATOM     34  H   UNL     1       3.388 -22.836 -21.096  1.00  0.00     0.210 HD
ENDBRANCH  27  33
TORSDOF 2
ENDMDL
