MODEL 1
REMARK VINA RESULT:    -4.723      0.000      0.000
REMARK INTER + INTRA:          -6.367
REMARK INTER:                  -6.380
REMARK INTRA:                   0.014
REMARK UNBOUND:                 0.014
REMARK SMILES [NH3+]CCCC[C@@H]([NH3+])C(=O)[O-]
REMARK SMILES IDX 4 1 3 2 2 3 1 4 5 8 6 9 7 10 8 14 9 15 10 16
REMARK H PARENT 1 5 1 6 1 7 7 11 7 12 7 13
REMARK Flexibility Score: inf
ROOT
ATOM      1  C   UNL     1     -18.034 -68.769   0.126  1.00  0.00     0.012 C 
ENDROOT
BRANCH   1   2
ATOM      2  C   UNL     1     -17.760 -67.265   0.280  1.00  0.00     0.061 C 
BRANCH   2   3
ATOM      3  C   UNL     1     -18.439 -66.666   1.524  1.00  0.00     0.258 C 
BRANCH   3   4
ATOM      4  N   UNL     1     -18.071 -65.264   1.732  1.00  0.00    -0.358 N 
ATOM      5  H   UNL     1     -18.754 -64.828   2.392  1.00  0.00     0.344 HD
ATOM      6  H   UNL     1     -17.117 -65.196   2.155  1.00  0.00     0.344 HD
ATOM      7  H   UNL     1     -18.098 -64.740   0.826  1.00  0.00     0.344 HD
ENDBRANCH   3   4
ENDBRANCH   2   3
ENDBRANCH   1   2
BRANCH   1   8
ATOM      8  C   UNL     1     -19.261 -69.190   0.950  1.00  0.00     0.072 C 
BRANCH   8   9
ATOM      9  C   UNL     1     -20.539 -69.285   0.089  1.00  0.00     0.227 C 
BRANCH   9  10
ATOM     10  N   UNL     1     -21.295 -68.027   0.149  1.00  0.00    -0.350 N 
ATOM     11  H   UNL     1     -21.970 -68.058   0.947  1.00  0.00     0.345 HD
ATOM     12  H   UNL     1     -20.649 -67.214   0.278  1.00  0.00     0.345 HD
ATOM     13  H   UNL     1     -21.840 -67.898  -0.734  1.00  0.00     0.345 HD
ENDBRANCH   9  10
BRANCH   9  14
ATOM     14  C   UNL     1     -20.208 -69.622  -1.343  1.00  0.00     0.099 C 
ATOM     15  O   UNL     1     -20.079 -70.821  -1.705  1.00  0.00    -0.544 OA
ATOM     16  O   UNL     1     -20.053 -68.605  -2.276  1.00  0.00    -0.544 OA
ENDBRANCH   9  14
ENDBRANCH   8   9
ENDBRANCH   1   8
TORSDOF 7
ENDMDL
MODEL 2
REMARK VINA RESULT:    -4.681      1.220      1.810
REMARK INTER + INTRA:          -6.309
REMARK INTER:                  -5.806
REMARK INTRA:                  -0.504
REMARK UNBOUND:                 0.014
REMARK SMILES [NH3+]CCCC[C@@H]([NH3+])C(=O)[O-]
REMARK SMILES IDX 4 1 3 2 2 3 1 4 5 8 6 9 7 10 8 14 9 15 10 16
REMARK H PARENT 1 5 1 6 1 7 7 11 7 12 7 13
REMARK Flexibility Score: inf
ROOT
ATOM      1  C   UNL     1     -19.144 -67.669   1.619  1.00  0.00     0.012 C 
ENDROOT
BRANCH   1   2
ATOM      2  C   UNL     1     -18.023 -66.772   1.076  1.00  0.00     0.061 C 
BRANCH   2   3
ATOM      3  C   UNL     1     -17.322 -67.380  -0.151  1.00  0.00     0.258 C 
BRANCH   3   4
ATOM      4  N   UNL     1     -17.732 -66.732  -1.399  1.00  0.00    -0.358 N 
ATOM      5  H   UNL     1     -18.592 -66.166  -1.220  1.00  0.00     0.344 HD
ATOM      6  H   UNL     1     -16.982 -66.090  -1.740  1.00  0.00     0.344 HD
ATOM      7  H   UNL     1     -17.948 -67.450  -2.129  1.00  0.00     0.344 HD
ENDBRANCH   3   4
ENDBRANCH   2   3
ENDBRANCH   1   2
BRANCH   1   8
ATOM      8  C   UNL     1     -19.180 -69.013   0.874  1.00  0.00     0.072 C 
BRANCH   8   9
ATOM      9  C   UNL     1     -20.497 -69.215   0.093  1.00  0.00     0.227 C 
BRANCH   9  10
ATOM     10  N   UNL     1     -21.349 -68.024   0.208  1.00  0.00    -0.350 N 
ATOM     11  H   UNL     1     -21.824 -68.018   1.140  1.00  0.00     0.345 HD
ATOM     12  H   UNL     1     -20.781 -67.151   0.107  1.00  0.00     0.345 HD
ATOM     13  H   UNL     1     -22.087 -68.043  -0.534  1.00  0.00     0.345 HD
ENDBRANCH   9  10
BRANCH   9  14
ATOM     14  C   UNL     1     -20.229 -69.521  -1.358  1.00  0.00     0.099 C 
ATOM     15  O   UNL     1     -20.036 -68.590  -2.184  1.00  0.00    -0.544 OA
ATOM     16  O   UNL     1     -20.181 -70.840  -1.790  1.00  0.00    -0.544 OA
ENDBRANCH   9  14
ENDBRANCH   8   9
ENDBRANCH   1   8
TORSDOF 7
ENDMDL
MODEL 3
REMARK VINA RESULT:    -4.631      2.808      4.450
REMARK INTER + INTRA:          -6.242
REMARK INTER:                  -6.249
REMARK INTRA:                   0.008
REMARK UNBOUND:                 0.014
REMARK SMILES [NH3+]CCCC[C@@H]([NH3+])C(=O)[O-]
REMARK SMILES IDX 4 1 3 2 2 3 1 4 5 8 6 9 7 10 8 14 9 15 10 16
REMARK H PARENT 1 5 1 6 1 7 7 11 7 12 7 13
REMARK Flexibility Score: inf
ROOT
ATOM      1  C   UNL     1     -20.264 -68.456  -0.497  1.00  0.00     0.012 C 
ENDROOT
BRANCH   1   2
ATOM      2  C   UNL     1     -20.259 -69.355  -1.742  1.00  0.00     0.061 C 
BRANCH   2   3
ATOM      3  C   UNL     1     -20.024 -70.837  -1.399  1.00  0.00     0.258 C 
BRANCH   3   4
ATOM      4  N   UNL     1     -20.278 -71.716  -2.543  1.00  0.00    -0.358 N 
ATOM      5  H   UNL     1     -20.724 -71.158  -3.306  1.00  0.00     0.344 HD
ATOM      6  H   UNL     1     -19.380 -72.110  -2.906  1.00  0.00     0.344 HD
ATOM      7  H   UNL     1     -20.925 -72.492  -2.271  1.00  0.00     0.344 HD
ENDBRANCH   3   4
ENDBRANCH   2   3
ENDBRANCH   1   2
BRANCH   1   8
ATOM      8  C   UNL     1     -19.701 -69.203   0.722  1.00  0.00     0.072 C 
BRANCH   8   9
ATOM      9  C   UNL     1     -18.321 -68.661   1.154  1.00  0.00     0.227 C 
BRANCH   9  10
ATOM     10  N   UNL     1     -17.246 -69.508   0.621  1.00  0.00    -0.350 N 
ATOM     11  H   UNL     1     -16.688 -69.909   1.409  1.00  0.00     0.345 HD
ATOM     12  H   UNL     1     -17.641 -70.290   0.048  1.00  0.00     0.345 HD
ATOM     13  H   UNL     1     -16.604 -68.935   0.026  1.00  0.00     0.345 HD
ENDBRANCH   9  10
BRANCH   9  14
ATOM     14  C   UNL     1     -18.130 -67.236   0.701  1.00  0.00     0.099 C 
ATOM     15  O   UNL     1     -18.434 -66.277   1.460  1.00  0.00    -0.544 OA
ATOM     16  O   UNL     1     -17.603 -66.973  -0.557  1.00  0.00    -0.544 OA
ENDBRANCH   9  14
ENDBRANCH   8   9
ENDBRANCH   1   8
TORSDOF 7
ENDMDL
MODEL 4
REMARK VINA RESULT:    -3.795     11.784     12.892
REMARK INTER + INTRA:          -5.112
REMARK INTER:                  -5.030
REMARK INTRA:                  -0.082
REMARK UNBOUND:                 0.014
REMARK SMILES [NH3+]CCCC[C@@H]([NH3+])C(=O)[O-]
REMARK SMILES IDX 4 1 3 2 2 3 1 4 5 8 6 9 7 10 8 14 9 15 10 16
REMARK H PARENT 1 5 1 6 1 7 7 11 7 12 7 13
REMARK Flexibility Score: inf
ROOT
ATOM      1  C   UNL     1     -17.034 -65.878 -10.392  1.00  0.00     0.012 C 
ENDROOT
BRANCH   1   2
ATOM      2  C   UNL     1     -17.155 -67.236 -11.098  1.00  0.00     0.061 C 
BRANCH   2   3
ATOM      3  C   UNL     1     -18.537 -67.884 -10.901  1.00  0.00     0.258 C 
BRANCH   3   4
ATOM      4  N   UNL     1     -18.577 -69.262 -11.394  1.00  0.00    -0.358 N 
ATOM      5  H   UNL     1     -19.058 -69.862 -10.686  1.00  0.00     0.344 HD
ATOM      6  H   UNL     1     -19.116 -69.314 -12.288  1.00  0.00     0.344 HD
ATOM      7  H   UNL     1     -17.607 -69.627 -11.539  1.00  0.00     0.344 HD
ENDBRANCH   3   4
ENDBRANCH   2   3
ENDBRANCH   1   2
BRANCH   1   8
ATOM      8  C   UNL     1     -16.993 -64.730 -11.413  1.00  0.00     0.072 C 
BRANCH   8   9
ATOM      9  C   UNL     1     -15.843 -63.739 -11.132  1.00  0.00     0.227 C 
BRANCH   9  10
ATOM     10  N   UNL     1     -14.694 -64.026 -12.000  1.00  0.00    -0.350 N 
ATOM     11  H   UNL     1     -15.010 -64.564 -12.839  1.00  0.00     0.345 HD
ATOM     12  H   UNL     1     -14.236 -63.139 -12.313  1.00  0.00     0.345 HD
ATOM     13  H   UNL     1     -13.996 -64.610 -11.483  1.00  0.00     0.345 HD
ENDBRANCH   9  10
BRANCH   9  14
ATOM     14  C   UNL     1     -16.294 -62.313 -11.325  1.00  0.00     0.099 C 
ATOM     15  O   UNL     1     -16.175 -61.750 -12.445  1.00  0.00    -0.544 OA
ATOM     16  O   UNL     1     -16.855 -61.615 -10.264  1.00  0.00    -0.544 OA
ENDBRANCH   9  14
ENDBRANCH   8   9
ENDBRANCH   1   8
TORSDOF 7
ENDMDL
MODEL 5
REMARK VINA RESULT:    -3.778     11.764     12.729
REMARK INTER + INTRA:          -5.090
REMARK INTER:                  -5.023
REMARK INTRA:                  -0.067
REMARK UNBOUND:                 0.014
REMARK SMILES [NH3+]CCCC[C@@H]([NH3+])C(=O)[O-]
REMARK SMILES IDX 4 1 3 2 2 3 1 4 5 8 6 9 7 10 8 14 9 15 10 16
REMARK H PARENT 1 5 1 6 1 7 7 11 7 12 7 13
REMARK Flexibility Score: inf
ROOT
ATOM      1  C   UNL     1     -17.265 -65.907 -10.316  1.00  0.00     0.012 C 
ENDROOT
BRANCH   1   2
ATOM      2  C   UNL     1     -17.312 -67.244 -11.069  1.00  0.00     0.061 C 
BRANCH   2   3
ATOM      3  C   UNL     1     -18.666 -67.960 -10.915  1.00  0.00     0.258 C 
BRANCH   3   4
ATOM      4  N   UNL     1     -18.624 -69.334 -11.419  1.00  0.00    -0.358 N 
ATOM      5  H   UNL     1     -17.995 -69.370 -12.253  1.00  0.00     0.344 HD
ATOM      6  H   UNL     1     -18.240 -69.979 -10.691  1.00  0.00     0.344 HD
ATOM      7  H   UNL     1     -19.581 -69.647 -11.706  1.00  0.00     0.344 HD
ENDBRANCH   3   4
ENDBRANCH   2   3
ENDBRANCH   1   2
BRANCH   1   8
ATOM      8  C   UNL     1     -16.378 -64.892 -11.056  1.00  0.00     0.072 C 
BRANCH   8   9
ATOM      9  C   UNL     1     -16.917 -63.450 -10.939  1.00  0.00     0.227 C 
BRANCH   9  10
ATOM     10  N   UNL     1     -16.679 -62.920  -9.590  1.00  0.00    -0.350 N 
ATOM     11  H   UNL     1     -15.651 -62.833  -9.420  1.00  0.00     0.345 HD
ATOM     12  H   UNL     1     -17.126 -61.980  -9.477  1.00  0.00     0.345 HD
ATOM     13  H   UNL     1     -17.072 -63.576  -8.876  1.00  0.00     0.345 HD
ENDBRANCH   9  10
BRANCH   9  14
ATOM     14  C   UNL     1     -16.287 -62.547 -11.968  1.00  0.00     0.099 C 
ATOM     15  O   UNL     1     -15.818 -63.023 -13.036  1.00  0.00    -0.544 OA
ATOM     16  O   UNL     1     -16.231 -61.177 -11.747  1.00  0.00    -0.544 OA
ENDBRANCH   9  14
ENDBRANCH   8   9
ENDBRANCH   1   8
TORSDOF 7
ENDMDL
MODEL 6
REMARK VINA RESULT:    -3.650     11.512     12.049
REMARK INTER + INTRA:          -4.917
REMARK INTER:                  -4.845
REMARK INTRA:                  -0.072
REMARK UNBOUND:                 0.014
REMARK SMILES [NH3+]CCCC[C@@H]([NH3+])C(=O)[O-]
REMARK SMILES IDX 4 1 3 2 2 3 1 4 5 8 6 9 7 10 8 14 9 15 10 16
REMARK H PARENT 1 5 1 6 1 7 7 11 7 12 7 13
REMARK Flexibility Score: inf
ROOT
ATOM      1  C   UNL     1     -16.198 -61.644  -7.613  1.00  0.00     0.012 C 
ENDROOT
BRANCH   1   2
ATOM      2  C   UNL     1     -16.373 -60.335  -6.831  1.00  0.00     0.061 C 
BRANCH   2   3
ATOM      3  C   UNL     1     -15.175 -60.030  -5.915  1.00  0.00     0.258 C 
BRANCH   3   4
ATOM      4  N   UNL     1     -15.329 -58.757  -5.209  1.00  0.00    -0.358 N 
ATOM      5  H   UNL     1     -14.575 -58.675  -4.489  1.00  0.00     0.344 HD
ATOM      6  H   UNL     1     -15.235 -57.957  -5.875  1.00  0.00     0.344 HD
ATOM      7  H   UNL     1     -16.258 -58.715  -4.729  1.00  0.00     0.344 HD
ENDBRANCH   3   4
ENDBRANCH   2   3
ENDBRANCH   1   2
BRANCH   1   8
ATOM      8  C   UNL     1     -17.022 -61.623  -8.911  1.00  0.00     0.072 C 
BRANCH   8   9
ATOM      9  C   UNL     1     -16.271 -62.274 -10.092  1.00  0.00     0.227 C 
BRANCH   9  10
ATOM     10  N   UNL     1     -16.607 -63.700 -10.192  1.00  0.00    -0.350 N 
ATOM     11  H   UNL     1     -17.513 -63.885  -9.704  1.00  0.00     0.345 HD
ATOM     12  H   UNL     1     -16.692 -63.990 -11.194  1.00  0.00     0.345 HD
ATOM     13  H   UNL     1     -15.865 -64.273  -9.729  1.00  0.00     0.345 HD
ENDBRANCH   9  10
BRANCH   9  14
ATOM     14  C   UNL     1     -16.585 -61.575 -11.390  1.00  0.00     0.099 C 
ATOM     15  O   UNL     1     -17.280 -60.524 -11.399  1.00  0.00    -0.544 OA
ATOM     16  O   UNL     1     -16.098 -62.084 -12.587  1.00  0.00    -0.544 OA
ENDBRANCH   9  14
ENDBRANCH   8   9
ENDBRANCH   1   8
TORSDOF 7
ENDMDL
MODEL 7
REMARK VINA RESULT:    -3.631      2.089      3.849
REMARK INTER + INTRA:          -4.891
REMARK INTER:                  -4.470
REMARK INTRA:                  -0.421
REMARK UNBOUND:                 0.014
REMARK SMILES [NH3+]CCCC[C@@H]([NH3+])C(=O)[O-]
REMARK SMILES IDX 4 1 3 2 2 3 1 4 5 8 6 9 7 10 8 14 9 15 10 16
REMARK H PARENT 1 5 1 6 1 7 7 11 7 12 7 13
REMARK Flexibility Score: inf
ROOT
ATOM      1  C   UNL     1     -20.578 -68.340   0.497  1.00  0.00     0.012 C 
ENDROOT
BRANCH   1   2
ATOM      2  C   UNL     1     -20.120 -69.746   0.082  1.00  0.00     0.061 C 
BRANCH   2   3
ATOM      3  C   UNL     1     -20.208 -69.971  -1.438  1.00  0.00     0.258 C 
BRANCH   3   4
ATOM      4  N   UNL     1     -20.179 -68.711  -2.185  1.00  0.00    -0.358 N 
ATOM      5  H   UNL     1     -19.651 -68.858  -3.075  1.00  0.00     0.344 HD
ATOM      6  H   UNL     1     -21.150 -68.407  -2.425  1.00  0.00     0.344 HD
ATOM      7  H   UNL     1     -19.698 -67.967  -1.628  1.00  0.00     0.344 HD
ENDBRANCH   3   4
ENDBRANCH   2   3
ENDBRANCH   1   2
BRANCH   1   8
ATOM      8  C   UNL     1     -19.542 -67.675   1.418  1.00  0.00     0.072 C 
BRANCH   8   9
ATOM      9  C   UNL     1     -18.716 -66.595   0.686  1.00  0.00     0.227 C 
BRANCH   9  10
ATOM     10  N   UNL     1     -18.034 -65.726   1.654  1.00  0.00    -0.350 N 
ATOM     11  H   UNL     1     -18.442 -65.869   2.606  1.00  0.00     0.345 HD
ATOM     12  H   UNL     1     -17.010 -65.939   1.683  1.00  0.00     0.345 HD
ATOM     13  H   UNL     1     -18.171 -64.723   1.388  1.00  0.00     0.345 HD
ENDBRANCH   9  10
BRANCH   9  14
ATOM     14  C   UNL     1     -17.711 -67.218  -0.249  1.00  0.00     0.099 C 
ATOM     15  O   UNL     1     -16.916 -68.103   0.164  1.00  0.00    -0.544 OA
ATOM     16  O   UNL     1     -17.666 -66.824  -1.580  1.00  0.00    -0.544 OA
ENDBRANCH   9  14
ENDBRANCH   8   9
ENDBRANCH   1   8
TORSDOF 7
ENDMDL
MODEL 8
REMARK VINA RESULT:    -3.574      3.213      5.121
REMARK INTER + INTRA:          -4.814
REMARK INTER:                  -4.750
REMARK INTRA:                  -0.064
REMARK UNBOUND:                 0.014
REMARK SMILES [NH3+]CCCC[C@@H]([NH3+])C(=O)[O-]
REMARK SMILES IDX 4 1 3 2 2 3 1 4 5 8 6 9 7 10 8 14 9 15 10 16
REMARK H PARENT 1 5 1 6 1 7 7 11 7 12 7 13
REMARK Flexibility Score: inf
ROOT
ATOM      1  C   UNL     1     -20.553 -70.378  -1.554  1.00  0.00     0.012 C 
ENDROOT
BRANCH   1   2
ATOM      2  C   UNL     1     -19.975 -71.690  -2.105  1.00  0.00     0.061 C 
BRANCH   2   3
ATOM      3  C   UNL     1     -20.987 -72.465  -2.967  1.00  0.00     0.258 C 
BRANCH   3   4
ATOM      4  N   UNL     1     -20.362 -73.065  -4.147  1.00  0.00    -0.358 N 
ATOM      5  H   UNL     1     -19.449 -72.589  -4.326  1.00  0.00     0.344 HD
ATOM      6  H   UNL     1     -20.176 -74.081  -3.985  1.00  0.00     0.344 HD
ATOM      7  H   UNL     1     -20.975 -72.942  -4.987  1.00  0.00     0.344 HD
ENDBRANCH   3   4
ENDBRANCH   2   3
ENDBRANCH   1   2
BRANCH   1   8
ATOM      8  C   UNL     1     -19.818 -69.948  -0.275  1.00  0.00     0.072 C 
BRANCH   8   9
ATOM      9  C   UNL     1     -19.817 -68.416  -0.088  1.00  0.00     0.227 C 
BRANCH   9  10
ATOM     10  N   UNL     1     -21.177 -67.930   0.183  1.00  0.00    -0.350 N 
ATOM     11  H   UNL     1     -21.311 -66.991  -0.257  1.00  0.00     0.345 HD
ATOM     12  H   UNL     1     -21.889 -68.594  -0.201  1.00  0.00     0.345 HD
ATOM     13  H   UNL     1     -21.319 -67.830   1.215  1.00  0.00     0.345 HD
ENDBRANCH   9  10
BRANCH   9  14
ATOM     14  C   UNL     1     -18.889 -68.003   1.026  1.00  0.00     0.099 C 
ATOM     15  O   UNL     1     -19.093 -66.938   1.667  1.00  0.00    -0.544 OA
ATOM     16  O   UNL     1     -17.806 -68.806   1.358  1.00  0.00    -0.544 OA
ENDBRANCH   9  14
ENDBRANCH   8   9
ENDBRANCH   1   8
TORSDOF 7
ENDMDL
MODEL 9
REMARK VINA RESULT:    -3.556     11.491     12.196
REMARK INTER + INTRA:          -4.789
REMARK INTER:                  -4.695
REMARK INTRA:                  -0.094
REMARK UNBOUND:                 0.014
REMARK SMILES [NH3+]CCCC[C@@H]([NH3+])C(=O)[O-]
REMARK SMILES IDX 4 1 3 2 2 3 1 4 5 8 6 9 7 10 8 14 9 15 10 16
REMARK H PARENT 1 5 1 6 1 7 7 11 7 12 7 13
REMARK Flexibility Score: inf
ROOT
ATOM      1  C   UNL     1     -16.544 -61.750  -8.201  1.00  0.00     0.012 C 
ENDROOT
BRANCH   1   2
ATOM      2  C   UNL     1     -16.643 -60.542  -7.258  1.00  0.00     0.061 C 
BRANCH   2   3
ATOM      3  C   UNL     1     -15.513 -60.512  -6.215  1.00  0.00     0.258 C 
BRANCH   3   4
ATOM      4  N   UNL     1     -15.502 -59.266  -5.447  1.00  0.00    -0.358 N 
ATOM      5  H   UNL     1     -16.439 -58.811  -5.526  1.00  0.00     0.344 HD
ATOM      6  H   UNL     1     -15.317 -59.462  -4.437  1.00  0.00     0.344 HD
ATOM      7  H   UNL     1     -14.778 -58.611  -5.823  1.00  0.00     0.344 HD
ENDBRANCH   3   4
ENDBRANCH   2   3
ENDBRANCH   1   2
BRANCH   1   8
ATOM      8  C   UNL     1     -16.098 -61.315  -9.606  1.00  0.00     0.072 C 
BRANCH   8   9
ATOM      9  C   UNL     1     -17.059 -61.817 -10.706  1.00  0.00     0.227 C 
BRANCH   9  10
ATOM     10  N   UNL     1     -17.596 -60.687 -11.474  1.00  0.00    -0.350 N 
ATOM     11  H   UNL     1     -18.517 -60.951 -11.895  1.00  0.00     0.345 HD
ATOM     12  H   UNL     1     -17.728 -59.851 -10.859  1.00  0.00     0.345 HD
ATOM     13  H   UNL     1     -16.940 -60.443 -12.252  1.00  0.00     0.345 HD
ENDBRANCH   9  10
BRANCH   9  14
ATOM     14  C   UNL     1     -16.370 -62.790 -11.629  1.00  0.00     0.099 C 
ATOM     15  O   UNL     1     -15.952 -62.416 -12.756  1.00  0.00    -0.544 OA
ATOM     16  O   UNL     1     -16.183 -64.108 -11.232  1.00  0.00    -0.544 OA
ENDBRANCH   9  14
ENDBRANCH   8   9
ENDBRANCH   1   8
TORSDOF 7
ENDMDL
