MODEL 1
REMARK VINA RESULT:    -5.646      0.000      0.000
REMARK INTER + INTRA:          -6.517
REMARK INTER:                  -6.471
REMARK INTRA:                  -0.046
REMARK UNBOUND:                -0.046
REMARK SMILES O=C([O-])c1cc(O)c(O)c(O)c1
REMARK SMILES IDX 4 1 5 2 12 3 6 4 10 5 8 6 2 7 1 8 3 9 7 10 11 12 9 14
REMARK H PARENT 7 11 11 13 9 15
REMARK Flexibility Score: inf
ROOT
ATOM      1  C   UNL     1      -7.280 -10.143  28.415  1.00  0.00     0.005 A 
ATOM      2  C   UNL     1      -8.646 -10.091  28.099  1.00  0.00     0.060 A 
ATOM      3  C   UNL     1      -6.798  -9.369  29.483  1.00  0.00     0.060 A 
ATOM      4  C   UNL     1      -9.517  -9.280  28.837  1.00  0.00     0.162 A 
ATOM      5  C   UNL     1      -7.657  -8.554  30.228  1.00  0.00     0.162 A 
ATOM      6  C   UNL     1      -9.034  -8.508  29.903  1.00  0.00     0.200 A 
ENDROOT
BRANCH   1   7
ATOM      7  C   UNL     1      -6.365 -11.003  27.630  1.00  0.00     0.072 C 
ATOM      8  O   UNL     1      -6.227 -10.826  26.390  1.00  0.00    -0.545 OA
ATOM      9  O   UNL     1      -5.644 -12.016  28.251  1.00  0.00    -0.545 OA
ENDBRANCH   1   7
BRANCH   4  10
ATOM     10  O   UNL     1     -10.873  -9.234  28.516  1.00  0.00    -0.504 OA
ATOM     11  H   UNL     1     -11.590  -9.407  29.210  1.00  0.00     0.293 HD
ENDBRANCH   4  10
BRANCH   5  12
ATOM     12  O   UNL     1      -7.104  -7.814  31.276  1.00  0.00    -0.504 OA
ATOM     13  H   UNL     1      -7.648  -7.361  31.996  1.00  0.00     0.293 HD
ENDBRANCH   5  12
BRANCH   6  14
ATOM     14  O   UNL     1      -9.945  -7.716  30.606  1.00  0.00    -0.502 OA
ATOM     15  H   UNL     1      -9.695  -6.879  31.111  1.00  0.00     0.293 HD
ENDBRANCH   6  14
TORSDOF 4
ENDMDL
MODEL 2
REMARK VINA RESULT:    -5.573      0.102      2.610
REMARK INTER + INTRA:          -6.434
REMARK INTER:                  -6.387
REMARK INTRA:                  -0.046
REMARK UNBOUND:                -0.046
REMARK SMILES O=C([O-])c1cc(O)c(O)c(O)c1
REMARK SMILES IDX 4 1 5 2 12 3 6 4 10 5 8 6 2 7 1 8 3 9 7 10 11 12 9 14
REMARK H PARENT 7 11 11 13 9 15
REMARK Flexibility Score: inf
ROOT
ATOM      1  C   UNL     1      -7.293 -10.126  28.360  1.00  0.00     0.005 A 
ATOM      2  C   UNL     1      -6.807  -9.370  29.437  1.00  0.00     0.060 A 
ATOM      3  C   UNL     1      -8.661 -10.063  28.045  1.00  0.00     0.060 A 
ATOM      4  C   UNL     1      -7.671  -8.564  30.188  1.00  0.00     0.162 A 
ATOM      5  C   UNL     1      -9.535  -9.262  28.788  1.00  0.00     0.162 A 
ATOM      6  C   UNL     1      -9.036  -8.502  29.873  1.00  0.00     0.200 A 
ENDROOT
BRANCH   1   7
ATOM      7  C   UNL     1      -6.374 -10.976  27.570  1.00  0.00     0.072 C 
ATOM      8  O   UNL     1      -5.744 -11.919  28.118  1.00  0.00    -0.545 OA
ATOM      9  O   UNL     1      -6.194 -10.747  26.210  1.00  0.00    -0.545 OA
ENDBRANCH   1   7
BRANCH   4  10
ATOM     10  O   UNL     1      -7.179  -7.816  31.257  1.00  0.00    -0.504 OA
ATOM     11  H   UNL     1      -7.568  -7.900  32.188  1.00  0.00     0.293 HD
ENDBRANCH   4  10
BRANCH   5  12
ATOM     12  O   UNL     1     -10.881  -9.251  28.415  1.00  0.00    -0.504 OA
ATOM     13  H   UNL     1     -11.317  -8.503  27.895  1.00  0.00     0.293 HD
ENDBRANCH   5  12
BRANCH   6  14
ATOM     14  O   UNL     1      -9.854  -7.683  30.654  1.00  0.00    -0.502 OA
ATOM     15  H   UNL     1      -9.564  -6.797  31.042  1.00  0.00     0.293 HD
ENDBRANCH   6  14
TORSDOF 4
ENDMDL
MODEL 3
REMARK VINA RESULT:    -5.190      1.426      3.281
REMARK INTER + INTRA:          -5.995
REMARK INTER:                  -5.943
REMARK INTRA:                  -0.052
REMARK UNBOUND:                -0.046
REMARK SMILES O=C([O-])c1cc(O)c(O)c(O)c1
REMARK SMILES IDX 4 1 5 2 12 3 6 4 10 5 8 6 2 7 1 8 3 9 7 10 11 12 9 14
REMARK H PARENT 7 11 11 13 9 15
REMARK Flexibility Score: inf
ROOT
ATOM      1  C   UNL     1      -6.859  -9.181  30.146  1.00  0.00     0.005 A 
ATOM      2  C   UNL     1      -7.953  -8.472  30.663  1.00  0.00     0.060 A 
ATOM      3  C   UNL     1      -7.024  -9.922  28.964  1.00  0.00     0.060 A 
ATOM      4  C   UNL     1      -9.192  -8.501  30.011  1.00  0.00     0.162 A 
ATOM      5  C   UNL     1      -8.257  -9.960  28.303  1.00  0.00     0.162 A 
ATOM      6  C   UNL     1      -9.356  -9.241  28.832  1.00  0.00     0.200 A 
ENDROOT
BRANCH   1   7
ATOM      7  C   UNL     1      -5.551  -9.147  30.840  1.00  0.00     0.072 C 
ATOM      8  O   UNL     1      -4.693 -10.047  30.634  1.00  0.00    -0.545 OA
ATOM      9  O   UNL     1      -5.251  -8.120  31.727  1.00  0.00    -0.545 OA
ENDBRANCH   1   7
BRANCH   4  10
ATOM     10  O   UNL     1     -10.274  -7.793  30.533  1.00  0.00    -0.504 OA
ATOM     11  H   UNL     1     -10.478  -6.844  30.243  1.00  0.00     0.293 HD
ENDBRANCH   4  10
BRANCH   5  12
ATOM     12  O   UNL     1      -8.344 -10.718  27.133  1.00  0.00    -0.504 OA
ATOM     13  H   UNL     1      -8.859 -10.434  26.313  1.00  0.00     0.293 HD
ENDBRANCH   5  12
BRANCH   6  14
ATOM     14  O   UNL     1     -10.612  -9.236  28.223  1.00  0.00    -0.502 OA
ATOM     15  H   UNL     1     -10.876  -9.847  27.463  1.00  0.00     0.293 HD
ENDBRANCH   6  14
TORSDOF 4
ENDMDL
MODEL 4
REMARK VINA RESULT:    -5.086      1.421      2.988
REMARK INTER + INTRA:          -5.876
REMARK INTER:                  -5.824
REMARK INTRA:                  -0.051
REMARK UNBOUND:                -0.046
REMARK SMILES O=C([O-])c1cc(O)c(O)c(O)c1
REMARK SMILES IDX 4 1 5 2 12 3 6 4 10 5 8 6 2 7 1 8 3 9 7 10 11 12 9 14
REMARK H PARENT 7 11 11 13 9 15
REMARK Flexibility Score: inf
ROOT
ATOM      1  C   UNL     1      -6.875  -9.223  30.127  1.00  0.00     0.005 A 
ATOM      2  C   UNL     1      -7.054  -9.940  28.935  1.00  0.00     0.060 A 
ATOM      3  C   UNL     1      -7.961  -8.513  30.665  1.00  0.00     0.060 A 
ATOM      4  C   UNL     1      -8.297  -9.949  28.290  1.00  0.00     0.162 A 
ATOM      5  C   UNL     1      -9.208  -8.514  30.030  1.00  0.00     0.162 A 
ATOM      6  C   UNL     1      -9.381  -9.240  28.828  1.00  0.00     0.200 A 
ENDROOT
BRANCH   1   7
ATOM      7  C   UNL     1      -5.558  -9.217  30.804  1.00  0.00     0.072 C 
ATOM      8  O   UNL     1      -4.733 -10.148  30.606  1.00  0.00    -0.545 OA
ATOM      9  O   UNL     1      -5.214  -8.183  31.666  1.00  0.00    -0.545 OA
ENDBRANCH   1   7
BRANCH   4  10
ATOM     10  O   UNL     1      -8.466 -10.665  27.105  1.00  0.00    -0.504 OA
ATOM     11  H   UNL     1      -8.861 -11.598  27.099  1.00  0.00     0.293 HD
ENDBRANCH   4  10
BRANCH   5  12
ATOM     12  O   UNL     1     -10.241  -7.785  30.626  1.00  0.00    -0.504 OA
ATOM     13  H   UNL     1     -10.943  -7.275  30.110  1.00  0.00     0.293 HD
ENDBRANCH   5  12
BRANCH   6  14
ATOM     14  O   UNL     1     -10.598  -9.283  28.144  1.00  0.00    -0.502 OA
ATOM     15  H   UNL     1     -10.689  -9.179  27.144  1.00  0.00     0.293 HD
ENDBRANCH   6  14
TORSDOF 4
ENDMDL
MODEL 5
REMARK VINA RESULT:    -4.632      1.411      4.470
REMARK INTER + INTRA:          -5.355
REMARK INTER:                  -5.303
REMARK INTRA:                  -0.052
REMARK UNBOUND:                -0.046
REMARK SMILES O=C([O-])c1cc(O)c(O)c(O)c1
REMARK SMILES IDX 4 1 5 2 12 3 6 4 10 5 8 6 2 7 1 8 3 9 7 10 11 12 9 14
REMARK H PARENT 7 11 11 13 9 15
REMARK Flexibility Score: inf
ROOT
ATOM      1  C   UNL     1      -8.147  -8.632  30.882  1.00  0.00     0.005 A 
ATOM      2  C   UNL     1      -7.092  -9.284  30.226  1.00  0.00     0.060 A 
ATOM      3  C   UNL     1      -9.413  -8.601  30.274  1.00  0.00     0.060 A 
ATOM      4  C   UNL     1      -7.297  -9.896  28.983  1.00  0.00     0.162 A 
ATOM      5  C   UNL     1      -9.631  -9.209  29.032  1.00  0.00     0.162 A 
ATOM      6  C   UNL     1      -8.561  -9.865  28.377  1.00  0.00     0.200 A 
ENDROOT
BRANCH   1   7
ATOM      7  C   UNL     1      -7.924  -7.987  32.196  1.00  0.00     0.072 C 
ATOM      8  O   UNL     1      -8.898  -7.701  32.942  1.00  0.00    -0.545 OA
ATOM      9  O   UNL     1      -6.636  -7.689  32.625  1.00  0.00    -0.545 OA
ENDBRANCH   1   7
BRANCH   4  10
ATOM     10  O   UNL     1      -6.243 -10.541  28.338  1.00  0.00    -0.504 OA
ATOM     11  H   UNL     1      -5.837 -11.393  28.706  1.00  0.00     0.293 HD
ENDBRANCH   4  10
BRANCH   5  12
ATOM     12  O   UNL     1     -10.916  -9.137  28.491  1.00  0.00    -0.504 OA
ATOM     13  H   UNL     1     -11.520  -8.332  28.573  1.00  0.00     0.293 HD
ENDBRANCH   5  12
BRANCH   6  14
ATOM     14  O   UNL     1      -8.710 -10.490  27.137  1.00  0.00    -0.502 OA
ATOM     15  H   UNL     1      -8.651 -10.011  26.251  1.00  0.00     0.293 HD
ENDBRANCH   6  14
TORSDOF 4
ENDMDL
MODEL 6
REMARK VINA RESULT:    -4.581      7.841      9.578
REMARK INTER + INTRA:          -5.297
REMARK INTER:                  -5.245
REMARK INTRA:                  -0.052
REMARK UNBOUND:                -0.046
REMARK SMILES O=C([O-])c1cc(O)c(O)c(O)c1
REMARK SMILES IDX 4 1 5 2 12 3 6 4 10 5 8 6 2 7 1 8 3 9 7 10 11 12 9 14
REMARK H PARENT 7 11 11 13 9 15
REMARK Flexibility Score: inf
ROOT
ATOM      1  C   UNL     1      -9.527 -13.241  20.122  1.00  0.00     0.005 A 
ATOM      2  C   UNL     1      -8.878 -14.458  20.377  1.00  0.00     0.060 A 
ATOM      3  C   UNL     1     -10.237 -12.617  21.160  1.00  0.00     0.060 A 
ATOM      4  C   UNL     1      -8.934 -15.041  21.649  1.00  0.00     0.162 A 
ATOM      5  C   UNL     1     -10.302 -13.189  22.436  1.00  0.00     0.162 A 
ATOM      6  C   UNL     1      -9.643 -14.417  22.685  1.00  0.00     0.200 A 
ENDROOT
BRANCH   1   7
ATOM      7  C   UNL     1      -9.464 -12.630  18.775  1.00  0.00     0.072 C 
ATOM      8  O   UNL     1     -10.329 -11.788  18.413  1.00  0.00    -0.545 OA
ATOM      9  O   UNL     1      -8.448 -12.975  17.891  1.00  0.00    -0.545 OA
ENDBRANCH   1   7
BRANCH   4  10
ATOM     10  O   UNL     1      -8.285 -16.251  21.894  1.00  0.00    -0.504 OA
ATOM     11  H   UNL     1      -8.459 -16.787  22.736  1.00  0.00     0.293 HD
ENDBRANCH   4  10
BRANCH   5  12
ATOM     12  O   UNL     1     -11.026 -12.509  23.417  1.00  0.00    -0.504 OA
ATOM     13  H   UNL     1     -12.021 -12.343  23.372  1.00  0.00     0.293 HD
ENDBRANCH   5  12
BRANCH   6  14
ATOM     14  O   UNL     1      -9.668 -15.042  23.934  1.00  0.00    -0.502 OA
ATOM     15  H   UNL     1      -8.854 -15.425  24.392  1.00  0.00     0.293 HD
ENDBRANCH   6  14
TORSDOF 4
ENDMDL
MODEL 7
REMARK VINA RESULT:    -4.533      1.336      3.990
REMARK INTER + INTRA:          -5.242
REMARK INTER:                  -5.191
REMARK INTRA:                  -0.051
REMARK UNBOUND:                -0.046
REMARK SMILES O=C([O-])c1cc(O)c(O)c(O)c1
REMARK SMILES IDX 4 1 5 2 12 3 6 4 10 5 8 6 2 7 1 8 3 9 7 10 11 12 9 14
REMARK H PARENT 7 11 11 13 9 15
REMARK Flexibility Score: inf
ROOT
ATOM      1  C   UNL     1      -7.998  -8.722  30.825  1.00  0.00     0.005 A 
ATOM      2  C   UNL     1      -9.229  -8.573  30.169  1.00  0.00     0.060 A 
ATOM      3  C   UNL     1      -6.992  -9.495  30.222  1.00  0.00     0.060 A 
ATOM      4  C   UNL     1      -9.452  -9.185  28.928  1.00  0.00     0.162 A 
ATOM      5  C   UNL     1      -7.203 -10.112  28.984  1.00  0.00     0.162 A 
ATOM      6  C   UNL     1      -8.447  -9.956  28.327  1.00  0.00     0.200 A 
ENDROOT
BRANCH   1   7
ATOM      7  C   UNL     1      -7.769  -8.073  32.136  1.00  0.00     0.072 C 
ATOM      8  O   UNL     1      -8.739  -7.788  32.888  1.00  0.00    -0.545 OA
ATOM      9  O   UNL     1      -6.479  -7.769  32.556  1.00  0.00    -0.545 OA
ENDBRANCH   1   7
BRANCH   4  10
ATOM     10  O   UNL     1     -10.678  -9.031  28.283  1.00  0.00    -0.504 OA
ATOM     11  H   UNL     1     -11.554  -9.077  28.788  1.00  0.00     0.293 HD
ENDBRANCH   4  10
BRANCH   5  12
ATOM     12  O   UNL     1      -6.155 -10.864  28.447  1.00  0.00    -0.504 OA
ATOM     13  H   UNL     1      -6.091 -11.130  27.475  1.00  0.00     0.293 HD
ENDBRANCH   5  12
BRANCH   6  14
ATOM     14  O   UNL     1      -8.722 -10.544  27.091  1.00  0.00    -0.502 OA
ATOM     15  H   UNL     1      -9.603 -10.457  26.606  1.00  0.00     0.293 HD
ENDBRANCH   6  14
TORSDOF 4
ENDMDL
MODEL 8
REMARK VINA RESULT:    -4.531      7.877      9.616
REMARK INTER + INTRA:          -5.240
REMARK INTER:                  -5.189
REMARK INTRA:                  -0.051
REMARK UNBOUND:                -0.046
REMARK SMILES O=C([O-])c1cc(O)c(O)c(O)c1
REMARK SMILES IDX 4 1 5 2 12 3 6 4 10 5 8 6 2 7 1 8 3 9 7 10 11 12 9 14
REMARK H PARENT 7 11 11 13 9 15
REMARK Flexibility Score: inf
ROOT
ATOM      1  C   UNL     1      -9.488 -13.295  20.076  1.00  0.00     0.005 A 
ATOM      2  C   UNL     1     -10.189 -12.656  21.109  1.00  0.00     0.060 A 
ATOM      3  C   UNL     1      -8.853 -14.520  20.340  1.00  0.00     0.060 A 
ATOM      4  C   UNL     1     -10.257 -13.230  22.385  1.00  0.00     0.162 A 
ATOM      5  C   UNL     1      -8.912 -15.104  21.610  1.00  0.00     0.162 A 
ATOM      6  C   UNL     1      -9.622 -14.452  22.647  1.00  0.00     0.200 A 
ENDROOT
BRANCH   1   7
ATOM      7  C   UNL     1      -9.421 -12.684  18.730  1.00  0.00     0.072 C 
ATOM      8  O   UNL     1     -10.299 -11.860  18.356  1.00  0.00    -0.545 OA
ATOM      9  O   UNL     1      -8.388 -13.009  17.858  1.00  0.00    -0.545 OA
ENDBRANCH   1   7
BRANCH   4  10
ATOM     10  O   UNL     1     -10.956 -12.587  23.406  1.00  0.00    -0.504 OA
ATOM     11  H   UNL     1     -11.964 -12.495  23.383  1.00  0.00     0.293 HD
ENDBRANCH   4  10
BRANCH   5  12
ATOM     12  O   UNL     1      -8.256 -16.323  21.796  1.00  0.00    -0.504 OA
ATOM     13  H   UNL     1      -7.670 -16.761  21.100  1.00  0.00     0.293 HD
ENDBRANCH   5  12
BRANCH   6  14
ATOM     14  O   UNL     1      -9.719 -14.980  23.936  1.00  0.00    -0.502 OA
ATOM     15  H   UNL     1     -10.433 -15.631  24.229  1.00  0.00     0.293 HD
ENDBRANCH   6  14
TORSDOF 4
ENDMDL
MODEL 9
REMARK VINA RESULT:    -4.499      1.807      3.222
REMARK INTER + INTRA:          -5.203
REMARK INTER:                  -5.151
REMARK INTRA:                  -0.052
REMARK UNBOUND:                -0.046
REMARK SMILES O=C([O-])c1cc(O)c(O)c(O)c1
REMARK SMILES IDX 4 1 5 2 12 3 6 4 10 5 8 6 2 7 1 8 3 9 7 10 11 12 9 14
REMARK H PARENT 7 11 11 13 9 15
REMARK Flexibility Score: inf
ROOT
ATOM      1  C   UNL     1      -8.366  -9.105  29.449  1.00  0.00     0.005 A 
ATOM      2  C   UNL     1      -9.060  -8.546  30.532  1.00  0.00     0.060 A 
ATOM      3  C   UNL     1      -6.968  -9.223  29.524  1.00  0.00     0.060 A 
ATOM      4  C   UNL     1      -8.372  -8.113  31.672  1.00  0.00     0.162 A 
ATOM      5  C   UNL     1      -6.268  -8.794  30.657  1.00  0.00     0.162 A 
ATOM      6  C   UNL     1      -6.977  -8.232  31.746  1.00  0.00     0.200 A 
ENDROOT
BRANCH   1   7
ATOM      7  C   UNL     1      -9.099  -9.561  28.247  1.00  0.00     0.072 C 
ATOM      8  O   UNL     1     -10.278  -9.171  28.030  1.00  0.00    -0.545 OA
ATOM      9  O   UNL     1      -8.498 -10.425  27.339  1.00  0.00    -0.545 OA
ENDBRANCH   1   7
BRANCH   4  10
ATOM     10  O   UNL     1      -9.071  -7.559  32.744  1.00  0.00    -0.504 OA
ATOM     11  H   UNL     1      -8.956  -6.588  33.009  1.00  0.00     0.293 HD
ENDBRANCH   4  10
BRANCH   5  12
ATOM     12  O   UNL     1      -4.879  -8.945  30.658  1.00  0.00    -0.504 OA
ATOM     13  H   UNL     1      -4.406  -9.820  30.830  1.00  0.00     0.293 HD
ENDBRANCH   5  12
BRANCH   6  14
ATOM     14  O   UNL     1      -6.340  -7.784  32.905  1.00  0.00    -0.502 OA
ATOM     15  H   UNL     1      -6.416  -8.236  33.804  1.00  0.00     0.293 HD
ENDBRANCH   6  14
TORSDOF 4
ENDMDL
