MODEL 1
REMARK VINA RESULT:    -5.645      0.000      0.000
REMARK INTER + INTRA:          -7.661
REMARK INTER:                  -7.130
REMARK INTRA:                  -0.530
REMARK UNBOUND:                -0.530
REMARK SMILES Oc1ccc(CCc2cc(O)cc(O)c2)cc1
REMARK SMILES IDX 6 1 5 2 4 3 3 4 2 5 16 6 17 7 1 8 7 10 8 11 15 12 9 13 13 14
REMARK SMILES IDX 10 15 12 16 14 17 11 19
REMARK H PARENT 1 9 14 18 11 20
REMARK Flexibility Score: inf
ROOT
ATOM      1  C   UNL     1     -27.161 -53.257  51.264  1.00  0.00     0.040 C 
ENDROOT
BRANCH   1   2
ATOM      2  C   UNL     1     -28.309 -52.286  51.189  1.00  0.00    -0.047 A 
ATOM      3  C   UNL     1     -28.067 -50.915  51.004  1.00  0.00     0.007 A 
ATOM      4  C   UNL     1     -29.134 -50.018  50.902  1.00  0.00     0.046 A 
ATOM      5  C   UNL     1     -30.454 -50.484  50.975  1.00  0.00     0.115 A 
ATOM      6  C   UNL     1     -29.634 -52.750  51.248  1.00  0.00     0.007 A 
ATOM      7  C   UNL     1     -30.700 -51.850  51.146  1.00  0.00     0.046 A 
BRANCH   5   8
ATOM      8  O   UNL     1     -31.527 -49.599  50.875  1.00  0.00    -0.508 OA
ATOM      9  H   UNL     1     -32.328 -49.670  51.490  1.00  0.00     0.293 HD
ENDBRANCH   5   8
ENDBRANCH   1   2
BRANCH   1  10
ATOM     10  C   UNL     1     -27.574 -54.521  52.023  1.00  0.00     0.040 C 
BRANCH  10  11
ATOM     11  C   UNL     1     -27.665 -54.246  53.499  1.00  0.00    -0.040 A 
ATOM     12  C   UNL     1     -26.733 -53.398  54.119  1.00  0.00     0.050 A 
ATOM     13  C   UNL     1     -28.647 -54.880  54.279  1.00  0.00     0.050 A 
ATOM     14  C   UNL     1     -26.797 -53.167  55.500  1.00  0.00     0.119 A 
ATOM     15  C   UNL     1     -28.712 -54.651  55.657  1.00  0.00     0.119 A 
ATOM     16  C   UNL     1     -27.787 -53.792  56.266  1.00  0.00     0.092 A 
BRANCH  14  17
ATOM     17  O   UNL     1     -25.879 -52.322  56.122  1.00  0.00    -0.508 OA
ATOM     18  H   UNL     1     -25.136 -52.686  56.707  1.00  0.00     0.293 HD
ENDBRANCH  14  17
BRANCH  15  19
ATOM     19  O   UNL     1     -29.696 -55.283  56.413  1.00  0.00    -0.508 OA
ATOM     20  H   UNL     1     -30.680 -55.193  56.184  1.00  0.00     0.293 HD
ENDBRANCH  15  19
ENDBRANCH  10  11
ENDBRANCH   1  10
TORSDOF 6
ENDMDL
MODEL 2
REMARK VINA RESULT:    -5.543      1.707      5.893
REMARK INTER + INTRA:          -7.532
REMARK INTER:                  -6.895
REMARK INTRA:                  -0.637
REMARK UNBOUND:                -0.530
REMARK SMILES Oc1ccc(CCc2cc(O)cc(O)c2)cc1
REMARK SMILES IDX 6 1 5 2 4 3 3 4 2 5 16 6 17 7 1 8 7 10 8 11 15 12 9 13 13 14
REMARK SMILES IDX 10 15 12 16 14 17 11 19
REMARK H PARENT 1 9 14 18 11 20
REMARK Flexibility Score: inf
ROOT
ATOM      1  C   UNL     1     -29.130 -54.817  53.558  1.00  0.00     0.040 C 
ENDROOT
BRANCH   1   2
ATOM      2  C   UNL     1     -28.005 -54.777  54.557  1.00  0.00    -0.047 A 
ATOM      3  C   UNL     1     -27.183 -55.900  54.743  1.00  0.00     0.007 A 
ATOM      4  C   UNL     1     -26.117 -55.851  55.647  1.00  0.00     0.046 A 
ATOM      5  C   UNL     1     -25.858 -54.677  56.367  1.00  0.00     0.115 A 
ATOM      6  C   UNL     1     -27.733 -53.598  55.270  1.00  0.00     0.007 A 
ATOM      7  C   UNL     1     -26.667 -53.552  56.174  1.00  0.00     0.046 A 
BRANCH   5   8
ATOM      8  O   UNL     1     -24.799 -54.617  57.271  1.00  0.00    -0.508 OA
ATOM      9  H   UNL     1     -24.153 -53.836  57.277  1.00  0.00     0.293 HD
ENDBRANCH   5   8
ENDBRANCH   1   2
BRANCH   1  10
ATOM     10  C   UNL     1     -28.625 -54.443  52.162  1.00  0.00     0.040 C 
BRANCH  10  11
ATOM     11  C   UNL     1     -28.998 -53.024  51.827  1.00  0.00    -0.040 A 
ATOM     12  C   UNL     1     -28.002 -52.043  51.695  1.00  0.00     0.050 A 
ATOM     13  C   UNL     1     -30.348 -52.658  51.700  1.00  0.00     0.050 A 
ATOM     14  C   UNL     1     -28.351 -50.714  51.415  1.00  0.00     0.119 A 
ATOM     15  C   UNL     1     -30.698 -51.333  51.421  1.00  0.00     0.119 A 
ATOM     16  C   UNL     1     -29.698 -50.362  51.276  1.00  0.00     0.092 A 
BRANCH  14  17
ATOM     17  O   UNL     1     -27.368 -49.736  51.276  1.00  0.00    -0.508 OA
ATOM     18  H   UNL     1     -27.511 -48.791  51.611  1.00  0.00     0.293 HD
ENDBRANCH  14  17
BRANCH  15  19
ATOM     19  O   UNL     1     -32.042 -50.990  51.293  1.00  0.00    -0.508 OA
ATOM     20  H   UNL     1     -32.360 -50.353  50.572  1.00  0.00     0.293 HD
ENDBRANCH  15  19
ENDBRANCH  10  11
ENDBRANCH   1  10
TORSDOF 6
ENDMDL
MODEL 3
REMARK VINA RESULT:    -5.515      1.764      6.162
REMARK INTER + INTRA:          -7.497
REMARK INTER:                  -6.829
REMARK INTRA:                  -0.668
REMARK UNBOUND:                -0.530
REMARK SMILES Oc1ccc(CCc2cc(O)cc(O)c2)cc1
REMARK SMILES IDX 6 1 5 2 4 3 3 4 2 5 16 6 17 7 1 8 7 10 8 11 15 12 9 13 13 14
REMARK SMILES IDX 10 15 12 16 14 17 11 19
REMARK H PARENT 1 9 14 18 11 20
REMARK Flexibility Score: inf
ROOT
ATOM      1  C   UNL     1     -29.226 -54.970  53.720  1.00  0.00     0.040 C 
ENDROOT
BRANCH   1   2
ATOM      2  C   UNL     1     -28.068 -54.885  54.677  1.00  0.00    -0.047 A 
ATOM      3  C   UNL     1     -27.098 -55.900  54.709  1.00  0.00     0.007 A 
ATOM      4  C   UNL     1     -26.004 -55.803  55.575  1.00  0.00     0.046 A 
ATOM      5  C   UNL     1     -25.865 -54.687  56.411  1.00  0.00     0.115 A 
ATOM      6  C   UNL     1     -27.916 -53.761  55.507  1.00  0.00     0.007 A 
ATOM      7  C   UNL     1     -26.821 -53.667  56.373  1.00  0.00     0.046 A 
BRANCH   5   8
ATOM      8  O   UNL     1     -24.780 -54.580  57.279  1.00  0.00    -0.508 OA
ATOM      9  H   UNL     1     -24.349 -53.685  57.478  1.00  0.00     0.293 HD
ENDBRANCH   5   8
ENDBRANCH   1   2
BRANCH   1  10
ATOM     10  C   UNL     1     -28.776 -54.623  52.298  1.00  0.00     0.040 C 
BRANCH  10  11
ATOM     11  C   UNL     1     -29.032 -53.171  52.002  1.00  0.00    -0.040 A 
ATOM     12  C   UNL     1     -30.338 -52.720  51.750  1.00  0.00     0.050 A 
ATOM     13  C   UNL     1     -27.961 -52.265  51.918  1.00  0.00     0.050 A 
ATOM     14  C   UNL     1     -30.574 -51.373  51.441  1.00  0.00     0.119 A 
ATOM     15  C   UNL     1     -28.195 -50.921  51.610  1.00  0.00     0.119 A 
ATOM     16  C   UNL     1     -29.503 -50.476  51.375  1.00  0.00     0.092 A 
BRANCH  14  17
ATOM     17  O   UNL     1     -31.868 -50.917  51.196  1.00  0.00    -0.508 OA
ATOM     18  H   UNL     1     -32.387 -50.396  51.893  1.00  0.00     0.293 HD
ENDBRANCH  14  17
BRANCH  15  19
ATOM     19  O   UNL     1     -27.121 -50.036  51.538  1.00  0.00    -0.508 OA
ATOM     20  H   UNL     1     -26.184 -50.356  51.324  1.00  0.00     0.293 HD
ENDBRANCH  15  19
ENDBRANCH  10  11
ENDBRANCH   1  10
TORSDOF 6
ENDMDL
MODEL 4
REMARK VINA RESULT:    -5.397     12.912     15.049
REMARK INTER + INTRA:          -7.347
REMARK INTER:                  -6.641
REMARK INTRA:                  -0.706
REMARK UNBOUND:                -0.530
REMARK SMILES Oc1ccc(CCc2cc(O)cc(O)c2)cc1
REMARK SMILES IDX 6 1 5 2 4 3 3 4 2 5 16 6 17 7 1 8 7 10 8 11 15 12 9 13 13 14
REMARK SMILES IDX 10 15 12 16 14 17 11 19
REMARK H PARENT 1 9 14 18 11 20
REMARK Flexibility Score: inf
ROOT
ATOM      1  C   UNL     1     -23.224 -65.342  55.888  1.00  0.00     0.040 C 
ENDROOT
BRANCH   1   2
ATOM      2  C   UNL     1     -23.523 -64.211  56.834  1.00  0.00    -0.047 A 
ATOM      3  C   UNL     1     -22.491 -63.371  57.283  1.00  0.00     0.007 A 
ATOM      4  C   UNL     1     -22.774 -62.300  58.136  1.00  0.00     0.046 A 
ATOM      5  C   UNL     1     -24.092 -62.054  58.542  1.00  0.00     0.115 A 
ATOM      6  C   UNL     1     -24.845 -63.952  57.233  1.00  0.00     0.007 A 
ATOM      7  C   UNL     1     -25.125 -62.880  58.087  1.00  0.00     0.046 A 
BRANCH   5   8
ATOM      8  O   UNL     1     -24.387 -60.990  59.393  1.00  0.00    -0.508 OA
ATOM      9  H   UNL     1     -24.542 -60.055  59.035  1.00  0.00     0.293 HD
ENDBRANCH   5   8
ENDBRANCH   1   2
BRANCH   1  10
ATOM     10  C   UNL     1     -24.168 -66.521  56.142  1.00  0.00     0.040 C 
BRANCH  10  11
ATOM     11  C   UNL     1     -23.640 -67.392  57.249  1.00  0.00    -0.040 A 
ATOM     12  C   UNL     1     -22.309 -67.842  57.223  1.00  0.00     0.050 A 
ATOM     13  C   UNL     1     -24.488 -67.810  58.288  1.00  0.00     0.050 A 
ATOM     14  C   UNL     1     -21.826 -68.680  58.237  1.00  0.00     0.119 A 
ATOM     15  C   UNL     1     -24.007 -68.647  59.301  1.00  0.00     0.119 A 
ATOM     16  C   UNL     1     -22.675 -69.079  59.275  1.00  0.00     0.092 A 
BRANCH  14  17
ATOM     17  O   UNL     1     -20.505 -69.125  58.220  1.00  0.00    -0.508 OA
ATOM     18  H   UNL     1     -20.238 -69.971  57.731  1.00  0.00     0.293 HD
ENDBRANCH  14  17
BRANCH  15  19
ATOM     19  O   UNL     1     -24.862 -69.045  60.326  1.00  0.00    -0.508 OA
ATOM     20  H   UNL     1     -25.855 -68.846  60.295  1.00  0.00     0.293 HD
ENDBRANCH  15  19
ENDBRANCH  10  11
ENDBRANCH   1  10
TORSDOF 6
ENDMDL
MODEL 5
REMARK VINA RESULT:    -5.324      0.769      2.456
REMARK INTER + INTRA:          -7.255
REMARK INTER:                  -6.518
REMARK INTRA:                  -0.737
REMARK UNBOUND:                -0.530
REMARK SMILES Oc1ccc(CCc2cc(O)cc(O)c2)cc1
REMARK SMILES IDX 6 1 5 2 4 3 3 4 2 5 16 6 17 7 1 8 7 10 8 11 15 12 9 13 13 14
REMARK SMILES IDX 10 15 12 16 14 17 11 19
REMARK H PARENT 1 9 14 18 11 20
REMARK Flexibility Score: inf
ROOT
ATOM      1  C   UNL     1     -27.951 -54.403  51.583  1.00  0.00     0.040 C 
ENDROOT
BRANCH   1   2
ATOM      2  C   UNL     1     -28.772 -53.159  51.377  1.00  0.00    -0.047 A 
ATOM      3  C   UNL     1     -30.162 -53.185  51.579  1.00  0.00     0.007 A 
ATOM      4  C   UNL     1     -30.919 -52.020  51.420  1.00  0.00     0.046 A 
ATOM      5  C   UNL     1     -30.294 -50.817  51.065  1.00  0.00     0.115 A 
ATOM      6  C   UNL     1     -28.149 -51.947  51.035  1.00  0.00     0.007 A 
ATOM      7  C   UNL     1     -28.909 -50.784  50.875  1.00  0.00     0.046 A 
BRANCH   5   8
ATOM      8  O   UNL     1     -31.039 -49.650  50.902  1.00  0.00    -0.508 OA
ATOM      9  H   UNL     1     -31.888 -49.638  50.349  1.00  0.00     0.293 HD
ENDBRANCH   5   8
ENDBRANCH   1   2
BRANCH   1  10
ATOM     10  C   UNL     1     -26.636 -54.068  52.293  1.00  0.00     0.040 C 
BRANCH  10  11
ATOM     11  C   UNL     1     -26.863 -53.887  53.770  1.00  0.00    -0.040 A 
ATOM     12  C   UNL     1     -27.727 -54.751  54.464  1.00  0.00     0.050 A 
ATOM     13  C   UNL     1     -26.258 -52.820  54.454  1.00  0.00     0.050 A 
ATOM     14  C   UNL     1     -27.964 -54.563  55.832  1.00  0.00     0.119 A 
ATOM     15  C   UNL     1     -26.495 -52.630  55.819  1.00  0.00     0.119 A 
ATOM     16  C   UNL     1     -27.346 -53.505  56.508  1.00  0.00     0.092 A 
BRANCH  14  17
ATOM     17  O   UNL     1     -28.815 -55.419  56.529  1.00  0.00    -0.508 OA
ATOM     18  H   UNL     1     -29.482 -56.010  56.046  1.00  0.00     0.293 HD
ENDBRANCH  14  17
BRANCH  15  19
ATOM     19  O   UNL     1     -25.881 -51.570  56.482  1.00  0.00    -0.508 OA
ATOM     20  H   UNL     1     -26.001 -50.612  56.174  1.00  0.00     0.293 HD
ENDBRANCH  15  19
ENDBRANCH  10  11
ENDBRANCH   1  10
TORSDOF 6
ENDMDL
MODEL 6
REMARK VINA RESULT:    -5.313     12.799     15.088
REMARK INTER + INTRA:          -7.241
REMARK INTER:                  -6.652
REMARK INTRA:                  -0.589
REMARK UNBOUND:                -0.530
REMARK SMILES Oc1ccc(CCc2cc(O)cc(O)c2)cc1
REMARK SMILES IDX 6 1 5 2 4 3 3 4 2 5 16 6 17 7 1 8 7 10 8 11 15 12 9 13 13 14
REMARK SMILES IDX 10 15 12 16 14 17 11 19
REMARK H PARENT 1 9 14 18 11 20
REMARK Flexibility Score: inf
ROOT
ATOM      1  C   UNL     1     -23.145 -65.195  55.979  1.00  0.00     0.040 C 
ENDROOT
BRANCH   1   2
ATOM      2  C   UNL     1     -23.493 -64.043  56.881  1.00  0.00    -0.047 A 
ATOM      3  C   UNL     1     -24.715 -64.027  57.573  1.00  0.00     0.007 A 
ATOM      4  C   UNL     1     -25.023 -62.973  58.437  1.00  0.00     0.046 A 
ATOM      5  C   UNL     1     -24.108 -61.927  58.626  1.00  0.00     0.115 A 
ATOM      6  C   UNL     1     -22.574 -63.000  57.085  1.00  0.00     0.007 A 
ATOM      7  C   UNL     1     -22.884 -61.946  57.949  1.00  0.00     0.046 A 
BRANCH   5   8
ATOM      8  O   UNL     1     -24.404 -60.870  59.484  1.00  0.00    -0.508 OA
ATOM      9  H   UNL     1     -25.061 -60.145  59.223  1.00  0.00     0.293 HD
ENDBRANCH   5   8
ENDBRANCH   1   2
BRANCH   1  10
ATOM     10  C   UNL     1     -24.157 -66.333  56.144  1.00  0.00     0.040 C 
BRANCH  10  11
ATOM     11  C   UNL     1     -23.705 -67.293  57.211  1.00  0.00    -0.040 A 
ATOM     12  C   UNL     1     -24.579 -67.664  58.246  1.00  0.00     0.050 A 
ATOM     13  C   UNL     1     -22.387 -67.780  57.213  1.00  0.00     0.050 A 
ATOM     14  C   UNL     1     -24.148 -68.532  59.258  1.00  0.00     0.119 A 
ATOM     15  C   UNL     1     -21.955 -68.646  58.223  1.00  0.00     0.119 A 
ATOM     16  C   UNL     1     -22.838 -69.023  59.244  1.00  0.00     0.092 A 
BRANCH  14  17
ATOM     17  O   UNL     1     -25.012 -68.909  60.285  1.00  0.00    -0.508 OA
ATOM     18  H   UNL     1     -25.972 -69.173  60.099  1.00  0.00     0.293 HD
ENDBRANCH  14  17
BRANCH  15  19
ATOM     19  O   UNL     1     -20.647 -69.125  58.204  1.00  0.00    -0.508 OA
ATOM     20  H   UNL     1     -19.893 -68.622  58.657  1.00  0.00     0.293 HD
ENDBRANCH  15  19
ENDBRANCH  10  11
ENDBRANCH   1  10
TORSDOF 6
ENDMDL
MODEL 7
REMARK VINA RESULT:    -5.172     14.403     16.469
REMARK INTER + INTRA:          -7.063
REMARK INTER:                  -6.700
REMARK INTRA:                  -0.363
REMARK UNBOUND:                -0.530
REMARK SMILES Oc1ccc(CCc2cc(O)cc(O)c2)cc1
REMARK SMILES IDX 6 1 5 2 4 3 3 4 2 5 16 6 17 7 1 8 7 10 8 11 15 12 9 13 13 14
REMARK SMILES IDX 10 15 12 16 14 17 11 19
REMARK H PARENT 1 9 14 18 11 20
REMARK Flexibility Score: inf
ROOT
ATOM      1  C   UNL     1     -33.284 -55.244  68.186  1.00  0.00     0.040 C 
ENDROOT
BRANCH   1   2
ATOM      2  C   UNL     1     -33.275 -56.732  67.963  1.00  0.00    -0.047 A 
ATOM      3  C   UNL     1     -33.751 -57.601  68.958  1.00  0.00     0.007 A 
ATOM      4  C   UNL     1     -33.773 -58.981  68.736  1.00  0.00     0.046 A 
ATOM      5  C   UNL     1     -33.328 -59.506  67.515  1.00  0.00     0.115 A 
ATOM      6  C   UNL     1     -32.843 -57.261  66.735  1.00  0.00     0.007 A 
ATOM      7  C   UNL     1     -32.866 -58.642  66.517  1.00  0.00     0.046 A 
BRANCH   5   8
ATOM      8  O   UNL     1     -33.345 -60.880  67.283  1.00  0.00    -0.508 OA
ATOM      9  H   UNL     1     -34.028 -61.303  66.665  1.00  0.00     0.293 HD
ENDBRANCH   5   8
ENDBRANCH   1   2
BRANCH   1  10
ATOM     10  C   UNL     1     -31.927 -54.636  67.821  1.00  0.00     0.040 C 
BRANCH  10  11
ATOM     11  C   UNL     1     -31.985 -53.134  67.883  1.00  0.00    -0.040 A 
ATOM     12  C   UNL     1     -31.769 -52.468  69.100  1.00  0.00     0.050 A 
ATOM     13  C   UNL     1     -32.313 -52.390  66.738  1.00  0.00     0.050 A 
ATOM     14  C   UNL     1     -31.856 -51.070  69.167  1.00  0.00     0.119 A 
ATOM     15  C   UNL     1     -32.401 -50.995  66.802  1.00  0.00     0.119 A 
ATOM     16  C   UNL     1     -32.169 -50.336  68.017  1.00  0.00     0.092 A 
BRANCH  14  17
ATOM     17  O   UNL     1     -31.637 -50.401  70.369  1.00  0.00    -0.508 OA
ATOM     18  H   UNL     1     -32.264 -49.674  70.693  1.00  0.00     0.293 HD
ENDBRANCH  14  17
BRANCH  15  19
ATOM     19  O   UNL     1     -32.720 -50.273  65.654  1.00  0.00    -0.508 OA
ATOM     20  H   UNL     1     -33.292 -49.437  65.696  1.00  0.00     0.293 HD
ENDBRANCH  15  19
ENDBRANCH  10  11
ENDBRANCH   1  10
TORSDOF 6
ENDMDL
MODEL 8
REMARK VINA RESULT:    -5.108     14.422     16.507
REMARK INTER + INTRA:          -6.982
REMARK INTER:                  -6.619
REMARK INTRA:                  -0.362
REMARK UNBOUND:                -0.530
REMARK SMILES Oc1ccc(CCc2cc(O)cc(O)c2)cc1
REMARK SMILES IDX 6 1 5 2 4 3 3 4 2 5 16 6 17 7 1 8 7 10 8 11 15 12 9 13 13 14
REMARK SMILES IDX 10 15 12 16 14 17 11 19
REMARK H PARENT 1 9 14 18 11 20
REMARK Flexibility Score: inf
ROOT
ATOM      1  C   UNL     1     -33.376 -55.220  68.242  1.00  0.00     0.040 C 
ENDROOT
BRANCH   1   2
ATOM      2  C   UNL     1     -33.336 -56.705  68.006  1.00  0.00    -0.047 A 
ATOM      3  C   UNL     1     -33.841 -57.591  68.972  1.00  0.00     0.007 A 
ATOM      4  C   UNL     1     -33.833 -58.969  68.737  1.00  0.00     0.046 A 
ATOM      5  C   UNL     1     -33.329 -59.475  67.532  1.00  0.00     0.115 A 
ATOM      6  C   UNL     1     -32.845 -57.217  66.793  1.00  0.00     0.007 A 
ATOM      7  C   UNL     1     -32.838 -58.596  66.561  1.00  0.00     0.046 A 
BRANCH   5   8
ATOM      8  O   UNL     1     -33.316 -60.847  67.287  1.00  0.00    -0.508 OA
ATOM      9  H   UNL     1     -33.160 -61.216  66.356  1.00  0.00     0.293 HD
ENDBRANCH   5   8
ENDBRANCH   1   2
BRANCH   1  10
ATOM     10  C   UNL     1     -32.032 -54.580  67.883  1.00  0.00     0.040 C 
BRANCH  10  11
ATOM     11  C   UNL     1     -32.135 -53.079  67.910  1.00  0.00    -0.040 A 
ATOM     12  C   UNL     1     -32.444 -52.370  66.737  1.00  0.00     0.050 A 
ATOM     13  C   UNL     1     -31.869 -52.372  69.094  1.00  0.00     0.050 A 
ATOM     14  C   UNL     1     -32.508 -50.970  66.754  1.00  0.00     0.119 A 
ATOM     15  C   UNL     1     -31.932 -50.975  69.113  1.00  0.00     0.119 A 
ATOM     16  C   UNL     1     -32.255 -50.276  67.942  1.00  0.00     0.092 A 
BRANCH  14  17
ATOM     17  O   UNL     1     -32.819 -50.260  65.596  1.00  0.00    -0.508 OA
ATOM     18  H   UNL     1     -32.877 -50.718  64.694  1.00  0.00     0.293 HD
ENDBRANCH  14  17
BRANCH  15  19
ATOM     19  O   UNL     1     -31.671 -50.291  70.298  1.00  0.00    -0.508 OA
ATOM     20  H   UNL     1     -32.400 -50.118  70.981  1.00  0.00     0.293 HD
ENDBRANCH  15  19
ENDBRANCH  10  11
ENDBRANCH   1  10
TORSDOF 6
ENDMDL
