MODEL 1
REMARK VINA RESULT:    -6.065      0.000      0.000
REMARK INTER + INTRA:          -7.193
REMARK INTER:                  -7.128
REMARK INTRA:                  -0.065
REMARK UNBOUND:                -0.065
REMARK SMILES O=C([O-])C=Cc1ccc(O)c(O)c1
REMARK SMILES IDX 6 1 13 2 7 3 11 4 8 5 9 6 5 7 4 8 2 9 1 10 3 11 12 12 10 14
REMARK H PARENT 12 13 10 15
REMARK Flexibility Score: inf
ROOT
ATOM      1  C   UNL     1      81.282  60.441  11.955  1.00  0.00    -0.022 A 
ATOM      2  C   UNL     1      82.569  59.886  11.963  1.00  0.00     0.058 A 
ATOM      3  C   UNL     1      81.117  61.792  11.606  1.00  0.00     0.012 A 
ATOM      4  C   UNL     1      83.677  60.650  11.577  1.00  0.00     0.157 A 
ATOM      5  C   UNL     1      82.220  62.558  11.219  1.00  0.00     0.051 A 
ATOM      6  C   UNL     1      83.502  61.991  11.198  1.00  0.00     0.157 A 
ENDROOT
BRANCH   1   7
ATOM      7  C   UNL     1      80.139  59.627  12.418  1.00  0.00     0.010 C 
ATOM      8  C   UNL     1      78.985  59.454  11.754  1.00  0.00     0.025 C 
BRANCH   8   9
ATOM      9  C   UNL     1      78.714  59.894  10.370  1.00  0.00     0.064 C 
ATOM     10  O   UNL     1      79.088  59.216   9.378  1.00  0.00    -0.545 OA
ATOM     11  O   UNL     1      77.970  61.048  10.162  1.00  0.00    -0.545 OA
ENDBRANCH   8   9
ENDBRANCH   1   7
BRANCH   4  12
ATOM     12  O   UNL     1      84.940  60.060  11.579  1.00  0.00    -0.504 OA
ATOM     13  H   UNL     1      85.064  59.054  11.597  1.00  0.00     0.293 HD
ENDBRANCH   4  12
BRANCH   6  14
ATOM     14  O   UNL     1      84.600  62.757  10.810  1.00  0.00    -0.504 OA
ATOM     15  H   UNL     1      85.433  62.330  10.419  1.00  0.00     0.293 HD
ENDBRANCH   6  14
TORSDOF 4
ENDMDL
MODEL 2
REMARK VINA RESULT:    -5.852      1.468      1.690
REMARK INTER + INTRA:          -6.943
REMARK INTER:                  -6.674
REMARK INTRA:                  -0.269
REMARK UNBOUND:                -0.065
REMARK SMILES O=C([O-])C=Cc1ccc(O)c(O)c1
REMARK SMILES IDX 6 1 13 2 7 3 11 4 8 5 9 6 5 7 4 8 2 9 1 10 3 11 12 12 10 14
REMARK H PARENT 12 13 10 15
REMARK Flexibility Score: inf
ROOT
ATOM      1  C   UNL     1      79.892  60.333  11.054  1.00  0.00    -0.022 A 
ATOM      2  C   UNL     1      81.185  59.815  10.891  1.00  0.00     0.058 A 
ATOM      3  C   UNL     1      79.694  61.722  10.987  1.00  0.00     0.012 A 
ATOM      4  C   UNL     1      82.262  60.665  10.612  1.00  0.00     0.157 A 
ATOM      5  C   UNL     1      80.766  62.574  10.706  1.00  0.00     0.051 A 
ATOM      6  C   UNL     1      82.052  62.051  10.513  1.00  0.00     0.157 A 
ENDROOT
BRANCH   1   7
ATOM      7  C   UNL     1      78.784  59.418  11.402  1.00  0.00     0.010 C 
ATOM      8  C   UNL     1      77.838  58.985  10.554  1.00  0.00     0.025 C 
BRANCH   8   9
ATOM      9  C   UNL     1      77.829  59.194   9.093  1.00  0.00     0.064 C 
ATOM     10  O   UNL     1      78.548  58.504   8.324  1.00  0.00    -0.545 OA
ATOM     11  O   UNL     1      76.956  60.128   8.549  1.00  0.00    -0.545 OA
ENDBRANCH   8   9
ENDBRANCH   1   7
BRANCH   4  12
ATOM     12  O   UNL     1      83.531  60.114  10.436  1.00  0.00    -0.504 OA
ATOM     13  H   UNL     1      84.329  60.676  10.165  1.00  0.00     0.293 HD
ENDBRANCH   4  12
BRANCH   6  14
ATOM     14  O   UNL     1      83.119  62.902  10.232  1.00  0.00    -0.504 OA
ATOM     15  H   UNL     1      83.090  63.549   9.452  1.00  0.00     0.293 HD
ENDBRANCH   6  14
TORSDOF 4
ENDMDL
MODEL 3
REMARK VINA RESULT:    -5.835      0.803      1.869
REMARK INTER + INTRA:          -6.924
REMARK INTER:                  -6.922
REMARK INTRA:                  -0.001
REMARK UNBOUND:                -0.065
REMARK SMILES O=C([O-])C=Cc1ccc(O)c(O)c1
REMARK SMILES IDX 6 1 13 2 7 3 11 4 8 5 9 6 5 7 4 8 2 9 1 10 3 11 12 12 10 14
REMARK H PARENT 12 13 10 15
REMARK Flexibility Score: inf
ROOT
ATOM      1  C   UNL     1      81.505  59.978  12.277  1.00  0.00    -0.022 A 
ATOM      2  C   UNL     1      81.751  61.272  11.795  1.00  0.00     0.058 A 
ATOM      3  C   UNL     1      82.547  59.036  12.281  1.00  0.00     0.012 A 
ATOM      4  C   UNL     1      83.033  61.642  11.370  1.00  0.00     0.157 A 
ATOM      5  C   UNL     1      83.828  59.402  11.858  1.00  0.00     0.051 A 
ATOM      6  C   UNL     1      84.079  60.705  11.406  1.00  0.00     0.157 A 
ENDROOT
BRANCH   1   7
ATOM      7  C   UNL     1      80.131  59.600  12.668  1.00  0.00     0.010 C 
ATOM      8  C   UNL     1      79.040  59.726  11.897  1.00  0.00     0.025 C 
BRANCH   8   9
ATOM      9  C   UNL     1      79.033  60.093  10.467  1.00  0.00     0.064 C 
ATOM     10  O   UNL     1      79.455  59.303   9.582  1.00  0.00    -0.545 OA
ATOM     11  O   UNL     1      78.486  61.311  10.084  1.00  0.00    -0.545 OA
ENDBRANCH   8   9
ENDBRANCH   1   7
BRANCH   4  12
ATOM     12  O   UNL     1      83.245  62.943  10.915  1.00  0.00    -0.504 OA
ATOM     13  H   UNL     1      82.956  63.244   9.993  1.00  0.00     0.293 HD
ENDBRANCH   4  12
BRANCH   6  14
ATOM     14  O   UNL     1      85.357  61.068  10.988  1.00  0.00    -0.504 OA
ATOM     15  H   UNL     1      85.654  60.951  10.026  1.00  0.00     0.293 HD
ENDBRANCH   6  14
TORSDOF 4
ENDMDL
MODEL 4
REMARK VINA RESULT:    -5.827      2.087      5.235
REMARK INTER + INTRA:          -6.914
REMARK INTER:                  -6.907
REMARK INTRA:                  -0.006
REMARK UNBOUND:                -0.065
REMARK SMILES O=C([O-])C=Cc1ccc(O)c(O)c1
REMARK SMILES IDX 6 1 13 2 7 3 11 4 8 5 9 6 5 7 4 8 2 9 1 10 3 11 12 12 10 14
REMARK H PARENT 12 13 10 15
REMARK Flexibility Score: inf
ROOT
ATOM      1  C   UNL     1      79.479  59.832  11.369  1.00  0.00    -0.022 A 
ATOM      2  C   UNL     1      79.399  59.597   9.989  1.00  0.00     0.058 A 
ATOM      3  C   UNL     1      78.301  59.844  12.134  1.00  0.00     0.012 A 
ATOM      4  C   UNL     1      78.166  59.325   9.383  1.00  0.00     0.157 A 
ATOM      5  C   UNL     1      77.069  59.572  11.534  1.00  0.00     0.051 A 
ATOM      6  C   UNL     1      76.995  59.307  10.159  1.00  0.00     0.157 A 
ENDROOT
BRANCH   1   7
ATOM      7  C   UNL     1      80.786  60.169  11.971  1.00  0.00     0.010 C 
ATOM      8  C   UNL     1      81.577  61.186  11.595  1.00  0.00     0.025 C 
BRANCH   8   9
ATOM      9  C   UNL     1      81.213  62.254  10.642  1.00  0.00     0.064 C 
ATOM     10  O   UNL     1      81.818  62.394   9.547  1.00  0.00    -0.545 OA
ATOM     11  O   UNL     1      80.134  63.079  10.932  1.00  0.00    -0.545 OA
ENDBRANCH   8   9
ENDBRANCH   1   7
BRANCH   4  12
ATOM     12  O   UNL     1      78.126  59.077   8.012  1.00  0.00    -0.504 OA
ATOM     13  H   UNL     1      77.274  58.800   7.540  1.00  0.00     0.293 HD
ENDBRANCH   4  12
BRANCH   6  14
ATOM     14  O   UNL     1      75.766  59.034   9.564  1.00  0.00    -0.504 OA
ATOM     15  H   UNL     1      75.020  58.574  10.073  1.00  0.00     0.293 HD
ENDBRANCH   6  14
TORSDOF 4
ENDMDL
MODEL 5
REMARK VINA RESULT:    -5.794      2.142      4.721
REMARK INTER + INTRA:          -6.875
REMARK INTER:                  -7.153
REMARK INTRA:                   0.277
REMARK UNBOUND:                -0.065
REMARK SMILES O=C([O-])C=Cc1ccc(O)c(O)c1
REMARK SMILES IDX 6 1 13 2 7 3 11 4 8 5 9 6 5 7 4 8 2 9 1 10 3 11 12 12 10 14
REMARK H PARENT 12 13 10 15
REMARK Flexibility Score: inf
ROOT
ATOM      1  C   UNL     1      81.723  61.021  10.741  1.00  0.00    -0.022 A 
ATOM      2  C   UNL     1      81.129  62.284  10.881  1.00  0.00     0.058 A 
ATOM      3  C   UNL     1      80.909  59.900  10.507  1.00  0.00     0.012 A 
ATOM      4  C   UNL     1      79.745  62.439  10.737  1.00  0.00     0.157 A 
ATOM      5  C   UNL     1      79.527  60.051  10.362  1.00  0.00     0.051 A 
ATOM      6  C   UNL     1      78.940  61.319  10.471  1.00  0.00     0.157 A 
ENDROOT
BRANCH   1   7
ATOM      7  C   UNL     1      83.179  60.879  10.951  1.00  0.00     0.010 C 
ATOM      8  C   UNL     1      83.769  59.923  11.685  1.00  0.00     0.025 C 
BRANCH   8   9
ATOM      9  C   UNL     1      83.097  58.744  12.266  1.00  0.00     0.064 C 
ATOM     10  O   UNL     1      83.262  57.590  11.791  1.00  0.00    -0.545 OA
ATOM     11  O   UNL     1      82.318  58.903  13.405  1.00  0.00    -0.545 OA
ENDBRANCH   8   9
ENDBRANCH   1   7
BRANCH   4  12
ATOM     12  O   UNL     1      79.191  63.713  10.862  1.00  0.00    -0.504 OA
ATOM     13  H   UNL     1      79.579  64.409  11.486  1.00  0.00     0.293 HD
ENDBRANCH   4  12
BRANCH   6  14
ATOM     14  O   UNL     1      77.562  61.468  10.323  1.00  0.00    -0.504 OA
ATOM     15  H   UNL     1      77.099  62.349  10.517  1.00  0.00     0.293 HD
ENDBRANCH   6  14
TORSDOF 4
ENDMDL
MODEL 6
REMARK VINA RESULT:    -5.737      1.655      2.532
REMARK INTER + INTRA:          -6.808
REMARK INTER:                  -6.701
REMARK INTRA:                  -0.107
REMARK UNBOUND:                -0.065
REMARK SMILES O=C([O-])C=Cc1ccc(O)c(O)c1
REMARK SMILES IDX 6 1 13 2 7 3 11 4 8 5 9 6 5 7 4 8 2 9 1 10 3 11 12 12 10 14
REMARK H PARENT 12 13 10 15
REMARK Flexibility Score: inf
ROOT
ATOM      1  C   UNL     1      79.698  60.145  11.796  1.00  0.00    -0.022 A 
ATOM      2  C   UNL     1      80.023  61.098  10.820  1.00  0.00     0.058 A 
ATOM      3  C   UNL     1      80.695  59.270  12.261  1.00  0.00     0.012 A 
ATOM      4  C   UNL     1      81.336  61.217  10.349  1.00  0.00     0.157 A 
ATOM      5  C   UNL     1      82.006  59.385  11.794  1.00  0.00     0.051 A 
ATOM      6  C   UNL     1      82.335  60.360  10.841  1.00  0.00     0.157 A 
ENDROOT
BRANCH   1   7
ATOM      7  C   UNL     1      78.294  60.007  12.236  1.00  0.00     0.010 C 
ATOM      8  C   UNL     1      77.262  59.666  11.448  1.00  0.00     0.025 C 
BRANCH   8   9
ATOM      9  C   UNL     1      77.363  59.194  10.053  1.00  0.00     0.064 C 
ATOM     10  O   UNL     1      77.549  57.980   9.779  1.00  0.00    -0.545 OA
ATOM     11  O   UNL     1      77.179  60.103   9.018  1.00  0.00    -0.545 OA
ENDBRANCH   8   9
ENDBRANCH   1   7
BRANCH   4  12
ATOM     12  O   UNL     1      81.626  62.189   9.393  1.00  0.00    -0.504 OA
ATOM     13  H   UNL     1      81.728  63.167   9.635  1.00  0.00     0.293 HD
ENDBRANCH   4  12
BRANCH   6  14
ATOM     14  O   UNL     1      83.644  60.475  10.379  1.00  0.00    -0.504 OA
ATOM     15  H   UNL     1      84.293  61.140  10.783  1.00  0.00     0.293 HD
ENDBRANCH   6  14
TORSDOF 4
ENDMDL
MODEL 7
REMARK VINA RESULT:    -5.616      2.302      5.554
REMARK INTER + INTRA:          -6.666
REMARK INTER:                  -6.554
REMARK INTRA:                  -0.112
REMARK UNBOUND:                -0.065
REMARK SMILES O=C([O-])C=Cc1ccc(O)c(O)c1
REMARK SMILES IDX 6 1 13 2 7 3 11 4 8 5 9 6 5 7 4 8 2 9 1 10 3 11 12 12 10 14
REMARK H PARENT 12 13 10 15
REMARK Flexibility Score: inf
ROOT
ATOM      1  C   UNL     1      79.291  59.845  11.227  1.00  0.00    -0.022 A 
ATOM      2  C   UNL     1      78.125  59.848  12.006  1.00  0.00     0.058 A 
ATOM      3  C   UNL     1      79.211  59.487   9.870  1.00  0.00     0.012 A 
ATOM      4  C   UNL     1      76.884  59.549  11.431  1.00  0.00     0.157 A 
ATOM      5  C   UNL     1      77.974  59.190   9.293  1.00  0.00     0.051 A 
ATOM      6  C   UNL     1      76.806  59.224  10.067  1.00  0.00     0.157 A 
ENDROOT
BRANCH   1   7
ATOM      7  C   UNL     1      80.594  60.111  11.872  1.00  0.00     0.010 C 
ATOM      8  C   UNL     1      81.436  61.104  11.545  1.00  0.00     0.025 C 
BRANCH   8   9
ATOM      9  C   UNL     1      81.142  62.212  10.614  1.00  0.00     0.064 C 
ATOM     10  O   UNL     1      81.779  62.355   9.538  1.00  0.00    -0.545 OA
ATOM     11  O   UNL     1      80.092  63.075  10.901  1.00  0.00    -0.545 OA
ENDBRANCH   8   9
ENDBRANCH   1   7
BRANCH   4  12
ATOM     12  O   UNL     1      75.743  59.581  12.232  1.00  0.00    -0.504 OA
ATOM     13  H   UNL     1      74.948  60.169  12.012  1.00  0.00     0.293 HD
ENDBRANCH   4  12
BRANCH   6  14
ATOM     14  O   UNL     1      75.573  58.929   9.488  1.00  0.00    -0.504 OA
ATOM     15  H   UNL     1      75.262  59.388   8.639  1.00  0.00     0.293 HD
ENDBRANCH   6  14
TORSDOF 4
ENDMDL
MODEL 8
REMARK VINA RESULT:    -5.584      2.139      3.146
REMARK INTER + INTRA:          -6.628
REMARK INTER:                  -6.389
REMARK INTRA:                  -0.239
REMARK UNBOUND:                -0.065
REMARK SMILES O=C([O-])C=Cc1ccc(O)c(O)c1
REMARK SMILES IDX 6 1 13 2 7 3 11 4 8 5 9 6 5 7 4 8 2 9 1 10 3 11 12 12 10 14
REMARK H PARENT 12 13 10 15
REMARK Flexibility Score: inf
ROOT
ATOM      1  C   UNL     1      79.162  60.154  11.192  1.00  0.00    -0.022 A 
ATOM      2  C   UNL     1      78.964  61.539  11.091  1.00  0.00     0.058 A 
ATOM      3  C   UNL     1      80.403  59.609  10.822  1.00  0.00     0.012 A 
ATOM      4  C   UNL     1      80.004  62.379  10.677  1.00  0.00     0.157 A 
ATOM      5  C   UNL     1      81.445  60.444  10.410  1.00  0.00     0.051 A 
ATOM      6  C   UNL     1      81.253  61.831  10.340  1.00  0.00     0.157 A 
ENDROOT
BRANCH   1   7
ATOM      7  C   UNL     1      78.030  59.287  11.579  1.00  0.00     0.010 C 
ATOM      8  C   UNL     1      77.127  58.763  10.736  1.00  0.00     0.025 C 
BRANCH   8   9
ATOM      9  C   UNL     1      77.198  58.806   9.262  1.00  0.00     0.064 C 
ATOM     10  O   UNL     1      77.445  57.775   8.583  1.00  0.00    -0.545 OA
ATOM     11  O   UNL     1      76.919  59.999   8.606  1.00  0.00    -0.545 OA
ENDBRANCH   8   9
ENDBRANCH   1   7
BRANCH   4  12
ATOM     12  O   UNL     1      79.777  63.753  10.607  1.00  0.00    -0.504 OA
ATOM     13  H   UNL     1      80.278  64.349   9.958  1.00  0.00     0.293 HD
ENDBRANCH   4  12
BRANCH   6  14
ATOM     14  O   UNL     1      82.294  62.662   9.931  1.00  0.00    -0.504 OA
ATOM     15  H   UNL     1      82.674  63.377  10.541  1.00  0.00     0.293 HD
ENDBRANCH   6  14
TORSDOF 4
ENDMDL
MODEL 9
REMARK VINA RESULT:    -5.580      2.211      3.961
REMARK INTER + INTRA:          -6.624
REMARK INTER:                  -6.697
REMARK INTRA:                   0.073
REMARK UNBOUND:                -0.065
REMARK SMILES O=C([O-])C=Cc1ccc(O)c(O)c1
REMARK SMILES IDX 6 1 13 2 7 3 11 4 8 5 9 6 5 7 4 8 2 9 1 10 3 11 12 12 10 14
REMARK H PARENT 12 13 10 15
REMARK Flexibility Score: inf
ROOT
ATOM      1  C   UNL     1      82.027  59.715  12.054  1.00  0.00    -0.022 A 
ATOM      2  C   UNL     1      82.906  60.806  11.974  1.00  0.00     0.058 A 
ATOM      3  C   UNL     1      80.955  59.629  11.150  1.00  0.00     0.012 A 
ATOM      4  C   UNL     1      82.752  61.772  10.973  1.00  0.00     0.157 A 
ATOM      5  C   UNL     1      80.799  60.591  10.149  1.00  0.00     0.051 A 
ATOM      6  C   UNL     1      81.697  61.663  10.052  1.00  0.00     0.157 A 
ENDROOT
BRANCH   1   7
ATOM      7  C   UNL     1      82.182  58.740  13.154  1.00  0.00     0.010 C 
ATOM      8  C   UNL     1      82.895  57.604  13.092  1.00  0.00     0.025 C 
BRANCH   8   9
ATOM      9  C   UNL     1      83.794  57.210  11.989  1.00  0.00     0.064 C 
ATOM     10  O   UNL     1      84.554  58.042  11.429  1.00  0.00    -0.545 OA
ATOM     11  O   UNL     1      83.850  55.875  11.608  1.00  0.00    -0.545 OA
ENDBRANCH   8   9
ENDBRANCH   1   7
BRANCH   4  12
ATOM     12  O   UNL     1      83.656  62.832  10.911  1.00  0.00    -0.504 OA
ATOM     13  H   UNL     1      83.576  63.643  11.513  1.00  0.00     0.293 HD
ENDBRANCH   4  12
BRANCH   6  14
ATOM     14  O   UNL     1      81.540  62.619   9.051  1.00  0.00    -0.504 OA
ATOM     15  H   UNL     1      80.758  63.264   9.050  1.00  0.00     0.293 HD
ENDBRANCH   6  14
TORSDOF 4
ENDMDL
