MODEL 1
REMARK VINA RESULT:    -4.429      0.000      0.000
REMARK INTER + INTRA:         -10.046
REMARK INTER:                  -8.055
REMARK INTRA:                  -1.991
REMARK UNBOUND:                -1.991
REMARK SMILES CCCCCCCCCCCCCCCC(=O)[O-]
REMARK SMILES IDX 9 1 10 2 11 3 12 4 13 5 14 6 15 7 16 8 17 9 18 10 8 11 7 12
REMARK SMILES IDX 6 13 5 14 4 15 3 16 2 17 1 18
REMARK H PARENT
REMARK Flexibility Score: inf
ROOT
ATOM      1  C   UNL     1      15.370   2.919   0.899  1.00  0.00     0.000 C 
ENDROOT
BRANCH   1   2
ATOM      2  C   UNL     1      14.190   3.251   1.829  1.00  0.00     0.000 C 
BRANCH   2   3
ATOM      3  C   UNL     1      13.611   4.658   1.564  1.00  0.00     0.000 C 
BRANCH   3   4
ATOM      4  C   UNL     1      12.194   4.860   2.138  1.00  0.00     0.000 C 
BRANCH   4   5
ATOM      5  C   UNL     1      11.047   4.415   1.212  1.00  0.00     0.000 C 
BRANCH   5   6
ATOM      6  C   UNL     1       9.868   5.405   1.104  1.00  0.00     0.006 C 
BRANCH   6   7
ATOM      7  C   UNL     1       8.564   4.775   0.579  1.00  0.00     0.053 C 
BRANCH   7   8
ATOM      8  C   UNL     1       8.716   4.186  -0.792  1.00  0.00     0.041 C 
ATOM      9  O   UNL     1       9.019   4.920  -1.770  1.00  0.00    -0.550 OA
ATOM     10  O   UNL     1       8.488   2.831  -0.997  1.00  0.00    -0.550 OA
ENDBRANCH   7   8
ENDBRANCH   6   7
ENDBRANCH   5   6
ENDBRANCH   4   5
ENDBRANCH   3   4
ENDBRANCH   2   3
ENDBRANCH   1   2
BRANCH   1  11
ATOM     11  C   UNL     1      15.404   3.799  -0.365  1.00  0.00     0.000 C 
BRANCH  11  12
ATOM     12  C   UNL     1      15.401   3.026  -1.696  1.00  0.00    -0.000 C 
BRANCH  12  13
ATOM     13  C   UNL     1      16.351   1.814  -1.682  1.00  0.00    -0.000 C 
BRANCH  13  14
ATOM     14  C   UNL     1      15.661   0.517  -2.136  1.00  0.00    -0.000 C 
BRANCH  14  15
ATOM     15  C   UNL     1      14.139   0.679  -2.308  1.00  0.00    -0.000 C 
BRANCH  15  16
ATOM     16  C   UNL     1      13.349  -0.013  -1.176  1.00  0.00    -0.000 C 
BRANCH  16  17
ATOM     17  C   UNL     1      12.322   0.903  -0.488  1.00  0.00    -0.003 C 
ATOM     18  C   UNL     1      11.922   2.108  -1.338  1.00  0.00     0.004 C 
ENDBRANCH  16  17
ENDBRANCH  15  16
ENDBRANCH  14  15
ENDBRANCH  13  14
ENDBRANCH  12  13
ENDBRANCH  11  12
ENDBRANCH   1  11
TORSDOF 14
ENDMDL
MODEL 2
REMARK VINA RESULT:    -4.326      1.486      2.163
REMARK INTER + INTRA:          -9.858
REMARK INTER:                  -7.957
REMARK INTRA:                  -1.901
REMARK UNBOUND:                -1.991
REMARK SMILES CCCCCCCCCCCCCCCC(=O)[O-]
REMARK SMILES IDX 9 1 10 2 11 3 12 4 13 5 14 6 15 7 16 8 17 9 18 10 8 11 7 12
REMARK SMILES IDX 6 13 5 14 4 15 3 16 2 17 1 18
REMARK H PARENT
REMARK Flexibility Score: inf
ROOT
ATOM      1  C   UNL     1      14.676   3.351   1.799  1.00  0.00     0.000 C 
ENDROOT
BRANCH   1   2
ATOM      2  C   UNL     1      13.200   3.349   2.235  1.00  0.00     0.000 C 
BRANCH   2   3
ATOM      3  C   UNL     1      12.533   4.730   2.058  1.00  0.00     0.000 C 
BRANCH   3   4
ATOM      4  C   UNL     1      11.021   4.652   1.765  1.00  0.00     0.000 C 
BRANCH   4   5
ATOM      5  C   UNL     1      10.655   4.095   0.377  1.00  0.00     0.000 C 
BRANCH   5   6
ATOM      6  C   UNL     1       9.149   4.115   0.037  1.00  0.00     0.006 C 
BRANCH   6   7
ATOM      7  C   UNL     1       8.828   4.656  -1.368  1.00  0.00     0.053 C 
BRANCH   7   8
ATOM      8  C   UNL     1       8.769   6.154  -1.412  1.00  0.00     0.041 C 
ATOM      9  O   UNL     1       8.811   6.761  -2.515  1.00  0.00    -0.550 OA
ATOM     10  O   UNL     1       8.706   6.884  -0.231  1.00  0.00    -0.550 OA
ENDBRANCH   7   8
ENDBRANCH   6   7
ENDBRANCH   5   6
ENDBRANCH   4   5
ENDBRANCH   3   4
ENDBRANCH   2   3
ENDBRANCH   1   2
BRANCH   1  11
ATOM     11  C   UNL     1      14.938   4.251   0.576  1.00  0.00     0.000 C 
BRANCH  11  12
ATOM     12  C   UNL     1      15.759   3.596  -0.550  1.00  0.00    -0.000 C 
BRANCH  12  13
ATOM     13  C   UNL     1      15.046   3.649  -1.913  1.00  0.00    -0.000 C 
BRANCH  13  14
ATOM     14  C   UNL     1      13.522   3.476  -1.789  1.00  0.00    -0.000 C 
BRANCH  14  15
ATOM     15  C   UNL     1      13.043   2.076  -2.217  1.00  0.00    -0.000 C 
BRANCH  15  16
ATOM     16  C   UNL     1      13.071   1.068  -1.048  1.00  0.00    -0.000 C 
BRANCH  16  17
ATOM     17  C   UNL     1      14.049  -0.101  -1.260  1.00  0.00    -0.003 C 
ATOM     18  C   UNL     1      14.868   0.023  -2.544  1.00  0.00     0.004 C 
ENDBRANCH  16  17
ENDBRANCH  15  16
ENDBRANCH  14  15
ENDBRANCH  13  14
ENDBRANCH  12  13
ENDBRANCH  11  12
ENDBRANCH   1  11
TORSDOF 14
ENDMDL
MODEL 3
REMARK VINA RESULT:    -4.300      1.247      1.827
REMARK INTER + INTRA:          -9.809
REMARK INTER:                  -7.944
REMARK INTRA:                  -1.865
REMARK UNBOUND:                -1.991
REMARK SMILES CCCCCCCCCCCCCCCC(=O)[O-]
REMARK SMILES IDX 9 1 10 2 11 3 12 4 13 5 14 6 15 7 16 8 17 9 18 10 8 11 7 12
REMARK SMILES IDX 6 13 5 14 4 15 3 16 2 17 1 18
REMARK H PARENT
REMARK Flexibility Score: inf
ROOT
ATOM      1  C   UNL     1      15.258   3.809  -0.322  1.00  0.00     0.000 C 
ENDROOT
BRANCH   1   2
ATOM      2  C   UNL     1      15.271   2.889   0.913  1.00  0.00     0.000 C 
BRANCH   2   3
ATOM      3  C   UNL     1      14.499   3.495   2.105  1.00  0.00     0.000 C 
BRANCH   3   4
ATOM      4  C   UNL     1      12.971   3.514   1.904  1.00  0.00     0.000 C 
BRANCH   4   5
ATOM      5  C   UNL     1      12.327   4.913   1.938  1.00  0.00     0.000 C 
BRANCH   5   6
ATOM      6  C   UNL     1      10.783   4.925   1.952  1.00  0.00     0.006 C 
BRANCH   6   7
ATOM      7  C   UNL     1      10.141   4.829   0.556  1.00  0.00     0.053 C 
BRANCH   7   8
ATOM      8  C   UNL     1       9.188   5.954   0.278  1.00  0.00     0.041 C 
ATOM      9  O   UNL     1       9.187   6.525  -0.845  1.00  0.00    -0.550 OA
ATOM     10  O   UNL     1       8.324   6.397   1.273  1.00  0.00    -0.550 OA
ENDBRANCH   7   8
ENDBRANCH   6   7
ENDBRANCH   5   6
ENDBRANCH   4   5
ENDBRANCH   3   4
ENDBRANCH   2   3
ENDBRANCH   1   2
BRANCH   1  11
ATOM     11  C   UNL     1      15.298   3.029  -1.649  1.00  0.00     0.000 C 
BRANCH  11  12
ATOM     12  C   UNL     1      16.311   1.870  -1.692  1.00  0.00    -0.000 C 
BRANCH  12  13
ATOM     13  C   UNL     1      15.639   0.501  -1.900  1.00  0.00    -0.000 C 
BRANCH  13  14
ATOM     14  C   UNL     1      14.198   0.625  -2.425  1.00  0.00    -0.000 C 
BRANCH  14  15
ATOM     15  C   UNL     1      13.178  -0.134  -1.556  1.00  0.00    -0.000 C 
BRANCH  15  16
ATOM     16  C   UNL     1      12.500   0.785  -0.517  1.00  0.00    -0.000 C 
BRANCH  16  17
ATOM     17  C   UNL     1      11.632   1.891  -1.140  1.00  0.00    -0.003 C 
ATOM     18  C   UNL     1      10.158   1.505  -1.262  1.00  0.00     0.004 C 
ENDBRANCH  16  17
ENDBRANCH  15  16
ENDBRANCH  14  15
ENDBRANCH  13  14
ENDBRANCH  12  13
ENDBRANCH  11  12
ENDBRANCH   1  11
TORSDOF 14
ENDMDL
MODEL 4
REMARK VINA RESULT:    -4.277      4.175      5.515
REMARK INTER + INTRA:          -9.769
REMARK INTER:                  -8.033
REMARK INTRA:                  -1.736
REMARK UNBOUND:                -1.991
REMARK SMILES CCCCCCCCCCCCCCCC(=O)[O-]
REMARK SMILES IDX 9 1 10 2 11 3 12 4 13 5 14 6 15 7 16 8 17 9 18 10 8 11 7 12
REMARK SMILES IDX 6 13 5 14 4 15 3 16 2 17 1 18
REMARK H PARENT
REMARK Flexibility Score: inf
ROOT
ATOM      1  C   UNL     1      14.653   4.072   0.563  1.00  0.00     0.000 C 
ENDROOT
BRANCH   1   2
ATOM      2  C   UNL     1      15.050   3.151   1.731  1.00  0.00     0.000 C 
BRANCH   2   3
ATOM      3  C   UNL     1      13.899   2.215   2.159  1.00  0.00     0.000 C 
BRANCH   3   4
ATOM      4  C   UNL     1      14.187   1.436   3.457  1.00  0.00     0.000 C 
BRANCH   4   5
ATOM      5  C   UNL     1      15.427   1.908   4.239  1.00  0.00     0.000 C 
BRANCH   5   6
ATOM      6  C   UNL     1      15.453   1.514   5.731  1.00  0.00     0.006 C 
BRANCH   6   7
ATOM      7  C   UNL     1      14.104   1.695   6.452  1.00  0.00     0.053 C 
BRANCH   7   8
ATOM      8  C   UNL     1      13.609   0.426   7.081  1.00  0.00     0.041 C 
ATOM      9  O   UNL     1      12.427   0.346   7.507  1.00  0.00    -0.550 OA
ATOM     10  O   UNL     1      14.466  -0.658   7.229  1.00  0.00    -0.550 OA
ENDBRANCH   7   8
ENDBRANCH   6   7
ENDBRANCH   5   6
ENDBRANCH   4   5
ENDBRANCH   3   4
ENDBRANCH   2   3
ENDBRANCH   1   2
BRANCH   1  11
ATOM     11  C   UNL     1      15.510   3.843  -0.697  1.00  0.00     0.000 C 
BRANCH  11  12
ATOM     12  C   UNL     1      16.453   2.628  -0.631  1.00  0.00    -0.000 C 
BRANCH  12  13
ATOM     13  C   UNL     1      16.229   1.639  -1.789  1.00  0.00    -0.000 C 
BRANCH  13  14
ATOM     14  C   UNL     1      15.207   0.543  -1.440  1.00  0.00    -0.000 C 
BRANCH  14  15
ATOM     15  C   UNL     1      14.100   0.399  -2.501  1.00  0.00    -0.000 C 
BRANCH  15  16
ATOM     16  C   UNL     1      13.098   1.572  -2.462  1.00  0.00    -0.000 C 
BRANCH  16  17
ATOM     17  C   UNL     1      12.276   1.643  -1.163  1.00  0.00    -0.003 C 
ATOM     18  C   UNL     1      11.571   2.985  -0.968  1.00  0.00     0.004 C 
ENDBRANCH  16  17
ENDBRANCH  15  16
ENDBRANCH  14  15
ENDBRANCH  13  14
ENDBRANCH  12  13
ENDBRANCH  11  12
ENDBRANCH   1  11
TORSDOF 14
ENDMDL
MODEL 5
REMARK VINA RESULT:    -4.239      2.539      5.305
REMARK INTER + INTRA:          -9.699
REMARK INTER:                  -8.004
REMARK INTRA:                  -1.695
REMARK UNBOUND:                -1.991
REMARK SMILES CCCCCCCCCCCCCCCC(=O)[O-]
REMARK SMILES IDX 9 1 10 2 11 3 12 4 13 5 14 6 15 7 16 8 17 9 18 10 8 11 7 12
REMARK SMILES IDX 6 13 5 14 4 15 3 16 2 17 1 18
REMARK H PARENT
REMARK Flexibility Score: inf
ROOT
ATOM      1  C   UNL     1      15.312   3.730  -0.850  1.00  0.00     0.000 C 
ENDROOT
BRANCH   1   2
ATOM      2  C   UNL     1      16.390   2.647  -0.660  1.00  0.00     0.000 C 
BRANCH   2   3
ATOM      3  C   UNL     1      16.274   1.514  -1.703  1.00  0.00     0.000 C 
BRANCH   3   4
ATOM      4  C   UNL     1      15.053   0.598  -1.485  1.00  0.00     0.000 C 
BRANCH   4   5
ATOM      5  C   UNL     1      14.022   0.604  -2.629  1.00  0.00     0.000 C 
BRANCH   5   6
ATOM      6  C   UNL     1      12.600   1.053  -2.230  1.00  0.00     0.006 C 
BRANCH   6   7
ATOM      7  C   UNL     1      12.410   1.270  -0.718  1.00  0.00     0.053 C 
BRANCH   7   8
ATOM      8  C   UNL     1      11.386   2.321  -0.407  1.00  0.00     0.041 C 
ATOM      9  O   UNL     1      10.490   2.103   0.450  1.00  0.00    -0.550 OA
ATOM     10  O   UNL     1      11.400   3.531  -1.092  1.00  0.00    -0.550 OA
ENDBRANCH   7   8
ENDBRANCH   6   7
ENDBRANCH   5   6
ENDBRANCH   4   5
ENDBRANCH   3   4
ENDBRANCH   2   3
ENDBRANCH   1   2
BRANCH   1  11
ATOM     11  C   UNL     1      14.572   4.074   0.457  1.00  0.00     0.000 C 
BRANCH  11  12
ATOM     12  C   UNL     1      15.087   3.339   1.708  1.00  0.00    -0.000 C 
BRANCH  12  13
ATOM     13  C   UNL     1      14.057   2.346   2.278  1.00  0.00    -0.000 C 
BRANCH  13  14
ATOM     14  C   UNL     1      14.703   1.279   3.179  1.00  0.00    -0.000 C 
BRANCH  14  15
ATOM     15  C   UNL     1      15.574   1.887   4.295  1.00  0.00    -0.000 C 
BRANCH  15  16
ATOM     16  C   UNL     1      15.332   1.207   5.659  1.00  0.00    -0.000 C 
BRANCH  16  17
ATOM     17  C   UNL     1      14.178   1.827   6.466  1.00  0.00    -0.003 C 
ATOM     18  C   UNL     1      13.069   0.830   6.797  1.00  0.00     0.004 C 
ENDBRANCH  16  17
ENDBRANCH  15  16
ENDBRANCH  14  15
ENDBRANCH  13  14
ENDBRANCH  12  13
ENDBRANCH  11  12
ENDBRANCH   1  11
TORSDOF 14
ENDMDL
MODEL 6
REMARK VINA RESULT:    -4.207      4.731      6.067
REMARK INTER + INTRA:          -9.641
REMARK INTER:                  -7.914
REMARK INTRA:                  -1.727
REMARK UNBOUND:                -1.991
REMARK SMILES CCCCCCCCCCCCCCCC(=O)[O-]
REMARK SMILES IDX 9 1 10 2 11 3 12 4 13 5 14 6 15 7 16 8 17 9 18 10 8 11 7 12
REMARK SMILES IDX 6 13 5 14 4 15 3 16 2 17 1 18
REMARK H PARENT
REMARK Flexibility Score: inf
ROOT
ATOM      1  C   UNL     1      14.508   3.790   0.861  1.00  0.00     0.000 C 
ENDROOT
BRANCH   1   2
ATOM      2  C   UNL     1      15.121   3.045   2.062  1.00  0.00     0.000 C 
BRANCH   2   3
ATOM      3  C   UNL     1      14.510   1.641   2.256  1.00  0.00     0.000 C 
BRANCH   3   4
ATOM      4  C   UNL     1      14.803   1.027   3.640  1.00  0.00     0.000 C 
BRANCH   4   5
ATOM      5  C   UNL     1      13.907   1.541   4.783  1.00  0.00     0.000 C 
BRANCH   5   6
ATOM      6  C   UNL     1      14.561   1.542   6.181  1.00  0.00     0.006 C 
BRANCH   6   7
ATOM      7  C   UNL     1      15.878   0.748   6.259  1.00  0.00     0.053 C 
BRANCH   7   8
ATOM      8  C   UNL     1      17.064   1.622   6.545  1.00  0.00     0.041 C 
ATOM      9  O   UNL     1      17.305   2.624   5.821  1.00  0.00    -0.550 OA
ATOM     10  O   UNL     1      17.926   1.308   7.589  1.00  0.00    -0.550 OA
ENDBRANCH   7   8
ENDBRANCH   6   7
ENDBRANCH   5   6
ENDBRANCH   4   5
ENDBRANCH   3   4
ENDBRANCH   2   3
ENDBRANCH   1   2
BRANCH   1  11
ATOM     11  C   UNL     1      15.539   4.103  -0.240  1.00  0.00     0.000 C 
BRANCH  11  12
ATOM     12  C   UNL     1      15.393   3.265  -1.524  1.00  0.00    -0.000 C 
BRANCH  12  13
ATOM     13  C   UNL     1      16.058   1.881  -1.407  1.00  0.00    -0.000 C 
BRANCH  13  14
ATOM     14  C   UNL     1      15.232   0.771  -2.081  1.00  0.00    -0.000 C 
BRANCH  14  15
ATOM     15  C   UNL     1      14.600  -0.202  -1.068  1.00  0.00    -0.000 C 
BRANCH  15  16
ATOM     16  C   UNL     1      13.080   0.020  -0.920  1.00  0.00    -0.000 C 
BRANCH  16  17
ATOM     17  C   UNL     1      12.510   1.082  -1.877  1.00  0.00    -0.003 C 
ATOM     18  C   UNL     1      11.742   2.191  -1.159  1.00  0.00     0.004 C 
ENDBRANCH  16  17
ENDBRANCH  15  16
ENDBRANCH  14  15
ENDBRANCH  13  14
ENDBRANCH  12  13
ENDBRANCH  11  12
ENDBRANCH   1  11
TORSDOF 14
ENDMDL
MODEL 7
REMARK VINA RESULT:    -4.192      2.798      5.656
REMARK INTER + INTRA:          -9.614
REMARK INTER:                  -8.106
REMARK INTRA:                  -1.509
REMARK UNBOUND:                -1.991
REMARK SMILES CCCCCCCCCCCCCCCC(=O)[O-]
REMARK SMILES IDX 9 1 10 2 11 3 12 4 13 5 14 6 15 7 16 8 17 9 18 10 8 11 7 12
REMARK SMILES IDX 6 13 5 14 4 15 3 16 2 17 1 18
REMARK H PARENT
REMARK Flexibility Score: inf
ROOT
ATOM      1  C   UNL     1      15.285   3.845  -0.265  1.00  0.00     0.000 C 
ENDROOT
BRANCH   1   2
ATOM      2  C   UNL     1      16.277   2.679  -0.430  1.00  0.00     0.000 C 
BRANCH   2   3
ATOM      3  C   UNL     1      16.061   1.905  -1.748  1.00  0.00     0.000 C 
BRANCH   3   4
ATOM      4  C   UNL     1      15.130   0.684  -1.601  1.00  0.00     0.000 C 
BRANCH   4   5
ATOM      5  C   UNL     1      13.875   0.711  -2.493  1.00  0.00     0.000 C 
BRANCH   5   6
ATOM      6  C   UNL     1      12.534   0.557  -1.744  1.00  0.00     0.006 C 
BRANCH   6   7
ATOM      7  C   UNL     1      12.498   1.251  -0.370  1.00  0.00     0.053 C 
BRANCH   7   8
ATOM      8  C   UNL     1      11.500   2.370  -0.312  1.00  0.00     0.041 C 
ATOM      9  O   UNL     1      11.680   3.419  -0.986  1.00  0.00    -0.550 OA
ATOM     10  O   UNL     1      10.388   2.270   0.515  1.00  0.00    -0.550 OA
ENDBRANCH   7   8
ENDBRANCH   6   7
ENDBRANCH   5   6
ENDBRANCH   4   5
ENDBRANCH   3   4
ENDBRANCH   2   3
ENDBRANCH   1   2
BRANCH   1  11
ATOM     11  C   UNL     1      14.590   3.850   1.109  1.00  0.00     0.000 C 
BRANCH  11  12
ATOM     12  C   UNL     1      15.301   3.030   2.201  1.00  0.00    -0.000 C 
BRANCH  12  13
ATOM     13  C   UNL     1      14.373   1.997   2.867  1.00  0.00    -0.000 C 
BRANCH  13  14
ATOM     14  C   UNL     1      15.046   1.273   4.046  1.00  0.00    -0.000 C 
BRANCH  14  15
ATOM     15  C   UNL     1      14.248   1.398   5.357  1.00  0.00    -0.000 C 
BRANCH  15  16
ATOM     16  C   UNL     1      15.109   1.951   6.513  1.00  0.00    -0.000 C 
BRANCH  16  17
ATOM     17  C   UNL     1      16.548   2.306   6.099  1.00  0.00    -0.003 C 
ATOM     18  C   UNL     1      17.603   1.429   6.772  1.00  0.00     0.004 C 
ENDBRANCH  16  17
ENDBRANCH  15  16
ENDBRANCH  14  15
ENDBRANCH  13  14
ENDBRANCH  12  13
ENDBRANCH  11  12
ENDBRANCH   1  11
TORSDOF 14
ENDMDL
MODEL 8
REMARK VINA RESULT:    -4.163      4.280      5.958
REMARK INTER + INTRA:          -9.561
REMARK INTER:                  -7.354
REMARK INTRA:                  -2.207
REMARK UNBOUND:                -1.991
REMARK SMILES CCCCCCCCCCCCCCCC(=O)[O-]
REMARK SMILES IDX 9 1 10 2 11 3 12 4 13 5 14 6 15 7 16 8 17 9 18 10 8 11 7 12
REMARK SMILES IDX 6 13 5 14 4 15 3 16 2 17 1 18
REMARK H PARENT
REMARK Flexibility Score: inf
ROOT
ATOM      1  C   UNL     1      15.342   3.363  -1.433  1.00  0.00     0.000 C 
ENDROOT
BRANCH   1   2
ATOM      2  C   UNL     1      15.302   3.808   0.041  1.00  0.00     0.000 C 
BRANCH   2   3
ATOM      3  C   UNL     1      15.446   2.620   1.016  1.00  0.00     0.000 C 
BRANCH   3   4
ATOM      4  C   UNL     1      15.038   2.958   2.464  1.00  0.00     0.000 C 
BRANCH   4   5
ATOM      5  C   UNL     1      14.266   1.847   3.200  1.00  0.00     0.000 C 
BRANCH   5   6
ATOM      6  C   UNL     1      14.552   1.739   4.713  1.00  0.00     0.006 C 
BRANCH   6   7
ATOM      7  C   UNL     1      15.764   0.856   5.062  1.00  0.00     0.053 C 
BRANCH   7   8
ATOM      8  C   UNL     1      16.793   1.581   5.878  1.00  0.00     0.041 C 
ATOM      9  O   UNL     1      17.519   0.951   6.694  1.00  0.00    -0.550 OA
ATOM     10  O   UNL     1      16.927   2.959   5.765  1.00  0.00    -0.550 OA
ENDBRANCH   7   8
ENDBRANCH   6   7
ENDBRANCH   5   6
ENDBRANCH   4   5
ENDBRANCH   3   4
ENDBRANCH   2   3
ENDBRANCH   1   2
BRANCH   1  11
ATOM     11  C   UNL     1      15.844   1.917  -1.609  1.00  0.00     0.000 C 
BRANCH  11  12
ATOM     12  C   UNL     1      14.802   0.932  -2.172  1.00  0.00    -0.000 C 
BRANCH  12  13
ATOM     13  C   UNL     1      14.168   0.051  -1.079  1.00  0.00    -0.000 C 
BRANCH  13  14
ATOM     14  C   UNL     1      12.714   0.449  -0.772  1.00  0.00    -0.000 C 
BRANCH  14  15
ATOM     15  C   UNL     1      12.167   1.512  -1.743  1.00  0.00    -0.000 C 
BRANCH  15  16
ATOM     16  C   UNL     1      11.625   2.753  -1.002  1.00  0.00    -0.000 C 
BRANCH  16  17
ATOM     17  C   UNL     1      11.737   2.660   0.529  1.00  0.00    -0.003 C 
ATOM     18  C   UNL     1      11.726   4.024   1.219  1.00  0.00     0.004 C 
ENDBRANCH  16  17
ENDBRANCH  15  16
ENDBRANCH  14  15
ENDBRANCH  13  14
ENDBRANCH  12  13
ENDBRANCH  11  12
ENDBRANCH   1  11
TORSDOF 14
ENDMDL
MODEL 9
REMARK VINA RESULT:    -4.149      2.390      4.689
REMARK INTER + INTRA:          -9.536
REMARK INTER:                  -7.892
REMARK INTRA:                  -1.644
REMARK UNBOUND:                -1.991
REMARK SMILES CCCCCCCCCCCCCCCC(=O)[O-]
REMARK SMILES IDX 9 1 10 2 11 3 12 4 13 5 14 6 15 7 16 8 17 9 18 10 8 11 7 12
REMARK SMILES IDX 6 13 5 14 4 15 3 16 2 17 1 18
REMARK H PARENT
REMARK Flexibility Score: inf
ROOT
ATOM      1  C   UNL     1      16.030   1.729  -1.751  1.00  0.00     0.000 C 
ENDROOT
BRANCH   1   2
ATOM      2  C   UNL     1      14.848   0.785  -1.464  1.00  0.00     0.000 C 
BRANCH   2   3
ATOM      3  C   UNL     1      13.706   0.946  -2.490  1.00  0.00     0.000 C 
BRANCH   3   4
ATOM      4  C   UNL     1      12.305   1.003  -1.848  1.00  0.00     0.000 C 
BRANCH   4   5
ATOM      5  C   UNL     1      12.267   1.565  -0.415  1.00  0.00     0.000 C 
BRANCH   5   6
ATOM      6  C   UNL     1      11.773   3.023  -0.293  1.00  0.00     0.006 C 
BRANCH   6   7
ATOM      7  C   UNL     1      10.631   3.217   0.722  1.00  0.00     0.053 C 
BRANCH   7   8
ATOM      8  C   UNL     1      10.675   4.558   1.393  1.00  0.00     0.041 C 
ATOM      9  O   UNL     1      11.778   5.075   1.712  1.00  0.00    -0.550 OA
ATOM     10  O   UNL     1       9.493   5.222   1.699  1.00  0.00    -0.550 OA
ENDBRANCH   7   8
ENDBRANCH   6   7
ENDBRANCH   5   6
ENDBRANCH   4   5
ENDBRANCH   3   4
ENDBRANCH   2   3
ENDBRANCH   1   2
BRANCH   1  11
ATOM     11  C   UNL     1      16.396   2.615  -0.545  1.00  0.00     0.000 C 
BRANCH  11  12
ATOM     12  C   UNL     1      15.339   3.669  -0.168  1.00  0.00    -0.000 C 
BRANCH  12  13
ATOM     13  C   UNL     1      15.023   3.680   1.339  1.00  0.00    -0.000 C 
BRANCH  13  14
ATOM     14  C   UNL     1      15.031   2.270   1.953  1.00  0.00    -0.000 C 
BRANCH  14  15
ATOM     15  C   UNL     1      14.665   2.267   3.449  1.00  0.00    -0.000 C 
BRANCH  15  16
ATOM     16  C   UNL     1      15.415   1.167   4.230  1.00  0.00    -0.000 C 
BRANCH  16  17
ATOM     17  C   UNL     1      15.771   1.563   5.674  1.00  0.00    -0.003 C 
ATOM     18  C   UNL     1      16.862   2.631   5.754  1.00  0.00     0.004 C 
ENDBRANCH  16  17
ENDBRANCH  15  16
ENDBRANCH  14  15
ENDBRANCH  13  14
ENDBRANCH  12  13
ENDBRANCH  11  12
ENDBRANCH   1  11
TORSDOF 14
ENDMDL
