MODEL 1
REMARK VINA RESULT:    -4.124      0.000      0.000
REMARK INTER + INTRA:          -9.957
REMARK INTER:                  -7.740
REMARK INTRA:                  -2.217
REMARK UNBOUND:                -2.217
REMARK SMILES O=C([O-])CCCCCCCCCCCCCCC(=O)[O-]
REMARK SMILES IDX 10 1 9 2 8 3 7 4 6 5 5 6 4 7 2 8 1 9 3 10 11 11 12 12 13 13
REMARK SMILES IDX 14 14 15 15 16 16 17 17 18 18 19 19 20 20
REMARK H PARENT
REMARK Flexibility Score: inf
ROOT
ATOM      1  C   UNL     1      37.187  34.760  24.630  1.00  0.00     0.000 C 
ENDROOT
BRANCH   1   2
ATOM      2  C   UNL     1      38.255  34.713  25.740  1.00  0.00     0.000 C 
BRANCH   2   3
ATOM      3  C   UNL     1      38.101  33.565  26.754  1.00  0.00     0.000 C 
BRANCH   3   4
ATOM      4  C   UNL     1      36.768  33.618  27.521  1.00  0.00     0.000 C 
BRANCH   4   5
ATOM      5  C   UNL     1      36.767  34.674  28.638  1.00  0.00     0.000 C 
BRANCH   5   6
ATOM      6  C   UNL     1      35.682  35.744  28.444  1.00  0.00     0.006 C 
BRANCH   6   7
ATOM      7  C   UNL     1      35.924  36.945  29.366  1.00  0.00     0.053 C 
BRANCH   7   8
ATOM      8  C   UNL     1      37.115  37.726  28.906  1.00  0.00     0.041 C 
ATOM      9  O   UNL     1      37.921  38.207  29.746  1.00  0.00    -0.550 OA
ATOM     10  O   UNL     1      37.359  37.888  27.548  1.00  0.00    -0.550 OA
ENDBRANCH   7   8
ENDBRANCH   6   7
ENDBRANCH   5   6
ENDBRANCH   4   5
ENDBRANCH   3   4
ENDBRANCH   2   3
ENDBRANCH   1   2
BRANCH   1  11
ATOM     11  C   UNL     1      36.299  36.014  24.702  1.00  0.00     0.000 C 
BRANCH  11  12
ATOM     12  C   UNL     1      34.803  35.685  24.843  1.00  0.00     0.000 C 
BRANCH  12  13
ATOM     13  C   UNL     1      34.388  34.291  24.338  1.00  0.00     0.000 C 
BRANCH  13  14
ATOM     14  C   UNL     1      33.844  33.385  25.456  1.00  0.00     0.000 C 
BRANCH  14  15
ATOM     15  C   UNL     1      34.380  31.947  25.366  1.00  0.00     0.000 C 
BRANCH  15  16
ATOM     16  C   UNL     1      35.078  31.660  24.027  1.00  0.00     0.006 C 
BRANCH  16  17
ATOM     17  C   UNL     1      34.438  30.480  23.282  1.00  0.00     0.053 C 
BRANCH  17  18
ATOM     18  C   UNL     1      33.649  30.936  22.093  1.00  0.00     0.041 C 
ATOM     19  O   UNL     1      32.643  31.677  22.247  1.00  0.00    -0.550 OA
ATOM     20  O   UNL     1      34.002  30.513  20.818  1.00  0.00    -0.550 OA
ENDBRANCH  17  18
ENDBRANCH  16  17
ENDBRANCH  15  16
ENDBRANCH  14  15
ENDBRANCH  13  14
ENDBRANCH  12  13
ENDBRANCH  11  12
ENDBRANCH   1  11
TORSDOF 15
ENDMDL
MODEL 2
REMARK VINA RESULT:    -4.078      1.938      9.011
REMARK INTER + INTRA:          -9.871
REMARK INTER:                  -8.985
REMARK INTRA:                  -0.886
REMARK UNBOUND:                -2.217
REMARK SMILES O=C([O-])CCCCCCCCCCCCCCC(=O)[O-]
REMARK SMILES IDX 10 1 9 2 8 3 7 4 6 5 5 6 4 7 2 8 1 9 3 10 11 11 12 12 13 13
REMARK SMILES IDX 14 14 15 15 16 16 17 17 18 18 19 19 20 20
REMARK H PARENT
REMARK Flexibility Score: inf
ROOT
ATOM      1  C   UNL     1      34.041  32.348  25.527  1.00  0.00     0.000 C 
ENDROOT
BRANCH   1   2
ATOM      2  C   UNL     1      34.586  31.275  24.567  1.00  0.00     0.000 C 
BRANCH   2   3
ATOM      3  C   UNL     1      34.499  31.625  23.069  1.00  0.00     0.000 C 
BRANCH   3   4
ATOM      4  C   UNL     1      33.079  32.021  22.629  1.00  0.00     0.000 C 
BRANCH   4   5
ATOM      5  C   UNL     1      32.447  30.996  21.673  1.00  0.00     0.000 C 
BRANCH   5   6
ATOM      6  C   UNL     1      32.975  29.571  21.895  1.00  0.00     0.006 C 
BRANCH   6   7
ATOM      7  C   UNL     1      32.760  28.705  20.649  1.00  0.00     0.053 C 
BRANCH   7   8
ATOM      8  C   UNL     1      33.610  29.193  19.519  1.00  0.00     0.041 C 
ATOM      9  O   UNL     1      34.862  29.238  19.640  1.00  0.00    -0.550 OA
ATOM     10  O   UNL     1      33.021  29.560  18.315  1.00  0.00    -0.550 OA
ENDBRANCH   7   8
ENDBRANCH   6   7
ENDBRANCH   5   6
ENDBRANCH   4   5
ENDBRANCH   3   4
ENDBRANCH   2   3
ENDBRANCH   1   2
BRANCH   1  11
ATOM     11  C   UNL     1      35.029  33.504  25.761  1.00  0.00     0.000 C 
BRANCH  11  12
ATOM     12  C   UNL     1      36.268  33.083  26.572  1.00  0.00     0.000 C 
BRANCH  12  13
ATOM     13  C   UNL     1      36.607  33.993  27.766  1.00  0.00     0.000 C 
BRANCH  13  14
ATOM     14  C   UNL     1      36.159  35.450  27.558  1.00  0.00     0.000 C 
BRANCH  14  15
ATOM     15  C   UNL     1      35.416  36.022  28.776  1.00  0.00     0.000 C 
BRANCH  15  16
ATOM     16  C   UNL     1      36.257  37.051  29.550  1.00  0.00     0.006 C 
BRANCH  16  17
ATOM     17  C   UNL     1      37.388  37.635  28.693  1.00  0.00     0.053 C 
BRANCH  17  18
ATOM     18  C   UNL     1      38.687  37.673  29.438  1.00  0.00     0.041 C 
ATOM     19  O   UNL     1      39.075  38.742  29.980  1.00  0.00    -0.550 OA
ATOM     20  O   UNL     1      39.488  36.540  29.503  1.00  0.00    -0.550 OA
ENDBRANCH  17  18
ENDBRANCH  16  17
ENDBRANCH  15  16
ENDBRANCH  14  15
ENDBRANCH  13  14
ENDBRANCH  12  13
ENDBRANCH  11  12
ENDBRANCH   1  11
TORSDOF 15
ENDMDL
MODEL 3
REMARK VINA RESULT:    -4.049      1.746      8.958
REMARK INTER + INTRA:          -9.816
REMARK INTER:                  -8.904
REMARK INTRA:                  -0.912
REMARK UNBOUND:                -2.217
REMARK SMILES O=C([O-])CCCCCCCCCCCCCCC(=O)[O-]
REMARK SMILES IDX 10 1 9 2 8 3 7 4 6 5 5 6 4 7 2 8 1 9 3 10 11 11 12 12 13 13
REMARK SMILES IDX 14 14 15 15 16 16 17 17 18 18 19 19 20 20
REMARK H PARENT
REMARK Flexibility Score: inf
ROOT
ATOM      1  C   UNL     1      34.248  32.586  25.445  1.00  0.00     0.000 C 
ENDROOT
BRANCH   1   2
ATOM      2  C   UNL     1      33.769  33.126  24.084  1.00  0.00     0.000 C 
BRANCH   2   3
ATOM      3  C   UNL     1      33.491  32.056  23.012  1.00  0.00     0.000 C 
BRANCH   3   4
ATOM      4  C   UNL     1      34.344  30.790  23.194  1.00  0.00     0.000 C 
BRANCH   4   5
ATOM      5  C   UNL     1      33.722  29.553  22.524  1.00  0.00     0.000 C 
BRANCH   5   6
ATOM      6  C   UNL     1      32.540  29.905  21.607  1.00  0.00     0.006 C 
BRANCH   6   7
ATOM      7  C   UNL     1      32.650  29.174  20.265  1.00  0.00     0.053 C 
BRANCH   7   8
ATOM      8  C   UNL     1      33.133  30.107  19.199  1.00  0.00     0.041 C 
ATOM      9  O   UNL     1      33.077  29.768  17.987  1.00  0.00    -0.550 OA
ATOM     10  O   UNL     1      33.605  31.368  19.540  1.00  0.00    -0.550 OA
ENDBRANCH   7   8
ENDBRANCH   6   7
ENDBRANCH   5   6
ENDBRANCH   4   5
ENDBRANCH   3   4
ENDBRANCH   2   3
ENDBRANCH   1   2
BRANCH   1  11
ATOM     11  C   UNL     1      35.325  33.470  26.097  1.00  0.00     0.000 C 
BRANCH  11  12
ATOM     12  C   UNL     1      34.868  34.925  26.302  1.00  0.00     0.000 C 
BRANCH  12  13
ATOM     13  C   UNL     1      35.670  35.722  27.346  1.00  0.00     0.000 C 
BRANCH  13  14
ATOM     14  C   UNL     1      36.509  34.824  28.273  1.00  0.00     0.000 C 
BRANCH  14  15
ATOM     15  C   UNL     1      37.182  35.609  29.409  1.00  0.00     0.000 C 
BRANCH  15  16
ATOM     16  C   UNL     1      36.663  37.052  29.518  1.00  0.00     0.006 C 
BRANCH  16  17
ATOM     17  C   UNL     1      37.802  38.066  29.692  1.00  0.00     0.053 C 
BRANCH  17  18
ATOM     18  C   UNL     1      37.682  39.209  28.731  1.00  0.00     0.041 C 
ATOM     19  O   UNL     1      37.667  40.394  29.157  1.00  0.00    -0.550 OA
ATOM     20  O   UNL     1      37.547  38.965  27.371  1.00  0.00    -0.550 OA
ENDBRANCH  17  18
ENDBRANCH  16  17
ENDBRANCH  15  16
ENDBRANCH  14  15
ENDBRANCH  13  14
ENDBRANCH  12  13
ENDBRANCH  11  12
ENDBRANCH   1  11
TORSDOF 15
ENDMDL
MODEL 4
REMARK VINA RESULT:    -4.046      1.427      2.209
REMARK INTER + INTRA:          -9.812
REMARK INTER:                  -7.988
REMARK INTRA:                  -1.823
REMARK UNBOUND:                -2.217
REMARK SMILES O=C([O-])CCCCCCCCCCCCCCC(=O)[O-]
REMARK SMILES IDX 10 1 9 2 8 3 7 4 6 5 5 6 4 7 2 8 1 9 3 10 11 11 12 12 13 13
REMARK SMILES IDX 14 14 15 15 16 16 17 17 18 18 19 19 20 20
REMARK H PARENT
REMARK Flexibility Score: inf
ROOT
ATOM      1  C   UNL     1      37.574  33.511  25.442  1.00  0.00     0.000 C 
ENDROOT
BRANCH   1   2
ATOM      2  C   UNL     1      37.900  33.952  26.882  1.00  0.00     0.000 C 
BRANCH   2   3
ATOM      3  C   UNL     1      36.680  34.174  27.795  1.00  0.00     0.000 C 
BRANCH   3   4
ATOM      4  C   UNL     1      35.745  35.284  27.284  1.00  0.00     0.000 C 
BRANCH   4   5
ATOM      5  C   UNL     1      35.138  36.119  28.424  1.00  0.00     0.000 C 
BRANCH   5   6
ATOM      6  C   UNL     1      36.124  36.357  29.578  1.00  0.00     0.006 C 
BRANCH   6   7
ATOM      7  C   UNL     1      36.880  37.677  29.391  1.00  0.00     0.053 C 
BRANCH   7   8
ATOM      8  C   UNL     1      38.298  37.416  28.992  1.00  0.00     0.041 C 
ATOM      9  O   UNL     1      38.910  36.413  29.446  1.00  0.00    -0.550 OA
ATOM     10  O   UNL     1      38.933  38.257  28.087  1.00  0.00    -0.550 OA
ENDBRANCH   7   8
ENDBRANCH   6   7
ENDBRANCH   5   6
ENDBRANCH   4   5
ENDBRANCH   3   4
ENDBRANCH   2   3
ENDBRANCH   1   2
BRANCH   1  11
ATOM     11  C   UNL     1      37.224  32.017  25.335  1.00  0.00     0.000 C 
BRANCH  11  12
ATOM     12  C   UNL     1      35.840  31.765  24.711  1.00  0.00     0.000 C 
BRANCH  12  13
ATOM     13  C   UNL     1      34.643  32.076  25.628  1.00  0.00     0.000 C 
BRANCH  13  14
ATOM     14  C   UNL     1      33.615  33.017  24.976  1.00  0.00     0.000 C 
BRANCH  14  15
ATOM     15  C   UNL     1      34.096  33.576  23.627  1.00  0.00     0.000 C 
BRANCH  15  16
ATOM     16  C   UNL     1      33.231  33.097  22.449  1.00  0.00     0.006 C 
BRANCH  16  17
ATOM     17  C   UNL     1      33.921  31.992  21.637  1.00  0.00     0.053 C 
BRANCH  17  18
ATOM     18  C   UNL     1      33.306  30.649  21.892  1.00  0.00     0.041 C 
ATOM     19  O   UNL     1      33.898  29.810  22.620  1.00  0.00    -0.550 OA
ATOM     20  O   UNL     1      32.098  30.311  21.294  1.00  0.00    -0.550 OA
ENDBRANCH  17  18
ENDBRANCH  16  17
ENDBRANCH  15  16
ENDBRANCH  14  15
ENDBRANCH  13  14
ENDBRANCH  12  13
ENDBRANCH  11  12
ENDBRANCH   1  11
TORSDOF 15
ENDMDL
MODEL 5
REMARK VINA RESULT:    -4.028      2.232      8.283
REMARK INTER + INTRA:          -9.778
REMARK INTER:                  -7.705
REMARK INTRA:                  -2.072
REMARK UNBOUND:                -2.217
REMARK SMILES O=C([O-])CCCCCCCCCCCCCCC(=O)[O-]
REMARK SMILES IDX 10 1 9 2 8 3 7 4 6 5 5 6 4 7 2 8 1 9 3 10 11 11 12 12 13 13
REMARK SMILES IDX 14 14 15 15 16 16 17 17 18 18 19 19 20 20
REMARK H PARENT
REMARK Flexibility Score: inf
ROOT
ATOM      1  C   UNL     1      34.942  33.465  21.799  1.00  0.00     0.000 C 
ENDROOT
BRANCH   1   2
ATOM      2  C   UNL     1      34.663  32.019  21.346  1.00  0.00     0.000 C 
BRANCH   2   3
ATOM      3  C   UNL     1      35.139  30.921  22.317  1.00  0.00     0.000 C 
BRANCH   3   4
ATOM      4  C   UNL     1      34.087  29.820  22.537  1.00  0.00     0.000 C 
BRANCH   4   5
ATOM      5  C   UNL     1      32.795  30.065  21.739  1.00  0.00     0.000 C 
BRANCH   5   6
ATOM      6  C   UNL     1      32.513  28.960  20.711  1.00  0.00     0.006 C 
BRANCH   6   7
ATOM      7  C   UNL     1      33.029  29.355  19.324  1.00  0.00     0.053 C 
BRANCH   7   8
ATOM      8  C   UNL     1      34.272  28.591  18.990  1.00  0.00     0.041 C 
ATOM      9  O   UNL     1      34.195  27.474  18.414  1.00  0.00    -0.550 OA
ATOM     10  O   UNL     1      35.519  29.132  19.279  1.00  0.00    -0.550 OA
ENDBRANCH   7   8
ENDBRANCH   6   7
ENDBRANCH   5   6
ENDBRANCH   4   5
ENDBRANCH   3   4
ENDBRANCH   2   3
ENDBRANCH   1   2
BRANCH   1  11
ATOM     11  C   UNL     1      33.843  34.030  22.715  1.00  0.00     0.000 C 
BRANCH  11  12
ATOM     12  C   UNL     1      34.249  34.054  24.199  1.00  0.00     0.000 C 
BRANCH  12  13
ATOM     13  C   UNL     1      33.611  32.956  25.069  1.00  0.00     0.000 C 
BRANCH  13  14
ATOM     14  C   UNL     1      34.651  32.082  25.792  1.00  0.00     0.000 C 
BRANCH  14  15
ATOM     15  C   UNL     1      36.095  32.528  25.514  1.00  0.00     0.000 C 
BRANCH  15  16
ATOM     16  C   UNL     1      36.797  33.072  26.769  1.00  0.00     0.006 C 
BRANCH  16  17
ATOM     17  C   UNL     1      36.960  34.598  26.724  1.00  0.00     0.053 C 
BRANCH  17  18
ATOM     18  C   UNL     1      36.022  35.285  27.669  1.00  0.00     0.041 C 
ATOM     19  O   UNL     1      35.079  35.990  27.222  1.00  0.00    -0.550 OA
ATOM     20  O   UNL     1      36.211  35.179  29.041  1.00  0.00    -0.550 OA
ENDBRANCH  17  18
ENDBRANCH  16  17
ENDBRANCH  15  16
ENDBRANCH  14  15
ENDBRANCH  13  14
ENDBRANCH  12  13
ENDBRANCH  11  12
ENDBRANCH   1  11
TORSDOF 15
ENDMDL
MODEL 6
REMARK VINA RESULT:    -4.024      1.184      2.224
REMARK INTER + INTRA:          -9.770
REMARK INTER:                  -8.297
REMARK INTRA:                  -1.473
REMARK UNBOUND:                -2.217
REMARK SMILES O=C([O-])CCCCCCCCCCCCCCC(=O)[O-]
REMARK SMILES IDX 10 1 9 2 8 3 7 4 6 5 5 6 4 7 2 8 1 9 3 10 11 11 12 12 13 13
REMARK SMILES IDX 14 14 15 15 16 16 17 17 18 18 19 19 20 20
REMARK H PARENT
REMARK Flexibility Score: inf
ROOT
ATOM      1  C   UNL     1      35.192  35.249  25.177  1.00  0.00     0.000 C 
ENDROOT
BRANCH   1   2
ATOM      2  C   UNL     1      36.714  35.098  24.985  1.00  0.00     0.000 C 
BRANCH   2   3
ATOM      3  C   UNL     1      37.511  34.786  26.265  1.00  0.00     0.000 C 
BRANCH   3   4
ATOM      4  C   UNL     1      36.729  33.912  27.260  1.00  0.00     0.000 C 
BRANCH   4   5
ATOM      5  C   UNL     1      36.628  34.547  28.657  1.00  0.00     0.000 C 
BRANCH   5   6
ATOM      6  C   UNL     1      35.933  35.916  28.639  1.00  0.00     0.006 C 
BRANCH   6   7
ATOM      7  C   UNL     1      36.418  36.794  29.797  1.00  0.00     0.053 C 
BRANCH   7   8
ATOM      8  C   UNL     1      37.499  37.720  29.335  1.00  0.00     0.041 C 
ATOM      9  O   UNL     1      37.228  38.914  29.039  1.00  0.00    -0.550 OA
ATOM     10  O   UNL     1      38.815  37.277  29.272  1.00  0.00    -0.550 OA
ENDBRANCH   7   8
ENDBRANCH   6   7
ENDBRANCH   5   6
ENDBRANCH   4   5
ENDBRANCH   3   4
ENDBRANCH   2   3
ENDBRANCH   1   2
BRANCH   1  11
ATOM     11  C   UNL     1      34.381  34.205  24.389  1.00  0.00     0.000 C 
BRANCH  11  12
ATOM     12  C   UNL     1      33.747  33.131  25.290  1.00  0.00     0.000 C 
BRANCH  12  13
ATOM     13  C   UNL     1      34.344  31.719  25.144  1.00  0.00     0.000 C 
BRANCH  13  14
ATOM     14  C   UNL     1      35.338  31.605  23.975  1.00  0.00     0.000 C 
BRANCH  14  15
ATOM     15  C   UNL     1      34.846  30.659  22.868  1.00  0.00     0.000 C 
BRANCH  15  16
ATOM     16  C   UNL     1      33.439  31.020  22.365  1.00  0.00     0.006 C 
BRANCH  16  17
ATOM     17  C   UNL     1      33.255  30.689  20.878  1.00  0.00     0.053 C 
BRANCH  17  18
ATOM     18  C   UNL     1      32.792  29.278  20.676  1.00  0.00     0.041 C 
ATOM     19  O   UNL     1      33.369  28.537  19.837  1.00  0.00    -0.550 OA
ATOM     20  O   UNL     1      31.700  28.794  21.385  1.00  0.00    -0.550 OA
ENDBRANCH  17  18
ENDBRANCH  16  17
ENDBRANCH  15  16
ENDBRANCH  14  15
ENDBRANCH  13  14
ENDBRANCH  12  13
ENDBRANCH  11  12
ENDBRANCH   1  11
TORSDOF 15
ENDMDL
MODEL 7
REMARK VINA RESULT:    -4.016      2.214      8.321
REMARK INTER + INTRA:          -9.754
REMARK INTER:                  -7.865
REMARK INTRA:                  -1.889
REMARK UNBOUND:                -2.217
REMARK SMILES O=C([O-])CCCCCCCCCCCCCCC(=O)[O-]
REMARK SMILES IDX 10 1 9 2 8 3 7 4 6 5 5 6 4 7 2 8 1 9 3 10 11 11 12 12 13 13
REMARK SMILES IDX 14 14 15 15 16 16 17 17 18 18 19 19 20 20
REMARK H PARENT
REMARK Flexibility Score: inf
ROOT
ATOM      1  C   UNL     1      36.045  33.414  22.369  1.00  0.00     0.000 C 
ENDROOT
BRANCH   1   2
ATOM      2  C   UNL     1      35.108  32.904  21.257  1.00  0.00     0.000 C 
BRANCH   2   3
ATOM      3  C   UNL     1      33.610  33.180  21.480  1.00  0.00     0.000 C 
BRANCH   3   4
ATOM      4  C   UNL     1      32.947  32.164  22.425  1.00  0.00     0.000 C 
BRANCH   4   5
ATOM      5  C   UNL     1      33.297  30.709  22.071  1.00  0.00     0.000 C 
BRANCH   5   6
ATOM      6  C   UNL     1      32.293  30.077  21.095  1.00  0.00     0.006 C 
BRANCH   6   7
ATOM      7  C   UNL     1      32.760  28.686  20.651  1.00  0.00     0.053 C 
BRANCH   7   8
ATOM      8  C   UNL     1      33.318  28.739  19.264  1.00  0.00     0.041 C 
ATOM      9  O   UNL     1      34.162  27.885  18.887  1.00  0.00    -0.550 OA
ATOM     10  O   UNL     1      32.874  29.708  18.373  1.00  0.00    -0.550 OA
ENDBRANCH   7   8
ENDBRANCH   6   7
ENDBRANCH   5   6
ENDBRANCH   4   5
ENDBRANCH   3   4
ENDBRANCH   2   3
ENDBRANCH   1   2
BRANCH   1  11
ATOM     11  C   UNL     1      37.035  32.344  22.859  1.00  0.00     0.000 C 
BRANCH  11  12
ATOM     12  C   UNL     1      36.432  31.406  23.920  1.00  0.00     0.000 C 
BRANCH  12  13
ATOM     13  C   UNL     1      36.103  32.070  25.269  1.00  0.00     0.000 C 
BRANCH  13  14
ATOM     14  C   UNL     1      34.591  32.159  25.542  1.00  0.00     0.000 C 
BRANCH  14  15
ATOM     15  C   UNL     1      34.119  33.599  25.798  1.00  0.00     0.000 C 
BRANCH  15  16
ATOM     16  C   UNL     1      35.282  34.604  25.835  1.00  0.00     0.006 C 
BRANCH  16  17
ATOM     17  C   UNL     1      35.159  35.588  27.006  1.00  0.00     0.053 C 
BRANCH  17  18
ATOM     18  C   UNL     1      36.256  35.400  28.009  1.00  0.00     0.041 C 
ATOM     19  O   UNL     1      36.675  34.243  28.279  1.00  0.00    -0.550 OA
ATOM     20  O   UNL     1      36.790  36.497  28.674  1.00  0.00    -0.550 OA
ENDBRANCH  17  18
ENDBRANCH  16  17
ENDBRANCH  15  16
ENDBRANCH  14  15
ENDBRANCH  13  14
ENDBRANCH  12  13
ENDBRANCH  11  12
ENDBRANCH   1  11
TORSDOF 15
ENDMDL
MODEL 8
REMARK VINA RESULT:    -4.011      1.986      3.868
REMARK INTER + INTRA:          -9.745
REMARK INTER:                  -8.496
REMARK INTRA:                  -1.249
REMARK UNBOUND:                -2.217
REMARK SMILES O=C([O-])CCCCCCCCCCCCCCC(=O)[O-]
REMARK SMILES IDX 10 1 9 2 8 3 7 4 6 5 5 6 4 7 2 8 1 9 3 10 11 11 12 12 13 13
REMARK SMILES IDX 14 14 15 15 16 16 17 17 18 18 19 19 20 20
REMARK H PARENT
REMARK Flexibility Score: inf
ROOT
ATOM      1  C   UNL     1      33.634  33.271  23.917  1.00  0.00     0.000 C 
ENDROOT
BRANCH   1   2
ATOM      2  C   UNL     1      33.805  32.665  25.322  1.00  0.00     0.000 C 
BRANCH   2   3
ATOM      3  C   UNL     1      35.237  32.707  25.888  1.00  0.00     0.000 C 
BRANCH   3   4
ATOM      4  C   UNL     1      35.909  34.080  25.716  1.00  0.00     0.000 C 
BRANCH   4   5
ATOM      5  C   UNL     1      35.813  34.950  26.980  1.00  0.00     0.000 C 
BRANCH   5   6
ATOM      6  C   UNL     1      36.669  34.414  28.137  1.00  0.00     0.006 C 
BRANCH   6   7
ATOM      7  C   UNL     1      36.579  35.334  29.359  1.00  0.00     0.053 C 
BRANCH   7   8
ATOM      8  C   UNL     1      37.401  36.567  29.149  1.00  0.00     0.041 C 
ATOM      9  O   UNL     1      38.633  36.472  28.903  1.00  0.00    -0.550 OA
ATOM     10  O   UNL     1      36.800  37.818  29.181  1.00  0.00    -0.550 OA
ENDBRANCH   7   8
ENDBRANCH   6   7
ENDBRANCH   5   6
ENDBRANCH   4   5
ENDBRANCH   3   4
ENDBRANCH   2   3
ENDBRANCH   1   2
BRANCH   1  11
ATOM     11  C   UNL     1      33.355  32.213  22.835  1.00  0.00     0.000 C 
BRANCH  11  12
ATOM     12  C   UNL     1      34.433  31.117  22.773  1.00  0.00     0.000 C 
BRANCH  12  13
ATOM     13  C   UNL     1      33.907  29.696  22.499  1.00  0.00     0.000 C 
BRANCH  13  14
ATOM     14  C   UNL     1      32.506  29.687  21.863  1.00  0.00     0.000 C 
BRANCH  14  15
ATOM     15  C   UNL     1      32.378  28.660  20.726  1.00  0.00     0.000 C 
BRANCH  15  16
ATOM     16  C   UNL     1      33.378  28.914  19.586  1.00  0.00     0.006 C 
BRANCH  16  17
ATOM     17  C   UNL     1      33.048  30.191  18.801  1.00  0.00     0.053 C 
BRANCH  17  18
ATOM     18  C   UNL     1      34.083  31.254  19.009  1.00  0.00     0.041 C 
ATOM     19  O   UNL     1      35.268  30.937  19.296  1.00  0.00    -0.550 OA
ATOM     20  O   UNL     1      33.732  32.595  18.924  1.00  0.00    -0.550 OA
ENDBRANCH  17  18
ENDBRANCH  16  17
ENDBRANCH  15  16
ENDBRANCH  14  15
ENDBRANCH  13  14
ENDBRANCH  12  13
ENDBRANCH  11  12
ENDBRANCH   1  11
TORSDOF 15
ENDMDL
MODEL 9
REMARK VINA RESULT:    -4.004      3.366      5.219
REMARK INTER + INTRA:          -9.733
REMARK INTER:                  -9.079
REMARK INTRA:                  -0.654
REMARK UNBOUND:                -2.217
REMARK SMILES O=C([O-])CCCCCCCCCCCCCCC(=O)[O-]
REMARK SMILES IDX 10 1 9 2 8 3 7 4 6 5 5 6 4 7 2 8 1 9 3 10 11 11 12 12 13 13
REMARK SMILES IDX 14 14 15 15 16 16 17 17 18 18 19 19 20 20
REMARK H PARENT
REMARK Flexibility Score: inf
ROOT
ATOM      1  C   UNL     1      33.951  32.648  23.209  1.00  0.00     0.000 C 
ENDROOT
BRANCH   1   2
ATOM      2  C   UNL     1      34.341  31.664  24.328  1.00  0.00     0.000 C 
BRANCH   2   3
ATOM      3  C   UNL     1      34.194  32.205  25.762  1.00  0.00     0.000 C 
BRANCH   3   4
ATOM      4  C   UNL     1      35.138  33.383  26.057  1.00  0.00     0.000 C 
BRANCH   4   5
ATOM      5  C   UNL     1      36.521  32.926  26.553  1.00  0.00     0.000 C 
BRANCH   5   6
ATOM      6  C   UNL     1      37.311  34.054  27.233  1.00  0.00     0.006 C 
BRANCH   6   7
ATOM      7  C   UNL     1      36.573  34.571  28.473  1.00  0.00     0.053 C 
BRANCH   7   8
ATOM      8  C   UNL     1      36.296  36.036  28.344  1.00  0.00     0.041 C 
ATOM      9  O   UNL     1      35.357  36.563  28.997  1.00  0.00    -0.550 OA
ATOM     10  O   UNL     1      37.101  36.828  27.535  1.00  0.00    -0.550 OA
ENDBRANCH   7   8
ENDBRANCH   6   7
ENDBRANCH   5   6
ENDBRANCH   4   5
ENDBRANCH   3   4
ENDBRANCH   2   3
ENDBRANCH   1   2
BRANCH   1  11
ATOM     11  C   UNL     1      32.836  32.110  22.296  1.00  0.00     0.000 C 
BRANCH  11  12
ATOM     12  C   UNL     1      33.275  30.894  21.461  1.00  0.00     0.000 C 
BRANCH  12  13
ATOM     13  C   UNL     1      32.415  29.631  21.642  1.00  0.00     0.000 C 
BRANCH  13  14
ATOM     14  C   UNL     1      32.697  28.555  20.578  1.00  0.00     0.000 C 
BRANCH  14  15
ATOM     15  C   UNL     1      33.389  29.123  19.329  1.00  0.00     0.000 C 
BRANCH  15  16
ATOM     16  C   UNL     1      34.367  28.124  18.690  1.00  0.00     0.006 C 
BRANCH  16  17
ATOM     17  C   UNL     1      33.996  27.802  17.236  1.00  0.00     0.053 C 
BRANCH  17  18
ATOM     18  C   UNL     1      34.115  26.337  16.943  1.00  0.00     0.041 C 
ATOM     19  O   UNL     1      35.235  25.767  17.013  1.00  0.00    -0.550 OA
ATOM     20  O   UNL     1      32.996  25.611  16.556  1.00  0.00    -0.550 OA
ENDBRANCH  17  18
ENDBRANCH  16  17
ENDBRANCH  15  16
ENDBRANCH  14  15
ENDBRANCH  13  14
ENDBRANCH  12  13
ENDBRANCH  11  12
ENDBRANCH   1  11
TORSDOF 15
ENDMDL
