MODEL 1
REMARK VINA RESULT:    -3.959      0.000      0.000
REMARK INTER + INTRA:          -4.318
REMARK INTER:                  -4.306
REMARK INTRA:                  -0.012
REMARK UNBOUND:                -0.012
REMARK SMILES OCc1ccco1
REMARK SMILES IDX 2 1 3 2 5 3 6 4 4 5 7 6 1 7
REMARK H PARENT 1 8
REMARK Flexibility Score: inf
ROOT
ATOM      1  C   UNL     1     115.124  29.656 203.210  1.00  0.00     0.231 C 
ENDROOT
BRANCH   1   2
ATOM      2  C   UNL     1     113.755  30.086 202.794  1.00  0.00     0.129 A 
ATOM      3  C   UNL     1     111.922  30.424 201.631  1.00  0.00     0.042 A 
ATOM      4  C   UNL     1     111.851  31.043 202.863  1.00  0.00     0.195 A 
ATOM      5  C   UNL     1     113.155  29.808 201.582  1.00  0.00     0.048 A 
ATOM      6  O   UNL     1     112.960  30.825 203.532  1.00  0.00    -0.467 OA
ENDBRANCH   1   2
BRANCH   1   7
ATOM      7  O   UNL     1     115.125  28.289 203.516  1.00  0.00    -0.388 OA
ATOM      8  H   UNL     1     115.011  27.805 202.656  1.00  0.00     0.211 HD
ENDBRANCH   1   7
TORSDOF 2
ENDMDL
MODEL 2
REMARK VINA RESULT:    -3.913     19.184     20.534
REMARK INTER + INTRA:          -4.268
REMARK INTER:                  -4.256
REMARK INTRA:                  -0.013
REMARK UNBOUND:                -0.012
REMARK SMILES OCc1ccco1
REMARK SMILES IDX 2 1 3 2 5 3 6 4 4 5 7 6 1 7
REMARK H PARENT 1 8
REMARK Flexibility Score: inf
ROOT
ATOM      1  C   UNL     1      98.094  31.557 186.936  1.00  0.00     0.231 C 
ENDROOT
BRANCH   1   2
ATOM      2  C   UNL     1      99.329  31.392 187.760  1.00  0.00     0.129 A 
ATOM      3  C   UNL     1     100.710  31.178 189.455  1.00  0.00     0.042 A 
ATOM      4  C   UNL     1     101.396  31.236 188.258  1.00  0.00     0.195 A 
ATOM      5  C   UNL     1      99.373  31.282 189.136  1.00  0.00     0.048 A 
ATOM      6  O   UNL     1     100.545  31.366 187.267  1.00  0.00    -0.467 OA
ENDBRANCH   1   2
BRANCH   1   7
ATOM      7  O   UNL     1      97.291  30.414 187.039  1.00  0.00    -0.388 OA
ATOM      8  H   UNL     1      97.455  30.032 187.941  1.00  0.00     0.211 HD
ENDBRANCH   1   7
TORSDOF 2
ENDMDL
MODEL 3
REMARK VINA RESULT:    -3.859     10.866     11.578
REMARK INTER + INTRA:          -4.210
REMARK INTER:                  -4.194
REMARK INTRA:                  -0.016
REMARK UNBOUND:                -0.012
REMARK SMILES OCc1ccco1
REMARK SMILES IDX 2 1 3 2 5 3 6 4 4 5 7 6 1 7
REMARK H PARENT 1 8
REMARK Flexibility Score: inf
ROOT
ATOM      1  C   UNL     1     112.508  21.385 197.490  1.00  0.00     0.231 C 
ENDROOT
BRANCH   1   2
ATOM      2  C   UNL     1     111.530  20.937 196.453  1.00  0.00     0.129 A 
ATOM      3  C   UNL     1     110.621  20.322 194.550  1.00  0.00     0.042 A 
ATOM      4  C   UNL     1     109.674  20.403 195.551  1.00  0.00     0.195 A 
ATOM      5  C   UNL     1     111.822  20.671 195.130  1.00  0.00     0.048 A 
ATOM      6  O   UNL     1     110.247  20.774 196.673  1.00  0.00    -0.467 OA
ENDBRANCH   1   2
BRANCH   1   7
ATOM      7  O   UNL     1     113.817  21.215 197.022  1.00  0.00    -0.388 OA
ATOM      8  H   UNL     1     113.962  20.236 196.934  1.00  0.00     0.211 HD
ENDBRANCH   1   7
TORSDOF 2
ENDMDL
MODEL 4
REMARK VINA RESULT:    -3.768     13.809     14.492
REMARK INTER + INTRA:          -4.111
REMARK INTER:                  -4.095
REMARK INTRA:                  -0.016
REMARK UNBOUND:                -0.012
REMARK SMILES OCc1ccco1
REMARK SMILES IDX 2 1 3 2 5 3 6 4 4 5 7 6 1 7
REMARK H PARENT 1 8
REMARK Flexibility Score: inf
ROOT
ATOM      1  C   UNL     1     106.444  20.939 193.697  1.00  0.00     0.231 C 
ENDROOT
BRANCH   1   2
ATOM      2  C   UNL     1     105.446  22.023 193.947  1.00  0.00     0.129 A 
ATOM      3  C   UNL     1     103.714  23.365 193.776  1.00  0.00     0.042 A 
ATOM      4  C   UNL     1     104.530  23.736 194.826  1.00  0.00     0.195 A 
ATOM      5  C   UNL     1     104.307  22.260 193.203  1.00  0.00     0.048 A 
ATOM      6  O   UNL     1     105.555  22.918 194.901  1.00  0.00    -0.467 OA
ENDBRANCH   1   2
BRANCH   1   7
ATOM      7  O   UNL     1     105.986  20.091 192.680  1.00  0.00    -0.388 OA
ATOM      8  H   UNL     1     105.630  19.278 193.127  1.00  0.00     0.211 HD
ENDBRANCH   1   7
TORSDOF 2
ENDMDL
MODEL 5
REMARK VINA RESULT:    -3.717     11.100     12.084
REMARK INTER + INTRA:          -4.055
REMARK INTER:                  -4.040
REMARK INTRA:                  -0.015
REMARK UNBOUND:                -0.012
REMARK SMILES OCc1ccco1
REMARK SMILES IDX 2 1 3 2 5 3 6 4 4 5 7 6 1 7
REMARK H PARENT 1 8
REMARK Flexibility Score: inf
ROOT
ATOM      1  C   UNL     1     105.364  25.940 197.213  1.00  0.00     0.231 C 
ENDROOT
BRANCH   1   2
ATOM      2  C   UNL     1     105.349  24.709 196.366  1.00  0.00     0.129 A 
ATOM      3  C   UNL     1     105.053  23.311 194.697  1.00  0.00     0.042 A 
ATOM      4  C   UNL     1     105.562  22.663 195.805  1.00  0.00     0.195 A 
ATOM      5  C   UNL     1     104.911  24.634 195.059  1.00  0.00     0.048 A 
ATOM      6  O   UNL     1     105.725  23.523 196.784  1.00  0.00    -0.467 OA
ENDBRANCH   1   2
BRANCH   1   7
ATOM      7  O   UNL     1     105.615  27.066 196.419  1.00  0.00    -0.388 OA
ATOM      8  H   UNL     1     106.121  27.706 196.986  1.00  0.00     0.211 HD
ENDBRANCH   1   7
TORSDOF 2
ENDMDL
MODEL 6
REMARK VINA RESULT:    -3.674     11.420     12.415
REMARK INTER + INTRA:          -4.009
REMARK INTER:                  -3.996
REMARK INTRA:                  -0.013
REMARK UNBOUND:                -0.012
REMARK SMILES OCc1ccco1
REMARK SMILES IDX 2 1 3 2 5 3 6 4 4 5 7 6 1 7
REMARK H PARENT 1 8
REMARK Flexibility Score: inf
ROOT
ATOM      1  C   UNL     1     105.471  26.121 197.094  1.00  0.00     0.231 C 
ENDROOT
BRANCH   1   2
ATOM      2  C   UNL     1     104.398  25.109 196.856  1.00  0.00     0.129 A 
ATOM      3  C   UNL     1     102.462  24.072 196.809  1.00  0.00     0.042 A 
ATOM      4  C   UNL     1     103.464  23.279 196.286  1.00  0.00     0.195 A 
ATOM      5  C   UNL     1     103.064  25.255 197.182  1.00  0.00     0.048 A 
ATOM      6  O   UNL     1     104.607  23.925 196.330  1.00  0.00    -0.467 OA
ENDBRANCH   1   2
BRANCH   1   7
ATOM      7  O   UNL     1     105.482  27.062 196.057  1.00  0.00    -0.388 OA
ATOM      8  H   UNL     1     106.383  27.017 195.642  1.00  0.00     0.211 HD
ENDBRANCH   1   7
TORSDOF 2
ENDMDL
MODEL 7
REMARK VINA RESULT:    -3.660     11.602     12.478
REMARK INTER + INTRA:          -3.993
REMARK INTER:                  -3.977
REMARK INTRA:                  -0.016
REMARK UNBOUND:                -0.012
REMARK SMILES OCc1ccco1
REMARK SMILES IDX 2 1 3 2 5 3 6 4 4 5 7 6 1 7
REMARK H PARENT 1 8
REMARK Flexibility Score: inf
ROOT
ATOM      1  C   UNL     1     102.170  22.904 200.016  1.00  0.00     0.231 C 
ENDROOT
BRANCH   1   2
ATOM      2  C   UNL     1     103.493  23.248 199.411  1.00  0.00     0.129 A 
ATOM      3  C   UNL     1     105.635  23.646 199.131  1.00  0.00     0.042 A 
ATOM      4  C   UNL     1     104.928  23.890 197.971  1.00  0.00     0.195 A 
ATOM      5  C   UNL     1     104.708  23.234 200.065  1.00  0.00     0.048 A 
ATOM      6  O   UNL     1     103.653  23.646 198.170  1.00  0.00    -0.467 OA
ENDBRANCH   1   2
BRANCH   1   7
ATOM      7  O   UNL     1     102.358  22.279 201.255  1.00  0.00    -0.388 OA
ATOM      8  H   UNL     1     103.328  22.345 201.463  1.00  0.00     0.211 HD
ENDBRANCH   1   7
TORSDOF 2
ENDMDL
MODEL 8
REMARK VINA RESULT:    -3.625     10.913     11.665
REMARK INTER + INTRA:          -3.955
REMARK INTER:                  -3.939
REMARK INTRA:                  -0.016
REMARK UNBOUND:                -0.012
REMARK SMILES OCc1ccco1
REMARK SMILES IDX 2 1 3 2 5 3 6 4 4 5 7 6 1 7
REMARK H PARENT 1 8
REMARK Flexibility Score: inf
ROOT
ATOM      1  C   UNL     1     111.317  19.867 194.672  1.00  0.00     0.231 C 
ENDROOT
BRANCH   1   2
ATOM      2  C   UNL     1     111.294  20.832 195.814  1.00  0.00     0.129 A 
ATOM      3  C   UNL     1     111.905  22.206 197.415  1.00  0.00     0.042 A 
ATOM      4  C   UNL     1     110.535  22.037 197.400  1.00  0.00     0.195 A 
ATOM      5  C   UNL     1     112.399  21.425 196.392  1.00  0.00     0.048 A 
ATOM      6  O   UNL     1     110.202  21.210 196.436  1.00  0.00    -0.467 OA
ENDBRANCH   1   2
BRANCH   1   7
ATOM      7  O   UNL     1     110.466  20.311 193.652  1.00  0.00    -0.388 OA
ATOM      8  H   UNL     1     109.677  20.719 194.097  1.00  0.00     0.211 HD
ENDBRANCH   1   7
TORSDOF 2
ENDMDL
MODEL 9
REMARK VINA RESULT:    -3.588     13.426     14.288
REMARK INTER + INTRA:          -3.915
REMARK INTER:                  -3.902
REMARK INTRA:                  -0.013
REMARK UNBOUND:                -0.012
REMARK SMILES OCc1ccco1
REMARK SMILES IDX 2 1 3 2 5 3 6 4 4 5 7 6 1 7
REMARK H PARENT 1 8
REMARK Flexibility Score: inf
ROOT
ATOM      1  C   UNL     1     101.627  23.564 200.730  1.00  0.00     0.231 C 
ENDROOT
BRANCH   1   2
ATOM      2  C   UNL     1     101.493  23.434 199.247  1.00  0.00     0.129 A 
ATOM      3  C   UNL     1     101.827  23.621 197.084  1.00  0.00     0.042 A 
ATOM      4  C   UNL     1     100.672  22.913 197.350  1.00  0.00     0.195 A 
ATOM      5  C   UNL     1     102.358  23.962 198.309  1.00  0.00     0.048 A 
ATOM      6  O   UNL     1     100.499  22.821 198.649  1.00  0.00    -0.467 OA
ENDBRANCH   1   2
BRANCH   1   7
ATOM      7  O   UNL     1     102.373  22.493 201.240  1.00  0.00    -0.388 OA
ATOM      8  H   UNL     1     102.323  22.558 202.230  1.00  0.00     0.211 HD
ENDBRANCH   1   7
TORSDOF 2
ENDMDL
