MODEL 1
REMARK VINA RESULT:    -6.164      0.000      0.000
REMARK INTER + INTRA:          -6.955
REMARK INTER:                  -6.884
REMARK INTRA:                  -0.071
REMARK UNBOUND:                -0.071
REMARK SMILES COc1ccc(C(=O)[O-])cc1
REMARK SMILES IDX 6 1 5 2 10 3 4 4 11 5 3 6 7 7 8 8 9 9 2 10 1 11
REMARK H PARENT
REMARK Flexibility Score: inf
ROOT
ATOM      1  C   UNL     1     152.565 155.438 159.921  1.00  0.00    -0.003 A 
ATOM      2  C   UNL     1     152.884 155.766 158.591  1.00  0.00     0.014 A 
ATOM      3  C   UNL     1     151.461 156.061 160.528  1.00  0.00     0.014 A 
ATOM      4  C   UNL     1     152.114 156.695 157.884  1.00  0.00     0.047 A 
ATOM      5  C   UNL     1     150.693 156.989 159.821  1.00  0.00     0.047 A 
ATOM      6  C   UNL     1     151.010 157.315 158.497  1.00  0.00     0.118 A 
ENDROOT
BRANCH   1   7
ATOM      7  C   UNL     1     153.376 154.455 160.672  1.00  0.00     0.071 C 
ATOM      8  O   UNL     1     154.255 153.768 160.086  1.00  0.00    -0.545 OA
ATOM      9  O   UNL     1     153.182 154.277 162.037  1.00  0.00    -0.545 OA
ENDBRANCH   1   7
BRANCH   6  10
ATOM     10  O   UNL     1     150.207 158.254 157.831  1.00  0.00    -0.497 OA
ATOM     11  C   UNL     1     149.098 158.923 158.421  1.00  0.00     0.278 C 
ENDBRANCH   6  10
TORSDOF 2
ENDMDL
MODEL 2
REMARK VINA RESULT:    -6.111      0.066      1.461
REMARK INTER + INTRA:          -6.896
REMARK INTER:                  -6.830
REMARK INTRA:                  -0.067
REMARK UNBOUND:                -0.071
REMARK SMILES COc1ccc(C(=O)[O-])cc1
REMARK SMILES IDX 6 1 5 2 10 3 4 4 11 5 3 6 7 7 8 8 9 9 2 10 1 11
REMARK H PARENT
REMARK Flexibility Score: inf
ROOT
ATOM      1  C   UNL     1     152.569 155.456 159.972  1.00  0.00    -0.003 A 
ATOM      2  C   UNL     1     151.465 156.069 160.592  1.00  0.00     0.014 A 
ATOM      3  C   UNL     1     152.868 155.784 158.638  1.00  0.00     0.014 A 
ATOM      4  C   UNL     1     150.679 156.990 159.894  1.00  0.00     0.047 A 
ATOM      5  C   UNL     1     152.080 156.704 157.942  1.00  0.00     0.047 A 
ATOM      6  C   UNL     1     150.982 157.314 158.559  1.00  0.00     0.118 A 
ENDROOT
BRANCH   1   7
ATOM      7  C   UNL     1     153.404 154.482 160.707  1.00  0.00     0.071 C 
ATOM      8  O   UNL     1     154.308 153.835 160.112  1.00  0.00    -0.545 OA
ATOM      9  O   UNL     1     153.206 154.266 162.066  1.00  0.00    -0.545 OA
ENDBRANCH   1   7
BRANCH   6  10
ATOM     10  O   UNL     1     150.224 158.231 157.815  1.00  0.00    -0.497 OA
ATOM     11  C   UNL     1     149.093 158.933 158.319  1.00  0.00     0.278 C 
ENDBRANCH   6  10
TORSDOF 2
ENDMDL
MODEL 3
REMARK VINA RESULT:    -5.795      1.050      4.653
REMARK INTER + INTRA:          -6.544
REMARK INTER:                  -6.478
REMARK INTRA:                  -0.065
REMARK UNBOUND:                -0.071
REMARK SMILES COc1ccc(C(=O)[O-])cc1
REMARK SMILES IDX 6 1 5 2 10 3 4 4 11 5 3 6 7 7 8 8 9 9 2 10 1 11
REMARK H PARENT
REMARK Flexibility Score: inf
ROOT
ATOM      1  C   UNL     1     151.001 157.134 159.059  1.00  0.00    -0.003 A 
ATOM      2  C   UNL     1     151.875 156.757 158.024  1.00  0.00     0.014 A 
ATOM      3  C   UNL     1     151.129 156.518 160.315  1.00  0.00     0.014 A 
ATOM      4  C   UNL     1     152.857 155.787 158.242  1.00  0.00     0.047 A 
ATOM      5  C   UNL     1     152.110 155.548 160.531  1.00  0.00     0.047 A 
ATOM      6  C   UNL     1     152.981 155.173 159.502  1.00  0.00     0.118 A 
ENDROOT
BRANCH   1   7
ATOM      7  C   UNL     1     149.961 158.162 158.833  1.00  0.00     0.071 C 
ATOM      8  O   UNL     1     150.083 159.003 157.902  1.00  0.00    -0.545 OA
ATOM      9  O   UNL     1     148.833 158.213 159.644  1.00  0.00    -0.545 OA
ENDBRANCH   1   7
BRANCH   6  10
ATOM     10  O   UNL     1     153.949 154.193 159.771  1.00  0.00    -0.497 OA
ATOM     11  C   UNL     1     154.700 154.116 160.977  1.00  0.00     0.278 C 
ENDBRANCH   6  10
TORSDOF 2
ENDMDL
MODEL 4
REMARK VINA RESULT:    -5.752      1.029      4.868
REMARK INTER + INTRA:          -6.495
REMARK INTER:                  -6.432
REMARK INTRA:                  -0.063
REMARK UNBOUND:                -0.071
REMARK SMILES COc1ccc(C(=O)[O-])cc1
REMARK SMILES IDX 6 1 5 2 10 3 4 4 11 5 3 6 7 7 8 8 9 9 2 10 1 11
REMARK H PARENT
REMARK Flexibility Score: inf
ROOT
ATOM      1  C   UNL     1     150.950 157.134 159.116  1.00  0.00    -0.003 A 
ATOM      2  C   UNL     1     151.086 156.560 160.393  1.00  0.00     0.014 A 
ATOM      3  C   UNL     1     151.823 156.727 158.092  1.00  0.00     0.014 A 
ATOM      4  C   UNL     1     152.072 155.600 160.640  1.00  0.00     0.047 A 
ATOM      5  C   UNL     1     152.808 155.768 158.340  1.00  0.00     0.047 A 
ATOM      6  C   UNL     1     152.943 155.196 159.611  1.00  0.00     0.118 A 
ENDROOT
BRANCH   1   7
ATOM      7  C   UNL     1     149.908 158.149 158.850  1.00  0.00     0.071 C 
ATOM      8  O   UNL     1     149.998 158.914 157.852  1.00  0.00    -0.545 OA
ATOM      9  O   UNL     1     148.813 158.274 159.697  1.00  0.00    -0.545 OA
ENDBRANCH   1   7
BRANCH   6  10
ATOM     10  O   UNL     1     153.949 154.238 159.808  1.00  0.00    -0.497 OA
ATOM     11  C   UNL     1     154.672 154.071 161.022  1.00  0.00     0.278 C 
ENDBRANCH   6  10
TORSDOF 2
ENDMDL
MODEL 5
REMARK VINA RESULT:    -5.357      1.440      2.488
REMARK INTER + INTRA:          -6.054
REMARK INTER:                  -5.986
REMARK INTRA:                  -0.069
REMARK UNBOUND:                -0.071
REMARK SMILES COc1ccc(C(=O)[O-])cc1
REMARK SMILES IDX 6 1 5 2 10 3 4 4 11 5 3 6 7 7 8 8 9 9 2 10 1 11
REMARK H PARENT
REMARK Flexibility Score: inf
ROOT
ATOM      1  C   UNL     1     151.506 156.375 159.348  1.00  0.00    -0.003 A 
ATOM      2  C   UNL     1     150.535 156.456 160.362  1.00  0.00     0.014 A 
ATOM      3  C   UNL     1     151.404 157.232 158.239  1.00  0.00     0.014 A 
ATOM      4  C   UNL     1     149.486 157.376 160.270  1.00  0.00     0.047 A 
ATOM      5  C   UNL     1     150.355 158.150 158.148  1.00  0.00     0.047 A 
ATOM      6  C   UNL     1     149.389 158.232 159.157  1.00  0.00     0.118 A 
ENDROOT
BRANCH   1   7
ATOM      7  C   UNL     1     152.618 155.404 159.442  1.00  0.00     0.071 C 
ATOM      8  O   UNL     1     152.922 154.883 160.549  1.00  0.00    -0.545 OA
ATOM      9  O   UNL     1     153.343 155.050 158.310  1.00  0.00    -0.545 OA
ENDBRANCH   1   7
BRANCH   6  10
ATOM     10  O   UNL     1     148.356 159.171 159.017  1.00  0.00    -0.497 OA
ATOM     11  C   UNL     1     147.977 159.769 157.783  1.00  0.00     0.278 C 
ENDBRANCH   6  10
TORSDOF 2
ENDMDL
MODEL 6
REMARK VINA RESULT:    -5.114      1.763      4.986
REMARK INTER + INTRA:          -5.783
REMARK INTER:                  -5.719
REMARK INTRA:                  -0.063
REMARK UNBOUND:                -0.071
REMARK SMILES COc1ccc(C(=O)[O-])cc1
REMARK SMILES IDX 6 1 5 2 10 3 4 4 11 5 3 6 7 7 8 8 9 9 2 10 1 11
REMARK H PARENT
REMARK Flexibility Score: inf
ROOT
ATOM      1  C   UNL     1     152.459 155.676 158.921  1.00  0.00    -0.003 A 
ATOM      2  C   UNL     1     151.875 156.134 160.116  1.00  0.00     0.014 A 
ATOM      3  C   UNL     1     153.469 154.701 158.989  1.00  0.00     0.014 A 
ATOM      4  C   UNL     1     152.290 155.627 161.351  1.00  0.00     0.047 A 
ATOM      5  C   UNL     1     153.884 154.196 160.224  1.00  0.00     0.047 A 
ATOM      6  C   UNL     1     153.301 154.651 161.413  1.00  0.00     0.118 A 
ENDROOT
BRANCH   1   7
ATOM      7  C   UNL     1     152.023 156.210 157.613  1.00  0.00     0.071 C 
ATOM      8  O   UNL     1     151.370 157.286 157.545  1.00  0.00    -0.545 OA
ATOM      9  O   UNL     1     152.328 155.533 156.438  1.00  0.00    -0.545 OA
ENDBRANCH   1   7
BRANCH   6  10
ATOM     10  O   UNL     1     153.754 154.111 162.626  1.00  0.00    -0.497 OA
ATOM     11  C   UNL     1     155.113 154.115 163.049  1.00  0.00     0.278 C 
ENDBRANCH   6  10
TORSDOF 2
ENDMDL
MODEL 7
REMARK VINA RESULT:    -5.102     16.136     17.040
REMARK INTER + INTRA:          -5.769
REMARK INTER:                  -5.710
REMARK INTRA:                  -0.059
REMARK UNBOUND:                -0.071
REMARK SMILES COc1ccc(C(=O)[O-])cc1
REMARK SMILES IDX 6 1 5 2 10 3 4 4 11 5 3 6 7 7 8 8 9 9 2 10 1 11
REMARK H PARENT
REMARK Flexibility Score: inf
ROOT
ATOM      1  C   UNL     1     149.308 169.670 150.126  1.00  0.00    -0.003 A 
ATOM      2  C   UNL     1     148.669 170.881 150.446  1.00  0.00     0.014 A 
ATOM      3  C   UNL     1     150.419 169.267 150.888  1.00  0.00     0.014 A 
ATOM      4  C   UNL     1     149.128 171.670 151.504  1.00  0.00     0.047 A 
ATOM      5  C   UNL     1     150.878 170.057 151.944  1.00  0.00     0.047 A 
ATOM      6  C   UNL     1     150.241 171.262 152.263  1.00  0.00     0.118 A 
ENDROOT
BRANCH   1   7
ATOM      7  C   UNL     1     148.825 168.831 149.008  1.00  0.00     0.071 C 
ATOM      8  O   UNL     1     149.488 168.743 147.940  1.00  0.00    -0.545 OA
ATOM      9  O   UNL     1     147.632 168.126 149.120  1.00  0.00    -0.545 OA
ENDBRANCH   1   7
BRANCH   6  10
ATOM     10  O   UNL     1     150.741 172.018 153.333  1.00  0.00    -0.497 OA
ATOM     11  C   UNL     1     152.122 172.124 153.665  1.00  0.00     0.278 C 
ENDBRANCH   6  10
TORSDOF 2
ENDMDL
MODEL 8
REMARK VINA RESULT:    -4.969     15.448     16.355
REMARK INTER + INTRA:          -5.621
REMARK INTER:                  -5.562
REMARK INTRA:                  -0.059
REMARK UNBOUND:                -0.071
REMARK SMILES COc1ccc(C(=O)[O-])cc1
REMARK SMILES IDX 6 1 5 2 10 3 4 4 11 5 3 6 7 7 8 8 9 9 2 10 1 11
REMARK H PARENT
REMARK Flexibility Score: inf
ROOT
ATOM      1  C   UNL     1     151.025 170.478 152.272  1.00  0.00    -0.003 A 
ATOM      2  C   UNL     1     151.130 169.328 151.470  1.00  0.00     0.014 A 
ATOM      3  C   UNL     1     149.910 171.319 152.112  1.00  0.00     0.014 A 
ATOM      4  C   UNL     1     150.141 169.024 150.530  1.00  0.00     0.047 A 
ATOM      5  C   UNL     1     148.923 171.014 151.171  1.00  0.00     0.047 A 
ATOM      6  C   UNL     1     149.027 169.869 150.373  1.00  0.00     0.118 A 
ENDROOT
BRANCH   1   7
ATOM      7  C   UNL     1     152.069 170.803 153.268  1.00  0.00     0.071 C 
ATOM      8  O   UNL     1     152.793 169.894 153.757  1.00  0.00    -0.545 OA
ATOM      9  O   UNL     1     152.267 172.116 153.679  1.00  0.00    -0.545 OA
ENDBRANCH   1   7
BRANCH   6  10
ATOM     10  O   UNL     1     148.008 169.609 149.444  1.00  0.00    -0.497 OA
ATOM     11  C   UNL     1     146.806 168.909 149.746  1.00  0.00     0.278 C 
ENDBRANCH   6  10
TORSDOF 2
ENDMDL
MODEL 9
REMARK VINA RESULT:    -4.967     15.491     16.434
REMARK INTER + INTRA:          -5.619
REMARK INTER:                  -5.559
REMARK INTRA:                  -0.059
REMARK UNBOUND:                -0.071
REMARK SMILES COc1ccc(C(=O)[O-])cc1
REMARK SMILES IDX 6 1 5 2 10 3 4 4 11 5 3 6 7 7 8 8 9 9 2 10 1 11
REMARK H PARENT
REMARK Flexibility Score: inf
ROOT
ATOM      1  C   UNL     1     150.973 170.561 152.287  1.00  0.00    -0.003 A 
ATOM      2  C   UNL     1     149.850 171.387 152.109  1.00  0.00     0.014 A 
ATOM      3  C   UNL     1     151.100 169.406 151.497  1.00  0.00     0.014 A 
ATOM      4  C   UNL     1     148.875 171.067 151.158  1.00  0.00     0.047 A 
ATOM      5  C   UNL     1     150.126 169.086 150.548  1.00  0.00     0.047 A 
ATOM      6  C   UNL     1     149.008 169.909 150.369  1.00  0.00     0.118 A 
ENDROOT
BRANCH   1   7
ATOM      7  C   UNL     1     152.007 170.896 153.291  1.00  0.00     0.071 C 
ATOM      8  O   UNL     1     152.119 172.074 153.725  1.00  0.00    -0.545 OA
ATOM      9  O   UNL     1     152.868 169.917 153.771  1.00  0.00    -0.545 OA
ENDBRANCH   1   7
BRANCH   6  10
ATOM     10  O   UNL     1     148.058 169.543 149.403  1.00  0.00    -0.497 OA
ATOM     11  C   UNL     1     146.850 168.847 149.689  1.00  0.00     0.278 C 
ENDBRANCH   6  10
TORSDOF 2
ENDMDL
