MODEL 1
REMARK VINA RESULT:    -2.793      0.000      0.000
REMARK INTER + INTRA:          -3.361
REMARK INTER:                  -3.283
REMARK INTRA:                  -0.079
REMARK UNBOUND:                -0.079
REMARK SMILES CCCCC(=O)[O-]
REMARK SMILES IDX 4 1 5 2 6 3 7 4 3 5 2 6 1 7
REMARK H PARENT
REMARK Flexibility Score: inf
ROOT
ATOM      1  C   UNL     1      -4.988  15.937  22.473  1.00  0.00     0.053 C 
ENDROOT
BRANCH   1   2
ATOM      2  C   UNL     1      -4.568  17.343  22.183  1.00  0.00     0.041 C 
ATOM      3  O   UNL     1      -5.433  18.248  22.048  1.00  0.00    -0.550 OA
ATOM      4  O   UNL     1      -3.223  17.645  22.010  1.00  0.00    -0.550 OA
ENDBRANCH   1   2
BRANCH   1   5
ATOM      5  C   UNL     1      -5.563  15.279  21.214  1.00  0.00     0.006 C 
BRANCH   5   6
ATOM      6  C   UNL     1      -6.858  14.501  21.495  1.00  0.00    -0.003 C 
ATOM      7  C   UNL     1      -8.069  15.415  21.678  1.00  0.00     0.004 C 
ENDBRANCH   5   6
ENDBRANCH   1   5
TORSDOF 3
ENDMDL
MODEL 2
REMARK VINA RESULT:    -2.727     12.607     14.139
REMARK INTER + INTRA:          -3.284
REMARK INTER:                  -3.237
REMARK INTRA:                  -0.047
REMARK UNBOUND:                -0.079
REMARK SMILES CCCCC(=O)[O-]
REMARK SMILES IDX 4 1 5 2 6 3 7 4 3 5 2 6 1 7
REMARK H PARENT
REMARK Flexibility Score: inf
ROOT
ATOM      1  C   UNL     1       8.211  16.281  22.038  1.00  0.00     0.053 C 
ENDROOT
BRANCH   1   2
ATOM      2  C   UNL     1       6.957  15.480  21.888  1.00  0.00     0.041 C 
ATOM      3  O   UNL     1       7.014  14.276  21.525  1.00  0.00    -0.550 OA
ATOM      4  O   UNL     1       5.720  16.078  22.101  1.00  0.00    -0.550 OA
ENDBRANCH   1   2
BRANCH   1   5
ATOM      5  C   UNL     1       8.365  17.259  20.868  1.00  0.00     0.006 C 
BRANCH   5   6
ATOM      6  C   UNL     1       9.831  17.455  20.452  1.00  0.00    -0.003 C 
ATOM      7  C   UNL     1      10.520  16.142  20.081  1.00  0.00     0.004 C 
ENDBRANCH   5   6
ENDBRANCH   1   5
TORSDOF 3
ENDMDL
MODEL 3
REMARK VINA RESULT:    -2.724      1.544      1.740
REMARK INTER + INTRA:          -3.281
REMARK INTER:                  -3.244
REMARK INTRA:                  -0.036
REMARK UNBOUND:                -0.079
REMARK SMILES CCCCC(=O)[O-]
REMARK SMILES IDX 4 1 5 2 6 3 7 4 3 5 2 6 1 7
REMARK H PARENT
REMARK Flexibility Score: inf
ROOT
ATOM      1  C   UNL     1      -4.350  15.974  22.814  1.00  0.00     0.053 C 
ENDROOT
BRANCH   1   2
ATOM      2  C   UNL     1      -2.986  16.390  22.362  1.00  0.00     0.041 C 
ATOM      3  O   UNL     1      -2.412  17.373  22.901  1.00  0.00    -0.550 OA
ATOM      4  O   UNL     1      -2.368  15.723  21.312  1.00  0.00    -0.550 OA
ENDBRANCH   1   2
BRANCH   1   5
ATOM      5  C   UNL     1      -5.299  15.860  21.616  1.00  0.00     0.006 C 
BRANCH   5   6
ATOM      6  C   UNL     1      -6.121  14.562  21.636  1.00  0.00    -0.003 C 
ATOM      7  C   UNL     1      -7.626  14.814  21.548  1.00  0.00     0.004 C 
ENDBRANCH   5   6
ENDBRANCH   1   5
TORSDOF 3
ENDMDL
MODEL 4
REMARK VINA RESULT:    -2.719      1.085      1.279
REMARK INTER + INTRA:          -3.274
REMARK INTER:                  -3.199
REMARK INTRA:                  -0.075
REMARK UNBOUND:                -0.079
REMARK SMILES CCCCC(=O)[O-]
REMARK SMILES IDX 4 1 5 2 6 3 7 4 3 5 2 6 1 7
REMARK H PARENT
REMARK Flexibility Score: inf
ROOT
ATOM      1  C   UNL     1      -5.389  15.248  21.408  1.00  0.00     0.053 C 
ENDROOT
BRANCH   1   2
ATOM      2  C   UNL     1      -4.802  16.377  22.193  1.00  0.00     0.041 C 
ATOM      3  O   UNL     1      -5.180  17.560  21.982  1.00  0.00    -0.550 OA
ATOM      4  O   UNL     1      -3.801  16.130  23.125  1.00  0.00    -0.550 OA
ENDBRANCH   1   2
BRANCH   1   5
ATOM      5  C   UNL     1      -6.812  15.593  20.955  1.00  0.00     0.006 C 
BRANCH   5   6
ATOM      6  C   UNL     1      -7.878  14.722  21.638  1.00  0.00    -0.003 C 
ATOM      7  C   UNL     1      -8.631  15.467  22.741  1.00  0.00     0.004 C 
ENDBRANCH   5   6
ENDBRANCH   1   5
TORSDOF 3
ENDMDL
MODEL 5
REMARK VINA RESULT:    -2.686      2.370      3.642
REMARK INTER + INTRA:          -3.236
REMARK INTER:                  -3.105
REMARK INTRA:                  -0.131
REMARK UNBOUND:                -0.079
REMARK SMILES CCCCC(=O)[O-]
REMARK SMILES IDX 4 1 5 2 6 3 7 4 3 5 2 6 1 7
REMARK H PARENT
REMARK Flexibility Score: inf
ROOT
ATOM      1  C   UNL     1      -6.810  14.517  21.502  1.00  0.00     0.053 C 
ENDROOT
BRANCH   1   2
ATOM      2  C   UNL     1      -7.948  15.475  21.652  1.00  0.00     0.041 C 
ATOM      3  O   UNL     1      -8.120  16.392  20.806  1.00  0.00    -0.550 OA
ATOM      4  O   UNL     1      -8.791  15.387  22.753  1.00  0.00    -0.550 OA
ENDBRANCH   1   2
BRANCH   1   5
ATOM      5  C   UNL     1      -5.502  15.275  21.246  1.00  0.00     0.006 C 
BRANCH   5   6
ATOM      6  C   UNL     1      -5.014  16.045  22.483  1.00  0.00    -0.003 C 
ATOM      7  C   UNL     1      -4.747  17.522  22.192  1.00  0.00     0.004 C 
ENDBRANCH   5   6
ENDBRANCH   1   5
TORSDOF 3
ENDMDL
MODEL 6
REMARK VINA RESULT:    -2.656     15.584     16.631
REMARK INTER + INTRA:          -3.200
REMARK INTER:                  -3.182
REMARK INTRA:                  -0.018
REMARK UNBOUND:                -0.079
REMARK SMILES CCCCC(=O)[O-]
REMARK SMILES IDX 4 1 5 2 6 3 7 4 3 5 2 6 1 7
REMARK H PARENT
REMARK Flexibility Score: inf
ROOT
ATOM      1  C   UNL     1      11.058  14.522  18.915  1.00  0.00     0.053 C 
ENDROOT
BRANCH   1   2
ATOM      2  C   UNL     1      10.768  13.059  18.804  1.00  0.00     0.041 C 
ATOM      3  O   UNL     1      10.804  12.489  17.682  1.00  0.00    -0.550 OA
ATOM      4  O   UNL     1      10.410  12.333  19.934  1.00  0.00    -0.550 OA
ENDBRANCH   1   2
BRANCH   1   5
ATOM      5  C   UNL     1      10.343  15.118  20.134  1.00  0.00     0.006 C 
BRANCH   5   6
ATOM      6  C   UNL     1      10.497  16.645  20.220  1.00  0.00    -0.003 C 
ATOM      7  C   UNL     1       9.201  17.348  20.621  1.00  0.00     0.004 C 
ENDBRANCH   5   6
ENDBRANCH   1   5
TORSDOF 3
ENDMDL
MODEL 7
REMARK VINA RESULT:    -2.595      2.578      3.387
REMARK INTER + INTRA:          -3.129
REMARK INTER:                  -3.038
REMARK INTRA:                  -0.091
REMARK UNBOUND:                -0.079
REMARK SMILES CCCCC(=O)[O-]
REMARK SMILES IDX 4 1 5 2 6 3 7 4 3 5 2 6 1 7
REMARK H PARENT
REMARK Flexibility Score: inf
ROOT
ATOM      1  C   UNL     1      -7.714  16.875  22.011  1.00  0.00     0.053 C 
ENDROOT
BRANCH   1   2
ATOM      2  C   UNL     1      -8.179  17.801  20.932  1.00  0.00     0.041 C 
ATOM      3  O   UNL     1      -8.362  17.372  19.763  1.00  0.00    -0.550 OA
ATOM      4  O   UNL     1      -8.363  19.151  21.206  1.00  0.00    -0.550 OA
ENDBRANCH   1   2
BRANCH   1   5
ATOM      5  C   UNL     1      -8.083  15.427  21.669  1.00  0.00     0.006 C 
BRANCH   5   6
ATOM      6  C   UNL     1      -6.851  14.560  21.367  1.00  0.00    -0.003 C 
ATOM      7  C   UNL     1      -5.536  15.273  21.681  1.00  0.00     0.004 C 
ENDBRANCH   5   6
ENDBRANCH   1   5
TORSDOF 3
ENDMDL
MODEL 8
REMARK VINA RESULT:    -2.563     14.856     16.008
REMARK INTER + INTRA:          -3.092
REMARK INTER:                  -3.048
REMARK INTRA:                  -0.044
REMARK UNBOUND:                -0.079
REMARK SMILES CCCCC(=O)[O-]
REMARK SMILES IDX 4 1 5 2 6 3 7 4 3 5 2 6 1 7
REMARK H PARENT
REMARK Flexibility Score: inf
ROOT
ATOM      1  C   UNL     1       9.933  14.993  20.637  1.00  0.00     0.053 C 
ENDROOT
BRANCH   1   2
ATOM      2  C   UNL     1      10.420  13.831  19.830  1.00  0.00     0.041 C 
ATOM      3  O   UNL     1      10.316  12.659  20.280  1.00  0.00    -0.550 OA
ATOM      4  O   UNL     1      11.033  14.045  18.602  1.00  0.00    -0.550 OA
ENDBRANCH   1   2
BRANCH   1   5
ATOM      5  C   UNL     1      10.514  16.303  20.092  1.00  0.00     0.006 C 
BRANCH   5   6
ATOM      6  C   UNL     1       9.627  17.517  20.405  1.00  0.00    -0.003 C 
ATOM      7  C   UNL     1       8.306  17.128  21.069  1.00  0.00     0.004 C 
ENDBRANCH   5   6
ENDBRANCH   1   5
TORSDOF 3
ENDMDL
MODEL 9
REMARK VINA RESULT:    -2.476      2.340      3.826
REMARK INTER + INTRA:          -2.989
REMARK INTER:                  -2.969
REMARK INTRA:                  -0.020
REMARK UNBOUND:                -0.079
REMARK SMILES CCCCC(=O)[O-]
REMARK SMILES IDX 4 1 5 2 6 3 7 4 3 5 2 6 1 7
REMARK H PARENT
REMARK Flexibility Score: inf
ROOT
ATOM      1  C   UNL     1      -5.331  15.224  21.693  1.00  0.00     0.053 C 
ENDROOT
BRANCH   1   2
ATOM      2  C   UNL     1      -6.758  15.509  21.345  1.00  0.00     0.041 C 
ATOM      3  O   UNL     1      -7.602  14.575  21.315  1.00  0.00    -0.550 OA
ATOM      4  O   UNL     1      -7.146  16.799  21.005  1.00  0.00    -0.550 OA
ENDBRANCH   1   2
BRANCH   1   5
ATOM      5  C   UNL     1      -4.581  16.529  21.985  1.00  0.00     0.006 C 
BRANCH   5   6
ATOM      6  C   UNL     1      -3.177  16.286  22.561  1.00  0.00    -0.003 C 
ATOM      7  C   UNL     1      -2.139  15.986  21.481  1.00  0.00     0.004 C 
ENDBRANCH   5   6
ENDBRANCH   1   5
TORSDOF 3
ENDMDL
