MODEL 1
REMARK VINA RESULT:    -3.933      0.000      0.000
REMARK INTER + INTRA:          -6.518
REMARK INTER:                  -6.003
REMARK INTRA:                  -0.515
REMARK UNBOUND:                -0.515
REMARK SMILES O=C([O-])CCCCCCCCC(=O)[O-]
REMARK SMILES IDX 7 1 6 2 5 3 4 4 2 5 1 6 3 7 8 8 9 9 10 10 11 11 12 12 13 13
REMARK SMILES IDX 14 14
REMARK H PARENT
REMARK Flexibility Score: inf
ROOT
ATOM      1  C   UNL     1       5.616  14.002  11.210  1.00  0.00     0.000 C 
ENDROOT
BRANCH   1   2
ATOM      2  C   UNL     1       6.428  12.730  11.500  1.00  0.00     0.000 C 
BRANCH   2   3
ATOM      3  C   UNL     1       6.020  12.053  12.820  1.00  0.00     0.006 C 
BRANCH   3   4
ATOM      4  C   UNL     1       7.186  11.975  13.815  1.00  0.00     0.053 C 
BRANCH   4   5
ATOM      5  C   UNL     1       6.704  11.953  15.234  1.00  0.00     0.041 C 
ATOM      6  O   UNL     1       7.284  11.235  16.091  1.00  0.00    -0.550 OA
ATOM      7  O   UNL     1       5.595  12.705  15.603  1.00  0.00    -0.550 OA
ENDBRANCH   4   5
ENDBRANCH   3   4
ENDBRANCH   2   3
ENDBRANCH   1   2
BRANCH   1   8
ATOM      8  C   UNL     1       4.636  14.349  12.345  1.00  0.00     0.000 C 
BRANCH   8   9
ATOM      9  C   UNL     1       3.233  14.706  11.826  1.00  0.00     0.000 C 
BRANCH   9  10
ATOM     10  C   UNL     1       2.829  13.879  10.594  1.00  0.00     0.006 C 
BRANCH  10  11
ATOM     11  C   UNL     1       2.045  14.710   9.569  1.00  0.00     0.053 C 
BRANCH  11  12
ATOM     12  C   UNL     1       1.851  13.971   8.281  1.00  0.00     0.041 C 
ATOM     13  O   UNL     1       2.522  14.284   7.264  1.00  0.00    -0.550 OA
ATOM     14  O   UNL     1       0.907  12.955   8.197  1.00  0.00    -0.550 OA
ENDBRANCH  11  12
ENDBRANCH  10  11
ENDBRANCH   9  10
ENDBRANCH   8   9
ENDBRANCH   1   8
TORSDOF 9
ENDMDL
MODEL 2
REMARK VINA RESULT:    -3.916      2.577      5.618
REMARK INTER + INTRA:          -6.491
REMARK INTER:                  -5.573
REMARK INTRA:                  -0.918
REMARK UNBOUND:                -0.515
REMARK SMILES O=C([O-])CCCCCCCCC(=O)[O-]
REMARK SMILES IDX 7 1 6 2 5 3 4 4 2 5 1 6 3 7 8 8 9 9 10 10 11 11 12 12 13 13
REMARK SMILES IDX 14 14
REMARK H PARENT
REMARK Flexibility Score: inf
ROOT
ATOM      1  C   UNL     1       1.826  14.141   9.873  1.00  0.00     0.000 C 
ENDROOT
BRANCH   1   2
ATOM      2  C   UNL     1       1.879  14.568   8.397  1.00  0.00     0.000 C 
BRANCH   2   3
ATOM      3  C   UNL     1       2.716  13.610   7.533  1.00  0.00     0.006 C 
BRANCH   3   4
ATOM      4  C   UNL     1       3.930  13.056   8.291  1.00  0.00     0.053 C 
BRANCH   4   5
ATOM      5  C   UNL     1       3.949  11.557   8.290  1.00  0.00     0.041 C 
ATOM      6  O   UNL     1       5.045  10.936   8.278  1.00  0.00    -0.550 OA
ATOM      7  O   UNL     1       2.755  10.847   8.273  1.00  0.00    -0.550 OA
ENDBRANCH   4   5
ENDBRANCH   3   4
ENDBRANCH   2   3
ENDBRANCH   1   2
BRANCH   1   8
ATOM      8  C   UNL     1       2.175  15.292  10.834  1.00  0.00     0.000 C 
BRANCH   8   9
ATOM      9  C   UNL     1       2.997  14.820  12.046  1.00  0.00     0.000 C 
BRANCH   9  10
ATOM     10  C   UNL     1       4.380  14.275  11.649  1.00  0.00     0.006 C 
BRANCH  10  11
ATOM     11  C   UNL     1       4.863  13.172  12.600  1.00  0.00     0.053 C 
BRANCH  11  12
ATOM     12  C   UNL     1       4.782  11.816  11.968  1.00  0.00     0.041 C 
ATOM     13  O   UNL     1       5.827  11.242  11.565  1.00  0.00    -0.550 OA
ATOM     14  O   UNL     1       3.548  11.200  11.798  1.00  0.00    -0.550 OA
ENDBRANCH  11  12
ENDBRANCH  10  11
ENDBRANCH   9  10
ENDBRANCH   8   9
ENDBRANCH   1   8
TORSDOF 9
ENDMDL
MODEL 3
REMARK VINA RESULT:    -3.857      2.723      5.728
REMARK INTER + INTRA:          -6.402
REMARK INTER:                  -5.527
REMARK INTRA:                  -0.875
REMARK UNBOUND:                -0.515
REMARK SMILES O=C([O-])CCCCCCCCC(=O)[O-]
REMARK SMILES IDX 7 1 6 2 5 3 4 4 2 5 1 6 3 7 8 8 9 9 10 10 11 11 12 12 13 13
REMARK SMILES IDX 14 14
REMARK H PARENT
REMARK Flexibility Score: inf
ROOT
ATOM      1  C   UNL     1       2.776  14.330  12.057  1.00  0.00     0.000 C 
ENDROOT
BRANCH   1   2
ATOM      2  C   UNL     1       2.421  14.677  10.602  1.00  0.00     0.000 C 
BRANCH   2   3
ATOM      3  C   UNL     1       2.291  13.431   9.710  1.00  0.00     0.006 C 
BRANCH   3   4
ATOM      4  C   UNL     1       3.551  13.186   8.869  1.00  0.00     0.053 C 
BRANCH   4   5
ATOM      5  C   UNL     1       4.118  11.818   9.103  1.00  0.00     0.041 C 
ATOM      6  O   UNL     1       4.946  11.327   8.292  1.00  0.00    -0.550 OA
ATOM      7  O   UNL     1       3.709  11.076  10.204  1.00  0.00    -0.550 OA
ENDBRANCH   4   5
ENDBRANCH   3   4
ENDBRANCH   2   3
ENDBRANCH   1   2
BRANCH   1   8
ATOM      8  C   UNL     1       4.171  14.838  12.462  1.00  0.00     0.000 C 
BRANCH   8   9
ATOM      9  C   UNL     1       5.297  13.892  12.010  1.00  0.00     0.000 C 
BRANCH   9  10
ATOM     10  C   UNL     1       5.439  12.660  12.921  1.00  0.00     0.006 C 
BRANCH  10  11
ATOM     11  C   UNL     1       6.885  12.152  12.987  1.00  0.00     0.053 C 
BRANCH  11  12
ATOM     12  C   UNL     1       7.368  11.669  11.653  1.00  0.00     0.041 C 
ATOM     13  O   UNL     1       6.923  10.596  11.170  1.00  0.00    -0.550 OA
ATOM     14  O   UNL     1       8.331  12.391  10.959  1.00  0.00    -0.550 OA
ENDBRANCH  11  12
ENDBRANCH  10  11
ENDBRANCH   9  10
ENDBRANCH   8   9
ENDBRANCH   1   8
TORSDOF 9
ENDMDL
MODEL 4
REMARK VINA RESULT:    -3.840      2.653      3.069
REMARK INTER + INTRA:          -6.375
REMARK INTER:                  -5.567
REMARK INTRA:                  -0.808
REMARK UNBOUND:                -0.515
REMARK SMILES O=C([O-])CCCCCCCCC(=O)[O-]
REMARK SMILES IDX 7 1 6 2 5 3 4 4 2 5 1 6 3 7 8 8 9 9 10 10 11 11 12 12 13 13
REMARK SMILES IDX 14 14
REMARK H PARENT
REMARK Flexibility Score: inf
ROOT
ATOM      1  C   UNL     1       4.207  14.882  12.484  1.00  0.00     0.000 C 
ENDROOT
BRANCH   1   2
ATOM      2  C   UNL     1       5.005  13.569  12.429  1.00  0.00     0.000 C 
BRANCH   2   3
ATOM      3  C   UNL     1       5.943  13.496  11.212  1.00  0.00     0.006 C 
BRANCH   3   4
ATOM      4  C   UNL     1       7.201  12.665  11.499  1.00  0.00     0.053 C 
BRANCH   4   5
ATOM      5  C   UNL     1       7.093  11.280  10.936  1.00  0.00     0.041 C 
ATOM      6  O   UNL     1       6.093  10.951  10.245  1.00  0.00    -0.550 OA
ATOM      7  O   UNL     1       8.086  10.344  11.199  1.00  0.00    -0.550 OA
ENDBRANCH   4   5
ENDBRANCH   3   4
ENDBRANCH   2   3
ENDBRANCH   1   2
BRANCH   1   8
ATOM      8  C   UNL     1       2.709  14.676  12.199  1.00  0.00     0.000 C 
BRANCH   8   9
ATOM      9  C   UNL     1       2.267  15.319  10.874  1.00  0.00     0.000 C 
BRANCH   9  10
ATOM     10  C   UNL     1       1.559  14.324   9.939  1.00  0.00     0.006 C 
BRANCH  10  11
ATOM     11  C   UNL     1       2.389  14.015   8.686  1.00  0.00     0.053 C 
BRANCH  11  12
ATOM     12  C   UNL     1       3.167  12.743   8.832  1.00  0.00     0.041 C 
ATOM     13  O   UNL     1       4.053  12.444   7.990  1.00  0.00    -0.550 OA
ATOM     14  O   UNL     1       2.891  11.875   9.881  1.00  0.00    -0.550 OA
ENDBRANCH  11  12
ENDBRANCH  10  11
ENDBRANCH   9  10
ENDBRANCH   8   9
ENDBRANCH   1   8
TORSDOF 9
ENDMDL
MODEL 5
REMARK VINA RESULT:    -3.830      2.954      6.123
REMARK INTER + INTRA:          -6.361
REMARK INTER:                  -5.713
REMARK INTRA:                  -0.648
REMARK UNBOUND:                -0.515
REMARK SMILES O=C([O-])CCCCCCCCC(=O)[O-]
REMARK SMILES IDX 7 1 6 2 5 3 4 4 2 5 1 6 3 7 8 8 9 9 10 10 11 11 12 12 13 13
REMARK SMILES IDX 14 14
REMARK H PARENT
REMARK Flexibility Score: inf
ROOT
ATOM      1  C   UNL     1       4.762  14.391  12.021  1.00  0.00     0.000 C 
ENDROOT
BRANCH   1   2
ATOM      2  C   UNL     1       3.344  14.225  11.451  1.00  0.00     0.000 C 
BRANCH   2   3
ATOM      3  C   UNL     1       3.296  13.258  10.255  1.00  0.00     0.006 C 
BRANCH   3   4
ATOM      4  C   UNL     1       1.923  13.252   9.569  1.00  0.00     0.053 C 
BRANCH   4   5
ATOM      5  C   UNL     1       1.782  14.385   8.598  1.00  0.00     0.041 C 
ATOM      6  O   UNL     1       2.348  14.332   7.474  1.00  0.00    -0.550 OA
ATOM      7  O   UNL     1       1.047  15.512   8.946  1.00  0.00    -0.550 OA
ENDBRANCH   4   5
ENDBRANCH   3   4
ENDBRANCH   2   3
ENDBRANCH   1   2
BRANCH   1   8
ATOM      8  C   UNL     1       5.844  13.812  11.093  1.00  0.00     0.000 C 
BRANCH   8   9
ATOM      9  C   UNL     1       6.794  12.848  11.824  1.00  0.00     0.000 C 
BRANCH   9  10
ATOM     10  C   UNL     1       6.309  11.389  11.778  1.00  0.00     0.006 C 
BRANCH  10  11
ATOM     11  C   UNL     1       7.140  10.533  10.813  1.00  0.00     0.053 C 
BRANCH  11  12
ATOM     12  C   UNL     1       6.559  10.525   9.432  1.00  0.00     0.041 C 
ATOM     13  O   UNL     1       5.311  10.549   9.271  1.00  0.00    -0.550 OA
ATOM     14  O   UNL     1       7.395  10.462   8.325  1.00  0.00    -0.550 OA
ENDBRANCH  11  12
ENDBRANCH  10  11
ENDBRANCH   9  10
ENDBRANCH   8   9
ENDBRANCH   1   8
TORSDOF 9
ENDMDL
MODEL 6
REMARK VINA RESULT:    -3.810      3.246      3.679
REMARK INTER + INTRA:          -6.329
REMARK INTER:                  -5.858
REMARK INTRA:                  -0.471
REMARK UNBOUND:                -0.515
REMARK SMILES O=C([O-])CCCCCCCCC(=O)[O-]
REMARK SMILES IDX 7 1 6 2 5 3 4 4 2 5 1 6 3 7 8 8 9 9 10 10 11 11 12 12 13 13
REMARK SMILES IDX 14 14
REMARK H PARENT
REMARK Flexibility Score: inf
ROOT
ATOM      1  C   UNL     1       6.008  13.824  11.044  1.00  0.00     0.000 C 
ENDROOT
BRANCH   1   2
ATOM      2  C   UNL     1       7.090  12.752  11.252  1.00  0.00     0.000 C 
BRANCH   2   3
ATOM      3  C   UNL     1       6.500  11.344  11.441  1.00  0.00     0.006 C 
BRANCH   3   4
ATOM      4  C   UNL     1       7.185  10.305  10.543  1.00  0.00     0.053 C 
BRANCH   4   5
ATOM      5  C   UNL     1       6.832  10.499   9.099  1.00  0.00     0.041 C 
ATOM      6  O   UNL     1       7.737  10.534   8.224  1.00  0.00    -0.550 OA
ATOM      7  O   UNL     1       5.505  10.671   8.725  1.00  0.00    -0.550 OA
ENDBRANCH   4   5
ENDBRANCH   3   4
ENDBRANCH   2   3
ENDBRANCH   1   2
BRANCH   1   8
ATOM      8  C   UNL     1       4.732  13.543  11.858  1.00  0.00     0.000 C 
BRANCH   8   9
ATOM      9  C   UNL     1       4.024  14.832  12.309  1.00  0.00     0.000 C 
BRANCH   9  10
ATOM     10  C   UNL     1       2.625  14.989  11.688  1.00  0.00     0.006 C 
BRANCH  10  11
ATOM     11  C   UNL     1       2.513  14.287  10.328  1.00  0.00     0.053 C 
BRANCH  11  12
ATOM     12  C   UNL     1       1.342  14.785   9.539  1.00  0.00     0.041 C 
ATOM     13  O   UNL     1       1.160  16.021   9.386  1.00  0.00    -0.550 OA
ATOM     14  O   UNL     1       0.435  13.883   8.996  1.00  0.00    -0.550 OA
ENDBRANCH  11  12
ENDBRANCH  10  11
ENDBRANCH   9  10
ENDBRANCH   8   9
ENDBRANCH   1   8
TORSDOF 9
ENDMDL
MODEL 7
REMARK VINA RESULT:    -3.807      2.729      5.341
REMARK INTER + INTRA:          -6.325
REMARK INTER:                  -5.315
REMARK INTRA:                  -1.010
REMARK UNBOUND:                -0.515
REMARK SMILES O=C([O-])CCCCCCCCC(=O)[O-]
REMARK SMILES IDX 7 1 6 2 5 3 4 4 2 5 1 6 3 7 8 8 9 9 10 10 11 11 12 12 13 13
REMARK SMILES IDX 14 14
REMARK H PARENT
REMARK Flexibility Score: inf
ROOT
ATOM      1  C   UNL     1       1.254  14.161   8.664  1.00  0.00     0.000 C 
ENDROOT
BRANCH   1   2
ATOM      2  C   UNL     1       2.263  14.218   7.506  1.00  0.00     0.000 C 
BRANCH   2   3
ATOM      3  C   UNL     1       3.237  13.026   7.510  1.00  0.00     0.006 C 
BRANCH   3   4
ATOM      4  C   UNL     1       4.153  13.030   8.741  1.00  0.00     0.053 C 
BRANCH   4   5
ATOM      5  C   UNL     1       4.065  11.743   9.503  1.00  0.00     0.041 C 
ATOM      6  O   UNL     1       2.945  11.218   9.737  1.00  0.00    -0.550 OA
ATOM      7  O   UNL     1       5.222  11.138   9.982  1.00  0.00    -0.550 OA
ENDBRANCH   4   5
ENDBRANCH   3   4
ENDBRANCH   2   3
ENDBRANCH   1   2
BRANCH   1   8
ATOM      8  C   UNL     1       0.985  15.545   9.282  1.00  0.00     0.000 C 
BRANCH   8   9
ATOM      9  C   UNL     1       1.916  15.853  10.467  1.00  0.00     0.000 C 
BRANCH   9  10
ATOM     10  C   UNL     1       2.262  14.601  11.291  1.00  0.00     0.006 C 
BRANCH  10  11
ATOM     11  C   UNL     1       3.587  14.755  12.051  1.00  0.00     0.053 C 
BRANCH  11  12
ATOM     12  C   UNL     1       4.006  13.475  12.708  1.00  0.00     0.041 C 
ATOM     13  O   UNL     1       5.213  13.282  13.003  1.00  0.00    -0.550 OA
ATOM     14  O   UNL     1       3.066  12.486  12.966  1.00  0.00    -0.550 OA
ENDBRANCH  11  12
ENDBRANCH  10  11
ENDBRANCH   9  10
ENDBRANCH   8   9
ENDBRANCH   1   8
TORSDOF 9
ENDMDL
MODEL 8
REMARK VINA RESULT:    -3.798      2.628      3.443
REMARK INTER + INTRA:          -6.311
REMARK INTER:                  -5.442
REMARK INTRA:                  -0.869
REMARK UNBOUND:                -0.515
REMARK SMILES O=C([O-])CCCCCCCCC(=O)[O-]
REMARK SMILES IDX 7 1 6 2 5 3 4 4 2 5 1 6 3 7 8 8 9 9 10 10 11 11 12 12 13 13
REMARK SMILES IDX 14 14
REMARK H PARENT
REMARK Flexibility Score: inf
ROOT
ATOM      1  C   UNL     1       2.398  14.398  11.637  1.00  0.00     0.000 C 
ENDROOT
BRANCH   1   2
ATOM      2  C   UNL     1       3.657  14.925  12.346  1.00  0.00     0.000 C 
BRANCH   2   3
ATOM      3  C   UNL     1       4.940  14.215  11.881  1.00  0.00     0.006 C 
BRANCH   3   4
ATOM      4  C   UNL     1       5.287  13.009  12.765  1.00  0.00     0.053 C 
BRANCH   4   5
ATOM      5  C   UNL     1       5.051  11.711  12.053  1.00  0.00     0.041 C 
ATOM      6  O   UNL     1       6.002  11.122  11.474  1.00  0.00    -0.550 OA
ATOM      7  O   UNL     1       3.772  11.169  12.004  1.00  0.00    -0.550 OA
ENDBRANCH   4   5
ENDBRANCH   3   4
ENDBRANCH   2   3
ENDBRANCH   1   2
BRANCH   1   8
ATOM      8  C   UNL     1       2.011  15.245  10.413  1.00  0.00     0.000 C 
BRANCH   8   9
ATOM      9  C   UNL     1       1.860  14.402   9.135  1.00  0.00     0.000 C 
BRANCH   9  10
ATOM     10  C   UNL     1       3.021  13.414   8.936  1.00  0.00     0.006 C 
BRANCH  10  11
ATOM     11  C   UNL     1       2.531  11.969   8.767  1.00  0.00     0.053 C 
BRANCH  11  12
ATOM     12  C   UNL     1       3.651  11.036   8.423  1.00  0.00     0.041 C 
ATOM     13  O   UNL     1       4.825  11.473   8.306  1.00  0.00    -0.550 OA
ATOM     14  O   UNL     1       3.392   9.689   8.202  1.00  0.00    -0.550 OA
ENDBRANCH  11  12
ENDBRANCH  10  11
ENDBRANCH   9  10
ENDBRANCH   8   9
ENDBRANCH   1   8
TORSDOF 9
ENDMDL
MODEL 9
REMARK VINA RESULT:    -3.727      3.023      3.747
REMARK INTER + INTRA:          -6.204
REMARK INTER:                  -5.508
REMARK INTRA:                  -0.695
REMARK UNBOUND:                -0.515
REMARK SMILES O=C([O-])CCCCCCCCC(=O)[O-]
REMARK SMILES IDX 7 1 6 2 5 3 4 4 2 5 1 6 3 7 8 8 9 9 10 10 11 11 12 12 13 13
REMARK SMILES IDX 14 14
REMARK H PARENT
REMARK Flexibility Score: inf
ROOT
ATOM      1  C   UNL     1       5.928  12.056  12.877  1.00  0.00     0.000 C 
ENDROOT
BRANCH   1   2
ATOM      2  C   UNL     1       7.194  11.952  13.744  1.00  0.00     0.000 C 
BRANCH   2   3
ATOM      3  C   UNL     1       8.484  11.921  12.907  1.00  0.00     0.006 C 
BRANCH   3   4
ATOM      4  C   UNL     1       8.216  12.177  11.418  1.00  0.00     0.053 C 
BRANCH   4   5
ATOM      5  C   UNL     1       8.668  11.029  10.566  1.00  0.00     0.041 C 
ATOM      6  O   UNL     1       8.624  11.114   9.311  1.00  0.00    -0.550 OA
ATOM      7  O   UNL     1       9.111   9.854  11.162  1.00  0.00    -0.550 OA
ENDBRANCH   4   5
ENDBRANCH   3   4
ENDBRANCH   2   3
ENDBRANCH   1   2
BRANCH   1   8
ATOM      8  C   UNL     1       4.938  13.111  13.401  1.00  0.00     0.000 C 
BRANCH   8   9
ATOM      9  C   UNL     1       4.669  14.227  12.378  1.00  0.00     0.000 C 
BRANCH   9  10
ATOM     10  C   UNL     1       5.104  13.844  10.953  1.00  0.00     0.006 C 
BRANCH  10  11
ATOM     11  C   UNL     1       3.908  13.507  10.053  1.00  0.00     0.053 C 
BRANCH  11  12
ATOM     12  C   UNL     1       4.103  12.211   9.327  1.00  0.00     0.041 C 
ATOM     13  O   UNL     1       4.287  11.146   9.972  1.00  0.00    -0.550 OA
ATOM     14  O   UNL     1       4.111  12.186   7.938  1.00  0.00    -0.550 OA
ENDBRANCH  11  12
ENDBRANCH  10  11
ENDBRANCH   9  10
ENDBRANCH   8   9
ENDBRANCH   1   8
TORSDOF 9
ENDMDL
