MODEL 1
REMARK VINA RESULT:    -3.995      0.000      0.000
REMARK INTER + INTRA:          -6.135
REMARK INTER:                  -6.098
REMARK INTRA:                  -0.037
REMARK UNBOUND:                -0.037
REMARK SMILES CC1=CCC[C@H](C)C(=O)C[C@@H](C(C)C)C(=O)C1
REMARK SMILES IDX 8 1 9 2 6 3 7 4 5 5 4 6 3 7 2 8 1 9 10 11 11 12 15 13 16 14
REMARK SMILES IDX 17 15 12 17 13 18 14 19
REMARK H PARENT
REMARK Flexibility Score: 70.00
ROOT
ATOM      1  C   UNL     1     -13.767  15.742 -31.573  1.00  0.00     0.136 C 
ATOM      2  O   UNL     1     -13.354  16.440 -32.489  1.00  0.00    -0.299 OA
ENDROOT
BRANCH   1   3
ATOM      3  C   UNL     1     -15.119  15.065 -31.703  1.00  0.00     0.053 C 
ATOM      4  C   UNL     1     -15.021  13.839 -32.621  1.00  0.00     0.016 C 
BRANCH   3   5
ATOM      5  C   UNL     1     -15.663  14.671 -30.312  1.00  0.00     0.015 C 
BRANCH   5   6
ATOM      6  C   UNL     1     -15.947  13.158 -30.221  1.00  0.00     0.028 C 
BRANCH   6   7
ATOM      7  C   UNL     1     -15.815  12.611 -28.822  1.00  0.00    -0.028 C 
ATOM      8  C   UNL     1     -14.652  12.235 -28.231  1.00  0.00    -0.070 CG0
ATOM      9  C   UNL     1     -14.710  11.804 -26.787  1.00  0.00     0.039 C 
ATOM     10  G   UNL     1     -13.315  12.182 -28.959  1.00  0.00     0.000 G0
ENDBRANCH   6   7
ENDBRANCH   5   6
ENDBRANCH   3   5
ENDBRANCH   1   3
BRANCH   1  11
ATOM     11  C   UNL     1     -12.920  15.586 -30.331  1.00  0.00     0.087 C 
BRANCH  11  12
ATOM     12  C   UNL     1     -12.230  14.198 -30.258  1.00  0.00     0.066 C 
BRANCH  12  13
ATOM     13  C   UNL     1     -12.549  13.490 -28.949  1.00  0.00     0.140 C 
ATOM     14  O   UNL     1     -12.162  13.953 -27.885  1.00  0.00    -0.299 OA
BRANCH  13  15
ATOM     15  C   UNL     1     -13.299  12.180 -28.963  1.00  0.00     0.106 CG0
ATOM     16  G   UNL     1     -14.648  12.232 -28.257  1.00  0.00     0.000 G0
ENDBRANCH  13  15
ENDBRANCH  12  13
BRANCH  12  17
ATOM     17  C   UNL     1     -10.691  14.253 -30.530  1.00  0.00    -0.006 C 
ATOM     18  C   UNL     1     -10.304  15.104 -31.755  1.00  0.00     0.008 C 
ATOM     19  C   UNL     1     -10.093  12.844 -30.669  1.00  0.00     0.008 C 
ENDBRANCH  12  17
ENDBRANCH  11  12
ENDBRANCH   1  11
TORSDOF 1
ENDMDL
MODEL 2
REMARK VINA RESULT:    -3.810      1.538      2.287
REMARK INTER + INTRA:          -5.852
REMARK INTER:                  -5.467
REMARK INTRA:                  -0.385
REMARK UNBOUND:                -0.037
REMARK SMILES CC1=CCC[C@H](C)C(=O)C[C@@H](C(C)C)C(=O)C1
REMARK SMILES IDX 8 1 9 2 6 3 7 4 5 5 4 6 3 7 2 8 1 9 10 11 11 12 15 13 16 14
REMARK SMILES IDX 17 15 12 17 13 18 14 19
REMARK H PARENT
REMARK Flexibility Score: 70.00
ROOT
ATOM      1  C   UNL     1     -15.501  14.305 -30.505  1.00  0.00     0.136 C 
ATOM      2  O   UNL     1     -15.942  14.270 -31.646  1.00  0.00    -0.299 OA
ENDROOT
BRANCH   1   3
ATOM      3  C   UNL     1     -16.168  13.476 -29.422  1.00  0.00     0.053 C 
ATOM      4  C   UNL     1     -17.587  13.994 -29.147  1.00  0.00     0.016 C 
BRANCH   3   5
ATOM      5  C   UNL     1     -16.194  11.983 -29.821  1.00  0.00     0.015 C 
BRANCH   5   6
ATOM      6  C   UNL     1     -14.789  11.353 -29.754  1.00  0.00     0.028 C 
BRANCH   6   7
ATOM      7  C   UNL     1     -14.178  11.405 -28.376  1.00  0.00    -0.028 C 
ATOM      8  C   UNL     1     -12.998  11.998 -28.061  1.00  0.00    -0.070 CG0
ATOM      9  C   UNL     1     -12.601  12.033 -26.606  1.00  0.00     0.039 C 
ATOM     10  G   UNL     1     -12.044  12.581 -29.096  1.00  0.00     0.000 G0
ENDBRANCH   6   7
ENDBRANCH   5   6
ENDBRANCH   3   5
ENDBRANCH   1   3
BRANCH   1  11
ATOM     11  C   UNL     1     -14.311  15.187 -30.205  1.00  0.00     0.087 C 
BRANCH  11  12
ATOM     12  C   UNL     1     -12.967  14.514 -30.590  1.00  0.00     0.066 C 
BRANCH  12  13
ATOM     13  C   UNL     1     -12.207  14.050 -29.355  1.00  0.00     0.140 C 
ATOM     14  O   UNL     1     -11.703  14.866 -28.597  1.00  0.00    -0.299 OA
BRANCH  13  15
ATOM     15  C   UNL     1     -12.025  12.575 -29.091  1.00  0.00     0.106 CG0
ATOM     16  G   UNL     1     -12.998  12.006 -28.066  1.00  0.00     0.000 G0
ENDBRANCH  13  15
ENDBRANCH  12  13
BRANCH  12  17
ATOM     17  C   UNL     1     -12.075  15.394 -31.526  1.00  0.00    -0.006 C 
ATOM     18  C   UNL     1     -12.831  15.989 -32.728  1.00  0.00     0.008 C 
ATOM     19  C   UNL     1     -10.842  14.620 -32.020  1.00  0.00     0.008 C 
ENDBRANCH  12  17
ENDBRANCH  11  12
ENDBRANCH   1  11
TORSDOF 1
ENDMDL
MODEL 3
REMARK VINA RESULT:    -3.778      2.083      5.355
REMARK INTER + INTRA:          -5.803
REMARK INTER:                  -5.886
REMARK INTRA:                   0.083
REMARK UNBOUND:                -0.037
REMARK SMILES CC1=CCC[C@H](C)C(=O)C[C@@H](C(C)C)C(=O)C1
REMARK SMILES IDX 8 1 9 2 6 3 7 4 5 5 4 6 3 7 2 8 1 9 10 11 11 12 15 13 16 14
REMARK SMILES IDX 17 15 12 17 13 18 14 19
REMARK H PARENT
REMARK Flexibility Score: 70.00
ROOT
ATOM      1  C   UNL     1     -13.789  12.193 -29.065  1.00  0.00     0.136 C 
ATOM      2  O   UNL     1     -14.158  11.033 -29.186  1.00  0.00    -0.299 OA
ENDROOT
BRANCH   1   3
ATOM      3  C   UNL     1     -12.352  12.482 -28.672  1.00  0.00     0.053 C 
ATOM      4  C   UNL     1     -11.384  11.659 -29.534  1.00  0.00     0.016 C 
BRANCH   3   5
ATOM      5  C   UNL     1     -12.050  13.993 -28.793  1.00  0.00     0.015 C 
BRANCH   5   6
ATOM      6  C   UNL     1     -11.299  14.320 -30.099  1.00  0.00     0.028 C 
BRANCH   6   7
ATOM      7  C   UNL     1     -11.984  15.376 -30.930  1.00  0.00    -0.028 C 
ATOM      8  C   UNL     1     -13.064  15.173 -31.726  1.00  0.00    -0.070 CG0
ATOM      9  C   UNL     1     -13.668  16.378 -32.404  1.00  0.00     0.039 C 
ATOM     10  G   UNL     1     -13.659  13.799 -32.006  1.00  0.00     0.000 G0
ENDBRANCH   6   7
ENDBRANCH   5   6
ENDBRANCH   3   5
ENDBRANCH   1   3
BRANCH   1  11
ATOM     11  C   UNL     1     -14.785  13.307 -29.296  1.00  0.00     0.087 C 
BRANCH  11  12
ATOM     12  C   UNL     1     -15.701  13.033 -30.518  1.00  0.00     0.066 C 
BRANCH  12  13
ATOM     13  C   UNL     1     -15.168  13.713 -31.772  1.00  0.00     0.140 C 
ATOM     14  O   UNL     1     -15.940  14.152 -32.613  1.00  0.00    -0.299 OA
BRANCH  13  15
ATOM     15  C   UNL     1     -13.680  13.798 -32.008  1.00  0.00     0.106 CG0
ATOM     16  G   UNL     1     -13.084  15.169 -31.715  1.00  0.00     0.000 G0
ENDBRANCH  13  15
ENDBRANCH  12  13
BRANCH  12  17
ATOM     17  C   UNL     1     -17.204  13.382 -30.261  1.00  0.00    -0.006 C 
ATOM     18  C   UNL     1     -17.489  13.899 -28.838  1.00  0.00     0.008 C 
ATOM     19  C   UNL     1     -18.121  12.188 -30.572  1.00  0.00     0.008 C 
ENDBRANCH  12  17
ENDBRANCH  11  12
ENDBRANCH   1  11
TORSDOF 1
ENDMDL
MODEL 4
REMARK VINA RESULT:    -3.723      1.725      4.057
REMARK INTER + INTRA:          -5.719
REMARK INTER:                  -5.747
REMARK INTRA:                   0.028
REMARK UNBOUND:                -0.037
REMARK SMILES CC1=CCC[C@H](C)C(=O)C[C@@H](C(C)C)C(=O)C1
REMARK SMILES IDX 8 1 9 2 6 3 7 4 5 5 4 6 3 7 2 8 1 9 10 11 11 12 15 13 16 14
REMARK SMILES IDX 17 15 12 17 13 18 14 19
REMARK H PARENT
REMARK Flexibility Score: 70.00
ROOT
ATOM      1  C   UNL     1     -13.651  14.812 -32.391  1.00  0.00     0.136 C 
ATOM      2  O   UNL     1     -13.807  15.984 -32.707  1.00  0.00    -0.299 OA
ENDROOT
BRANCH   1   3
ATOM      3  C   UNL     1     -12.257  14.212 -32.419  1.00  0.00     0.053 C 
ATOM      4  C   UNL     1     -11.758  14.081 -33.864  1.00  0.00     0.016 C 
BRANCH   3   5
ATOM      5  C   UNL     1     -11.283  15.064 -31.574  1.00  0.00     0.015 C 
BRANCH   5   6
ATOM      6  C   UNL     1     -11.345  14.685 -30.081  1.00  0.00     0.028 C 
BRANCH   6   7
ATOM      7  C   UNL     1     -10.910  13.266 -29.809  1.00  0.00    -0.028 C 
ATOM      8  C   UNL     1     -11.716  12.267 -29.370  1.00  0.00    -0.070 CG0
ATOM      9  C   UNL     1     -11.117  10.888 -29.251  1.00  0.00     0.039 C 
ATOM     10  G   UNL     1     -13.166  12.475 -28.950  1.00  0.00     0.000 G0
ENDBRANCH   6   7
ENDBRANCH   5   6
ENDBRANCH   3   5
ENDBRANCH   1   3
BRANCH   1  11
ATOM     11  C   UNL     1     -14.858  13.993 -31.995  1.00  0.00     0.087 C 
BRANCH  11  12
ATOM     12  C   UNL     1     -14.913  13.724 -30.468  1.00  0.00     0.066 C 
BRANCH  12  13
ATOM     13  C   UNL     1     -14.157  12.454 -30.103  1.00  0.00     0.140 C 
ATOM     14  O   UNL     1     -14.378  11.409 -30.699  1.00  0.00    -0.299 OA
BRANCH  13  15
ATOM     15  C   UNL     1     -13.167  12.467 -28.963  1.00  0.00     0.106 CG0
ATOM     16  G   UNL     1     -11.721  12.257 -29.397  1.00  0.00     0.000 G0
ENDBRANCH  13  15
ENDBRANCH  12  13
BRANCH  12  17
ATOM     17  C   UNL     1     -16.365  13.723 -29.888  1.00  0.00    -0.006 C 
ATOM     18  C   UNL     1     -16.477  13.092 -28.488  1.00  0.00     0.008 C 
ATOM     19  C   UNL     1     -17.354  13.038 -30.846  1.00  0.00     0.008 C 
ENDBRANCH  12  17
ENDBRANCH  11  12
ENDBRANCH   1  11
TORSDOF 1
ENDMDL
MODEL 5
REMARK VINA RESULT:    -3.560      1.667      4.120
REMARK INTER + INTRA:          -5.470
REMARK INTER:                  -5.420
REMARK INTRA:                  -0.051
REMARK UNBOUND:                -0.037
REMARK SMILES CC1=CCC[C@H](C)C(=O)C[C@@H](C(C)C)C(=O)C1
REMARK SMILES IDX 8 1 9 2 6 3 7 4 5 5 4 6 3 7 2 8 1 9 10 11 11 12 15 13 16 14
REMARK SMILES IDX 17 15 12 17 13 18 14 19
REMARK H PARENT
REMARK Flexibility Score: 70.00
ROOT
ATOM      1  C   UNL     1     -15.192  14.044 -30.582  1.00  0.00     0.136 C 
ATOM      2  O   UNL     1     -16.059  14.588 -29.911  1.00  0.00    -0.299 OA
ENDROOT
BRANCH   1   3
ATOM      3  C   UNL     1     -14.647  14.750 -31.809  1.00  0.00     0.053 C 
ATOM      4  C   UNL     1     -15.759  14.965 -32.845  1.00  0.00     0.016 C 
BRANCH   3   5
ATOM      5  C   UNL     1     -13.993  16.094 -31.415  1.00  0.00     0.015 C 
BRANCH   5   6
ATOM      6  C   UNL     1     -13.031  15.930 -30.222  1.00  0.00     0.028 C 
BRANCH   6   7
ATOM      7  C   UNL     1     -11.824  15.084 -30.543  1.00  0.00    -0.028 C 
ATOM      8  C   UNL     1     -11.373  14.042 -29.799  1.00  0.00    -0.070 CG0
ATOM      9  C   UNL     1     -10.205  13.254 -30.336  1.00  0.00     0.039 C 
ATOM     10  G   UNL     1     -11.950  13.664 -28.440  1.00  0.00     0.000 G0
ENDBRANCH   6   7
ENDBRANCH   5   6
ENDBRANCH   3   5
ENDBRANCH   1   3
BRANCH   1  11
ATOM     11  C   UNL     1     -14.703  12.673 -30.175  1.00  0.00     0.087 C 
BRANCH  11  12
ATOM     12  C   UNL     1     -14.344  12.600 -28.667  1.00  0.00     0.066 C 
BRANCH  12  13
ATOM     13  C   UNL     1     -12.844  12.433 -28.464  1.00  0.00     0.140 C 
ATOM     14  O   UNL     1     -12.364  11.324 -28.281  1.00  0.00    -0.299 OA
BRANCH  13  15
ATOM     15  C   UNL     1     -11.948  13.648 -28.430  1.00  0.00     0.106 CG0
ATOM     16  G   UNL     1     -11.381  14.035 -29.790  1.00  0.00     0.000 G0
ENDBRANCH  13  15
ENDBRANCH  12  13
BRANCH  12  17
ATOM     17  C   UNL     1     -15.161  11.521 -27.884  1.00  0.00    -0.006 C 
ATOM     18  C   UNL     1     -16.673  11.552 -28.173  1.00  0.00     0.008 C 
ATOM     19  C   UNL     1     -14.921  11.623 -26.369  1.00  0.00     0.008 C 
ENDBRANCH  12  17
ENDBRANCH  11  12
ENDBRANCH   1  11
TORSDOF 1
ENDMDL
MODEL 6
REMARK VINA RESULT:    -3.473      1.773      3.172
REMARK INTER + INTRA:          -5.337
REMARK INTER:                  -5.329
REMARK INTRA:                  -0.008
REMARK UNBOUND:                -0.037
REMARK SMILES CC1=CCC[C@H](C)C(=O)C[C@@H](C(C)C)C(=O)C1
REMARK SMILES IDX 8 1 9 2 6 3 7 4 5 5 4 6 3 7 2 8 1 9 10 11 11 12 15 13 16 14
REMARK SMILES IDX 17 15 12 17 13 18 14 19
REMARK H PARENT
REMARK Flexibility Score: 70.00
ROOT
ATOM      1  C   UNL     1     -12.590  14.581 -29.753  1.00  0.00     0.136 C 
ATOM      2  O   UNL     1     -11.477  15.011 -30.024  1.00  0.00    -0.299 OA
ENDROOT
BRANCH   1   3
ATOM      3  C   UNL     1     -13.780  15.009 -30.592  1.00  0.00     0.053 C 
ATOM      4  C   UNL     1     -13.713  16.513 -30.891  1.00  0.00     0.016 C 
BRANCH   3   5
ATOM      5  C   UNL     1     -13.843  14.189 -31.901  1.00  0.00     0.015 C 
BRANCH   5   6
ATOM      6  C   UNL     1     -15.053  13.234 -31.915  1.00  0.00     0.028 C 
BRANCH   6   7
ATOM      7  C   UNL     1     -16.200  13.714 -31.061  1.00  0.00    -0.028 C 
ATOM      8  C   UNL     1     -16.575  13.175 -29.873  1.00  0.00    -0.070 CG0
ATOM      9  C   UNL     1     -17.688  13.857 -29.117  1.00  0.00     0.039 C 
ATOM     10  G   UNL     1     -15.969  11.902 -29.296  1.00  0.00     0.000 G0
ENDBRANCH   6   7
ENDBRANCH   5   6
ENDBRANCH   3   5
ENDBRANCH   1   3
BRANCH   1  11
ATOM     11  C   UNL     1     -12.748  13.645 -28.576  1.00  0.00     0.087 C 
BRANCH  11  12
ATOM     12  C   UNL     1     -13.388  12.291 -28.981  1.00  0.00     0.066 C 
BRANCH  12  13
ATOM     13  C   UNL     1     -14.778  12.135 -28.380  1.00  0.00     0.140 C 
ATOM     14  O   UNL     1     -14.934  12.160 -27.167  1.00  0.00    -0.299 OA
BRANCH  13  15
ATOM     15  C   UNL     1     -15.966  11.893 -29.280  1.00  0.00     0.106 CG0
ATOM     16  G   UNL     1     -16.569  13.164 -29.864  1.00  0.00     0.000 G0
ENDBRANCH  13  15
ENDBRANCH  12  13
BRANCH  12  17
ATOM     17  C   UNL     1     -12.479  11.056 -28.674  1.00  0.00    -0.006 C 
ATOM     18  C   UNL     1     -11.971  11.002 -27.221  1.00  0.00     0.008 C 
ATOM     19  C   UNL     1     -11.288  10.978 -29.643  1.00  0.00     0.008 C 
ENDBRANCH  12  17
ENDBRANCH  11  12
ENDBRANCH   1  11
TORSDOF 1
ENDMDL
MODEL 7
REMARK VINA RESULT:    -3.374      2.092      5.244
REMARK INTER + INTRA:          -5.186
REMARK INTER:                  -5.288
REMARK INTRA:                   0.103
REMARK UNBOUND:                -0.037
REMARK SMILES CC1=CCC[C@H](C)C(=O)C[C@@H](C(C)C)C(=O)C1
REMARK SMILES IDX 8 1 9 2 6 3 7 4 5 5 4 6 3 7 2 8 1 9 10 11 11 12 15 13 16 14
REMARK SMILES IDX 17 15 12 17 13 18 14 19
REMARK H PARENT
REMARK Flexibility Score: 70.00
ROOT
ATOM      1  C   UNL     1     -13.030  12.945 -28.634  1.00  0.00     0.136 C 
ATOM      2  O   UNL     1     -12.310  12.034 -28.246  1.00  0.00    -0.299 OA
ENDROOT
BRANCH   1   3
ATOM      3  C   UNL     1     -12.409  14.137 -29.339  1.00  0.00     0.053 C 
ATOM      4  C   UNL     1     -11.740  15.073 -28.323  1.00  0.00     0.016 C 
BRANCH   3   5
ATOM      5  C   UNL     1     -11.395  13.668 -30.407  1.00  0.00     0.015 C 
BRANCH   5   6
ATOM      6  C   UNL     1     -12.103  13.201 -31.695  1.00  0.00     0.028 C 
BRANCH   6   7
ATOM      7  C   UNL     1     -12.871  14.302 -32.384  1.00  0.00    -0.028 C 
ATOM      8  C   UNL     1     -14.222  14.373 -32.486  1.00  0.00    -0.070 CG0
ATOM      9  C   UNL     1     -14.810  15.605 -33.128  1.00  0.00     0.039 C 
ATOM     10  G   UNL     1     -15.162  13.263 -32.033  1.00  0.00     0.000 G0
ENDBRANCH   6   7
ENDBRANCH   5   6
ENDBRANCH   3   5
ENDBRANCH   1   3
BRANCH   1  11
ATOM     11  C   UNL     1     -14.518  12.861 -28.383  1.00  0.00     0.087 C 
BRANCH  11  12
ATOM     12  C   UNL     1     -15.288  12.279 -29.598  1.00  0.00     0.066 C 
BRANCH  12  13
ATOM     13  C   UNL     1     -15.644  13.368 -30.600  1.00  0.00     0.140 C 
ATOM     14  O   UNL     1     -16.347  14.311 -30.264  1.00  0.00    -0.299 OA
BRANCH  13  15
ATOM     15  C   UNL     1     -15.176  13.260 -32.031  1.00  0.00     0.106 CG0
ATOM     16  G   UNL     1     -14.226  14.373 -32.457  1.00  0.00     0.000 G0
ENDBRANCH  13  15
ENDBRANCH  12  13
BRANCH  12  17
ATOM     17  C   UNL     1     -16.536  11.428 -29.195  1.00  0.00    -0.006 C 
ATOM     18  C   UNL     1     -17.751  11.625 -30.122  1.00  0.00     0.008 C 
ATOM     19  C   UNL     1     -16.949  11.690 -27.737  1.00  0.00     0.008 C 
ENDBRANCH  12  17
ENDBRANCH  11  12
ENDBRANCH   1  11
TORSDOF 1
ENDMDL
MODEL 8
REMARK VINA RESULT:    -3.292      2.161      4.395
REMARK INTER + INTRA:          -5.061
REMARK INTER:                  -4.834
REMARK INTRA:                  -0.227
REMARK UNBOUND:                -0.037
REMARK SMILES CC1=CCC[C@H](C)C(=O)C[C@@H](C(C)C)C(=O)C1
REMARK SMILES IDX 8 1 9 2 6 3 7 4 5 5 4 6 3 7 2 8 1 9 10 11 11 12 15 13 16 14
REMARK SMILES IDX 17 15 12 17 13 18 14 19
REMARK H PARENT
REMARK Flexibility Score: 70.00
ROOT
ATOM      1  C   UNL     1     -14.167  14.345 -31.327  1.00  0.00     0.136 C 
ATOM      2  O   UNL     1     -14.500  15.110 -30.432  1.00  0.00    -0.299 OA
ENDROOT
BRANCH   1   3
ATOM      3  C   UNL     1     -13.969  14.883 -32.732  1.00  0.00     0.053 C 
ATOM      4  C   UNL     1     -15.307  15.347 -33.323  1.00  0.00     0.016 C 
BRANCH   3   5
ATOM      5  C   UNL     1     -12.937  16.034 -32.731  1.00  0.00     0.015 C 
BRANCH   5   6
ATOM      6  C   UNL     1     -11.588  15.587 -32.132  1.00  0.00     0.028 C 
BRANCH   6   7
ATOM      7  C   UNL     1     -10.976  14.412 -32.852  1.00  0.00    -0.028 C 
ATOM      8  C   UNL     1     -10.589  13.248 -32.271  1.00  0.00    -0.070 CG0
ATOM      9  C   UNL     1     -10.088  12.150 -33.175  1.00  0.00     0.039 C 
ATOM     10  G   UNL     1     -10.588  13.017 -30.765  1.00  0.00     0.000 G0
ENDBRANCH   6   7
ENDBRANCH   5   6
ENDBRANCH   3   5
ENDBRANCH   1   3
BRANCH   1  11
ATOM     11  C   UNL     1     -13.978  12.880 -31.006  1.00  0.00     0.087 C 
BRANCH  11  12
ATOM     12  C   UNL     1     -13.007  12.659 -29.815  1.00  0.00     0.066 C 
BRANCH  12  13
ATOM     13  C   UNL     1     -11.679  12.081 -30.285  1.00  0.00     0.140 C 
ATOM     14  O   UNL     1     -11.479  10.875 -30.241  1.00  0.00    -0.299 OA
BRANCH  13  15
ATOM     15  C   UNL     1     -10.581  13.002 -30.757  1.00  0.00     0.106 CG0
ATOM     16  G   UNL     1     -10.591  13.260 -32.258  1.00  0.00     0.000 G0
ENDBRANCH  13  15
ENDBRANCH  12  13
BRANCH  12  17
ATOM     17  C   UNL     1     -13.630  11.817 -28.653  1.00  0.00    -0.006 C 
ATOM     18  C   UNL     1     -15.138  12.054 -28.451  1.00  0.00     0.008 C 
ATOM     19  C   UNL     1     -12.886  12.050 -27.328  1.00  0.00     0.008 C 
ENDBRANCH  12  17
ENDBRANCH  11  12
ENDBRANCH   1  11
TORSDOF 1
ENDMDL
MODEL 9
REMARK VINA RESULT:    -3.190      2.186      4.285
REMARK INTER + INTRA:          -4.905
REMARK INTER:                  -5.000
REMARK INTRA:                   0.094
REMARK UNBOUND:                -0.037
REMARK SMILES CC1=CCC[C@H](C)C(=O)C[C@@H](C(C)C)C(=O)C1
REMARK SMILES IDX 8 1 9 2 6 3 7 4 5 5 4 6 3 7 2 8 1 9 10 11 11 12 15 13 16 14
REMARK SMILES IDX 17 15 12 17 13 18 14 19
REMARK H PARENT
REMARK Flexibility Score: 70.00
ROOT
ATOM      1  C   UNL     1     -15.098  13.328 -30.637  1.00  0.00     0.136 C 
ATOM      2  O   UNL     1     -15.613  13.917 -29.696  1.00  0.00    -0.299 OA
ENDROOT
BRANCH   1   3
ATOM      3  C   UNL     1     -15.685  13.487 -32.028  1.00  0.00     0.053 C 
ATOM      4  C   UNL     1     -16.998  14.280 -31.969  1.00  0.00     0.016 C 
BRANCH   3   5
ATOM      5  C   UNL     1     -14.669  14.171 -32.970  1.00  0.00     0.015 C 
BRANCH   5   6
ATOM      6  C   UNL     1     -13.950  15.345 -32.275  1.00  0.00     0.028 C 
BRANCH   6   7
ATOM      7  C   UNL     1     -12.536  15.547 -32.759  1.00  0.00    -0.028 C 
ATOM      8  C   UNL     1     -11.533  14.637 -32.661  1.00  0.00    -0.070 CG0
ATOM      9  C   UNL     1     -10.209  14.987 -33.294  1.00  0.00     0.039 C 
ATOM     10  G   UNL     1     -11.662  13.318 -31.911  1.00  0.00     0.000 G0
ENDBRANCH   6   7
ENDBRANCH   5   6
ENDBRANCH   3   5
ENDBRANCH   1   3
BRANCH   1  11
ATOM     11  C   UNL     1     -13.898  12.445 -30.380  1.00  0.00     0.087 C 
BRANCH  11  12
ATOM     12  C   UNL     1     -12.799  13.170 -29.559  1.00  0.00     0.066 C 
BRANCH  12  13
ATOM     13  C   UNL     1     -11.567  13.449 -30.409  1.00  0.00     0.140 C 
ATOM     14  O   UNL     1     -10.529  13.829 -29.887  1.00  0.00    -0.299 OA
BRANCH  13  15
ATOM     15  C   UNL     1     -11.640  13.310 -31.910  1.00  0.00     0.106 CG0
ATOM     16  G   UNL     1     -11.522  14.630 -32.660  1.00  0.00     0.000 G0
ENDBRANCH  13  15
ENDBRANCH  12  13
BRANCH  12  17
ATOM     17  C   UNL     1     -12.433  12.437 -28.226  1.00  0.00    -0.006 C 
ATOM     18  C   UNL     1     -11.981  10.978 -28.422  1.00  0.00     0.008 C 
ATOM     19  C   UNL     1     -13.592  12.491 -27.218  1.00  0.00     0.008 C 
ENDBRANCH  12  17
ENDBRANCH  11  12
ENDBRANCH   1  11
TORSDOF 1
ENDMDL
