MODEL 1
REMARK VINA RESULT:    -4.528      0.000      0.000
REMARK INTER + INTRA:         -14.645
REMARK INTER:                 -11.410
REMARK INTRA:                  -3.235
REMARK UNBOUND:                -3.235
REMARK SMILES CCCCCCCCCCCCCCCCCCCCCCCCCCCC(=O)[O-]
REMARK SMILES IDX 15 1 16 2 17 3 18 4 19 5 20 6 21 7 22 8 23 9 24 10 25 11
REMARK SMILES IDX 26 12 27 13 28 14 29 15 30 16 14 17 13 18 12 19 11 20 10 21
REMARK SMILES IDX 9 22 8 23 7 24 6 25 5 26 4 27 3 28 2 29 1 30
REMARK H PARENT
REMARK Flexibility Score: inf
ROOT
ATOM      1  C   UNL     1       1.864  43.216   8.781  1.00  0.00     0.000 C 
ENDROOT
BRANCH   1   2
ATOM      2  C   UNL     1       0.879  44.401   8.869  1.00  0.00     0.000 C 
BRANCH   2   3
ATOM      3  C   UNL     1       0.143  44.656   7.542  1.00  0.00     0.000 C 
BRANCH   3   4
ATOM      4  C   UNL     1      -1.002  45.672   7.680  1.00  0.00     0.000 C 
BRANCH   4   5
ATOM      5  C   UNL     1      -0.820  46.900   6.770  1.00  0.00     0.000 C 
BRANCH   5   6
ATOM      6  C   UNL     1      -0.951  48.224   7.540  1.00  0.00     0.000 C 
BRANCH   6   7
ATOM      7  C   UNL     1      -0.443  48.111   8.989  1.00  0.00     0.000 C 
BRANCH   7   8
ATOM      8  C   UNL     1       0.929  48.777   9.196  1.00  0.00     0.000 C 
BRANCH   8   9
ATOM      9  C   UNL     1       1.708  49.095   7.905  1.00  0.00     0.000 C 
BRANCH   9  10
ATOM     10  C   UNL     1       2.720  47.999   7.528  1.00  0.00     0.000 C 
BRANCH  10  11
ATOM     11  C   UNL     1       3.118  47.114   8.724  1.00  0.00     0.000 C 
BRANCH  11  12
ATOM     12  C   UNL     1       4.606  46.722   8.784  1.00  0.00     0.006 C 
BRANCH  12  13
ATOM     13  C   UNL     1       5.384  47.481   9.868  1.00  0.00     0.053 C 
BRANCH  13  14
ATOM     14  C   UNL     1       6.668  48.018   9.320  1.00  0.00     0.041 C 
ATOM     15  O   UNL     1       7.747  47.397   9.507  1.00  0.00    -0.550 OA
ATOM     16  O   UNL     1       6.671  49.192   8.574  1.00  0.00    -0.550 OA
ENDBRANCH  13  14
ENDBRANCH  12  13
ENDBRANCH  11  12
ENDBRANCH  10  11
ENDBRANCH   9  10
ENDBRANCH   8   9
ENDBRANCH   7   8
ENDBRANCH   6   7
ENDBRANCH   5   6
ENDBRANCH   4   5
ENDBRANCH   3   4
ENDBRANCH   2   3
ENDBRANCH   1   2
BRANCH   1  17
ATOM     17  C   UNL     1       3.344  43.622   8.918  1.00  0.00     0.000 C 
BRANCH  17  18
ATOM     18  C   UNL     1       4.037  43.141  10.207  1.00  0.00     0.000 C 
BRANCH  18  19
ATOM     19  C   UNL     1       4.080  44.173  11.353  1.00  0.00     0.000 C 
BRANCH  19  20
ATOM     20  C   UNL     1       3.179  43.851  12.559  1.00  0.00     0.000 C 
BRANCH  20  21
ATOM     21  C   UNL     1       1.682  43.819  12.202  1.00  0.00     0.000 C 
BRANCH  21  22
ATOM     22  C   UNL     1       1.003  42.505  12.645  1.00  0.00    -0.000 C 
BRANCH  22  23
ATOM     23  C   UNL     1      -0.425  42.690  13.184  1.00  0.00    -0.000 C 
BRANCH  23  24
ATOM     24  C   UNL     1      -0.835  41.589  14.173  1.00  0.00    -0.000 C 
BRANCH  24  25
ATOM     25  C   UNL     1       0.267  40.539  14.396  1.00  0.00    -0.000 C 
BRANCH  25  26
ATOM     26  C   UNL     1       0.428  39.490  13.273  1.00  0.00    -0.000 C 
BRANCH  26  27
ATOM     27  C   UNL     1       1.751  38.698  13.276  1.00  0.00    -0.000 C 
BRANCH  27  28
ATOM     28  C   UNL     1       2.909  39.371  12.506  1.00  0.00    -0.000 C 
BRANCH  28  29
ATOM     29  C   UNL     1       4.221  39.453  13.303  1.00  0.00    -0.003 C 
ATOM     30  C   UNL     1       5.130  40.592  12.850  1.00  0.00     0.004 C 
ENDBRANCH  28  29
ENDBRANCH  27  28
ENDBRANCH  26  27
ENDBRANCH  25  26
ENDBRANCH  24  25
ENDBRANCH  23  24
ENDBRANCH  22  23
ENDBRANCH  21  22
ENDBRANCH  20  21
ENDBRANCH  19  20
ENDBRANCH  18  19
ENDBRANCH  17  18
ENDBRANCH   1  17
TORSDOF 26
ENDMDL
MODEL 2
REMARK VINA RESULT:    -4.316      2.318      7.855
REMARK INTER + INTRA:         -14.111
REMARK INTER:                 -10.901
REMARK INTRA:                  -3.210
REMARK UNBOUND:                -3.235
REMARK SMILES CCCCCCCCCCCCCCCCCCCCCCCCCCCC(=O)[O-]
REMARK SMILES IDX 15 1 16 2 17 3 18 4 19 5 20 6 21 7 22 8 23 9 24 10 25 11
REMARK SMILES IDX 26 12 27 13 28 14 29 15 30 16 14 17 13 18 12 19 11 20 10 21
REMARK SMILES IDX 9 22 8 23 7 24 6 25 5 26 4 27 3 28 2 29 1 30
REMARK H PARENT
REMARK Flexibility Score: inf
ROOT
ATOM      1  C   UNL     1       2.775  42.853   9.863  1.00  0.00     0.000 C 
ENDROOT
BRANCH   1   2
ATOM      2  C   UNL     1       4.082  43.593  10.218  1.00  0.00     0.000 C 
BRANCH   2   3
ATOM      3  C   UNL     1       4.023  44.268  11.600  1.00  0.00     0.000 C 
BRANCH   3   4
ATOM      4  C   UNL     1       2.737  43.932  12.372  1.00  0.00     0.000 C 
BRANCH   4   5
ATOM      5  C   UNL     1       1.551  44.826  11.968  1.00  0.00     0.000 C 
BRANCH   5   6
ATOM      6  C   UNL     1       0.221  44.056  11.943  1.00  0.00     0.000 C 
BRANCH   6   7
ATOM      7  C   UNL     1       0.313  42.703  12.673  1.00  0.00     0.000 C 
BRANCH   7   8
ATOM      8  C   UNL     1      -0.921  42.407  13.543  1.00  0.00     0.000 C 
BRANCH   8   9
ATOM      9  C   UNL     1      -1.031  40.959  14.058  1.00  0.00     0.000 C 
BRANCH   9  10
ATOM     10  C   UNL     1       0.339  40.310  14.322  1.00  0.00     0.000 C 
BRANCH  10  11
ATOM     11  C   UNL     1       0.678  39.196  13.314  1.00  0.00     0.000 C 
BRANCH  11  12
ATOM     12  C   UNL     1       2.182  38.976  13.060  1.00  0.00     0.006 C 
BRANCH  12  13
ATOM     13  C   UNL     1       2.887  40.225  12.514  1.00  0.00     0.053 C 
BRANCH  13  14
ATOM     14  C   UNL     1       4.330  40.234  12.910  1.00  0.00     0.041 C 
ATOM     15  O   UNL     1       5.097  41.138  12.490  1.00  0.00    -0.550 OA
ATOM     16  O   UNL     1       4.823  39.259  13.769  1.00  0.00    -0.550 OA
ENDBRANCH  13  14
ENDBRANCH  12  13
ENDBRANCH  11  12
ENDBRANCH  10  11
ENDBRANCH   9  10
ENDBRANCH   8   9
ENDBRANCH   7   8
ENDBRANCH   6   7
ENDBRANCH   5   6
ENDBRANCH   4   5
ENDBRANCH   3   4
ENDBRANCH   2   3
ENDBRANCH   1   2
BRANCH   1  17
ATOM     17  C   UNL     1       2.140  43.306   8.535  1.00  0.00     0.000 C 
BRANCH  17  18
ATOM     18  C   UNL     1       1.057  44.394   8.666  1.00  0.00     0.000 C 
BRANCH  18  19
ATOM     19  C   UNL     1       0.320  44.747   7.358  1.00  0.00     0.000 C 
BRANCH  19  20
ATOM     20  C   UNL     1      -1.003  45.514   7.538  1.00  0.00     0.000 C 
BRANCH  20  21
ATOM     21  C   UNL     1      -0.988  46.904   6.878  1.00  0.00     0.000 C 
BRANCH  21  22
ATOM     22  C   UNL     1      -1.029  48.046   7.917  1.00  0.00    -0.000 C 
BRANCH  22  23
ATOM     23  C   UNL     1      -0.081  47.839   9.110  1.00  0.00    -0.000 C 
BRANCH  23  24
ATOM     24  C   UNL     1       1.168  48.730   9.041  1.00  0.00    -0.000 C 
BRANCH  24  25
ATOM     25  C   UNL     1       1.941  48.581   7.719  1.00  0.00    -0.000 C 
BRANCH  25  26
ATOM     26  C   UNL     1       3.276  47.809   7.810  1.00  0.00    -0.000 C 
BRANCH  26  27
ATOM     27  C   UNL     1       3.605  47.193   9.185  1.00  0.00    -0.000 C 
BRANCH  27  28
ATOM     28  C   UNL     1       5.087  46.804   9.381  1.00  0.00    -0.000 C 
BRANCH  28  29
ATOM     29  C   UNL     1       6.078  47.916   9.000  1.00  0.00    -0.003 C 
ATOM     30  C   UNL     1       7.508  47.625   9.444  1.00  0.00     0.004 C 
ENDBRANCH  28  29
ENDBRANCH  27  28
ENDBRANCH  26  27
ENDBRANCH  25  26
ENDBRANCH  24  25
ENDBRANCH  23  24
ENDBRANCH  22  23
ENDBRANCH  21  22
ENDBRANCH  20  21
ENDBRANCH  19  20
ENDBRANCH  18  19
ENDBRANCH  17  18
ENDBRANCH   1  17
TORSDOF 26
ENDMDL
MODEL 3
REMARK VINA RESULT:    -4.292      2.836      8.115
REMARK INTER + INTRA:         -14.051
REMARK INTER:                 -10.419
REMARK INTRA:                  -3.631
REMARK UNBOUND:                -3.235
REMARK SMILES CCCCCCCCCCCCCCCCCCCCCCCCCCCC(=O)[O-]
REMARK SMILES IDX 15 1 16 2 17 3 18 4 19 5 20 6 21 7 22 8 23 9 24 10 25 11
REMARK SMILES IDX 26 12 27 13 28 14 29 15 30 16 14 17 13 18 12 19 11 20 10 21
REMARK SMILES IDX 9 22 8 23 7 24 6 25 5 26 4 27 3 28 2 29 1 30
REMARK H PARENT
REMARK Flexibility Score: inf
ROOT
ATOM      1  C   UNL     1       1.707  43.254   8.752  1.00  0.00     0.000 C 
ENDROOT
BRANCH   1   2
ATOM      2  C   UNL     1       3.177  43.564   8.397  1.00  0.00     0.000 C 
BRANCH   2   3
ATOM      3  C   UNL     1       4.118  43.428   9.607  1.00  0.00     0.000 C 
BRANCH   3   4
ATOM      4  C   UNL     1       3.570  42.478  10.684  1.00  0.00     0.000 C 
BRANCH   4   5
ATOM      5  C   UNL     1       3.655  43.075  12.100  1.00  0.00     0.000 C 
BRANCH   5   6
ATOM      6  C   UNL     1       2.778  44.327  12.261  1.00  0.00     0.000 C 
BRANCH   6   7
ATOM      7  C   UNL     1       1.277  44.013  12.127  1.00  0.00     0.000 C 
BRANCH   7   8
ATOM      8  C   UNL     1       0.934  42.559  12.499  1.00  0.00     0.000 C 
BRANCH   8   9
ATOM      9  C   UNL     1      -0.159  42.395  13.572  1.00  0.00     0.000 C 
BRANCH   9  10
ATOM     10  C   UNL     1       0.083  41.190  14.498  1.00  0.00     0.000 C 
BRANCH  10  11
ATOM     11  C   UNL     1      -0.346  39.852  13.865  1.00  0.00     0.000 C 
BRANCH  11  12
ATOM     12  C   UNL     1       0.781  39.061  13.176  1.00  0.00     0.006 C 
BRANCH  12  13
ATOM     13  C   UNL     1       2.122  39.807  13.169  1.00  0.00     0.053 C 
BRANCH  13  14
ATOM     14  C   UNL     1       3.236  38.891  12.770  1.00  0.00     0.041 C 
ATOM     15  O   UNL     1       4.421  39.153  13.101  1.00  0.00    -0.550 OA
ATOM     16  O   UNL     1       2.962  37.730  12.056  1.00  0.00    -0.550 OA
ENDBRANCH  13  14
ENDBRANCH  12  13
ENDBRANCH  11  12
ENDBRANCH  10  11
ENDBRANCH   9  10
ENDBRANCH   8   9
ENDBRANCH   7   8
ENDBRANCH   6   7
ENDBRANCH   5   6
ENDBRANCH   4   5
ENDBRANCH   3   4
ENDBRANCH   2   3
ENDBRANCH   1   2
BRANCH   1  17
ATOM     17  C   UNL     1       0.782  44.486   8.719  1.00  0.00     0.000 C 
BRANCH  17  18
ATOM     18  C   UNL     1       0.219  44.842   7.330  1.00  0.00     0.000 C 
BRANCH  18  19
ATOM     19  C   UNL     1      -0.519  46.194   7.248  1.00  0.00     0.000 C 
BRANCH  19  20
ATOM     20  C   UNL     1      -0.590  46.984   8.568  1.00  0.00     0.000 C 
BRANCH  20  21
ATOM     21  C   UNL     1      -1.000  48.454   8.369  1.00  0.00     0.000 C 
BRANCH  21  22
ATOM     22  C   UNL     1       0.108  49.283   7.685  1.00  0.00    -0.000 C 
BRANCH  22  23
ATOM     23  C   UNL     1       1.450  49.274   8.436  1.00  0.00    -0.000 C 
BRANCH  23  24
ATOM     24  C   UNL     1       2.587  48.647   7.615  1.00  0.00    -0.000 C 
BRANCH  24  25
ATOM     25  C   UNL     1       3.063  47.297   8.180  1.00  0.00    -0.000 C 
BRANCH  25  26
ATOM     26  C   UNL     1       3.098  47.193   9.721  1.00  0.00    -0.000 C 
BRANCH  26  27
ATOM     27  C   UNL     1       4.496  47.040  10.354  1.00  0.00    -0.000 C 
BRANCH  27  28
ATOM     28  C   UNL     1       5.627  46.713   9.353  1.00  0.00    -0.000 C 
BRANCH  28  29
ATOM     29  C   UNL     1       6.812  47.689   9.413  1.00  0.00    -0.003 C 
ATOM     30  C   UNL     1       6.496  49.056   8.814  1.00  0.00     0.004 C 
ENDBRANCH  28  29
ENDBRANCH  27  28
ENDBRANCH  26  27
ENDBRANCH  25  26
ENDBRANCH  24  25
ENDBRANCH  23  24
ENDBRANCH  22  23
ENDBRANCH  21  22
ENDBRANCH  20  21
ENDBRANCH  19  20
ENDBRANCH  18  19
ENDBRANCH  17  18
ENDBRANCH   1  17
TORSDOF 26
ENDMDL
MODEL 4
REMARK VINA RESULT:    -4.150      0.798      1.358
REMARK INTER + INTRA:         -13.692
REMARK INTER:                 -10.239
REMARK INTRA:                  -3.454
REMARK UNBOUND:                -3.235
REMARK SMILES CCCCCCCCCCCCCCCCCCCCCCCCCCCC(=O)[O-]
REMARK SMILES IDX 15 1 16 2 17 3 18 4 19 5 20 6 21 7 22 8 23 9 24 10 25 11
REMARK SMILES IDX 26 12 27 13 28 14 29 15 30 16 14 17 13 18 12 19 11 20 10 21
REMARK SMILES IDX 9 22 8 23 7 24 6 25 5 26 4 27 3 28 2 29 1 30
REMARK H PARENT
REMARK Flexibility Score: inf
ROOT
ATOM      1  C   UNL     1       3.411  43.696   9.045  1.00  0.00     0.000 C 
ENDROOT
BRANCH   1   2
ATOM      2  C   UNL     1       1.961  43.324   8.671  1.00  0.00     0.000 C 
BRANCH   2   3
ATOM      3  C   UNL     1       0.994  44.515   8.801  1.00  0.00     0.000 C 
BRANCH   3   4
ATOM      4  C   UNL     1       0.135  44.726   7.545  1.00  0.00     0.000 C 
BRANCH   4   5
ATOM      5  C   UNL     1      -0.888  45.865   7.709  1.00  0.00     0.000 C 
BRANCH   5   6
ATOM      6  C   UNL     1      -1.100  46.252   9.181  1.00  0.00     0.000 C 
BRANCH   6   7
ATOM      7  C   UNL     1      -0.767  47.731   9.451  1.00  0.00     0.000 C 
BRANCH   7   8
ATOM      8  C   UNL     1       0.739  47.977   9.659  1.00  0.00     0.000 C 
BRANCH   8   9
ATOM      9  C   UNL     1       1.436  48.772   8.539  1.00  0.00     0.000 C 
BRANCH   9  10
ATOM     10  C   UNL     1       2.171  47.871   7.531  1.00  0.00     0.000 C 
BRANCH  10  11
ATOM     11  C   UNL     1       3.677  47.743   7.827  1.00  0.00     0.000 C 
BRANCH  11  12
ATOM     12  C   UNL     1       4.033  47.419   9.290  1.00  0.00     0.006 C 
BRANCH  12  13
ATOM     13  C   UNL     1       5.402  46.743   9.439  1.00  0.00     0.053 C 
BRANCH  13  14
ATOM     14  C   UNL     1       6.506  47.731   9.225  1.00  0.00     0.041 C 
ATOM     15  O   UNL     1       6.265  48.845   8.692  1.00  0.00    -0.550 OA
ATOM     16  O   UNL     1       7.799  47.434   9.642  1.00  0.00    -0.550 OA
ENDBRANCH  13  14
ENDBRANCH  12  13
ENDBRANCH  11  12
ENDBRANCH  10  11
ENDBRANCH   9  10
ENDBRANCH   8   9
ENDBRANCH   7   8
ENDBRANCH   6   7
ENDBRANCH   5   6
ENDBRANCH   4   5
ENDBRANCH   3   4
ENDBRANCH   2   3
ENDBRANCH   1   2
BRANCH   1  17
ATOM     17  C   UNL     1       3.938  42.974  10.301  1.00  0.00     0.000 C 
BRANCH  17  18
ATOM     18  C   UNL     1       4.171  43.879  11.524  1.00  0.00     0.000 C 
BRANCH  18  19
ATOM     19  C   UNL     1       2.914  44.188  12.362  1.00  0.00     0.000 C 
BRANCH  19  20
ATOM     20  C   UNL     1       1.802  43.125  12.292  1.00  0.00     0.000 C 
BRANCH  20  21
ATOM     21  C   UNL     1       0.401  43.730  12.088  1.00  0.00     0.000 C 
BRANCH  21  22
ATOM     22  C   UNL     1      -0.689  42.957  12.861  1.00  0.00    -0.000 C 
BRANCH  22  23
ATOM     23  C   UNL     1      -0.162  42.192  14.087  1.00  0.00    -0.000 C 
BRANCH  23  24
ATOM     24  C   UNL     1      -0.966  40.918  14.384  1.00  0.00    -0.000 C 
BRANCH  24  25
ATOM     25  C   UNL     1      -0.273  39.639  13.883  1.00  0.00    -0.000 C 
BRANCH  25  26
ATOM     26  C   UNL     1       1.215  39.792  13.499  1.00  0.00    -0.000 C 
BRANCH  26  27
ATOM     27  C   UNL     1       1.838  38.607  12.731  1.00  0.00    -0.000 C 
BRANCH  27  28
ATOM     28  C   UNL     1       3.380  38.637  12.636  1.00  0.00    -0.000 C 
BRANCH  28  29
ATOM     29  C   UNL     1       3.969  40.054  12.534  1.00  0.00    -0.003 C 
ATOM     30  C   UNL     1       5.112  40.301  13.515  1.00  0.00     0.004 C 
ENDBRANCH  28  29
ENDBRANCH  27  28
ENDBRANCH  26  27
ENDBRANCH  25  26
ENDBRANCH  24  25
ENDBRANCH  23  24
ENDBRANCH  22  23
ENDBRANCH  21  22
ENDBRANCH  20  21
ENDBRANCH  19  20
ENDBRANCH  18  19
ENDBRANCH  17  18
ENDBRANCH   1  17
TORSDOF 26
ENDMDL
MODEL 5
REMARK VINA RESULT:    -4.100      3.611      7.593
REMARK INTER + INTRA:         -13.567
REMARK INTER:                 -10.460
REMARK INTRA:                  -3.107
REMARK UNBOUND:                -3.235
REMARK SMILES CCCCCCCCCCCCCCCCCCCCCCCCCCCC(=O)[O-]
REMARK SMILES IDX 15 1 16 2 17 3 18 4 19 5 20 6 21 7 22 8 23 9 24 10 25 11
REMARK SMILES IDX 26 12 27 13 28 14 29 15 30 16 14 17 13 18 12 19 11 20 10 21
REMARK SMILES IDX 9 22 8 23 7 24 6 25 5 26 4 27 3 28 2 29 1 30
REMARK H PARENT
REMARK Flexibility Score: inf
ROOT
ATOM      1  C   UNL     1       1.843  48.306   9.242  1.00  0.00     0.000 C 
ENDROOT
BRANCH   1   2
ATOM      2  C   UNL     1       2.978  48.099   8.216  1.00  0.00     0.000 C 
BRANCH   2   3
ATOM      3  C   UNL     1       4.028  47.080   8.695  1.00  0.00     0.000 C 
BRANCH   3   4
ATOM      4  C   UNL     1       3.515  46.189   9.838  1.00  0.00     0.000 C 
BRANCH   4   5
ATOM      5  C   UNL     1       4.464  45.018  10.149  1.00  0.00     0.000 C 
BRANCH   5   6
ATOM      6  C   UNL     1       4.088  43.740   9.382  1.00  0.00     0.000 C 
BRANCH   6   7
ATOM      7  C   UNL     1       3.145  42.829  10.188  1.00  0.00     0.000 C 
BRANCH   7   8
ATOM      8  C   UNL     1       3.461  42.824  11.694  1.00  0.00     0.000 C 
BRANCH   8   9
ATOM      9  C   UNL     1       3.201  41.488  12.417  1.00  0.00     0.000 C 
BRANCH   9  10
ATOM     10  C   UNL     1       4.479  40.656  12.619  1.00  0.00     0.000 C 
BRANCH  10  11
ATOM     11  C   UNL     1       4.188  39.194  13.008  1.00  0.00     0.000 C 
BRANCH  11  12
ATOM     12  C   UNL     1       2.734  38.734  12.788  1.00  0.00     0.006 C 
BRANCH  12  13
ATOM     13  C   UNL     1       2.631  37.440  11.971  1.00  0.00     0.053 C 
BRANCH  13  14
ATOM     14  C   UNL     1       1.230  36.913  11.988  1.00  0.00     0.041 C 
ATOM     15  O   UNL     1       0.305  37.589  12.509  1.00  0.00    -0.550 OA
ATOM     16  O   UNL     1       0.938  35.688  11.400  1.00  0.00    -0.550 OA
ENDBRANCH  13  14
ENDBRANCH  12  13
ENDBRANCH  11  12
ENDBRANCH  10  11
ENDBRANCH   9  10
ENDBRANCH   8   9
ENDBRANCH   7   8
ENDBRANCH   6   7
ENDBRANCH   5   6
ENDBRANCH   4   5
ENDBRANCH   3   4
ENDBRANCH   2   3
ENDBRANCH   1   2
BRANCH   1  17
ATOM     17  C   UNL     1       0.676  49.165   8.719  1.00  0.00     0.000 C 
BRANCH  17  18
ATOM     18  C   UNL     1      -0.674  48.433   8.605  1.00  0.00     0.000 C 
BRANCH  18  19
ATOM     19  C   UNL     1      -0.985  47.842   7.214  1.00  0.00     0.000 C 
BRANCH  19  20
ATOM     20  C   UNL     1      -0.142  46.615   6.820  1.00  0.00     0.000 C 
BRANCH  20  21
ATOM     21  C   UNL     1      -0.909  45.288   6.958  1.00  0.00     0.000 C 
BRANCH  21  22
ATOM     22  C   UNL     1      -0.146  44.258   7.820  1.00  0.00    -0.000 C 
BRANCH  22  23
ATOM     23  C   UNL     1       0.682  44.885   8.954  1.00  0.00    -0.000 C 
BRANCH  23  24
ATOM     24  C   UNL     1      -0.188  45.427  10.097  1.00  0.00    -0.000 C 
BRANCH  24  25
ATOM     25  C   UNL     1       0.285  44.962  11.486  1.00  0.00    -0.000 C 
BRANCH  25  26
ATOM     26  C   UNL     1      -0.571  43.861  12.149  1.00  0.00    -0.000 C 
BRANCH  26  27
ATOM     27  C   UNL     1       0.212  42.734  12.855  1.00  0.00    -0.000 C 
BRANCH  27  28
ATOM     28  C   UNL     1      -0.664  41.736  13.645  1.00  0.00    -0.000 C 
BRANCH  28  29
ATOM     29  C   UNL     1       0.110  40.934  14.704  1.00  0.00    -0.003 C 
ATOM     30  C   UNL     1      -0.507  41.027  16.097  1.00  0.00     0.004 C 
ENDBRANCH  28  29
ENDBRANCH  27  28
ENDBRANCH  26  27
ENDBRANCH  25  26
ENDBRANCH  24  25
ENDBRANCH  23  24
ENDBRANCH  22  23
ENDBRANCH  21  22
ENDBRANCH  20  21
ENDBRANCH  19  20
ENDBRANCH  18  19
ENDBRANCH  17  18
ENDBRANCH   1  17
TORSDOF 26
ENDMDL
MODEL 6
REMARK VINA RESULT:    -4.091      0.957      2.774
REMARK INTER + INTRA:         -13.545
REMARK INTER:                 -10.009
REMARK INTRA:                  -3.536
REMARK UNBOUND:                -3.235
REMARK SMILES CCCCCCCCCCCCCCCCCCCCCCCCCCCC(=O)[O-]
REMARK SMILES IDX 15 1 16 2 17 3 18 4 19 5 20 6 21 7 22 8 23 9 24 10 25 11
REMARK SMILES IDX 26 12 27 13 28 14 29 15 30 16 14 17 13 18 12 19 11 20 10 21
REMARK SMILES IDX 9 22 8 23 7 24 6 25 5 26 4 27 3 28 2 29 1 30
REMARK H PARENT
REMARK Flexibility Score: inf
ROOT
ATOM      1  C   UNL     1       1.034  45.501  10.034  1.00  0.00     0.000 C 
ENDROOT
BRANCH   1   2
ATOM      2  C   UNL     1       1.062  44.310   9.053  1.00  0.00     0.000 C 
BRANCH   2   3
ATOM      3  C   UNL     1       0.223  44.568   7.787  1.00  0.00     0.000 C 
BRANCH   3   4
ATOM      4  C   UNL     1      -0.816  45.684   7.979  1.00  0.00     0.000 C 
BRANCH   4   5
ATOM      5  C   UNL     1      -0.864  46.661   6.790  1.00  0.00     0.000 C 
BRANCH   5   6
ATOM      6  C   UNL     1      -0.910  48.129   7.242  1.00  0.00     0.000 C 
BRANCH   6   7
ATOM      7  C   UNL     1      -0.492  48.303   8.714  1.00  0.00     0.000 C 
BRANCH   7   8
ATOM      8  C   UNL     1       0.858  49.024   8.872  1.00  0.00     0.000 C 
BRANCH   8   9
ATOM      9  C   UNL     1       1.697  49.141   7.584  1.00  0.00     0.000 C 
BRANCH   9  10
ATOM     10  C   UNL     1       2.812  48.085   7.496  1.00  0.00     0.000 C 
BRANCH  10  11
ATOM     11  C   UNL     1       3.177  47.482   8.866  1.00  0.00     0.000 C 
BRANCH  11  12
ATOM     12  C   UNL     1       4.405  46.553   8.868  1.00  0.00     0.006 C 
BRANCH  12  13
ATOM     13  C   UNL     1       5.441  46.929   9.935  1.00  0.00     0.053 C 
BRANCH  13  14
ATOM     14  C   UNL     1       6.567  47.707   9.329  1.00  0.00     0.041 C 
ATOM     15  O   UNL     1       7.760  47.400   9.587  1.00  0.00    -0.550 OA
ATOM     16  O   UNL     1       6.300  48.753   8.453  1.00  0.00    -0.550 OA
ENDBRANCH  13  14
ENDBRANCH  12  13
ENDBRANCH  11  12
ENDBRANCH  10  11
ENDBRANCH   9  10
ENDBRANCH   8   9
ENDBRANCH   7   8
ENDBRANCH   6   7
ENDBRANCH   5   6
ENDBRANCH   4   5
ENDBRANCH   3   4
ENDBRANCH   2   3
ENDBRANCH   1   2
BRANCH   1  17
ATOM     17  C   UNL     1       0.745  45.102  11.494  1.00  0.00     0.000 C 
BRANCH  17  18
ATOM     18  C   UNL     1      -0.724  44.754  11.797  1.00  0.00     0.000 C 
BRANCH  18  19
ATOM     19  C   UNL     1      -0.932  43.617  12.819  1.00  0.00     0.000 C 
BRANCH  19  20
ATOM     20  C   UNL     1       0.218  42.597  12.908  1.00  0.00     0.000 C 
BRANCH  20  21
ATOM     21  C   UNL     1       0.032  41.578  14.046  1.00  0.00     0.000 C 
BRANCH  21  22
ATOM     22  C   UNL     1       0.201  40.121  13.561  1.00  0.00    -0.000 C 
BRANCH  22  23
ATOM     23  C   UNL     1       1.602  39.538  13.811  1.00  0.00    -0.000 C 
BRANCH  23  24
ATOM     24  C   UNL     1       2.215  38.902  12.554  1.00  0.00    -0.000 C 
BRANCH  24  25
ATOM     25  C   UNL     1       3.747  38.783  12.626  1.00  0.00    -0.000 C 
BRANCH  25  26
ATOM     26  C   UNL     1       4.466  39.891  13.426  1.00  0.00    -0.000 C 
BRANCH  26  27
ATOM     27  C   UNL     1       4.743  41.202  12.662  1.00  0.00    -0.000 C 
BRANCH  27  28
ATOM     28  C   UNL     1       3.551  41.730  11.832  1.00  0.00    -0.000 C 
BRANCH  28  29
ATOM     29  C   UNL     1       3.713  43.187  11.369  1.00  0.00    -0.003 C 
ATOM     30  C   UNL     1       4.207  44.117  12.473  1.00  0.00     0.004 C 
ENDBRANCH  28  29
ENDBRANCH  27  28
ENDBRANCH  26  27
ENDBRANCH  25  26
ENDBRANCH  24  25
ENDBRANCH  23  24
ENDBRANCH  22  23
ENDBRANCH  21  22
ENDBRANCH  20  21
ENDBRANCH  19  20
ENDBRANCH  18  19
ENDBRANCH  17  18
ENDBRANCH   1  17
TORSDOF 26
ENDMDL
MODEL 7
REMARK VINA RESULT:    -3.909      2.505      7.542
REMARK INTER + INTRA:         -13.085
REMARK INTER:                  -9.537
REMARK INTRA:                  -3.547
REMARK UNBOUND:                -3.235
REMARK SMILES CCCCCCCCCCCCCCCCCCCCCCCCCCCC(=O)[O-]
REMARK SMILES IDX 15 1 16 2 17 3 18 4 19 5 20 6 21 7 22 8 23 9 24 10 25 11
REMARK SMILES IDX 26 12 27 13 28 14 29 15 30 16 14 17 13 18 12 19 11 20 10 21
REMARK SMILES IDX 9 22 8 23 7 24 6 25 5 26 4 27 3 28 2 29 1 30
REMARK H PARENT
REMARK Flexibility Score: inf
ROOT
ATOM      1  C   UNL     1       0.190  46.275   6.880  1.00  0.00     0.000 C 
ENDROOT
BRANCH   1   2
ATOM      2  C   UNL     1       0.015  44.857   7.465  1.00  0.00     0.000 C 
BRANCH   2   3
ATOM      3  C   UNL     1       0.640  44.715   8.865  1.00  0.00     0.000 C 
BRANCH   3   4
ATOM      4  C   UNL     1      -0.317  45.139   9.991  1.00  0.00     0.000 C 
BRANCH   4   5
ATOM      5  C   UNL     1       0.314  45.005  11.388  1.00  0.00     0.000 C 
BRANCH   5   6
ATOM      6  C   UNL     1      -0.610  44.281  12.380  1.00  0.00     0.000 C 
BRANCH   6   7
ATOM      7  C   UNL     1      -0.019  42.943  12.861  1.00  0.00     0.000 C 
BRANCH   7   8
ATOM      8  C   UNL     1      -1.014  42.114  13.694  1.00  0.00     0.000 C 
BRANCH   8   9
ATOM      9  C   UNL     1      -0.488  40.750  14.181  1.00  0.00     0.000 C 
BRANCH   9  10
ATOM     10  C   UNL     1       0.916  40.420  13.643  1.00  0.00     0.000 C 
BRANCH  10  11
ATOM     11  C   UNL     1       1.081  38.935  13.270  1.00  0.00     0.000 C 
BRANCH  11  12
ATOM     12  C   UNL     1       2.486  38.533  12.783  1.00  0.00     0.006 C 
BRANCH  12  13
ATOM     13  C   UNL     1       3.301  39.721  12.256  1.00  0.00     0.053 C 
BRANCH  13  14
ATOM     14  C   UNL     1       4.583  39.862  13.015  1.00  0.00     0.041 C 
ATOM     15  O   UNL     1       5.524  40.554  12.547  1.00  0.00    -0.550 OA
ATOM     16  O   UNL     1       4.729  39.252  14.256  1.00  0.00    -0.550 OA
ENDBRANCH  13  14
ENDBRANCH  12  13
ENDBRANCH  11  12
ENDBRANCH  10  11
ENDBRANCH   9  10
ENDBRANCH   8   9
ENDBRANCH   7   8
ENDBRANCH   6   7
ENDBRANCH   5   6
ENDBRANCH   4   5
ENDBRANCH   3   4
ENDBRANCH   2   3
ENDBRANCH   1   2
BRANCH   1  17
ATOM     17  C   UNL     1      -1.088  47.133   6.926  1.00  0.00     0.000 C 
BRANCH  17  18
ATOM     18  C   UNL     1      -0.956  48.460   7.696  1.00  0.00     0.000 C 
BRANCH  18  19
ATOM     19  C   UNL     1      -0.178  48.374   9.025  1.00  0.00     0.000 C 
BRANCH  19  20
ATOM     20  C   UNL     1       1.207  49.047   9.020  1.00  0.00     0.000 C 
BRANCH  20  21
ATOM     21  C   UNL     1       1.625  49.552   7.627  1.00  0.00     0.000 C 
BRANCH  21  22
ATOM     22  C   UNL     1       3.051  49.098   7.244  1.00  0.00    -0.000 C 
BRANCH  22  23
ATOM     23  C   UNL     1       3.532  47.849   8.001  1.00  0.00    -0.000 C 
BRANCH  23  24
ATOM     24  C   UNL     1       4.960  47.998   8.548  1.00  0.00    -0.000 C 
BRANCH  24  25
ATOM     25  C   UNL     1       5.418  46.782   9.372  1.00  0.00    -0.000 C 
BRANCH  25  26
ATOM     26  C   UNL     1       4.372  45.659   9.544  1.00  0.00    -0.000 C 
BRANCH  26  27
ATOM     27  C   UNL     1       3.639  45.622  10.901  1.00  0.00    -0.000 C 
BRANCH  27  28
ATOM     28  C   UNL     1       4.265  44.675  11.948  1.00  0.00    -0.000 C 
BRANCH  28  29
ATOM     29  C   UNL     1       3.512  43.345  12.112  1.00  0.00    -0.003 C 
ATOM     30  C   UNL     1       3.054  42.746  10.785  1.00  0.00     0.004 C 
ENDBRANCH  28  29
ENDBRANCH  27  28
ENDBRANCH  26  27
ENDBRANCH  25  26
ENDBRANCH  24  25
ENDBRANCH  23  24
ENDBRANCH  22  23
ENDBRANCH  21  22
ENDBRANCH  20  21
ENDBRANCH  19  20
ENDBRANCH  18  19
ENDBRANCH  17  18
ENDBRANCH   1  17
TORSDOF 26
ENDMDL
MODEL 8
REMARK VINA RESULT:    -3.885      0.963      2.389
REMARK INTER + INTRA:         -13.026
REMARK INTER:                  -9.146
REMARK INTRA:                  -3.880
REMARK UNBOUND:                -3.235
REMARK SMILES CCCCCCCCCCCCCCCCCCCCCCCCCCCC(=O)[O-]
REMARK SMILES IDX 15 1 16 2 17 3 18 4 19 5 20 6 21 7 22 8 23 9 24 10 25 11
REMARK SMILES IDX 26 12 27 13 28 14 29 15 30 16 14 17 13 18 12 19 11 20 10 21
REMARK SMILES IDX 9 22 8 23 7 24 6 25 5 26 4 27 3 28 2 29 1 30
REMARK H PARENT
REMARK Flexibility Score: inf
ROOT
ATOM      1  C   UNL     1      -0.275  44.603   7.053  1.00  0.00     0.000 C 
ENDROOT
BRANCH   1   2
ATOM      2  C   UNL     1       0.082  46.056   6.675  1.00  0.00     0.000 C 
BRANCH   2   3
ATOM      3  C   UNL     1      -1.044  47.049   7.018  1.00  0.00     0.000 C 
BRANCH   3   4
ATOM      4  C   UNL     1      -1.123  47.366   8.519  1.00  0.00     0.000 C 
BRANCH   4   5
ATOM      5  C   UNL     1      -1.102  48.878   8.808  1.00  0.00     0.000 C 
BRANCH   5   6
ATOM      6  C   UNL     1      -0.450  49.682   7.671  1.00  0.00     0.000 C 
BRANCH   6   7
ATOM      7  C   UNL     1       0.962  50.173   8.036  1.00  0.00     0.000 C 
BRANCH   7   8
ATOM      8  C   UNL     1       2.033  49.722   7.026  1.00  0.00     0.000 C 
BRANCH   8   9
ATOM      9  C   UNL     1       2.817  48.455   7.421  1.00  0.00     0.000 C 
BRANCH   9  10
ATOM     10  C   UNL     1       2.547  48.008   8.868  1.00  0.00     0.000 C 
BRANCH  10  11
ATOM     11  C   UNL     1       3.066  46.588   9.163  1.00  0.00     0.000 C 
BRANCH  11  12
ATOM     12  C   UNL     1       4.596  46.426   9.115  1.00  0.00     0.006 C 
BRANCH  12  13
ATOM     13  C   UNL     1       5.336  47.445   9.992  1.00  0.00     0.053 C 
BRANCH  13  14
ATOM     14  C   UNL     1       6.565  47.946   9.299  1.00  0.00     0.041 C 
ATOM     15  O   UNL     1       6.470  48.804   8.383  1.00  0.00    -0.550 OA
ATOM     16  O   UNL     1       7.819  47.488   9.685  1.00  0.00    -0.550 OA
ENDBRANCH  13  14
ENDBRANCH  12  13
ENDBRANCH  11  12
ENDBRANCH  10  11
ENDBRANCH   9  10
ENDBRANCH   8   9
ENDBRANCH   7   8
ENDBRANCH   6   7
ENDBRANCH   5   6
ENDBRANCH   4   5
ENDBRANCH   3   4
ENDBRANCH   2   3
ENDBRANCH   1   2
BRANCH   1  17
ATOM     17  C   UNL     1       0.413  44.103   8.337  1.00  0.00     0.000 C 
BRANCH  17  18
ATOM     18  C   UNL     1       1.922  43.826   8.204  1.00  0.00     0.000 C 
BRANCH  18  19
ATOM     19  C   UNL     1       2.505  42.851   9.248  1.00  0.00     0.000 C 
BRANCH  19  20
ATOM     20  C   UNL     1       4.012  43.009   9.523  1.00  0.00     0.000 C 
BRANCH  20  21
ATOM     21  C   UNL     1       4.376  42.823  11.007  1.00  0.00     0.000 C 
BRANCH  21  22
ATOM     22  C   UNL     1       4.128  44.103  11.835  1.00  0.00    -0.000 C 
BRANCH  22  23
ATOM     23  C   UNL     1       2.641  44.411  12.078  1.00  0.00    -0.000 C 
BRANCH  23  24
ATOM     24  C   UNL     1       2.017  43.514  13.158  1.00  0.00    -0.000 C 
BRANCH  24  25
ATOM     25  C   UNL     1       0.870  42.639  12.623  1.00  0.00    -0.000 C 
BRANCH  25  26
ATOM     26  C   UNL     1       0.417  41.490  13.551  1.00  0.00    -0.000 C 
BRANCH  26  27
ATOM     27  C   UNL     1       1.300  40.225  13.536  1.00  0.00    -0.000 C 
BRANCH  27  28
ATOM     28  C   UNL     1       2.417  40.229  12.468  1.00  0.00    -0.000 C 
BRANCH  28  29
ATOM     29  C   UNL     1       3.625  39.351  12.830  1.00  0.00    -0.003 C 
ATOM     30  C   UNL     1       4.767  40.135  13.471  1.00  0.00     0.004 C 
ENDBRANCH  28  29
ENDBRANCH  27  28
ENDBRANCH  26  27
ENDBRANCH  25  26
ENDBRANCH  24  25
ENDBRANCH  23  24
ENDBRANCH  22  23
ENDBRANCH  21  22
ENDBRANCH  20  21
ENDBRANCH  19  20
ENDBRANCH  18  19
ENDBRANCH  17  18
ENDBRANCH   1  17
TORSDOF 26
ENDMDL
MODEL 9
REMARK VINA RESULT:    -3.786      1.742      7.745
REMARK INTER + INTRA:         -12.776
REMARK INTER:                  -9.720
REMARK INTRA:                  -3.056
REMARK UNBOUND:                -3.235
REMARK SMILES CCCCCCCCCCCCCCCCCCCCCCCCCCCC(=O)[O-]
REMARK SMILES IDX 15 1 16 2 17 3 18 4 19 5 20 6 21 7 22 8 23 9 24 10 25 11
REMARK SMILES IDX 26 12 27 13 28 14 29 15 30 16 14 17 13 18 12 19 11 20 10 21
REMARK SMILES IDX 9 22 8 23 7 24 6 25 5 26 4 27 3 28 2 29 1 30
REMARK H PARENT
REMARK Flexibility Score: inf
ROOT
ATOM      1  C   UNL     1       1.192  44.884   8.914  1.00  0.00     0.000 C 
ENDROOT
BRANCH   1   2
ATOM      2  C   UNL     1       1.040  44.107  10.239  1.00  0.00     0.000 C 
BRANCH   2   3
ATOM      3  C   UNL     1       0.126  44.830  11.245  1.00  0.00     0.000 C 
BRANCH   3   4
ATOM      4  C   UNL     1      -0.346  43.914  12.386  1.00  0.00     0.000 C 
BRANCH   4   5
ATOM      5  C   UNL     1       0.633  42.760  12.664  1.00  0.00     0.000 C 
BRANCH   5   6
ATOM      6  C   UNL     1       0.023  41.684  13.577  1.00  0.00     0.000 C 
BRANCH   6   7
ATOM      7  C   UNL     1       1.082  40.706  14.119  1.00  0.00     0.000 C 
BRANCH   7   8
ATOM      8  C   UNL     1       1.235  39.446  13.248  1.00  0.00     0.000 C 
BRANCH   8   9
ATOM      9  C   UNL     1       2.641  39.218  12.661  1.00  0.00     0.000 C 
BRANCH   9  10
ATOM     10  C   UNL     1       3.731  40.033  13.380  1.00  0.00     0.000 C 
BRANCH  10  11
ATOM     11  C   UNL     1       4.488  40.986  12.436  1.00  0.00     0.000 C 
BRANCH  11  12
ATOM     12  C   UNL     1       3.598  41.928  11.603  1.00  0.00     0.006 C 
BRANCH  12  13
ATOM     13  C   UNL     1       4.348  43.162  11.086  1.00  0.00     0.053 C 
BRANCH  13  14
ATOM     14  C   UNL     1       4.192  44.312  12.030  1.00  0.00     0.041 C 
ATOM     15  O   UNL     1       3.374  45.234  11.777  1.00  0.00    -0.550 OA
ATOM     16  O   UNL     1       4.928  44.351  13.209  1.00  0.00    -0.550 OA
ENDBRANCH  13  14
ENDBRANCH  12  13
ENDBRANCH  11  12
ENDBRANCH  10  11
ENDBRANCH   9  10
ENDBRANCH   8   9
ENDBRANCH   7   8
ENDBRANCH   6   7
ENDBRANCH   5   6
ENDBRANCH   4   5
ENDBRANCH   3   4
ENDBRANCH   2   3
ENDBRANCH   1   2
BRANCH   1  17
ATOM     17  C   UNL     1       0.273  44.378   7.785  1.00  0.00     0.000 C 
BRANCH  17  18
ATOM     18  C   UNL     1      -0.867  45.336   7.393  1.00  0.00     0.000 C 
BRANCH  18  19
ATOM     19  C   UNL     1      -0.415  46.687   6.800  1.00  0.00     0.000 C 
BRANCH  19  20
ATOM     20  C   UNL     1      -0.871  47.932   7.584  1.00  0.00     0.000 C 
BRANCH  20  21
ATOM     21  C   UNL     1      -0.316  47.978   9.019  1.00  0.00     0.000 C 
BRANCH  21  22
ATOM     22  C   UNL     1       0.901  48.918   9.146  1.00  0.00    -0.000 C 
BRANCH  22  23
ATOM     23  C   UNL     1       1.025  49.938   8.001  1.00  0.00    -0.000 C 
BRANCH  23  24
ATOM     24  C   UNL     1       2.339  49.797   7.218  1.00  0.00    -0.000 C 
BRANCH  24  25
ATOM     25  C   UNL     1       2.857  48.349   7.168  1.00  0.00    -0.000 C 
BRANCH  25  26
ATOM     26  C   UNL     1       4.193  48.092   7.898  1.00  0.00    -0.000 C 
BRANCH  26  27
ATOM     27  C   UNL     1       4.197  46.924   8.905  1.00  0.00    -0.000 C 
BRANCH  27  28
ATOM     28  C   UNL     1       5.421  46.885   9.847  1.00  0.00    -0.000 C 
BRANCH  28  29
ATOM     29  C   UNL     1       6.451  47.993   9.572  1.00  0.00    -0.003 C 
ATOM     30  C   UNL     1       7.869  47.462   9.381  1.00  0.00     0.004 C 
ENDBRANCH  28  29
ENDBRANCH  27  28
ENDBRANCH  26  27
ENDBRANCH  25  26
ENDBRANCH  24  25
ENDBRANCH  23  24
ENDBRANCH  22  23
ENDBRANCH  21  22
ENDBRANCH  20  21
ENDBRANCH  19  20
ENDBRANCH  18  19
ENDBRANCH  17  18
ENDBRANCH   1  17
TORSDOF 26
ENDMDL
