MODEL 1
REMARK VINA RESULT:    -8.067      0.000      0.000
REMARK INTER + INTRA:          -9.862
REMARK INTER:                  -9.718
REMARK INTRA:                  -0.145
REMARK UNBOUND:                -0.145
REMARK SMILES O=c1c(O)c(-c2ccc(O)c(O)c2)oc2cc(O)cc(O)c12
REMARK SMILES IDX 5 1 3 2 2 3 1 4 22 5 20 6 19 7 17 8 16 9 15 10 14 11 6 12
REMARK SMILES IDX 7 13 8 14 9 15 13 16 11 17 10 18 12 20 4 22 21 24 18 26
REMARK H PARENT 10 19 12 21 4 23 21 25 18 27
REMARK Flexibility Score: inf
ROOT
ATOM      1  C   UNL     1      50.882  58.550   6.771  1.00  0.00     0.180 A 
ATOM      2  C   UNL     1      49.770  58.515   7.630  1.00  0.00     0.208 A 
ATOM      3  C   UNL     1      48.497  58.279   7.085  1.00  0.00     0.238 A 
ATOM      4  O   UNL     1      47.498  58.303   7.850  1.00  0.00    -0.285 OA
ATOM      5  C   UNL     1      48.355  58.067   5.692  1.00  0.00     0.111 A 
ATOM      6  C   UNL     1      47.120  57.780   5.038  1.00  0.00     0.134 A 
ATOM      7  C   UNL     1      47.076  57.716   3.640  1.00  0.00     0.093 A 
ATOM      8  C   UNL     1      48.237  57.866   2.877  1.00  0.00     0.123 A 
ATOM      9  C   UNL     1      49.458  58.087   3.509  1.00  0.00     0.094 A 
ATOM     10  C   UNL     1      49.526  58.191   4.900  1.00  0.00     0.146 A 
ATOM     11  O   UNL     1      50.708  58.413   5.462  1.00  0.00    -0.452 OA
ENDROOT
BRANCH   1  12
ATOM     12  C   UNL     1      52.258  58.768   7.274  1.00  0.00     0.025 A 
ATOM     13  C   UNL     1      53.255  57.788   7.128  1.00  0.00     0.016 A 
ATOM     14  C   UNL     1      54.552  58.026   7.590  1.00  0.00     0.051 A 
ATOM     15  C   UNL     1      54.877  59.249   8.190  1.00  0.00     0.157 A 
ATOM     16  C   UNL     1      52.593  60.001   7.859  1.00  0.00     0.062 A 
ATOM     17  C   UNL     1      53.891  60.243   8.322  1.00  0.00     0.158 A 
BRANCH  15  18
ATOM     18  O   UNL     1      56.171  59.482   8.651  1.00  0.00    -0.504 OA
ATOM     19  H   UNL     1      56.471  59.175   9.570  1.00  0.00     0.293 HD
ENDBRANCH  15  18
BRANCH  17  20
ATOM     20  O   UNL     1      54.184  61.473   8.909  1.00  0.00    -0.504 OA
ATOM     21  H   UNL     1      53.758  61.768   9.780  1.00  0.00     0.293 HD
ENDBRANCH  17  20
ENDBRANCH   1  12
BRANCH   2  22
ATOM     22  O   UNL     1      49.929  58.750   8.998  1.00  0.00    -0.502 OA
ATOM     23  H   UNL     1      50.277  58.043   9.635  1.00  0.00     0.293 HD
ENDBRANCH   2  22
BRANCH   6  24
ATOM     24  O   UNL     1      45.921  57.523   5.712  1.00  0.00    -0.507 OA
ATOM     25  H   UNL     1      45.853  57.263   6.683  1.00  0.00     0.293 HD
ENDBRANCH   6  24
BRANCH   8  26
ATOM     26  O   UNL     1      48.188  57.787   1.486  1.00  0.00    -0.508 OA
ATOM     27  H   UNL     1      48.889  58.231   0.905  1.00  0.00     0.293 HD
ENDBRANCH   8  26
TORSDOF 6
ENDMDL
MODEL 2
REMARK VINA RESULT:    -7.889      6.713      9.410
REMARK INTER + INTRA:          -9.648
REMARK INTER:                  -9.379
REMARK INTRA:                  -0.268
REMARK UNBOUND:                -0.145
REMARK SMILES O=c1c(O)c(-c2ccc(O)c(O)c2)oc2cc(O)cc(O)c12
REMARK SMILES IDX 5 1 3 2 2 3 1 4 22 5 20 6 19 7 17 8 16 9 15 10 14 11 6 12
REMARK SMILES IDX 7 13 8 14 9 15 13 16 11 17 10 18 12 20 4 22 21 24 18 26
REMARK H PARENT 10 19 12 21 4 23 21 25 18 27
REMARK Flexibility Score: inf
ROOT
ATOM      1  C   UNL     1      52.634  61.450  -0.105  1.00  0.00     0.180 A 
ATOM      2  C   UNL     1      52.365  62.536  -0.954  1.00  0.00     0.208 A 
ATOM      3  C   UNL     1      52.256  63.822  -0.401  1.00  0.00     0.238 A 
ATOM      4  O   UNL     1      51.961  64.784  -1.157  1.00  0.00    -0.285 OA
ATOM      5  C   UNL     1      52.433  64.007   0.992  1.00  0.00     0.111 A 
ATOM      6  C   UNL     1      52.385  65.270   1.655  1.00  0.00     0.134 A 
ATOM      7  C   UNL     1      52.445  65.320   3.053  1.00  0.00     0.093 A 
ATOM      8  C   UNL     1      52.616  64.156   3.808  1.00  0.00     0.123 A 
ATOM      9  C   UNL     1      52.724  62.925   3.166  1.00  0.00     0.094 A 
ATOM     10  C   UNL     1      52.632  62.840   1.775  1.00  0.00     0.146 A 
ATOM     11  O   UNL     1      52.729  61.645   1.204  1.00  0.00    -0.452 OA
ENDROOT
BRANCH   1  12
ATOM     12  C   UNL     1      52.787  60.069  -0.619  1.00  0.00     0.025 A 
ATOM     13  C   UNL     1      51.674  59.305  -1.009  1.00  0.00     0.016 A 
ATOM     14  C   UNL     1      51.846  58.013  -1.513  1.00  0.00     0.051 A 
ATOM     15  C   UNL     1      53.130  57.471  -1.648  1.00  0.00     0.157 A 
ATOM     16  C   UNL     1      54.075  59.529  -0.775  1.00  0.00     0.062 A 
ATOM     17  C   UNL     1      54.251  58.235  -1.280  1.00  0.00     0.158 A 
BRANCH  15  18
ATOM     18  O   UNL     1      53.298  56.181  -2.149  1.00  0.00    -0.504 OA
ATOM     19  H   UNL     1      54.125  55.919  -2.674  1.00  0.00     0.293 HD
ENDBRANCH  15  18
BRANCH  17  20
ATOM     20  O   UNL     1      55.542  57.728  -1.407  1.00  0.00    -0.504 OA
ATOM     21  H   UNL     1      55.994  57.211  -0.662  1.00  0.00     0.293 HD
ENDBRANCH  17  20
ENDBRANCH   1  12
BRANCH   2  22
ATOM     22  O   UNL     1      52.171  62.329  -2.323  1.00  0.00    -0.502 OA
ATOM     23  H   UNL     1      51.253  62.182  -2.726  1.00  0.00     0.293 HD
ENDBRANCH   2  22
BRANCH   6  24
ATOM     24  O   UNL     1      52.308  66.497   0.990  1.00  0.00    -0.507 OA
ATOM     25  H   UNL     1      52.725  66.692   0.093  1.00  0.00     0.293 HD
ENDBRANCH   6  24
BRANCH   8  26
ATOM     26  O   UNL     1      52.689  64.215   5.198  1.00  0.00    -0.508 OA
ATOM     27  H   UNL     1      52.287  64.987   5.718  1.00  0.00     0.293 HD
ENDBRANCH   8  26
TORSDOF 6
ENDMDL
MODEL 3
REMARK VINA RESULT:    -7.770      1.543      6.870
REMARK INTER + INTRA:          -9.505
REMARK INTER:                  -9.173
REMARK INTRA:                  -0.331
REMARK UNBOUND:                -0.145
REMARK SMILES O=c1c(O)c(-c2ccc(O)c(O)c2)oc2cc(O)cc(O)c12
REMARK SMILES IDX 5 1 3 2 2 3 1 4 22 5 20 6 19 7 17 8 16 9 15 10 14 11 6 12
REMARK SMILES IDX 7 13 8 14 9 15 13 16 11 17 10 18 12 20 4 22 21 24 18 26
REMARK H PARENT 10 19 12 21 4 23 21 25 18 27
REMARK Flexibility Score: inf
ROOT
ATOM      1  C   UNL     1      50.865  59.304   6.466  1.00  0.00     0.180 A 
ATOM      2  C   UNL     1      51.136  60.409   7.291  1.00  0.00     0.208 A 
ATOM      3  C   UNL     1      52.389  60.497   7.920  1.00  0.00     0.238 A 
ATOM      4  O   UNL     1      52.607  61.460   8.701  1.00  0.00    -0.285 OA
ATOM      5  C   UNL     1      53.359  59.489   7.703  1.00  0.00     0.111 A 
ATOM      6  C   UNL     1      54.674  59.497   8.256  1.00  0.00     0.134 A 
ATOM      7  C   UNL     1      55.505  58.384   8.080  1.00  0.00     0.093 A 
ATOM      8  C   UNL     1      55.091  57.290   7.316  1.00  0.00     0.123 A 
ATOM      9  C   UNL     1      53.831  57.299   6.722  1.00  0.00     0.094 A 
ATOM     10  C   UNL     1      52.967  58.380   6.910  1.00  0.00     0.146 A 
ATOM     11  O   UNL     1      51.770  58.342   6.335  1.00  0.00    -0.452 OA
ENDROOT
BRANCH   1  12
ATOM     12  C   UNL     1      49.577  59.154   5.750  1.00  0.00     0.025 A 
ATOM     13  C   UNL     1      49.392  59.680   4.460  1.00  0.00     0.016 A 
ATOM     14  C   UNL     1      48.176  59.505   3.794  1.00  0.00     0.051 A 
ATOM     15  C   UNL     1      47.133  58.792   4.399  1.00  0.00     0.157 A 
ATOM     16  C   UNL     1      48.536  58.422   6.345  1.00  0.00     0.062 A 
ATOM     17  C   UNL     1      47.317  58.245   5.681  1.00  0.00     0.158 A 
BRANCH  15  18
ATOM     18  O   UNL     1      45.921  58.621   3.734  1.00  0.00    -0.504 OA
ATOM     19  H   UNL     1      45.138  58.147   4.170  1.00  0.00     0.293 HD
ENDBRANCH  15  18
BRANCH  17  20
ATOM     20  O   UNL     1      46.302  57.525   6.309  1.00  0.00    -0.504 OA
ATOM     21  H   UNL     1      46.228  56.517   6.229  1.00  0.00     0.293 HD
ENDBRANCH  17  20
ENDBRANCH   1  12
BRANCH   2  22
ATOM     22  O   UNL     1      50.157  61.381   7.510  1.00  0.00    -0.502 OA
ATOM     23  H   UNL     1      50.372  62.370   7.557  1.00  0.00     0.293 HD
ENDBRANCH   2  22
BRANCH   6  24
ATOM     24  O   UNL     1      55.219  60.577   8.958  1.00  0.00    -0.507 OA
ATOM     25  H   UNL     1      54.680  61.302   9.405  1.00  0.00     0.293 HD
ENDBRANCH   6  24
BRANCH   8  26
ATOM     26  O   UNL     1      55.929  56.192   7.133  1.00  0.00    -0.508 OA
ATOM     27  H   UNL     1      56.872  56.177   7.506  1.00  0.00     0.293 HD
ENDBRANCH   8  26
TORSDOF 6
ENDMDL
MODEL 4
REMARK VINA RESULT:    -7.605      7.037      8.327
REMARK INTER + INTRA:          -9.306
REMARK INTER:                  -9.092
REMARK INTRA:                  -0.214
REMARK UNBOUND:                -0.145
REMARK SMILES O=c1c(O)c(-c2ccc(O)c(O)c2)oc2cc(O)cc(O)c12
REMARK SMILES IDX 5 1 3 2 2 3 1 4 22 5 20 6 19 7 17 8 16 9 15 10 14 11 6 12
REMARK SMILES IDX 7 13 8 14 9 15 13 16 11 17 10 18 12 20 4 22 21 24 18 26
REMARK H PARENT 10 19 12 21 4 23 21 25 18 27
REMARK Flexibility Score: inf
ROOT
ATOM      1  C   UNL     1      52.221  61.696   0.521  1.00  0.00     0.180 A 
ATOM      2  C   UNL     1      51.134  61.232  -0.238  1.00  0.00     0.208 A 
ATOM      3  C   UNL     1      51.251  60.008  -0.918  1.00  0.00     0.238 A 
ATOM      4  O   UNL     1      50.295  59.623  -1.641  1.00  0.00    -0.285 OA
ATOM      5  C   UNL     1      52.447  59.257  -0.815  1.00  0.00     0.111 A 
ATOM      6  C   UNL     1      52.662  57.986  -1.428  1.00  0.00     0.134 A 
ATOM      7  C   UNL     1      53.929  57.394  -1.367  1.00  0.00     0.093 A 
ATOM      8  C   UNL     1      54.972  57.998  -0.660  1.00  0.00     0.123 A 
ATOM      9  C   UNL     1      54.756  59.210  -0.009  1.00  0.00     0.094 A 
ATOM     10  C   UNL     1      53.512  59.842  -0.082  1.00  0.00     0.146 A 
ATOM     11  O   UNL     1      53.352  61.002   0.544  1.00  0.00    -0.452 OA
ENDROOT
BRANCH   1  12
ATOM     12  C   UNL     1      52.163  62.963   1.285  1.00  0.00     0.025 A 
ATOM     13  C   UNL     1      52.151  62.971   2.691  1.00  0.00     0.016 A 
ATOM     14  C   UNL     1      52.120  64.180   3.390  1.00  0.00     0.051 A 
ATOM     15  C   UNL     1      52.116  65.398   2.698  1.00  0.00     0.157 A 
ATOM     16  C   UNL     1      52.179  64.187   0.596  1.00  0.00     0.062 A 
ATOM     17  C   UNL     1      52.149  65.401   1.293  1.00  0.00     0.158 A 
BRANCH  15  18
ATOM     18  O   UNL     1      52.083  66.603   3.398  1.00  0.00    -0.504 OA
ATOM     19  H   UNL     1      51.579  66.695   4.273  1.00  0.00     0.293 HD
ENDBRANCH  15  18
BRANCH  17  20
ATOM     20  O   UNL     1      52.152  66.595   0.574  1.00  0.00    -0.504 OA
ATOM     21  H   UNL     1      51.994  66.622  -0.426  1.00  0.00     0.293 HD
ENDBRANCH  17  20
ENDBRANCH   1  12
BRANCH   2  22
ATOM     22  O   UNL     1      49.970  61.999  -0.345  1.00  0.00    -0.502 OA
ATOM     23  H   UNL     1      49.903  62.940   0.025  1.00  0.00     0.293 HD
ENDBRANCH   2  22
BRANCH   6  24
ATOM     24  O   UNL     1      51.662  57.256  -2.079  1.00  0.00    -0.507 OA
ATOM     25  H   UNL     1      51.579  56.252  -2.058  1.00  0.00     0.293 HD
ENDBRANCH   6  24
BRANCH   8  26
ATOM     26  O   UNL     1      56.227  57.395  -0.592  1.00  0.00    -0.508 OA
ATOM     27  H   UNL     1      56.463  56.596  -1.168  1.00  0.00     0.293 HD
ENDBRANCH   8  26
TORSDOF 6
ENDMDL
MODEL 5
REMARK VINA RESULT:    -7.520      1.465      2.990
REMARK INTER + INTRA:          -9.203
REMARK INTER:                  -8.890
REMARK INTRA:                  -0.313
REMARK UNBOUND:                -0.145
REMARK SMILES O=c1c(O)c(-c2ccc(O)c(O)c2)oc2cc(O)cc(O)c12
REMARK SMILES IDX 5 1 3 2 2 3 1 4 22 5 20 6 19 7 17 8 16 9 15 10 14 11 6 12
REMARK SMILES IDX 7 13 8 14 9 15 13 16 11 17 10 18 12 20 4 22 21 24 18 26
REMARK H PARENT 10 19 12 21 4 23 21 25 18 27
REMARK Flexibility Score: inf
ROOT
ATOM      1  C   UNL     1      51.871  58.849   5.696  1.00  0.00     0.180 A 
ATOM      2  C   UNL     1      51.929  59.240   4.348  1.00  0.00     0.208 A 
ATOM      3  C   UNL     1      50.745  59.258   3.592  1.00  0.00     0.238 A 
ATOM      4  O   UNL     1      50.811  59.556   2.371  1.00  0.00    -0.285 OA
ATOM      5  C   UNL     1      49.517  58.901   4.199  1.00  0.00     0.111 A 
ATOM      6  C   UNL     1      48.251  58.922   3.541  1.00  0.00     0.134 A 
ATOM      7  C   UNL     1      47.120  58.424   4.200  1.00  0.00     0.093 A 
ATOM      8  C   UNL     1      47.199  57.966   5.517  1.00  0.00     0.123 A 
ATOM      9  C   UNL     1      48.419  57.997   6.189  1.00  0.00     0.094 A 
ATOM     10  C   UNL     1      49.571  58.454   5.545  1.00  0.00     0.146 A 
ATOM     11  O   UNL     1      50.715  58.457   6.219  1.00  0.00    -0.452 OA
ENDROOT
BRANCH   1  12
ATOM     12  C   UNL     1      53.072  58.830   6.563  1.00  0.00     0.025 A 
ATOM     13  C   UNL     1      53.944  57.728   6.579  1.00  0.00     0.016 A 
ATOM     14  C   UNL     1      55.084  57.742   7.387  1.00  0.00     0.051 A 
ATOM     15  C   UNL     1      55.377  58.860   8.178  1.00  0.00     0.157 A 
ATOM     16  C   UNL     1      53.381  59.957   7.342  1.00  0.00     0.062 A 
ATOM     17  C   UNL     1      54.521  59.975   8.152  1.00  0.00     0.158 A 
BRANCH  15  18
ATOM     18  O   UNL     1      56.514  58.871   8.985  1.00  0.00    -0.504 OA
ATOM     19  H   UNL     1      57.445  58.936   8.589  1.00  0.00     0.293 HD
ENDBRANCH  15  18
BRANCH  17  20
ATOM     20  O   UNL     1      54.788  61.106   8.923  1.00  0.00    -0.504 OA
ATOM     21  H   UNL     1      55.584  61.157   9.546  1.00  0.00     0.293 HD
ENDBRANCH  17  20
ENDBRANCH   1  12
BRANCH   2  22
ATOM     22  O   UNL     1      53.155  59.567   3.762  1.00  0.00    -0.502 OA
ATOM     23  H   UNL     1      54.030  59.155   4.065  1.00  0.00     0.293 HD
ENDBRANCH   2  22
BRANCH   6  24
ATOM     24  O   UNL     1      48.047  59.443   2.259  1.00  0.00    -0.507 OA
ATOM     25  H   UNL     1      48.115  60.419   2.019  1.00  0.00     0.293 HD
ENDBRANCH   6  24
BRANCH   8  26
ATOM     26  O   UNL     1      46.066  57.486   6.172  1.00  0.00    -0.508 OA
ATOM     27  H   UNL     1      45.961  57.566   7.177  1.00  0.00     0.293 HD
ENDBRANCH   8  26
TORSDOF 6
ENDMDL
MODEL 6
REMARK VINA RESULT:    -7.516      1.786      1.943
REMARK INTER + INTRA:          -9.199
REMARK INTER:                  -8.912
REMARK INTRA:                  -0.287
REMARK UNBOUND:                -0.145
REMARK SMILES O=c1c(O)c(-c2ccc(O)c(O)c2)oc2cc(O)cc(O)c12
REMARK SMILES IDX 5 1 3 2 2 3 1 4 22 5 20 6 19 7 17 8 16 9 15 10 14 11 6 12
REMARK SMILES IDX 7 13 8 14 9 15 13 16 11 17 10 18 12 20 4 22 21 24 18 26
REMARK H PARENT 10 19 12 21 4 23 21 25 18 27
REMARK Flexibility Score: inf
ROOT
ATOM      1  C   UNL     1      49.948  59.070   6.017  1.00  0.00     0.180 A 
ATOM      2  C   UNL     1      48.978  60.066   6.221  1.00  0.00     0.208 A 
ATOM      3  C   UNL     1      47.788  60.021   5.476  1.00  0.00     0.238 A 
ATOM      4  O   UNL     1      46.947  60.945   5.623  1.00  0.00    -0.285 OA
ATOM      5  C   UNL     1      47.577  58.971   4.550  1.00  0.00     0.111 A 
ATOM      6  C   UNL     1      46.393  58.803   3.772  1.00  0.00     0.134 A 
ATOM      7  C   UNL     1      46.345  57.803   2.792  1.00  0.00     0.093 A 
ATOM      8  C   UNL     1      47.415  56.925   2.609  1.00  0.00     0.123 A 
ATOM      9  C   UNL     1      48.553  57.043   3.404  1.00  0.00     0.094 A 
ATOM     10  C   UNL     1      48.643  58.053   4.364  1.00  0.00     0.146 A 
ATOM     11  O   UNL     1      49.750  58.137   5.094  1.00  0.00    -0.452 OA
ENDROOT
BRANCH   1  12
ATOM     12  C   UNL     1      51.216  59.038   6.782  1.00  0.00     0.025 A 
ATOM     13  C   UNL     1      51.403  58.146   7.852  1.00  0.00     0.016 A 
ATOM     14  C   UNL     1      52.616  58.117   8.544  1.00  0.00     0.051 A 
ATOM     15  C   UNL     1      53.665  58.967   8.169  1.00  0.00     0.157 A 
ATOM     16  C   UNL     1      52.278  59.873   6.396  1.00  0.00     0.062 A 
ATOM     17  C   UNL     1      53.495  59.847   7.086  1.00  0.00     0.158 A 
BRANCH  15  18
ATOM     18  O   UNL     1      54.874  58.937   8.862  1.00  0.00    -0.504 OA
ATOM     19  H   UNL     1      55.549  59.689   8.784  1.00  0.00     0.293 HD
ENDBRANCH  15  18
BRANCH  17  20
ATOM     20  O   UNL     1      54.521  60.701   6.684  1.00  0.00    -0.504 OA
ATOM     21  H   UNL     1      55.497  60.477   6.835  1.00  0.00     0.293 HD
ENDBRANCH  17  20
ENDBRANCH   1  12
BRANCH   2  22
ATOM     22  O   UNL     1      49.216  61.106   7.124  1.00  0.00    -0.502 OA
ATOM     23  H   UNL     1      48.840  62.038   6.993  1.00  0.00     0.293 HD
ENDBRANCH   2  22
BRANCH   6  24
ATOM     24  O   UNL     1      45.234  59.567   3.940  1.00  0.00    -0.507 OA
ATOM     25  H   UNL     1      44.617  59.847   3.193  1.00  0.00     0.293 HD
ENDBRANCH   6  24
BRANCH   8  26
ATOM     26  O   UNL     1      47.355  55.923   1.641  1.00  0.00    -0.508 OA
ATOM     27  H   UNL     1      47.720  54.994   1.817  1.00  0.00     0.293 HD
ENDBRANCH   8  26
TORSDOF 6
ENDMDL
MODEL 7
REMARK VINA RESULT:    -7.434      8.156      9.179
REMARK INTER + INTRA:          -9.100
REMARK INTER:                  -8.794
REMARK INTRA:                  -0.306
REMARK UNBOUND:                -0.145
REMARK SMILES O=c1c(O)c(-c2ccc(O)c(O)c2)oc2cc(O)cc(O)c12
REMARK SMILES IDX 5 1 3 2 2 3 1 4 22 5 20 6 19 7 17 8 16 9 15 10 14 11 6 12
REMARK SMILES IDX 7 13 8 14 9 15 13 16 11 17 10 18 12 20 4 22 21 24 18 26
REMARK H PARENT 10 19 12 21 4 23 21 25 18 27
REMARK Flexibility Score: inf
ROOT
ATOM      1  C   UNL     1      49.931  65.362   1.924  1.00  0.00     0.180 A 
ATOM      2  C   UNL     1      49.982  66.739   2.196  1.00  0.00     0.208 A 
ATOM      3  C   UNL     1      48.851  67.367   2.744  1.00  0.00     0.238 A 
ATOM      4  O   UNL     1      48.883  68.610   2.936  1.00  0.00    -0.285 OA
ATOM      5  C   UNL     1      47.691  66.606   3.028  1.00  0.00     0.111 A 
ATOM      6  C   UNL     1      46.503  67.130   3.621  1.00  0.00     0.134 A 
ATOM      7  C   UNL     1      45.371  66.315   3.737  1.00  0.00     0.093 A 
ATOM      8  C   UNL     1      45.405  64.976   3.339  1.00  0.00     0.123 A 
ATOM      9  C   UNL     1      46.578  64.439   2.814  1.00  0.00     0.094 A 
ATOM     10  C   UNL     1      47.712  65.238   2.654  1.00  0.00     0.146 A 
ATOM     11  O   UNL     1      48.807  64.689   2.139  1.00  0.00    -0.452 OA
ENDROOT
BRANCH   1  12
ATOM     12  C   UNL     1      51.090  64.626   1.370  1.00  0.00     0.025 A 
ATOM     13  C   UNL     1      52.165  64.231   2.185  1.00  0.00     0.016 A 
ATOM     14  C   UNL     1      53.237  63.517   1.644  1.00  0.00     0.051 A 
ATOM     15  C   UNL     1      53.245  63.173   0.286  1.00  0.00     0.157 A 
ATOM     16  C   UNL     1      51.093  64.261   0.013  1.00  0.00     0.062 A 
ATOM     17  C   UNL     1      52.165  63.545  -0.533  1.00  0.00     0.158 A 
BRANCH  15  18
ATOM     18  O   UNL     1      54.317  62.462  -0.251  1.00  0.00    -0.504 OA
ATOM     19  H   UNL     1      54.385  61.455  -0.159  1.00  0.00     0.293 HD
ENDBRANCH  15  18
BRANCH  17  20
ATOM     20  O   UNL     1      52.140  63.214  -1.886  1.00  0.00    -0.504 OA
ATOM     21  H   UNL     1      51.525  63.678  -2.543  1.00  0.00     0.293 HD
ENDBRANCH  17  20
ENDBRANCH   1  12
BRANCH   2  22
ATOM     22  O   UNL     1      51.128  67.476   1.887  1.00  0.00    -0.502 OA
ATOM     23  H   UNL     1      51.445  67.616   0.935  1.00  0.00     0.293 HD
ENDBRANCH   2  22
BRANCH   6  24
ATOM     24  O   UNL     1      46.394  68.426   4.135  1.00  0.00    -0.507 OA
ATOM     25  H   UNL     1      46.684  68.704   5.059  1.00  0.00     0.293 HD
ENDBRANCH   6  24
BRANCH   8  26
ATOM     26  O   UNL     1      44.278  64.166   3.471  1.00  0.00    -0.508 OA
ATOM     27  H   UNL     1      43.349  64.511   3.254  1.00  0.00     0.293 HD
ENDBRANCH   8  26
TORSDOF 6
ENDMDL
MODEL 8
REMARK VINA RESULT:    -7.402      1.844      1.902
REMARK INTER + INTRA:          -9.062
REMARK INTER:                  -8.787
REMARK INTRA:                  -0.274
REMARK UNBOUND:                -0.145
REMARK SMILES O=c1c(O)c(-c2ccc(O)c(O)c2)oc2cc(O)cc(O)c12
REMARK SMILES IDX 5 1 3 2 2 3 1 4 22 5 20 6 19 7 17 8 16 9 15 10 14 11 6 12
REMARK SMILES IDX 7 13 8 14 9 15 13 16 11 17 10 18 12 20 4 22 21 24 18 26
REMARK H PARENT 10 19 12 21 4 23 21 25 18 27
REMARK Flexibility Score: inf
ROOT
ATOM      1  C   UNL     1      50.369  59.596   6.843  1.00  0.00     0.180 A 
ATOM      2  C   UNL     1      49.471  58.669   7.399  1.00  0.00     0.208 A 
ATOM      3  C   UNL     1      48.199  58.524   6.821  1.00  0.00     0.238 A 
ATOM      4  O   UNL     1      47.379  57.732   7.355  1.00  0.00    -0.285 OA
ATOM      5  C   UNL     1      47.848  59.295   5.687  1.00  0.00     0.111 A 
ATOM      6  C   UNL     1      46.603  59.201   4.996  1.00  0.00     0.134 A 
ATOM      7  C   UNL     1      46.313  60.104   3.966  1.00  0.00     0.093 A 
ATOM      8  C   UNL     1      47.252  61.055   3.559  1.00  0.00     0.123 A 
ATOM      9  C   UNL     1      48.493  61.116   4.188  1.00  0.00     0.094 A 
ATOM     10  C   UNL     1      48.796  60.252   5.242  1.00  0.00     0.146 A 
ATOM     11  O   UNL     1      49.987  60.351   5.821  1.00  0.00    -0.452 OA
ENDROOT
BRANCH   1  12
ATOM     12  C   UNL     1      51.736  59.786   7.381  1.00  0.00     0.025 A 
ATOM     13  C   UNL     1      52.862  59.265   6.721  1.00  0.00     0.016 A 
ATOM     14  C   UNL     1      54.143  59.478   7.235  1.00  0.00     0.051 A 
ATOM     15  C   UNL     1      54.321  60.226   8.406  1.00  0.00     0.157 A 
ATOM     16  C   UNL     1      51.921  60.554   8.543  1.00  0.00     0.062 A 
ATOM     17  C   UNL     1      53.202  60.770   9.061  1.00  0.00     0.158 A 
BRANCH  15  18
ATOM     18  O   UNL     1      55.600  60.436   8.917  1.00  0.00    -0.504 OA
ATOM     19  H   UNL     1      56.317  59.721   8.863  1.00  0.00     0.293 HD
ENDBRANCH  15  18
BRANCH  17  20
ATOM     20  O   UNL     1      53.345  61.524  10.224  1.00  0.00    -0.504 OA
ATOM     21  H   UNL     1      54.217  61.560  10.739  1.00  0.00     0.293 HD
ENDBRANCH  17  20
ENDBRANCH   1  12
BRANCH   2  22
ATOM     22  O   UNL     1      49.829  57.934   8.532  1.00  0.00    -0.502 OA
ATOM     23  H   UNL     1      50.331  57.056   8.476  1.00  0.00     0.293 HD
ENDBRANCH   2  22
BRANCH   6  24
ATOM     24  O   UNL     1      45.634  58.228   5.263  1.00  0.00    -0.507 OA
ATOM     25  H   UNL     1      45.587  57.326   4.814  1.00  0.00     0.293 HD
ENDBRANCH   6  24
BRANCH   8  26
ATOM     26  O   UNL     1      46.962  61.941   2.523  1.00  0.00    -0.508 OA
ATOM     27  H   UNL     1      46.395  62.768   2.675  1.00  0.00     0.293 HD
ENDBRANCH   8  26
TORSDOF 6
ENDMDL
MODEL 9
REMARK VINA RESULT:    -7.371      2.486      6.734
REMARK INTER + INTRA:          -9.024
REMARK INTER:                  -8.893
REMARK INTRA:                  -0.131
REMARK UNBOUND:                -0.145
REMARK SMILES O=c1c(O)c(-c2ccc(O)c(O)c2)oc2cc(O)cc(O)c12
REMARK SMILES IDX 5 1 3 2 2 3 1 4 22 5 20 6 19 7 17 8 16 9 15 10 14 11 6 12
REMARK SMILES IDX 7 13 8 14 9 15 13 16 11 17 10 18 12 20 4 22 21 24 18 26
REMARK H PARENT 10 19 12 21 4 23 21 25 18 27
REMARK Flexibility Score: inf
ROOT
ATOM      1  C   UNL     1      51.264  60.084   6.894  1.00  0.00     0.180 A 
ATOM      2  C   UNL     1      51.843  60.889   7.889  1.00  0.00     0.208 A 
ATOM      3  C   UNL     1      53.132  60.580   8.351  1.00  0.00     0.238 A 
ATOM      4  O   UNL     1      53.624  61.271   9.281  1.00  0.00    -0.285 OA
ATOM      5  C   UNL     1      53.833  59.480   7.799  1.00  0.00     0.111 A 
ATOM      6  C   UNL     1      55.159  59.099   8.163  1.00  0.00     0.134 A 
ATOM      7  C   UNL     1      55.705  57.917   7.648  1.00  0.00     0.093 A 
ATOM      8  C   UNL     1      54.995  57.136   6.732  1.00  0.00     0.123 A 
ATOM      9  C   UNL     1      53.722  57.531   6.326  1.00  0.00     0.094 A 
ATOM     10  C   UNL     1      53.139  58.686   6.850  1.00  0.00     0.146 A 
ATOM     11  O   UNL     1      51.919  59.021   6.444  1.00  0.00    -0.452 OA
ENDROOT
BRANCH   1  12
ATOM     12  C   UNL     1      49.919  60.363   6.339  1.00  0.00     0.025 A 
ATOM     13  C   UNL     1      48.856  59.460   6.510  1.00  0.00     0.016 A 
ATOM     14  C   UNL     1      47.590  59.755   5.999  1.00  0.00     0.051 A 
ATOM     15  C   UNL     1      47.363  60.961   5.323  1.00  0.00     0.157 A 
ATOM     16  C   UNL     1      49.682  61.579   5.678  1.00  0.00     0.062 A 
ATOM     17  C   UNL     1      48.415  61.879   5.165  1.00  0.00     0.158 A 
BRANCH  15  18
ATOM     18  O   UNL     1      46.099  61.252   4.812  1.00  0.00    -0.504 OA
ATOM     19  H   UNL     1      45.282  60.714   5.078  1.00  0.00     0.293 HD
ENDBRANCH  15  18
BRANCH  17  20
ATOM     20  O   UNL     1      48.221  63.090   4.503  1.00  0.00    -0.504 OA
ATOM     21  H   UNL     1      48.887  63.447   3.827  1.00  0.00     0.293 HD
ENDBRANCH  17  20
ENDBRANCH   1  12
BRANCH   2  22
ATOM     22  O   UNL     1      51.125  61.957   8.437  1.00  0.00    -0.502 OA
ATOM     23  H   UNL     1      50.549  62.571   7.873  1.00  0.00     0.293 HD
ENDBRANCH   2  22
BRANCH   6  24
ATOM     24  O   UNL     1      55.987  59.856   8.997  1.00  0.00    -0.507 OA
ATOM     25  H   UNL     1      56.610  59.472   9.691  1.00  0.00     0.293 HD
ENDBRANCH   6  24
BRANCH   8  26
ATOM     26  O   UNL     1      55.551  55.968   6.212  1.00  0.00    -0.508 OA
ATOM     27  H   UNL     1      55.502  55.753   5.223  1.00  0.00     0.293 HD
ENDBRANCH   8  26
TORSDOF 6
ENDMDL
