MODEL 1
REMARK VINA RESULT:    -2.728      0.000      0.000
REMARK INTER + INTRA:          -5.392
REMARK INTER:                  -4.163
REMARK INTRA:                  -1.229
REMARK UNBOUND:                -1.229
REMARK SMILES CCCCCCCCCCC(=O)[O-]
REMARK SMILES IDX 7 1 8 2 9 3 10 4 11 5 12 6 13 7 6 8 5 9 4 10 3 11 2 12 1 13
REMARK H PARENT
REMARK Flexibility Score: inf
ROOT
ATOM      1  C   UNL     1       2.553   8.201   4.091  1.00  0.00     0.000 C 
ENDROOT
BRANCH   1   2
ATOM      2  C   UNL     1       2.647   8.027   2.571  1.00  0.00     0.000 C 
BRANCH   2   3
ATOM      3  C   UNL     1       3.263   6.666   2.210  1.00  0.00     0.006 C 
BRANCH   3   4
ATOM      4  C   UNL     1       3.695   5.877   3.453  1.00  0.00     0.053 C 
BRANCH   4   5
ATOM      5  C   UNL     1       5.156   5.548   3.423  1.00  0.00     0.041 C 
ATOM      6  O   UNL     1       5.989   6.310   3.981  1.00  0.00    -0.550 OA
ATOM      7  O   UNL     1       5.595   4.382   2.807  1.00  0.00    -0.550 OA
ENDBRANCH   4   5
ENDBRANCH   3   4
ENDBRANCH   2   3
ENDBRANCH   1   2
BRANCH   1   8
ATOM      8  C   UNL     1       1.093   8.377   4.533  1.00  0.00     0.000 C 
BRANCH   8   9
ATOM      9  C   UNL     1       0.107   8.384   3.352  1.00  0.00    -0.000 C 
BRANCH   9  10
ATOM     10  C   UNL     1      -0.952   7.263   3.376  1.00  0.00    -0.000 C 
BRANCH  10  11
ATOM     11  C   UNL     1      -0.515   5.938   2.725  1.00  0.00    -0.000 C 
BRANCH  11  12
ATOM     12  C   UNL     1      -0.677   4.732   3.662  1.00  0.00    -0.003 C 
ATOM     13  C   UNL     1       0.420   4.709   4.723  1.00  0.00     0.004 C 
ENDBRANCH  11  12
ENDBRANCH  10  11
ENDBRANCH   9  10
ENDBRANCH   8   9
ENDBRANCH   1   8
TORSDOF 9
ENDMDL
MODEL 2
REMARK VINA RESULT:    -2.391      2.694      4.876
REMARK INTER + INTRA:          -4.879
REMARK INTER:                  -4.189
REMARK INTRA:                  -0.690
REMARK UNBOUND:                -1.229
REMARK SMILES CCCCCCCCCCC(=O)[O-]
REMARK SMILES IDX 7 1 8 2 9 3 10 4 11 5 12 6 13 7 6 8 5 9 4 10 3 11 2 12 1 13
REMARK H PARENT
REMARK Flexibility Score: inf
ROOT
ATOM      1  C   UNL     1       1.443   8.512   5.077  1.00  0.00     0.000 C 
ENDROOT
BRANCH   1   2
ATOM      2  C   UNL     1       0.563   8.364   3.830  1.00  0.00     0.000 C 
BRANCH   2   3
ATOM      3  C   UNL     1       0.695   6.957   3.229  1.00  0.00     0.006 C 
BRANCH   3   4
ATOM      4  C   UNL     1      -0.517   6.072   3.550  1.00  0.00     0.053 C 
BRANCH   4   5
ATOM      5  C   UNL     1      -0.138   4.897   4.399  1.00  0.00     0.041 C 
ATOM      6  O   UNL     1       1.075   4.637   4.615  1.00  0.00    -0.550 OA
ATOM      7  O   UNL     1      -1.125   4.110   4.979  1.00  0.00    -0.550 OA
ENDBRANCH   4   5
ENDBRANCH   3   4
ENDBRANCH   2   3
ENDBRANCH   1   2
BRANCH   1   8
ATOM      8  C   UNL     1       2.452   9.657   4.904  1.00  0.00     0.000 C 
BRANCH   8   9
ATOM      9  C   UNL     1       3.621   9.288   3.972  1.00  0.00    -0.000 C 
BRANCH   9  10
ATOM     10  C   UNL     1       4.545   8.168   4.493  1.00  0.00    -0.000 C 
BRANCH  10  11
ATOM     11  C   UNL     1       4.469   6.843   3.712  1.00  0.00    -0.000 C 
BRANCH  11  12
ATOM     12  C   UNL     1       5.802   6.083   3.698  1.00  0.00    -0.003 C 
ATOM     13  C   UNL     1       6.794   6.729   2.735  1.00  0.00     0.004 C 
ENDBRANCH  11  12
ENDBRANCH  10  11
ENDBRANCH   9  10
ENDBRANCH   8   9
ENDBRANCH   1   8
TORSDOF 9
ENDMDL
MODEL 3
REMARK VINA RESULT:    -2.289      1.208      3.204
REMARK INTER + INTRA:          -4.722
REMARK INTER:                  -3.390
REMARK INTRA:                  -1.333
REMARK UNBOUND:                -1.229
REMARK SMILES CCCCCCCCCCC(=O)[O-]
REMARK SMILES IDX 7 1 8 2 9 3 10 4 11 5 12 6 13 7 6 8 5 9 4 10 3 11 2 12 1 13
REMARK H PARENT
REMARK Flexibility Score: inf
ROOT
ATOM      1  C   UNL     1       1.034   6.021   3.074  1.00  0.00     0.000 C 
ENDROOT
BRANCH   1   2
ATOM      2  C   UNL     1       1.763   6.755   1.943  1.00  0.00     0.000 C 
BRANCH   2   3
ATOM      3  C   UNL     1       3.273   6.479   1.992  1.00  0.00     0.006 C 
BRANCH   3   4
ATOM      4  C   UNL     1       3.731   5.998   3.375  1.00  0.00     0.053 C 
BRANCH   4   5
ATOM      5  C   UNL     1       5.184   5.632   3.383  1.00  0.00     0.041 C 
ATOM      6  O   UNL     1       6.007   6.318   4.045  1.00  0.00    -0.550 OA
ATOM      7  O   UNL     1       5.624   4.513   2.686  1.00  0.00    -0.550 OA
ENDBRANCH   4   5
ENDBRANCH   3   4
ENDBRANCH   2   3
ENDBRANCH   1   2
BRANCH   1   8
ATOM      8  C   UNL     1       0.018   6.944   3.763  1.00  0.00     0.000 C 
BRANCH   8   9
ATOM      9  C   UNL     1       0.473   8.414   3.795  1.00  0.00    -0.000 C 
BRANCH   9  10
ATOM     10  C   UNL     1       1.116   8.872   5.121  1.00  0.00    -0.000 C 
BRANCH  10  11
ATOM     11  C   UNL     1       2.636   9.110   5.062  1.00  0.00    -0.000 C 
BRANCH  11  12
ATOM     12  C   UNL     1       3.080   9.805   3.768  1.00  0.00    -0.003 C 
ATOM     13  C   UNL     1       4.581   9.644   3.544  1.00  0.00     0.004 C 
ENDBRANCH  11  12
ENDBRANCH  10  11
ENDBRANCH   9  10
ENDBRANCH   8   9
ENDBRANCH   1   8
TORSDOF 9
ENDMDL
MODEL 4
REMARK VINA RESULT:    -2.260      1.281      1.728
REMARK INTER + INTRA:          -4.678
REMARK INTER:                  -3.958
REMARK INTRA:                  -0.720
REMARK UNBOUND:                -1.229
REMARK SMILES CCCCCCCCCCC(=O)[O-]
REMARK SMILES IDX 7 1 8 2 9 3 10 4 11 5 12 6 13 7 6 8 5 9 4 10 3 11 2 12 1 13
REMARK H PARENT
REMARK Flexibility Score: inf
ROOT
ATOM      1  C   UNL     1       3.708   8.620   4.506  1.00  0.00     0.000 C 
ENDROOT
BRANCH   1   2
ATOM      2  C   UNL     1       3.994   8.269   3.041  1.00  0.00     0.000 C 
BRANCH   2   3
ATOM      3  C   UNL     1       5.485   7.968   2.828  1.00  0.00     0.006 C 
BRANCH   3   4
ATOM      4  C   UNL     1       5.970   6.796   3.691  1.00  0.00     0.053 C 
BRANCH   4   5
ATOM      5  C   UNL     1       5.514   5.477   3.145  1.00  0.00     0.041 C 
ATOM      6  O   UNL     1       6.167   4.911   2.230  1.00  0.00    -0.550 OA
ATOM      7  O   UNL     1       4.386   4.860   3.670  1.00  0.00    -0.550 OA
ENDBRANCH   4   5
ENDBRANCH   3   4
ENDBRANCH   2   3
ENDBRANCH   1   2
BRANCH   1   8
ATOM      8  C   UNL     1       2.392   9.400   4.636  1.00  0.00     0.000 C 
BRANCH   8   9
ATOM      9  C   UNL     1       1.185   8.492   4.932  1.00  0.00    -0.000 C 
BRANCH   9  10
ATOM     10  C   UNL     1       0.217   8.284   3.749  1.00  0.00    -0.000 C 
BRANCH  10  11
ATOM     11  C   UNL     1      -0.067   6.815   3.388  1.00  0.00    -0.000 C 
BRANCH  11  12
ATOM     12  C   UNL     1       0.821   5.829   4.162  1.00  0.00    -0.003 C 
ATOM     13  C   UNL     1       0.036   4.586   4.569  1.00  0.00     0.004 C 
ENDBRANCH  11  12
ENDBRANCH  10  11
ENDBRANCH   9  10
ENDBRANCH   8   9
ENDBRANCH   1   8
TORSDOF 9
ENDMDL
MODEL 5
REMARK VINA RESULT:    -2.115      1.295      2.787
REMARK INTER + INTRA:          -4.456
REMARK INTER:                  -3.355
REMARK INTRA:                  -1.102
REMARK UNBOUND:                -1.229
REMARK SMILES CCCCCCCCCCC(=O)[O-]
REMARK SMILES IDX 7 1 8 2 9 3 10 4 11 5 12 6 13 7 6 8 5 9 4 10 3 11 2 12 1 13
REMARK H PARENT
REMARK Flexibility Score: inf
ROOT
ATOM      1  C   UNL     1       1.126   6.571   1.875  1.00  0.00     0.000 C 
ENDROOT
BRANCH   1   2
ATOM      2  C   UNL     1       2.629   6.834   2.024  1.00  0.00     0.000 C 
BRANCH   2   3
ATOM      3  C   UNL     1       3.145   6.329   3.380  1.00  0.00     0.006 C 
BRANCH   3   4
ATOM      4  C   UNL     1       4.489   6.961   3.763  1.00  0.00     0.053 C 
BRANCH   4   5
ATOM      5  C   UNL     1       5.646   6.121   3.315  1.00  0.00     0.041 C 
ATOM      6  O   UNL     1       5.578   4.865   3.377  1.00  0.00    -0.550 OA
ATOM      7  O   UNL     1       6.786   6.724   2.800  1.00  0.00    -0.550 OA
ENDBRANCH   4   5
ENDBRANCH   3   4
ENDBRANCH   2   3
ENDBRANCH   1   2
BRANCH   1   8
ATOM      8  C   UNL     1       0.513   6.125   3.211  1.00  0.00     0.000 C 
BRANCH   8   9
ATOM      9  C   UNL     1      -0.754   6.918   3.581  1.00  0.00    -0.000 C 
BRANCH   9  10
ATOM     10  C   UNL     1      -0.701   8.425   3.257  1.00  0.00    -0.000 C 
BRANCH  10  11
ATOM     11  C   UNL     1      -0.467   9.345   4.469  1.00  0.00    -0.000 C 
BRANCH  11  12
ATOM     12  C   UNL     1       0.996   9.790   4.606  1.00  0.00    -0.003 C 
ATOM     13  C   UNL     1       1.727   8.961   5.659  1.00  0.00     0.004 C 
ENDBRANCH  11  12
ENDBRANCH  10  11
ENDBRANCH   9  10
ENDBRANCH   8   9
ENDBRANCH   1   8
TORSDOF 9
ENDMDL
MODEL 6
REMARK VINA RESULT:    -2.091      2.890      4.820
REMARK INTER + INTRA:          -4.420
REMARK INTER:                  -3.238
REMARK INTRA:                  -1.183
REMARK UNBOUND:                -1.229
REMARK SMILES CCCCCCCCCCC(=O)[O-]
REMARK SMILES IDX 7 1 8 2 9 3 10 4 11 5 12 6 13 7 6 8 5 9 4 10 3 11 2 12 1 13
REMARK H PARENT
REMARK Flexibility Score: inf
ROOT
ATOM      1  C   UNL     1       3.572   6.461   3.680  1.00  0.00     0.000 C 
ENDROOT
BRANCH   1   2
ATOM      2  C   UNL     1       2.771   6.488   2.372  1.00  0.00     0.000 C 
BRANCH   2   3
ATOM      3  C   UNL     1       1.335   6.975   2.618  1.00  0.00     0.006 C 
BRANCH   3   4
ATOM      4  C   UNL     1       0.799   6.537   3.987  1.00  0.00     0.053 C 
BRANCH   4   5
ATOM      5  C   UNL     1       0.065   5.233   3.906  1.00  0.00     0.041 C 
ATOM      6  O   UNL     1       0.110   4.420   4.867  1.00  0.00    -0.550 OA
ATOM      7  O   UNL     1      -0.695   4.931   2.783  1.00  0.00    -0.550 OA
ENDBRANCH   4   5
ENDBRANCH   3   4
ENDBRANCH   2   3
ENDBRANCH   1   2
BRANCH   1   8
ATOM      8  C   UNL     1       4.857   7.291   3.553  1.00  0.00     0.000 C 
BRANCH   8   9
ATOM      9  C   UNL     1       4.761   8.380   2.469  1.00  0.00    -0.000 C 
BRANCH   9  10
ATOM     10  C   UNL     1       4.488   9.804   2.995  1.00  0.00    -0.000 C 
BRANCH  10  11
ATOM     11  C   UNL     1       3.983   9.879   4.447  1.00  0.00    -0.000 C 
BRANCH  11  12
ATOM     12  C   UNL     1       2.453   9.972   4.541  1.00  0.00    -0.003 C 
ATOM     13  C   UNL     1       1.947   9.395   5.860  1.00  0.00     0.004 C 
ENDBRANCH  11  12
ENDBRANCH  10  11
ENDBRANCH   9  10
ENDBRANCH   8   9
ENDBRANCH   1   8
TORSDOF 9
ENDMDL
MODEL 7
REMARK VINA RESULT:    -2.054      2.740      4.877
REMARK INTER + INTRA:          -4.363
REMARK INTER:                  -3.631
REMARK INTRA:                  -0.732
REMARK UNBOUND:                -1.229
REMARK SMILES CCCCCCCCCCC(=O)[O-]
REMARK SMILES IDX 7 1 8 2 9 3 10 4 11 5 12 6 13 7 6 8 5 9 4 10 3 11 2 12 1 13
REMARK H PARENT
REMARK Flexibility Score: inf
ROOT
ATOM      1  C   UNL     1       2.399   8.596   4.891  1.00  0.00     0.000 C 
ENDROOT
BRANCH   1   2
ATOM      2  C   UNL     1       0.875   8.665   4.735  1.00  0.00     0.000 C 
BRANCH   2   3
ATOM      3  C   UNL     1       0.406   7.827   3.536  1.00  0.00     0.006 C 
BRANCH   3   4
ATOM      4  C   UNL     1       1.128   6.476   3.454  1.00  0.00     0.053 C 
BRANCH   4   5
ATOM      5  C   UNL     1       0.242   5.346   3.883  1.00  0.00     0.041 C 
ATOM      6  O   UNL     1      -0.687   4.949   3.131  1.00  0.00    -0.550 OA
ATOM      7  O   UNL     1       0.464   4.710   5.097  1.00  0.00    -0.550 OA
ENDBRANCH   4   5
ENDBRANCH   3   4
ENDBRANCH   2   3
ENDBRANCH   1   2
BRANCH   1   8
ATOM      8  C   UNL     1       3.076   9.787   4.197  1.00  0.00     0.000 C 
BRANCH   8   9
ATOM      9  C   UNL     1       4.351   9.387   3.433  1.00  0.00    -0.000 C 
BRANCH   9  10
ATOM     10  C   UNL     1       4.683   7.881   3.455  1.00  0.00    -0.000 C 
BRANCH  10  11
ATOM     11  C   UNL     1       6.092   7.515   2.954  1.00  0.00    -0.000 C 
BRANCH  11  12
ATOM     12  C   UNL     1       6.245   6.019   2.645  1.00  0.00    -0.003 C 
ATOM     13  C   UNL     1       5.185   5.196   3.372  1.00  0.00     0.004 C 
ENDBRANCH  11  12
ENDBRANCH  10  11
ENDBRANCH   9  10
ENDBRANCH   8   9
ENDBRANCH   1   8
TORSDOF 9
ENDMDL
MODEL 8
REMARK VINA RESULT:    -1.920      2.218      3.743
REMARK INTER + INTRA:          -4.160
REMARK INTER:                  -3.248
REMARK INTRA:                  -0.912
REMARK UNBOUND:                -1.229
REMARK SMILES CCCCCCCCCCC(=O)[O-]
REMARK SMILES IDX 7 1 8 2 9 3 10 4 11 5 12 6 13 7 6 8 5 9 4 10 3 11 2 12 1 13
REMARK H PARENT
REMARK Flexibility Score: inf
ROOT
ATOM      1  C   UNL     1       3.758   6.025   2.053  1.00  0.00     0.000 C 
ENDROOT
BRANCH   1   2
ATOM      2  C   UNL     1       4.508   5.864   3.381  1.00  0.00     0.000 C 
BRANCH   2   3
ATOM      3  C   UNL     1       5.673   6.860   3.480  1.00  0.00     0.006 C 
BRANCH   3   4
ATOM      4  C   UNL     1       6.770   6.575   2.445  1.00  0.00     0.053 C 
BRANCH   4   5
ATOM      5  C   UNL     1       7.637   7.775   2.210  1.00  0.00     0.041 C 
ATOM      6  O   UNL     1       7.135   8.929   2.210  1.00  0.00    -0.550 OA
ATOM      7  O   UNL     1       9.004   7.619   2.023  1.00  0.00    -0.550 OA
ENDBRANCH   4   5
ENDBRANCH   3   4
ENDBRANCH   2   3
ENDBRANCH   1   2
BRANCH   1   8
ATOM      8  C   UNL     1       2.435   6.776   2.258  1.00  0.00     0.000 C 
BRANCH   8   9
ATOM      9  C   UNL     1       1.643   6.272   3.478  1.00  0.00    -0.000 C 
BRANCH   9  10
ATOM     10  C   UNL     1       0.742   7.325   4.154  1.00  0.00    -0.000 C 
BRANCH  10  11
ATOM     11  C   UNL     1       1.262   8.772   4.084  1.00  0.00    -0.000 C 
BRANCH  11  12
ATOM     12  C   UNL     1       2.354   9.064   5.123  1.00  0.00    -0.003 C 
ATOM     13  C   UNL     1       3.577   9.703   4.471  1.00  0.00     0.004 C 
ENDBRANCH  11  12
ENDBRANCH  10  11
ENDBRANCH   9  10
ENDBRANCH   8   9
ENDBRANCH   1   8
TORSDOF 9
ENDMDL
