MODEL 1
REMARK VINA RESULT:    -4.519      0.000      0.000
REMARK INTER + INTRA:         -10.513
REMARK INTER:                  -8.482
REMARK INTRA:                  -2.031
REMARK UNBOUND:                -2.031
REMARK SMILES O=C([O-])CCCCCCCCCCCCCCC(=O)[O-]
REMARK SMILES IDX 10 1 9 2 8 3 7 4 6 5 5 6 4 7 2 8 1 9 3 10 11 11 12 12 13 13
REMARK SMILES IDX 14 14 15 15 16 16 17 17 18 18 19 19 20 20
REMARK H PARENT
REMARK Flexibility Score: inf
ROOT
ATOM      1  C   UNL     1      56.139  39.343  49.284  1.00  0.00     0.000 C 
ENDROOT
BRANCH   1   2
ATOM      2  C   UNL     1      55.225  38.443  50.133  1.00  0.00     0.000 C 
BRANCH   2   3
ATOM      3  C   UNL     1      54.495  39.224  51.240  1.00  0.00     0.000 C 
BRANCH   3   4
ATOM      4  C   UNL     1      52.965  39.102  51.142  1.00  0.00     0.000 C 
BRANCH   4   5
ATOM      5  C   UNL     1      52.278  40.189  50.293  1.00  0.00     0.000 C 
BRANCH   5   6
ATOM      6  C   UNL     1      52.569  41.631  50.771  1.00  0.00     0.006 C 
BRANCH   6   7
ATOM      7  C   UNL     1      52.120  41.901  52.216  1.00  0.00     0.053 C 
BRANCH   7   8
ATOM      8  C   UNL     1      53.277  42.268  53.095  1.00  0.00     0.041 C 
ATOM      9  O   UNL     1      53.492  41.632  54.161  1.00  0.00    -0.550 OA
ATOM     10  O   UNL     1      54.105  43.329  52.749  1.00  0.00    -0.550 OA
ENDBRANCH   7   8
ENDBRANCH   6   7
ENDBRANCH   5   6
ENDBRANCH   4   5
ENDBRANCH   3   4
ENDBRANCH   2   3
ENDBRANCH   1   2
BRANCH   1  11
ATOM     11  C   UNL     1      55.358  40.143  48.226  1.00  0.00     0.000 C 
BRANCH  11  12
ATOM     12  C   UNL     1      54.439  39.255  47.372  1.00  0.00     0.000 C 
BRANCH  12  13
ATOM     13  C   UNL     1      53.337  40.057  46.657  1.00  0.00     0.000 C 
BRANCH  13  14
ATOM     14  C   UNL     1      53.341  41.543  47.052  1.00  0.00     0.000 C 
BRANCH  14  15
ATOM     15  C   UNL     1      51.925  42.130  47.167  1.00  0.00     0.000 C 
BRANCH  15  16
ATOM     16  C   UNL     1      51.814  43.452  46.399  1.00  0.00     0.006 C 
BRANCH  16  17
ATOM     17  C   UNL     1      53.093  44.282  46.547  1.00  0.00     0.053 C 
BRANCH  17  18
ATOM     18  C   UNL     1      52.961  45.255  47.676  1.00  0.00     0.041 C 
ATOM     19  O   UNL     1      53.316  44.926  48.839  1.00  0.00    -0.550 OA
ATOM     20  O   UNL     1      52.404  46.507  47.454  1.00  0.00    -0.550 OA
ENDBRANCH  17  18
ENDBRANCH  16  17
ENDBRANCH  15  16
ENDBRANCH  14  15
ENDBRANCH  13  14
ENDBRANCH  12  13
ENDBRANCH  11  12
ENDBRANCH   1  11
TORSDOF 15
ENDMDL
MODEL 2
REMARK VINA RESULT:    -4.470      1.309      4.836
REMARK INTER + INTRA:         -10.421
REMARK INTER:                  -8.451
REMARK INTRA:                  -1.970
REMARK UNBOUND:                -2.031
REMARK SMILES O=C([O-])CCCCCCCCCCCCCCC(=O)[O-]
REMARK SMILES IDX 10 1 9 2 8 3 7 4 6 5 5 6 4 7 2 8 1 9 3 10 11 11 12 12 13 13
REMARK SMILES IDX 14 14 15 15 16 16 17 17 18 18 19 19 20 20
REMARK H PARENT
REMARK Flexibility Score: inf
ROOT
ATOM      1  C   UNL     1      54.427  39.060  47.472  1.00  0.00     0.000 C 
ENDROOT
BRANCH   1   2
ATOM      2  C   UNL     1      53.479  40.109  46.867  1.00  0.00     0.000 C 
BRANCH   2   3
ATOM      3  C   UNL     1      52.304  40.448  47.801  1.00  0.00     0.000 C 
BRANCH   3   4
ATOM      4  C   UNL     1      52.151  41.961  48.038  1.00  0.00     0.000 C 
BRANCH   4   5
ATOM      5  C   UNL     1      52.273  42.832  46.773  1.00  0.00     0.000 C 
BRANCH   5   6
ATOM      6  C   UNL     1      52.328  44.350  47.065  1.00  0.00     0.006 C 
BRANCH   6   7
ATOM      7  C   UNL     1      53.116  44.703  48.337  1.00  0.00     0.053 C 
BRANCH   7   8
ATOM      8  C   UNL     1      54.594  44.708  48.089  1.00  0.00     0.041 C 
ATOM      9  O   UNL     1      55.358  43.993  48.789  1.00  0.00    -0.550 OA
ATOM     10  O   UNL     1      55.131  45.523  47.099  1.00  0.00    -0.550 OA
ENDBRANCH   7   8
ENDBRANCH   6   7
ENDBRANCH   5   6
ENDBRANCH   4   5
ENDBRANCH   3   4
ENDBRANCH   2   3
ENDBRANCH   1   2
BRANCH   1  11
ATOM     11  C   UNL     1      55.001  39.502  48.830  1.00  0.00     0.000 C 
BRANCH  11  12
ATOM     12  C   UNL     1      54.844  38.426  49.918  1.00  0.00     0.000 C 
BRANCH  12  13
ATOM     13  C   UNL     1      53.623  38.671  50.822  1.00  0.00     0.000 C 
BRANCH  13  14
ATOM     14  C   UNL     1      53.586  40.101  51.385  1.00  0.00     0.000 C 
BRANCH  14  15
ATOM     15  C   UNL     1      52.155  40.632  51.560  1.00  0.00     0.000 C 
BRANCH  15  16
ATOM     16  C   UNL     1      52.164  42.097  52.015  1.00  0.00     0.006 C 
BRANCH  16  17
ATOM     17  C   UNL     1      53.404  42.827  51.488  1.00  0.00     0.053 C 
BRANCH  17  18
ATOM     18  C   UNL     1      54.260  43.294  52.622  1.00  0.00     0.041 C 
ATOM     19  O   UNL     1      55.160  44.152  52.423  1.00  0.00    -0.550 OA
ATOM     20  O   UNL     1      54.095  42.749  53.889  1.00  0.00    -0.550 OA
ENDBRANCH  17  18
ENDBRANCH  16  17
ENDBRANCH  15  16
ENDBRANCH  14  15
ENDBRANCH  13  14
ENDBRANCH  12  13
ENDBRANCH  11  12
ENDBRANCH   1  11
TORSDOF 15
ENDMDL
MODEL 3
REMARK VINA RESULT:    -4.428      2.314      5.414
REMARK INTER + INTRA:         -10.343
REMARK INTER:                  -8.274
REMARK INTRA:                  -2.068
REMARK UNBOUND:                -2.031
REMARK SMILES O=C([O-])CCCCCCCCCCCCCCC(=O)[O-]
REMARK SMILES IDX 10 1 9 2 8 3 7 4 6 5 5 6 4 7 2 8 1 9 3 10 11 11 12 12 13 13
REMARK SMILES IDX 14 14 15 15 16 16 17 17 18 18 19 19 20 20
REMARK H PARENT
REMARK Flexibility Score: inf
ROOT
ATOM      1  C   UNL     1      51.864  41.863  47.650  1.00  0.00     0.000 C 
ENDROOT
BRANCH   1   2
ATOM      2  C   UNL     1      52.963  42.751  47.043  1.00  0.00     0.000 C 
BRANCH   2   3
ATOM      3  C   UNL     1      52.780  44.238  47.398  1.00  0.00     0.000 C 
BRANCH   3   4
ATOM      4  C   UNL     1      53.284  44.577  48.811  1.00  0.00     0.000 C 
BRANCH   4   5
ATOM      5  C   UNL     1      54.263  43.553  49.416  1.00  0.00     0.000 C 
BRANCH   5   6
ATOM      6  C   UNL     1      53.943  43.173  50.881  1.00  0.00     0.006 C 
BRANCH   6   7
ATOM      7  C   UNL     1      52.444  42.969  51.148  1.00  0.00     0.053 C 
BRANCH   7   8
ATOM      8  C   UNL     1      52.192  41.751  51.986  1.00  0.00     0.041 C 
ATOM      9  O   UNL     1      52.632  41.688  53.164  1.00  0.00    -0.550 OA
ATOM     10  O   UNL     1      51.490  40.675  51.456  1.00  0.00    -0.550 OA
ENDBRANCH   7   8
ENDBRANCH   6   7
ENDBRANCH   5   6
ENDBRANCH   4   5
ENDBRANCH   3   4
ENDBRANCH   2   3
ENDBRANCH   1   2
BRANCH   1  11
ATOM     11  C   UNL     1      52.354  40.430  47.930  1.00  0.00     0.000 C 
BRANCH  11  12
ATOM     12  C   UNL     1      53.257  39.885  46.811  1.00  0.00     0.000 C 
BRANCH  12  13
ATOM     13  C   UNL     1      54.520  39.192  47.352  1.00  0.00     0.000 C 
BRANCH  13  14
ATOM     14  C   UNL     1      54.950  39.741  48.722  1.00  0.00     0.000 C 
BRANCH  14  15
ATOM     15  C   UNL     1      55.149  38.635  49.769  1.00  0.00     0.000 C 
BRANCH  15  16
ATOM     16  C   UNL     1      54.630  39.078  51.143  1.00  0.00     0.006 C 
BRANCH  16  17
ATOM     17  C   UNL     1      55.644  39.986  51.845  1.00  0.00     0.053 C 
BRANCH  17  18
ATOM     18  C   UNL     1      55.933  39.483  53.224  1.00  0.00     0.041 C 
ATOM     19  O   UNL     1      55.283  39.925  54.208  1.00  0.00    -0.550 OA
ATOM     20  O   UNL     1      56.952  38.562  53.430  1.00  0.00    -0.550 OA
ENDBRANCH  17  18
ENDBRANCH  16  17
ENDBRANCH  15  16
ENDBRANCH  14  15
ENDBRANCH  13  14
ENDBRANCH  12  13
ENDBRANCH  11  12
ENDBRANCH   1  11
TORSDOF 15
ENDMDL
MODEL 4
REMARK VINA RESULT:    -4.401      1.845      3.338
REMARK INTER + INTRA:         -10.292
REMARK INTER:                  -7.817
REMARK INTRA:                  -2.475
REMARK UNBOUND:                -2.031
REMARK SMILES O=C([O-])CCCCCCCCCCCCCCC(=O)[O-]
REMARK SMILES IDX 10 1 9 2 8 3 7 4 6 5 5 6 4 7 2 8 1 9 3 10 11 11 12 12 13 13
REMARK SMILES IDX 14 14 15 15 16 16 17 17 18 18 19 19 20 20
REMARK H PARENT
REMARK Flexibility Score: inf
ROOT
ATOM      1  C   UNL     1      53.484  40.123  46.736  1.00  0.00     0.000 C 
ENDROOT
BRANCH   1   2
ATOM      2  C   UNL     1      54.656  39.266  47.244  1.00  0.00     0.000 C 
BRANCH   2   3
ATOM      3  C   UNL     1      55.101  39.664  48.663  1.00  0.00     0.000 C 
BRANCH   3   4
ATOM      4  C   UNL     1      55.081  38.480  49.645  1.00  0.00     0.000 C 
BRANCH   4   5
ATOM      5  C   UNL     1      53.905  38.480  50.641  1.00  0.00     0.000 C 
BRANCH   5   6
ATOM      6  C   UNL     1      53.824  39.757  51.510  1.00  0.00     0.006 C 
BRANCH   6   7
ATOM      7  C   UNL     1      52.423  40.387  51.545  1.00  0.00     0.053 C 
BRANCH   7   8
ATOM      8  C   UNL     1      52.379  41.589  52.441  1.00  0.00     0.041 C 
ATOM      9  O   UNL     1      51.759  42.625  52.084  1.00  0.00    -0.550 OA
ATOM     10  O   UNL     1      53.043  41.571  53.662  1.00  0.00    -0.550 OA
ENDBRANCH   7   8
ENDBRANCH   6   7
ENDBRANCH   5   6
ENDBRANCH   4   5
ENDBRANCH   3   4
ENDBRANCH   2   3
ENDBRANCH   1   2
BRANCH   1  11
ATOM     11  C   UNL     1      52.303  40.149  47.723  1.00  0.00     0.000 C 
BRANCH  11  12
ATOM     12  C   UNL     1      51.861  41.578  48.079  1.00  0.00     0.000 C 
BRANCH  12  13
ATOM     13  C   UNL     1      52.272  42.609  47.013  1.00  0.00     0.000 C 
BRANCH  13  14
ATOM     14  C   UNL     1      52.922  43.860  47.626  1.00  0.00     0.000 C 
BRANCH  14  15
ATOM     15  C   UNL     1      54.436  43.927  47.371  1.00  0.00     0.000 C 
BRANCH  15  16
ATOM     16  C   UNL     1      55.217  43.291  48.528  1.00  0.00     0.006 C 
BRANCH  16  17
ATOM     17  C   UNL     1      54.425  43.375  49.836  1.00  0.00     0.053 C 
BRANCH  17  18
ATOM     18  C   UNL     1      55.345  43.305  51.013  1.00  0.00     0.041 C 
ATOM     19  O   UNL     1      55.353  44.232  51.866  1.00  0.00    -0.550 OA
ATOM     20  O   UNL     1      56.228  42.240  51.145  1.00  0.00    -0.550 OA
ENDBRANCH  17  18
ENDBRANCH  16  17
ENDBRANCH  15  16
ENDBRANCH  14  15
ENDBRANCH  13  14
ENDBRANCH  12  13
ENDBRANCH  11  12
ENDBRANCH   1  11
TORSDOF 15
ENDMDL
MODEL 5
REMARK VINA RESULT:    -4.392      2.487      5.543
REMARK INTER + INTRA:         -10.275
REMARK INTER:                  -8.204
REMARK INTRA:                  -2.071
REMARK UNBOUND:                -2.031
REMARK SMILES O=C([O-])CCCCCCCCCCCCCCC(=O)[O-]
REMARK SMILES IDX 10 1 9 2 8 3 7 4 6 5 5 6 4 7 2 8 1 9 3 10 11 11 12 12 13 13
REMARK SMILES IDX 14 14 15 15 16 16 17 17 18 18 19 19 20 20
REMARK H PARENT
REMARK Flexibility Score: inf
ROOT
ATOM      1  C   UNL     1      51.879  42.665  46.982  1.00  0.00     0.000 C 
ENDROOT
BRANCH   1   2
ATOM      2  C   UNL     1      52.663  41.379  47.294  1.00  0.00     0.000 C 
BRANCH   2   3
ATOM      3  C   UNL     1      51.868  40.409  48.186  1.00  0.00     0.000 C 
BRANCH   3   4
ATOM      4  C   UNL     1      52.701  39.866  49.360  1.00  0.00     0.000 C 
BRANCH   4   5
ATOM      5  C   UNL     1      54.226  39.889  49.143  1.00  0.00     0.000 C 
BRANCH   5   6
ATOM      6  C   UNL     1      54.901  38.508  49.308  1.00  0.00     0.006 C 
BRANCH   6   7
ATOM      7  C   UNL     1      55.473  38.268  50.714  1.00  0.00     0.053 C 
BRANCH   7   8
ATOM      8  C   UNL     1      56.969  38.159  50.691  1.00  0.00     0.041 C 
ATOM      9  O   UNL     1      57.637  38.774  49.819  1.00  0.00    -0.550 OA
ATOM     10  O   UNL     1      57.622  37.358  51.620  1.00  0.00    -0.550 OA
ENDBRANCH   7   8
ENDBRANCH   6   7
ENDBRANCH   5   6
ENDBRANCH   4   5
ENDBRANCH   3   4
ENDBRANCH   2   3
ENDBRANCH   1   2
BRANCH   1  11
ATOM     11  C   UNL     1      52.629  43.934  47.428  1.00  0.00     0.000 C 
BRANCH  11  12
ATOM     12  C   UNL     1      53.905  43.617  48.226  1.00  0.00     0.000 C 
BRANCH  12  13
ATOM     13  C   UNL     1      53.860  44.172  49.661  1.00  0.00     0.000 C 
BRANCH  13  14
ATOM     14  C   UNL     1      53.710  43.063  50.715  1.00  0.00     0.000 C 
BRANCH  14  15
ATOM     15  C   UNL     1      52.330  43.071  51.391  1.00  0.00     0.000 C 
BRANCH  15  16
ATOM     16  C   UNL     1      52.151  41.842  52.291  1.00  0.00     0.006 C 
BRANCH  16  17
ATOM     17  C   UNL     1      53.508  41.284  52.733  1.00  0.00     0.053 C 
BRANCH  17  18
ATOM     18  C   UNL     1      53.892  41.834  54.069  1.00  0.00     0.041 C 
ATOM     19  O   UNL     1      53.686  41.161  55.113  1.00  0.00    -0.550 OA
ATOM     20  O   UNL     1      54.436  43.109  54.167  1.00  0.00    -0.550 OA
ENDBRANCH  17  18
ENDBRANCH  16  17
ENDBRANCH  15  16
ENDBRANCH  14  15
ENDBRANCH  13  14
ENDBRANCH  12  13
ENDBRANCH  11  12
ENDBRANCH   1  11
TORSDOF 15
ENDMDL
MODEL 6
REMARK VINA RESULT:    -4.373      1.451      1.916
REMARK INTER + INTRA:         -10.238
REMARK INTER:                  -8.375
REMARK INTRA:                  -1.863
REMARK UNBOUND:                -2.031
REMARK SMILES O=C([O-])CCCCCCCCCCCCCCC(=O)[O-]
REMARK SMILES IDX 10 1 9 2 8 3 7 4 6 5 5 6 4 7 2 8 1 9 3 10 11 11 12 12 13 13
REMARK SMILES IDX 14 14 15 15 16 16 17 17 18 18 19 19 20 20
REMARK H PARENT
REMARK Flexibility Score: inf
ROOT
ATOM      1  C   UNL     1      55.110  38.777  49.714  1.00  0.00     0.000 C 
ENDROOT
BRANCH   1   2
ATOM      2  C   UNL     1      54.439  39.318  50.988  1.00  0.00     0.000 C 
BRANCH   2   3
ATOM      3  C   UNL     1      52.948  38.945  51.070  1.00  0.00     0.000 C 
BRANCH   3   4
ATOM      4  C   UNL     1      52.029  40.177  51.128  1.00  0.00     0.000 C 
BRANCH   4   5
ATOM      5  C   UNL     1      52.275  41.116  52.325  1.00  0.00     0.000 C 
BRANCH   5   6
ATOM      6  C   UNL     1      52.410  42.606  51.931  1.00  0.00     0.006 C 
BRANCH   6   7
ATOM      7  C   UNL     1      53.846  43.142  52.037  1.00  0.00     0.053 C 
BRANCH   7   8
ATOM      8  C   UNL     1      54.473  43.315  50.686  1.00  0.00     0.041 C 
ATOM      9  O   UNL     1      55.551  42.728  50.406  1.00  0.00    -0.550 OA
ATOM     10  O   UNL     1      53.877  44.146  49.744  1.00  0.00    -0.550 OA
ENDBRANCH   7   8
ENDBRANCH   6   7
ENDBRANCH   5   6
ENDBRANCH   4   5
ENDBRANCH   3   4
ENDBRANCH   2   3
ENDBRANCH   1   2
BRANCH   1  11
ATOM     11  C   UNL     1      55.091  39.797  48.561  1.00  0.00     0.000 C 
BRANCH  11  12
ATOM     12  C   UNL     1      54.511  39.212  47.263  1.00  0.00     0.000 C 
BRANCH  12  13
ATOM     13  C   UNL     1      53.353  40.053  46.699  1.00  0.00     0.000 C 
BRANCH  13  14
ATOM     14  C   UNL     1      52.295  40.386  47.764  1.00  0.00     0.000 C 
BRANCH  14  15
ATOM     15  C   UNL     1      51.917  41.875  47.779  1.00  0.00     0.000 C 
BRANCH  15  16
ATOM     16  C   UNL     1      52.651  42.641  46.671  1.00  0.00     0.006 C 
BRANCH  16  17
ATOM     17  C   UNL     1      51.922  43.943  46.328  1.00  0.00     0.053 C 
BRANCH  17  18
ATOM     18  C   UNL     1      52.806  45.123  46.579  1.00  0.00     0.041 C 
ATOM     19  O   UNL     1      53.991  45.128  46.153  1.00  0.00    -0.550 OA
ATOM     20  O   UNL     1      52.337  46.198  47.324  1.00  0.00    -0.550 OA
ENDBRANCH  17  18
ENDBRANCH  16  17
ENDBRANCH  15  16
ENDBRANCH  14  15
ENDBRANCH  13  14
ENDBRANCH  12  13
ENDBRANCH  11  12
ENDBRANCH   1  11
TORSDOF 15
ENDMDL
MODEL 7
REMARK VINA RESULT:    -4.360      1.465      5.029
REMARK INTER + INTRA:         -10.214
REMARK INTER:                  -7.902
REMARK INTRA:                  -2.312
REMARK UNBOUND:                -2.031
REMARK SMILES O=C([O-])CCCCCCCCCCCCCCC(=O)[O-]
REMARK SMILES IDX 10 1 9 2 8 3 7 4 6 5 5 6 4 7 2 8 1 9 3 10 11 11 12 12 13 13
REMARK SMILES IDX 14 14 15 15 16 16 17 17 18 18 19 19 20 20
REMARK H PARENT
REMARK Flexibility Score: inf
ROOT
ATOM      1  C   UNL     1      55.274  40.538  47.920  1.00  0.00     0.000 C 
ENDROOT
BRANCH   1   2
ATOM      2  C   UNL     1      54.446  39.485  47.164  1.00  0.00     0.000 C 
BRANCH   2   3
ATOM      3  C   UNL     1      53.109  40.048  46.650  1.00  0.00     0.000 C 
BRANCH   3   4
ATOM      4  C   UNL     1      52.309  40.773  47.746  1.00  0.00     0.000 C 
BRANCH   4   5
ATOM      5  C   UNL     1      51.864  42.204  47.389  1.00  0.00     0.000 C 
BRANCH   5   6
ATOM      6  C   UNL     1      52.746  43.308  48.018  1.00  0.00     0.006 C 
BRANCH   6   7
ATOM      7  C   UNL     1      53.010  43.102  49.518  1.00  0.00     0.053 C 
BRANCH   7   8
ATOM      8  C   UNL     1      54.288  43.756  49.950  1.00  0.00     0.041 C 
ATOM      9  O   UNL     1      54.637  44.858  49.451  1.00  0.00    -0.550 OA
ATOM     10  O   UNL     1      55.105  43.135  50.887  1.00  0.00    -0.550 OA
ENDBRANCH   7   8
ENDBRANCH   6   7
ENDBRANCH   5   6
ENDBRANCH   4   5
ENDBRANCH   3   4
ENDBRANCH   2   3
ENDBRANCH   1   2
BRANCH   1  11
ATOM     11  C   UNL     1      55.780  40.022  49.279  1.00  0.00     0.000 C 
BRANCH  11  12
ATOM     12  C   UNL     1      55.377  38.562  49.546  1.00  0.00     0.000 C 
BRANCH  12  13
ATOM     13  C   UNL     1      54.482  38.412  50.789  1.00  0.00     0.000 C 
BRANCH  13  14
ATOM     14  C   UNL     1      53.017  38.782  50.506  1.00  0.00     0.000 C 
BRANCH  14  15
ATOM     15  C   UNL     1      52.521  39.948  51.376  1.00  0.00     0.000 C 
BRANCH  15  16
ATOM     16  C   UNL     1      53.614  40.414  52.346  1.00  0.00     0.006 C 
BRANCH  16  17
ATOM     17  C   UNL     1      53.077  41.480  53.306  1.00  0.00     0.053 C 
BRANCH  17  18
ATOM     18  C   UNL     1      53.945  41.580  54.520  1.00  0.00     0.041 C 
ATOM     19  O   UNL     1      53.618  40.988  55.583  1.00  0.00    -0.550 OA
ATOM     20  O   UNL     1      55.092  42.363  54.493  1.00  0.00    -0.550 OA
ENDBRANCH  17  18
ENDBRANCH  16  17
ENDBRANCH  15  16
ENDBRANCH  14  15
ENDBRANCH  13  14
ENDBRANCH  12  13
ENDBRANCH  11  12
ENDBRANCH   1  11
TORSDOF 15
ENDMDL
MODEL 8
REMARK VINA RESULT:    -4.320      2.319      4.353
REMARK INTER + INTRA:         -10.139
REMARK INTER:                  -7.925
REMARK INTRA:                  -2.214
REMARK UNBOUND:                -2.031
REMARK SMILES O=C([O-])CCCCCCCCCCCCCCC(=O)[O-]
REMARK SMILES IDX 10 1 9 2 8 3 7 4 6 5 5 6 4 7 2 8 1 9 3 10 11 11 12 12 13 13
REMARK SMILES IDX 14 14 15 15 16 16 17 17 18 18 19 19 20 20
REMARK H PARENT
REMARK Flexibility Score: inf
ROOT
ATOM      1  C   UNL     1      52.224  40.373  47.766  1.00  0.00     0.000 C 
ENDROOT
BRANCH   1   2
ATOM      2  C   UNL     1      53.364  40.003  46.802  1.00  0.00     0.000 C 
BRANCH   2   3
ATOM      3  C   UNL     1      54.507  39.248  47.505  1.00  0.00     0.000 C 
BRANCH   3   4
ATOM      4  C   UNL     1      54.731  39.724  48.951  1.00  0.00     0.000 C 
BRANCH   4   5
ATOM      5  C   UNL     1      54.595  38.629  50.025  1.00  0.00     0.000 C 
BRANCH   5   6
ATOM      6  C   UNL     1      55.703  38.671  51.103  1.00  0.00     0.006 C 
BRANCH   6   7
ATOM      7  C   UNL     1      55.414  39.661  52.243  1.00  0.00     0.053 C 
BRANCH   7   8
ATOM      8  C   UNL     1      56.506  40.679  52.382  1.00  0.00     0.041 C 
ATOM      9  O   UNL     1      57.080  41.139  51.360  1.00  0.00    -0.550 OA
ATOM     10  O   UNL     1      56.906  41.102  53.644  1.00  0.00    -0.550 OA
ENDBRANCH   7   8
ENDBRANCH   6   7
ENDBRANCH   5   6
ENDBRANCH   4   5
ENDBRANCH   3   4
ENDBRANCH   2   3
ENDBRANCH   1   2
BRANCH   1  11
ATOM     11  C   UNL     1      51.880  41.873  47.721  1.00  0.00     0.000 C 
BRANCH  11  12
ATOM     12  C   UNL     1      52.675  42.631  46.645  1.00  0.00     0.000 C 
BRANCH  12  13
ATOM     13  C   UNL     1      53.582  43.723  47.237  1.00  0.00     0.000 C 
BRANCH  13  14
ATOM     14  C   UNL     1      53.149  44.144  48.651  1.00  0.00     0.000 C 
BRANCH  14  15
ATOM     15  C   UNL     1      54.301  44.086  49.666  1.00  0.00     0.000 C 
BRANCH  15  16
ATOM     16  C   UNL     1      54.060  42.987  50.709  1.00  0.00     0.006 C 
BRANCH  16  17
ATOM     17  C   UNL     1      52.587  42.942  51.127  1.00  0.00     0.053 C 
BRANCH  17  18
ATOM     18  C   UNL     1      52.283  41.665  51.845  1.00  0.00     0.041 C 
ATOM     19  O   UNL     1      51.756  40.702  51.228  1.00  0.00    -0.550 OA
ATOM     20  O   UNL     1      52.539  41.554  53.206  1.00  0.00    -0.550 OA
ENDBRANCH  17  18
ENDBRANCH  16  17
ENDBRANCH  15  16
ENDBRANCH  14  15
ENDBRANCH  13  14
ENDBRANCH  12  13
ENDBRANCH  11  12
ENDBRANCH   1  11
TORSDOF 15
ENDMDL
MODEL 9
REMARK VINA RESULT:    -4.317      2.781      5.146
REMARK INTER + INTRA:         -10.133
REMARK INTER:                  -7.887
REMARK INTRA:                  -2.246
REMARK UNBOUND:                -2.031
REMARK SMILES O=C([O-])CCCCCCCCCCCCCCC(=O)[O-]
REMARK SMILES IDX 10 1 9 2 8 3 7 4 6 5 5 6 4 7 2 8 1 9 3 10 11 11 12 12 13 13
REMARK SMILES IDX 14 14 15 15 16 16 17 17 18 18 19 19 20 20
REMARK H PARENT
REMARK Flexibility Score: inf
ROOT
ATOM      1  C   UNL     1      51.873  41.355  47.754  1.00  0.00     0.000 C 
ENDROOT
BRANCH   1   2
ATOM      2  C   UNL     1      52.614  40.023  47.958  1.00  0.00     0.000 C 
BRANCH   2   3
ATOM      3  C   UNL     1      54.144  40.186  47.891  1.00  0.00     0.000 C 
BRANCH   3   4
ATOM      4  C   UNL     1      54.895  39.006  48.533  1.00  0.00     0.000 C 
BRANCH   4   5
ATOM      5  C   UNL     1      54.501  38.701  49.991  1.00  0.00     0.000 C 
BRANCH   5   6
ATOM      6  C   UNL     1      55.680  38.795  50.989  1.00  0.00     0.006 C 
BRANCH   6   7
ATOM      7  C   UNL     1      56.904  39.532  50.423  1.00  0.00     0.053 C 
BRANCH   7   8
ATOM      8  C   UNL     1      58.035  38.589  50.138  1.00  0.00     0.041 C 
ATOM      9  O   UNL     1      58.101  37.480  50.731  1.00  0.00    -0.550 OA
ATOM     10  O   UNL     1      59.028  38.947  49.235  1.00  0.00    -0.550 OA
ENDBRANCH   7   8
ENDBRANCH   6   7
ENDBRANCH   5   6
ENDBRANCH   4   5
ENDBRANCH   3   4
ENDBRANCH   2   3
ENDBRANCH   1   2
BRANCH   1  11
ATOM     11  C   UNL     1      52.620  42.303  46.799  1.00  0.00     0.000 C 
BRANCH  11  12
ATOM     12  C   UNL     1      52.218  43.774  46.991  1.00  0.00     0.000 C 
BRANCH  12  13
ATOM     13  C   UNL     1      53.301  44.596  47.712  1.00  0.00     0.000 C 
BRANCH  13  14
ATOM     14  C   UNL     1      53.326  44.334  49.227  1.00  0.00     0.000 C 
BRANCH  14  15
ATOM     15  C   UNL     1      54.542  43.503  49.665  1.00  0.00     0.000 C 
BRANCH  15  16
ATOM     16  C   UNL     1      54.168  42.533  50.792  1.00  0.00     0.006 C 
BRANCH  16  17
ATOM     17  C   UNL     1      52.671  42.611  51.109  1.00  0.00     0.053 C 
BRANCH  17  18
ATOM     18  C   UNL     1      52.226  41.391  51.850  1.00  0.00     0.041 C 
ATOM     19  O   UNL     1      51.505  40.531  51.278  1.00  0.00    -0.550 OA
ATOM     20  O   UNL     1      52.567  41.224  53.186  1.00  0.00    -0.550 OA
ENDBRANCH  17  18
ENDBRANCH  16  17
ENDBRANCH  15  16
ENDBRANCH  14  15
ENDBRANCH  13  14
ENDBRANCH  12  13
ENDBRANCH  11  12
ENDBRANCH   1  11
TORSDOF 15
ENDMDL
