MODEL 1
REMARK VINA RESULT:    -2.389      0.000      0.000
REMARK INTER + INTRA:          -2.389
REMARK INTER:                  -2.389
REMARK INTRA:                   0.000
REMARK UNBOUND:                 0.000
REMARK SMILES CC(=O)[O-]
REMARK SMILES IDX 1 1 2 2 3 3 4 4
REMARK H PARENT
REMARK Flexibility Score: inf
ROOT
ATOM      1  C   UNL     1      26.786  35.515  32.172  1.00  0.00     0.063 C 
ATOM      2  C   UNL     1      26.749  34.597  30.998  1.00  0.00     0.038 C 
ATOM      3  O   UNL     1      27.774  33.941  30.676  1.00  0.00    -0.550 OA
ATOM      4  O   UNL     1      25.568  34.424  30.288  1.00  0.00    -0.550 OA
ENDROOT
TORSDOF 0
ENDMDL
MODEL 2
REMARK VINA RESULT:    -2.375      0.201      1.625
REMARK INTER + INTRA:          -2.375
REMARK INTER:                  -2.375
REMARK INTRA:                   0.000
REMARK UNBOUND:                 0.000
REMARK SMILES CC(=O)[O-]
REMARK SMILES IDX 1 1 2 2 3 3 4 4
REMARK H PARENT
REMARK Flexibility Score: inf
ROOT
ATOM      1  C   UNL     1      26.861  35.588  32.234  1.00  0.00     0.063 C 
ATOM      2  C   UNL     1      26.809  34.636  31.088  1.00  0.00     0.038 C 
ATOM      3  O   UNL     1      25.795  34.600  30.342  1.00  0.00    -0.550 OA
ATOM      4  O   UNL     1      27.900  33.822  30.809  1.00  0.00    -0.550 OA
ENDROOT
TORSDOF 0
ENDMDL
MODEL 3
REMARK VINA RESULT:    -2.352      1.405      1.770
REMARK INTER + INTRA:          -2.352
REMARK INTER:                  -2.352
REMARK INTRA:                   0.000
REMARK UNBOUND:                 0.000
REMARK SMILES CC(=O)[O-]
REMARK SMILES IDX 1 1 2 2 3 3 4 4
REMARK H PARENT
REMARK Flexibility Score: inf
ROOT
ATOM      1  C   UNL     1      25.515  34.342  30.145  1.00  0.00     0.063 C 
ATOM      2  C   UNL     1      26.761  34.539  30.939  1.00  0.00     0.038 C 
ATOM      3  O   UNL     1      27.800  33.885  30.658  1.00  0.00    -0.550 OA
ATOM      4  O   UNL     1      26.795  35.483  31.957  1.00  0.00    -0.550 OA
ENDROOT
TORSDOF 0
ENDMDL
MODEL 4
REMARK VINA RESULT:    -2.304      1.437      2.146
REMARK INTER + INTRA:          -2.304
REMARK INTER:                  -2.304
REMARK INTRA:                   0.000
REMARK UNBOUND:                 0.000
REMARK SMILES CC(=O)[O-]
REMARK SMILES IDX 1 1 2 2 3 3 4 4
REMARK H PARENT
REMARK Flexibility Score: inf
ROOT
ATOM      1  C   UNL     1      25.739  34.339  30.325  1.00  0.00     0.063 C 
ATOM      2  C   UNL     1      26.905  34.607  31.215  1.00  0.00     0.038 C 
ATOM      3  O   UNL     1      26.894  35.600  31.989  1.00  0.00    -0.550 OA
ATOM      4  O   UNL     1      27.985  33.733  31.230  1.00  0.00    -0.550 OA
ENDROOT
TORSDOF 0
ENDMDL
MODEL 5
REMARK VINA RESULT:    -2.086      2.873      3.371
REMARK INTER + INTRA:          -2.086
REMARK INTER:                  -2.086
REMARK INTRA:                   0.000
REMARK UNBOUND:                 0.000
REMARK SMILES CC(=O)[O-]
REMARK SMILES IDX 1 1 2 2 3 3 4 4
REMARK H PARENT
REMARK Flexibility Score: inf
ROOT
ATOM      1  C   UNL     1      26.894  35.894  32.645  1.00  0.00     0.063 C 
ATOM      2  C   UNL     1      27.050  34.881  33.727  1.00  0.00     0.038 C 
ATOM      3  O   UNL     1      26.160  34.758  34.610  1.00  0.00    -0.550 OA
ATOM      4  O   UNL     1      28.150  34.034  33.735  1.00  0.00    -0.550 OA
ENDROOT
TORSDOF 0
ENDMDL
MODEL 6
REMARK VINA RESULT:    -2.000      2.401      2.873
REMARK INTER + INTRA:          -2.000
REMARK INTER:                  -2.000
REMARK INTRA:                   0.000
REMARK UNBOUND:                 0.000
REMARK SMILES CC(=O)[O-]
REMARK SMILES IDX 1 1 2 2 3 3 4 4
REMARK H PARENT
REMARK Flexibility Score: inf
ROOT
ATOM      1  C   UNL     1      27.553  34.489  31.379  1.00  0.00     0.063 C 
ATOM      2  C   UNL     1      27.292  35.205  32.660  1.00  0.00     0.038 C 
ATOM      3  O   UNL     1      26.833  36.378  32.647  1.00  0.00    -0.550 OA
ATOM      4  O   UNL     1      27.504  34.562  33.873  1.00  0.00    -0.550 OA
ENDROOT
TORSDOF 0
ENDMDL
MODEL 7
REMARK VINA RESULT:    -1.962      2.239      2.776
REMARK INTER + INTRA:          -1.962
REMARK INTER:                  -1.962
REMARK INTRA:                   0.000
REMARK UNBOUND:                 0.000
REMARK SMILES CC(=O)[O-]
REMARK SMILES IDX 1 1 2 2 3 3 4 4
REMARK H PARENT
REMARK Flexibility Score: inf
ROOT
ATOM      1  C   UNL     1      26.665  34.578  34.102  1.00  0.00     0.063 C 
ATOM      2  C   UNL     1      27.176  35.345  32.930  1.00  0.00     0.038 C 
ATOM      3  O   UNL     1      26.789  36.526  32.731  1.00  0.00    -0.550 OA
ATOM      4  O   UNL     1      28.119  34.775  32.084  1.00  0.00    -0.550 OA
ENDROOT
TORSDOF 0
ENDMDL
MODEL 8
REMARK VINA RESULT:    -1.806      4.077      4.395
REMARK INTER + INTRA:          -1.806
REMARK INTER:                  -1.806
REMARK INTRA:                   0.000
REMARK UNBOUND:                 0.000
REMARK SMILES CC(=O)[O-]
REMARK SMILES IDX 1 1 2 2 3 3 4 4
REMARK H PARENT
REMARK Flexibility Score: inf
ROOT
ATOM      1  C   UNL     1      26.725  34.877  33.932  1.00  0.00     0.063 C 
ATOM      2  C   UNL     1      25.982  34.054  34.929  1.00  0.00     0.038 C 
ATOM      3  O   UNL     1      25.242  34.612  35.782  1.00  0.00    -0.550 OA
ATOM      4  O   UNL     1      26.062  32.669  34.886  1.00  0.00    -0.550 OA
ENDROOT
TORSDOF 0
ENDMDL
MODEL 9
REMARK VINA RESULT:    -1.759      3.351      3.584
REMARK INTER + INTRA:          -1.759
REMARK INTER:                  -1.759
REMARK INTRA:                   0.000
REMARK UNBOUND:                 0.000
REMARK SMILES CC(=O)[O-]
REMARK SMILES IDX 1 1 2 2 3 3 4 4
REMARK H PARENT
REMARK Flexibility Score: inf
ROOT
ATOM      1  C   UNL     1      25.513  34.282  35.415  1.00  0.00     0.063 C 
ATOM      2  C   UNL     1      26.592  34.355  34.389  1.00  0.00     0.038 C 
ATOM      3  O   UNL     1      27.398  33.397  34.251  1.00  0.00    -0.550 OA
ATOM      4  O   UNL     1      26.679  35.456  33.547  1.00  0.00    -0.550 OA
ENDROOT
TORSDOF 0
ENDMDL
