MODEL 1
REMARK VINA RESULT:    -4.338      0.000      0.000
REMARK INTER + INTRA:          -6.008
REMARK INTER:                  -5.606
REMARK INTRA:                  -0.402
REMARK UNBOUND:                -0.402
REMARK SMILES CCO[C@H]1O[C@@H](CO)[C@@H](O)[C@H](O)[C@H]1O
REMARK SMILES IDX 4 1 13 2 11 3 9 4 6 5 5 6 3 7 2 8 1 9 14 10 12 12 7 14 8 15
REMARK SMILES IDX 10 17
REMARK H PARENT 14 11 12 13 8 16 10 18
REMARK Flexibility Score: inf
ROOT
ATOM      1  C   UNL     1      37.580  -5.831  23.898  1.00  0.00     0.281 C 
ATOM      2  C   UNL     1      37.885  -4.351  23.563  1.00  0.00     0.202 C 
ATOM      3  C   UNL     1      39.242  -4.236  22.845  1.00  0.00     0.179 C 
ATOM      4  C   UNL     1      39.333  -5.239  21.677  1.00  0.00     0.177 C 
ATOM      5  C   UNL     1      38.914  -6.648  22.165  1.00  0.00     0.178 C 
ATOM      6  O   UNL     1      37.606  -6.612  22.714  1.00  0.00    -0.341 OA
ENDROOT
BRANCH   1   7
ATOM      7  O   UNL     1      36.280  -5.936  24.455  1.00  0.00    -0.350 OA
BRANCH   7   8
ATOM      8  C   UNL     1      36.232  -6.873  25.517  1.00  0.00     0.160 C 
ATOM      9  C   UNL     1      37.569  -6.915  26.247  1.00  0.00     0.035 C 
ENDBRANCH   7   8
ENDBRANCH   1   7
BRANCH   2  10
ATOM     10  O   UNL     1      36.875  -3.822  22.741  1.00  0.00    -0.385 OA
ATOM     11  H   UNL     1      36.592  -4.547  22.124  1.00  0.00     0.211 HD
ENDBRANCH   2  10
BRANCH   3  12
ATOM     12  O   UNL     1      40.274  -4.476  23.768  1.00  0.00    -0.387 OA
ATOM     13  H   UNL     1      40.241  -3.742  24.436  1.00  0.00     0.211 HD
ENDBRANCH   3  12
BRANCH   5  14
ATOM     14  C   UNL     1      38.940  -7.681  21.032  1.00  0.00     0.191 C 
BRANCH  14  15
ATOM     15  O   UNL     1      37.775  -7.584  20.259  1.00  0.00    -0.394 OA
ATOM     16  H   UNL     1      37.027  -7.853  20.854  1.00  0.00     0.210 HD
ENDBRANCH  14  15
ENDBRANCH   5  14
BRANCH   4  17
ATOM     17  O   UNL     1      38.492  -4.810  20.634  1.00  0.00    -0.387 OA
ATOM     18  H   UNL     1      38.194  -5.620  20.144  1.00  0.00     0.211 HD
ENDBRANCH   4  17
TORSDOF 7
ENDMDL
MODEL 2
REMARK VINA RESULT:    -4.246      2.029      3.805
REMARK INTER + INTRA:          -5.889
REMARK INTER:                  -5.732
REMARK INTRA:                  -0.157
REMARK UNBOUND:                -0.402
REMARK SMILES CCO[C@H]1O[C@@H](CO)[C@@H](O)[C@H](O)[C@H]1O
REMARK SMILES IDX 4 1 13 2 11 3 9 4 6 5 5 6 3 7 2 8 1 9 14 10 12 12 7 14 8 15
REMARK SMILES IDX 10 17
REMARK H PARENT 14 11 12 13 8 16 10 18
REMARK Flexibility Score: inf
ROOT
ATOM      1  C   UNL     1      38.037  -4.615  22.482  1.00  0.00     0.281 C 
ATOM      2  C   UNL     1      38.259  -6.037  21.912  1.00  0.00     0.202 C 
ATOM      3  C   UNL     1      39.567  -6.086  21.101  1.00  0.00     0.179 C 
ATOM      4  C   UNL     1      40.735  -5.474  21.901  1.00  0.00     0.177 C 
ATOM      5  C   UNL     1      40.312  -4.097  22.470  1.00  0.00     0.178 C 
ATOM      6  O   UNL     1      39.150  -4.229  23.272  1.00  0.00    -0.341 OA
ENDROOT
BRANCH   1   7
ATOM      7  O   UNL     1      36.892  -4.611  23.320  1.00  0.00    -0.350 OA
BRANCH   7   8
ATOM      8  C   UNL     1      36.853  -3.470  24.159  1.00  0.00     0.160 C 
ATOM      9  C   UNL     1      35.534  -2.727  23.980  1.00  0.00     0.035 C 
ENDBRANCH   7   8
ENDBRANCH   1   7
BRANCH   2  10
ATOM     10  O   UNL     1      38.323  -6.975  22.958  1.00  0.00    -0.385 OA
ATOM     11  H   UNL     1      38.892  -6.579  23.669  1.00  0.00     0.211 HD
ENDBRANCH   2  10
BRANCH   3  12
ATOM     12  O   UNL     1      39.389  -5.385  19.896  1.00  0.00    -0.387 OA
ATOM     13  H   UNL     1      39.039  -6.036  19.232  1.00  0.00     0.211 HD
ENDBRANCH   3  12
BRANCH   5  14
ATOM     14  C   UNL     1      41.421  -3.460  23.317  1.00  0.00     0.191 C 
BRANCH  14  15
ATOM     15  O   UNL     1      41.777  -2.210  22.791  1.00  0.00    -0.394 OA
ATOM     16  H   UNL     1      42.520  -2.381  22.156  1.00  0.00     0.210 HD
ENDBRANCH  14  15
ENDBRANCH   5  14
BRANCH   4  17
ATOM     17  O   UNL     1      41.087  -6.350  22.945  1.00  0.00    -0.387 OA
ATOM     18  H   UNL     1      41.912  -5.992  23.364  1.00  0.00     0.211 HD
ENDBRANCH   4  17
TORSDOF 7
ENDMDL
MODEL 3
REMARK VINA RESULT:    -4.244      1.615      4.404
REMARK INTER + INTRA:          -5.887
REMARK INTER:                  -5.472
REMARK INTRA:                  -0.415
REMARK UNBOUND:                -0.402
REMARK SMILES CCO[C@H]1O[C@@H](CO)[C@@H](O)[C@H](O)[C@H]1O
REMARK SMILES IDX 4 1 13 2 11 3 9 4 6 5 5 6 3 7 2 8 1 9 14 10 12 12 7 14 8 15
REMARK SMILES IDX 10 17
REMARK H PARENT 14 11 12 13 8 16 10 18
REMARK Flexibility Score: inf
ROOT
ATOM      1  C   UNL     1      38.697  -4.684  22.984  1.00  0.00     0.281 C 
ATOM      2  C   UNL     1      38.449  -6.113  23.524  1.00  0.00     0.202 C 
ATOM      3  C   UNL     1      37.781  -6.050  24.910  1.00  0.00     0.179 C 
ATOM      4  C   UNL     1      36.565  -5.100  24.892  1.00  0.00     0.177 C 
ATOM      5  C   UNL     1      36.967  -3.752  24.243  1.00  0.00     0.178 C 
ATOM      6  O   UNL     1      37.475  -3.965  22.936  1.00  0.00    -0.341 OA
ENDROOT
BRANCH   1   7
ATOM      7  O   UNL     1      39.207  -4.756  21.662  1.00  0.00    -0.350 OA
BRANCH   7   8
ATOM      8  C   UNL     1      40.622  -4.696  21.635  1.00  0.00     0.160 C 
ATOM      9  C   UNL     1      41.122  -3.590  22.558  1.00  0.00     0.035 C 
ENDBRANCH   7   8
ENDBRANCH   1   7
BRANCH   2  10
ATOM     10  O   UNL     1      37.624  -6.831  22.640  1.00  0.00    -0.385 OA
ATOM     11  H   UNL     1      36.790  -7.049  23.133  1.00  0.00     0.211 HD
ENDBRANCH   2  10
BRANCH   3  12
ATOM     12  O   UNL     1      38.721  -5.611  25.856  1.00  0.00    -0.387 OA
ATOM     13  H   UNL     1      38.273  -4.919  26.409  1.00  0.00     0.211 HD
ENDBRANCH   3  12
BRANCH   5  14
ATOM     14  C   UNL     1      35.782  -2.781  24.155  1.00  0.00     0.191 C 
BRANCH  14  15
ATOM     15  O   UNL     1      34.976  -3.098  23.053  1.00  0.00    -0.394 OA
ATOM     16  H   UNL     1      35.280  -3.988  22.736  1.00  0.00     0.210 HD
ENDBRANCH  14  15
ENDBRANCH   5  14
BRANCH   4  17
ATOM     17  O   UNL     1      35.520  -5.703  24.167  1.00  0.00    -0.387 OA
ATOM     18  H   UNL     1      34.970  -4.972  23.781  1.00  0.00     0.211 HD
ENDBRANCH   4  17
TORSDOF 7
ENDMDL
MODEL 4
REMARK VINA RESULT:    -4.184     15.569     17.311
REMARK INTER + INTRA:          -5.809
REMARK INTER:                  -5.411
REMARK INTRA:                  -0.398
REMARK UNBOUND:                -0.402
REMARK SMILES CCO[C@H]1O[C@@H](CO)[C@@H](O)[C@H](O)[C@H]1O
REMARK SMILES IDX 4 1 13 2 11 3 9 4 6 5 5 6 3 7 2 8 1 9 14 10 12 12 7 14 8 15
REMARK SMILES IDX 10 17
REMARK H PARENT 14 11 12 13 8 16 10 18
REMARK Flexibility Score: inf
ROOT
ATOM      1  C   UNL     1      39.115   2.152  36.955  1.00  0.00     0.281 C 
ATOM      2  C   UNL     1      38.602   2.556  38.358  1.00  0.00     0.202 C 
ATOM      3  C   UNL     1      39.197   1.625  39.430  1.00  0.00     0.179 C 
ATOM      4  C   UNL     1      40.726   1.500  39.265  1.00  0.00     0.177 C 
ATOM      5  C   UNL     1      41.066   1.179  37.788  1.00  0.00     0.178 C 
ATOM      6  O   UNL     1      40.533   2.175  36.931  1.00  0.00    -0.341 OA
ENDROOT
BRANCH   1   7
ATOM      7  O   UNL     1      38.652   3.085  35.992  1.00  0.00    -0.350 OA
BRANCH   7   8
ATOM      8  C   UNL     1      39.571   3.247  34.926  1.00  0.00     0.160 C 
ATOM      9  C   UNL     1      39.207   4.473  34.095  1.00  0.00     0.035 C 
ENDBRANCH   7   8
ENDBRANCH   1   7
BRANCH   2  10
ATOM     10  O   UNL     1      38.962   3.886  38.642  1.00  0.00    -0.385 OA
ATOM     11  H   UNL     1      39.911   3.994  38.370  1.00  0.00     0.211 HD
ENDBRANCH   2  10
BRANCH   3  12
ATOM     12  O   UNL     1      38.597   0.359  39.327  1.00  0.00    -0.387 OA
ATOM     13  H   UNL     1      39.286  -0.309  39.580  1.00  0.00     0.211 HD
ENDBRANCH   3  12
BRANCH   5  14
ATOM     14  C   UNL     1      42.579   1.090  37.552  1.00  0.00     0.191 C 
BRANCH  14  15
ATOM     15  O   UNL     1      43.221   0.609  38.701  1.00  0.00    -0.394 OA
ATOM     16  H   UNL     1      43.016   1.259  39.423  1.00  0.00     0.210 HD
ENDBRANCH  14  15
ENDBRANCH   5  14
BRANCH   4  17
ATOM     17  O   UNL     1      41.332   2.709  39.657  1.00  0.00    -0.387 OA
ATOM     18  H   UNL     1      42.068   2.890  39.016  1.00  0.00     0.211 HD
ENDBRANCH   4  17
TORSDOF 7
ENDMDL
MODEL 5
REMARK VINA RESULT:    -4.063      1.969      4.032
REMARK INTER + INTRA:          -5.653
REMARK INTER:                  -5.486
REMARK INTRA:                  -0.167
REMARK UNBOUND:                -0.402
REMARK SMILES CCO[C@H]1O[C@@H](CO)[C@@H](O)[C@H](O)[C@H]1O
REMARK SMILES IDX 4 1 13 2 11 3 9 4 6 5 5 6 3 7 2 8 1 9 14 10 12 12 7 14 8 15
REMARK SMILES IDX 10 17
REMARK H PARENT 14 11 12 13 8 16 10 18
REMARK Flexibility Score: inf
ROOT
ATOM      1  C   UNL     1      38.380  -6.071  22.000  1.00  0.00     0.281 C 
ATOM      2  C   UNL     1      39.769  -5.963  22.676  1.00  0.00     0.202 C 
ATOM      3  C   UNL     1      40.020  -4.519  23.148  1.00  0.00     0.179 C 
ATOM      4  C   UNL     1      38.818  -3.986  23.954  1.00  0.00     0.177 C 
ATOM      5  C   UNL     1      37.507  -4.252  23.173  1.00  0.00     0.178 C 
ATOM      6  O   UNL     1      37.370  -5.636  22.895  1.00  0.00    -0.341 OA
ENDROOT
BRANCH   1   7
ATOM      7  O   UNL     1      38.114  -7.425  21.674  1.00  0.00    -0.350 OA
BRANCH   7   8
ATOM      8  C   UNL     1      38.450  -7.724  20.330  1.00  0.00     0.160 C 
ATOM      9  C   UNL     1      39.477  -8.849  20.279  1.00  0.00     0.035 C 
ENDBRANCH   7   8
ENDBRANCH   1   7
BRANCH   2  10
ATOM     10  O   UNL     1      39.841  -6.833  23.778  1.00  0.00    -0.385 OA
ATOM     11  H   UNL     1      38.969  -6.779  24.250  1.00  0.00     0.211 HD
ENDBRANCH   2  10
BRANCH   3  12
ATOM     12  O   UNL     1      40.250  -3.702  22.028  1.00  0.00    -0.387 OA
ATOM     13  H   UNL     1      39.913  -2.796  22.258  1.00  0.00     0.211 HD
ENDBRANCH   3  12
BRANCH   5  14
ATOM     14  C   UNL     1      36.270  -3.784  23.950  1.00  0.00     0.191 C 
BRANCH  14  15
ATOM     15  O   UNL     1      35.508  -2.906  23.166  1.00  0.00    -0.394 OA
ATOM     16  H   UNL     1      35.400  -2.080  23.705  1.00  0.00     0.210 HD
ENDBRANCH  14  15
ENDBRANCH   5  14
BRANCH   4  17
ATOM     17  O   UNL     1      38.783  -4.627  25.207  1.00  0.00    -0.387 OA
ATOM     18  H   UNL     1      37.860  -4.967  25.337  1.00  0.00     0.211 HD
ENDBRANCH   4  17
TORSDOF 7
ENDMDL
MODEL 6
REMARK VINA RESULT:    -4.028      1.403      4.051
REMARK INTER + INTRA:          -5.607
REMARK INTER:                  -5.256
REMARK INTRA:                  -0.351
REMARK UNBOUND:                -0.402
REMARK SMILES CCO[C@H]1O[C@@H](CO)[C@@H](O)[C@H](O)[C@H]1O
REMARK SMILES IDX 4 1 13 2 11 3 9 4 6 5 5 6 3 7 2 8 1 9 14 10 12 12 7 14 8 15
REMARK SMILES IDX 10 17
REMARK H PARENT 14 11 12 13 8 16 10 18
REMARK Flexibility Score: inf
ROOT
ATOM      1  C   UNL     1      38.039  -6.048  22.346  1.00  0.00     0.281 C 
ATOM      2  C   UNL     1      38.567  -4.626  22.654  1.00  0.00     0.202 C 
ATOM      3  C   UNL     1      37.620  -3.907  23.633  1.00  0.00     0.179 C 
ATOM      4  C   UNL     1      37.302  -4.803  24.849  1.00  0.00     0.177 C 
ATOM      5  C   UNL     1      36.874  -6.210  24.362  1.00  0.00     0.178 C 
ATOM      6  O   UNL     1      37.887  -6.781  23.550  1.00  0.00    -0.341 OA
ENDROOT
BRANCH   1   7
ATOM      7  O   UNL     1      38.976  -6.738  21.535  1.00  0.00    -0.350 OA
BRANCH   7   8
ATOM      8  C   UNL     1      38.341  -7.608  20.614  1.00  0.00     0.160 C 
ATOM      9  C   UNL     1      39.290  -8.731  20.208  1.00  0.00     0.035 C 
ENDBRANCH   7   8
ENDBRANCH   1   7
BRANCH   2  10
ATOM     10  O   UNL     1      39.854  -4.697  23.217  1.00  0.00    -0.385 OA
ATOM     11  H   UNL     1      40.204  -3.769  23.258  1.00  0.00     0.211 HD
ENDBRANCH   2  10
BRANCH   3  12
ATOM     12  O   UNL     1      36.433  -3.567  22.962  1.00  0.00    -0.387 OA
ATOM     13  H   UNL     1      36.662  -3.474  22.001  1.00  0.00     0.211 HD
ENDBRANCH   3  12
BRANCH   5  14
ATOM     14  C   UNL     1      36.589  -7.161  25.531  1.00  0.00     0.191 C 
BRANCH  14  15
ATOM     15  O   UNL     1      37.770  -7.796  25.939  1.00  0.00    -0.394 OA
ATOM     16  H   UNL     1      37.568  -8.768  25.957  1.00  0.00     0.210 HD
ENDBRANCH  14  15
ENDBRANCH   5  14
BRANCH   4  17
ATOM     17  O   UNL     1      38.443  -4.892  25.667  1.00  0.00    -0.387 OA
ATOM     18  H   UNL     1      39.005  -5.629  25.309  1.00  0.00     0.211 HD
ENDBRANCH   4  17
TORSDOF 7
ENDMDL
MODEL 7
REMARK VINA RESULT:    -4.004     15.942     17.257
REMARK INTER + INTRA:          -5.577
REMARK INTER:                  -5.237
REMARK INTRA:                  -0.340
REMARK UNBOUND:                -0.402
REMARK SMILES CCO[C@H]1O[C@@H](CO)[C@@H](O)[C@H](O)[C@H]1O
REMARK SMILES IDX 4 1 13 2 11 3 9 4 6 5 5 6 3 7 2 8 1 9 14 10 12 12 7 14 8 15
REMARK SMILES IDX 10 17
REMARK H PARENT 14 11 12 13 8 16 10 18
REMARK Flexibility Score: inf
ROOT
ATOM      1  C   UNL     1      49.285   2.571  31.921  1.00  0.00     0.281 C 
ATOM      2  C   UNL     1      49.723   3.264  33.234  1.00  0.00     0.202 C 
ATOM      3  C   UNL     1      49.100   2.547  34.447  1.00  0.00     0.179 C 
ATOM      4  C   UNL     1      49.327   1.024  34.362  1.00  0.00     0.177 C 
ATOM      5  C   UNL     1      48.918   0.513  32.958  1.00  0.00     0.178 C 
ATOM      6  O   UNL     1      49.644   1.200  31.952  1.00  0.00    -0.341 OA
ENDROOT
BRANCH   1   7
ATOM      7  O   UNL     1      49.954   3.168  30.822  1.00  0.00    -0.350 OA
BRANCH   7   8
ATOM      8  C   UNL     1      49.392   2.775  29.582  1.00  0.00     0.160 C 
ATOM      9  C   UNL     1      49.577   3.877  28.545  1.00  0.00     0.035 C 
ENDBRANCH   7   8
ENDBRANCH   1   7
BRANCH   2  10
ATOM     10  O   UNL     1      51.124   3.244  33.349  1.00  0.00    -0.385 OA
ATOM     11  H   UNL     1      51.455   2.529  32.744  1.00  0.00     0.211 HD
ENDBRANCH   2  10
BRANCH   3  12
ATOM     12  O   UNL     1      47.724   2.828  34.492  1.00  0.00    -0.387 OA
ATOM     13  H   UNL     1      47.597   3.543  35.170  1.00  0.00     0.211 HD
ENDBRANCH   3  12
BRANCH   5  14
ATOM     14  C   UNL     1      49.166  -0.992  32.800  1.00  0.00     0.191 C 
BRANCH  14  15
ATOM     15  O   UNL     1      49.230  -1.609  34.056  1.00  0.00    -0.394 OA
ATOM     16  H   UNL     1      48.431  -2.194  34.117  1.00  0.00     0.210 HD
ENDBRANCH  14  15
ENDBRANCH   5  14
BRANCH   4  17
ATOM     17  O   UNL     1      50.683   0.745  34.611  1.00  0.00    -0.387 OA
ATOM     18  H   UNL     1      50.773  -0.241  34.682  1.00  0.00     0.211 HD
ENDBRANCH   4  17
TORSDOF 7
ENDMDL
MODEL 8
REMARK VINA RESULT:    -3.981      1.887      2.460
REMARK INTER + INTRA:          -5.546
REMARK INTER:                  -5.203
REMARK INTRA:                  -0.343
REMARK UNBOUND:                -0.402
REMARK SMILES CCO[C@H]1O[C@@H](CO)[C@@H](O)[C@H](O)[C@H]1O
REMARK SMILES IDX 4 1 13 2 11 3 9 4 6 5 5 6 3 7 2 8 1 9 14 10 12 12 7 14 8 15
REMARK SMILES IDX 10 17
REMARK H PARENT 14 11 12 13 8 16 10 18
REMARK Flexibility Score: inf
ROOT
ATOM      1  C   UNL     1      38.491  -5.063  23.139  1.00  0.00     0.281 C 
ATOM      2  C   UNL     1      39.968  -4.603  23.087  1.00  0.00     0.202 C 
ATOM      3  C   UNL     1      40.892  -5.808  22.836  1.00  0.00     0.179 C 
ATOM      4  C   UNL     1      40.390  -6.648  21.643  1.00  0.00     0.177 C 
ATOM      5  C   UNL     1      38.879  -6.945  21.814  1.00  0.00     0.178 C 
ATOM      6  O   UNL     1      38.150  -5.735  21.937  1.00  0.00    -0.341 OA
ENDROOT
BRANCH   1   7
ATOM      7  O   UNL     1      37.643  -3.931  23.255  1.00  0.00    -0.350 OA
BRANCH   7   8
ATOM      8  C   UNL     1      36.458  -4.228  23.973  1.00  0.00     0.160 C 
ATOM      9  C   UNL     1      35.407  -3.152  23.725  1.00  0.00     0.035 C 
ENDBRANCH   7   8
ENDBRANCH   1   7
BRANCH   2  10
ATOM     10  O   UNL     1      40.146  -3.656  22.062  1.00  0.00    -0.385 OA
ATOM     11  H   UNL     1      40.774  -4.056  21.404  1.00  0.00     0.211 HD
ENDBRANCH   2  10
BRANCH   3  12
ATOM     12  O   UNL     1      40.943  -6.600  23.996  1.00  0.00    -0.387 OA
ATOM     13  H   UNL     1      41.656  -6.221  24.573  1.00  0.00     0.211 HD
ENDBRANCH   3  12
BRANCH   5  14
ATOM     14  C   UNL     1      38.312  -7.740  20.631  1.00  0.00     0.191 C 
BRANCH  14  15
ATOM     15  O   UNL     1      39.292  -8.593  20.105  1.00  0.00    -0.394 OA
ATOM     16  H   UNL     1      40.098  -8.468  20.672  1.00  0.00     0.210 HD
ENDBRANCH  14  15
ENDBRANCH   5  14
BRANCH   4  17
ATOM     17  O   UNL     1      40.621  -5.939  20.450  1.00  0.00    -0.387 OA
ATOM     18  H   UNL     1      41.049  -6.567  19.812  1.00  0.00     0.211 HD
ENDBRANCH   4  17
TORSDOF 7
ENDMDL
MODEL 9
REMARK VINA RESULT:    -3.866     16.738     18.425
REMARK INTER + INTRA:          -5.397
REMARK INTER:                  -5.142
REMARK INTRA:                  -0.256
REMARK UNBOUND:                -0.402
REMARK SMILES CCO[C@H]1O[C@@H](CO)[C@@H](O)[C@H](O)[C@H]1O
REMARK SMILES IDX 4 1 13 2 11 3 9 4 6 5 5 6 3 7 2 8 1 9 14 10 12 12 7 14 8 15
REMARK SMILES IDX 10 17
REMARK H PARENT 14 11 12 13 8 16 10 18
REMARK Flexibility Score: inf
ROOT
ATOM      1  C   UNL     1      40.031   3.068  38.895  1.00  0.00     0.281 C 
ATOM      2  C   UNL     1      39.319   2.575  37.612  1.00  0.00     0.202 C 
ATOM      3  C   UNL     1      37.951   3.265  37.464  1.00  0.00     0.179 C 
ATOM      4  C   UNL     1      38.083   4.793  37.634  1.00  0.00     0.177 C 
ATOM      5  C   UNL     1      38.893   5.106  38.917  1.00  0.00     0.178 C 
ATOM      6  O   UNL     1      40.164   4.480  38.863  1.00  0.00    -0.341 OA
ENDROOT
BRANCH   1   7
ATOM      7  O   UNL     1      41.335   2.514  38.959  1.00  0.00    -0.350 OA
BRANCH   7   8
ATOM      8  C   UNL     1      41.317   1.102  38.841  1.00  0.00     0.160 C 
ATOM      9  C   UNL     1      42.571   0.615  38.124  1.00  0.00     0.035 C 
ENDBRANCH   7   8
ENDBRANCH   1   7
BRANCH   2  10
ATOM     10  O   UNL     1      40.107   2.854  36.481  1.00  0.00    -0.385 OA
ATOM     11  H   UNL     1      39.494   3.184  35.773  1.00  0.00     0.211 HD
ENDBRANCH   2  10
BRANCH   3  12
ATOM     12  O   UNL     1      37.067   2.748  38.425  1.00  0.00    -0.387 OA
ATOM     13  H   UNL     1      37.615   2.486  39.210  1.00  0.00     0.211 HD
ENDBRANCH   3  12
BRANCH   5  14
ATOM     14  C   UNL     1      39.097   6.613  39.114  1.00  0.00     0.191 C 
BRANCH  14  15
ATOM     15  O   UNL     1      40.303   7.021  38.528  1.00  0.00    -0.394 OA
ATOM     16  H   UNL     1      40.973   6.327  38.766  1.00  0.00     0.210 HD
ENDBRANCH  14  15
ENDBRANCH   5  14
BRANCH   4  17
ATOM     17  O   UNL     1      38.726   5.329  36.503  1.00  0.00    -0.387 OA
ATOM     18  H   UNL     1      39.413   4.671  36.217  1.00  0.00     0.211 HD
ENDBRANCH   4  17
TORSDOF 7
ENDMDL
