MODEL 1
REMARK VINA RESULT:    -3.777      0.000      0.000
REMARK INTER + INTRA:          -4.249
REMARK INTER:                  -4.218
REMARK INTRA:                  -0.031
REMARK UNBOUND:                -0.031
REMARK SMILES CCCC(=O)[O-]
REMARK SMILES IDX 3 1 4 2 5 3 6 4 2 5 1 6
REMARK H PARENT
REMARK Flexibility Score: inf
ROOT
ATOM      1  C   UNL     1      48.658 -11.443  15.716  1.00  0.00     0.052 C 
ENDROOT
BRANCH   1   2
ATOM      2  C   UNL     1      49.159 -11.914  14.385  1.00  0.00     0.041 C 
ATOM      3  O   UNL     1      50.388 -12.117  14.204  1.00  0.00    -0.550 OA
ATOM      4  O   UNL     1      48.261 -12.159  13.353  1.00  0.00    -0.550 OA
ENDBRANCH   1   2
BRANCH   1   5
ATOM      5  C   UNL     1      49.766 -11.458  16.776  1.00  0.00     0.003 C 
ATOM      6  C   UNL     1      49.458 -12.418  17.926  1.00  0.00     0.004 C 
ENDBRANCH   1   5
TORSDOF 2
ENDMDL
MODEL 2
REMARK VINA RESULT:    -3.678      2.243      3.378
REMARK INTER + INTRA:          -4.139
REMARK INTER:                  -4.123
REMARK INTRA:                  -0.016
REMARK UNBOUND:                -0.031
REMARK SMILES CCCC(=O)[O-]
REMARK SMILES IDX 3 1 4 2 5 3 6 4 2 5 1 6
REMARK H PARENT
REMARK Flexibility Score: inf
ROOT
ATOM      1  C   UNL     1      48.692 -11.802  15.908  1.00  0.00     0.052 C 
ENDROOT
BRANCH   1   2
ATOM      2  C   UNL     1      49.736 -11.655  16.972  1.00  0.00     0.041 C 
ATOM      3  O   UNL     1      50.693 -10.851  16.816  1.00  0.00    -0.550 OA
ATOM      4  O   UNL     1      49.634 -12.382  18.151  1.00  0.00    -0.550 OA
ENDBRANCH   1   2
BRANCH   1   5
ATOM      5  C   UNL     1      49.291 -12.319  14.593  1.00  0.00     0.003 C 
ATOM      6  C   UNL     1      48.622 -11.698  13.367  1.00  0.00     0.004 C 
ENDBRANCH   1   5
TORSDOF 2
ENDMDL
MODEL 3
REMARK VINA RESULT:    -3.490      2.253      3.228
REMARK INTER + INTRA:          -3.929
REMARK INTER:                  -3.969
REMARK INTRA:                   0.041
REMARK UNBOUND:                -0.031
REMARK SMILES CCCC(=O)[O-]
REMARK SMILES IDX 3 1 4 2 5 3 6 4 2 5 1 6
REMARK H PARENT
REMARK Flexibility Score: inf
ROOT
ATOM      1  C   UNL     1      50.016 -11.752  15.464  1.00  0.00     0.052 C 
ENDROOT
BRANCH   1   2
ATOM      2  C   UNL     1      49.036 -11.391  16.538  1.00  0.00     0.041 C 
ATOM      3  O   UNL     1      48.989 -12.057  17.606  1.00  0.00    -0.550 OA
ATOM      4  O   UNL     1      48.196 -10.297  16.373  1.00  0.00    -0.550 OA
ENDBRANCH   1   2
BRANCH   1   5
ATOM      5  C   UNL     1      49.349 -12.538  14.328  1.00  0.00     0.003 C 
ATOM      6  C   UNL     1      48.572 -11.631  13.373  1.00  0.00     0.004 C 
ENDBRANCH   1   5
TORSDOF 2
ENDMDL
MODEL 4
REMARK VINA RESULT:    -3.078     11.417     11.932
REMARK INTER + INTRA:          -3.469
REMARK INTER:                  -3.449
REMARK INTRA:                  -0.020
REMARK UNBOUND:                -0.031
REMARK SMILES CCCC(=O)[O-]
REMARK SMILES IDX 3 1 4 2 5 3 6 4 2 5 1 6
REMARK H PARENT
REMARK Flexibility Score: inf
ROOT
ATOM      1  C   UNL     1      56.099  -2.025  14.576  1.00  0.00     0.052 C 
ENDROOT
BRANCH   1   2
ATOM      2  C   UNL     1      56.192  -3.364  13.911  1.00  0.00     0.041 C 
ATOM      3  O   UNL     1      57.296  -3.778  13.468  1.00  0.00    -0.550 OA
ATOM      4  O   UNL     1      55.064  -4.168  13.809  1.00  0.00    -0.550 OA
ENDBRANCH   1   2
BRANCH   1   5
ATOM      5  C   UNL     1      57.480  -1.498  14.987  1.00  0.00     0.003 C 
ATOM      6  C   UNL     1      57.527  -1.072  16.454  1.00  0.00     0.004 C 
ENDBRANCH   1   5
TORSDOF 2
ENDMDL
MODEL 5
REMARK VINA RESULT:    -3.039     10.079     10.477
REMARK INTER + INTRA:          -3.426
REMARK INTER:                  -3.414
REMARK INTRA:                  -0.012
REMARK UNBOUND:                -0.031
REMARK SMILES CCCC(=O)[O-]
REMARK SMILES IDX 3 1 4 2 5 3 6 4 2 5 1 6
REMARK H PARENT
REMARK Flexibility Score: inf
ROOT
ATOM      1  C   UNL     1      54.357  -3.914  13.353  1.00  0.00     0.052 C 
ENDROOT
BRANCH   1   2
ATOM      2  C   UNL     1      53.121  -3.175  12.944  1.00  0.00     0.041 C 
ATOM      3  O   UNL     1      51.997  -3.741  12.989  1.00  0.00    -0.550 OA
ATOM      4  O   UNL     1      53.207  -1.847  12.542  1.00  0.00    -0.550 OA
ENDBRANCH   1   2
BRANCH   1   5
ATOM      5  C   UNL     1      55.477  -2.957  13.780  1.00  0.00     0.003 C 
ATOM      6  C   UNL     1      56.858  -3.608  13.706  1.00  0.00     0.004 C 
ENDBRANCH   1   5
TORSDOF 2
ENDMDL
MODEL 6
REMARK VINA RESULT:    -2.950     10.671     11.293
REMARK INTER + INTRA:          -3.325
REMARK INTER:                  -3.317
REMARK INTRA:                  -0.008
REMARK UNBOUND:                -0.031
REMARK SMILES CCCC(=O)[O-]
REMARK SMILES IDX 3 1 4 2 5 3 6 4 2 5 1 6
REMARK H PARENT
REMARK Flexibility Score: inf
ROOT
ATOM      1  C   UNL     1      55.176  -2.594  13.690  1.00  0.00     0.052 C 
ENDROOT
BRANCH   1   2
ATOM      2  C   UNL     1      56.589  -2.904  14.077  1.00  0.00     0.041 C 
ATOM      3  O   UNL     1      57.229  -3.807  13.477  1.00  0.00    -0.550 OA
ATOM      4  O   UNL     1      57.210  -2.172  15.081  1.00  0.00    -0.550 OA
ENDBRANCH   1   2
BRANCH   1   5
ATOM      5  C   UNL     1      54.396  -3.863  13.322  1.00  0.00     0.003 C 
ATOM      6  C   UNL     1      52.914  -3.583  13.070  1.00  0.00     0.004 C 
ENDBRANCH   1   5
TORSDOF 2
ENDMDL
MODEL 7
REMARK VINA RESULT:    -2.905     11.817     12.547
REMARK INTER + INTRA:          -3.276
REMARK INTER:                  -3.268
REMARK INTRA:                  -0.008
REMARK UNBOUND:                -0.031
REMARK SMILES CCCC(=O)[O-]
REMARK SMILES IDX 3 1 4 2 5 3 6 4 2 5 1 6
REMARK H PARENT
REMARK Flexibility Score: inf
ROOT
ATOM      1  C   UNL     1      55.159  -4.300   8.267  1.00  0.00     0.052 C 
ENDROOT
BRANCH   1   2
ATOM      2  C   UNL     1      53.967  -4.200   7.366  1.00  0.00     0.041 C 
ATOM      3  O   UNL     1      52.849  -4.643   7.739  1.00  0.00    -0.550 OA
ATOM      4  O   UNL     1      54.085  -3.588   6.124  1.00  0.00    -0.550 OA
ENDBRANCH   1   2
BRANCH   1   5
ATOM      5  C   UNL     1      56.457  -4.492   7.473  1.00  0.00     0.003 C 
ATOM      6  C   UNL     1      57.688  -4.558   8.377  1.00  0.00     0.004 C 
ENDBRANCH   1   5
TORSDOF 2
ENDMDL
MODEL 8
REMARK VINA RESULT:    -2.880     13.975     14.549
REMARK INTER + INTRA:          -3.248
REMARK INTER:                  -3.210
REMARK INTRA:                  -0.038
REMARK UNBOUND:                -0.031
REMARK SMILES CCCC(=O)[O-]
REMARK SMILES IDX 3 1 4 2 5 3 6 4 2 5 1 6
REMARK H PARENT
REMARK Flexibility Score: inf
ROOT
ATOM      1  C   UNL     1      59.533  -4.009  20.001  1.00  0.00     0.052 C 
ENDROOT
BRANCH   1   2
ATOM      2  C   UNL     1      60.788  -3.887  20.808  1.00  0.00     0.041 C 
ATOM      3  O   UNL     1      60.783  -3.263  21.901  1.00  0.00    -0.550 OA
ATOM      4  O   UNL     1      61.959  -4.493  20.367  1.00  0.00    -0.550 OA
ENDBRANCH   1   2
BRANCH   1   5
ATOM      5  C   UNL     1      58.315  -4.303  20.887  1.00  0.00     0.003 C 
ATOM      6  C   UNL     1      57.272  -3.186  20.829  1.00  0.00     0.004 C 
ENDBRANCH   1   5
TORSDOF 2
ENDMDL
MODEL 9
REMARK VINA RESULT:    -2.835     10.872     11.331
REMARK INTER + INTRA:          -3.198
REMARK INTER:                  -3.185
REMARK INTRA:                  -0.013
REMARK UNBOUND:                -0.031
REMARK SMILES CCCC(=O)[O-]
REMARK SMILES IDX 3 1 4 2 5 3 6 4 2 5 1 6
REMARK H PARENT
REMARK Flexibility Score: inf
ROOT
ATOM      1  C   UNL     1      55.840  -3.090  13.839  1.00  0.00     0.052 C 
ENDROOT
BRANCH   1   2
ATOM      2  C   UNL     1      54.437  -3.054  13.315  1.00  0.00     0.041 C 
ATOM      3  O   UNL     1      53.874  -1.952  13.084  1.00  0.00    -0.550 OA
ATOM      4  O   UNL     1      53.764  -4.240  13.051  1.00  0.00    -0.550 OA
ENDBRANCH   1   2
BRANCH   1   5
ATOM      5  C   UNL     1      56.131  -1.903  14.766  1.00  0.00     0.003 C 
ATOM      6  C   UNL     1      57.628  -1.628  14.906  1.00  0.00     0.004 C 
ENDBRANCH   1   5
TORSDOF 2
ENDMDL
