MODEL 1
REMARK VINA RESULT:    -5.395      0.000      0.000
REMARK INTER + INTRA:          -5.553
REMARK INTER:                  -5.553
REMARK INTRA:                   0.000
REMARK UNBOUND:                 0.000
REMARK SMILES Oc1ccc2[nH]ccc2c1
REMARK SMILES IDX 3 1 4 2 5 3 9 4 8 5 7 6 6 7 10 8 2 9 1 11
REMARK H PARENT 6 10 1 12
REMARK Flexibility Score: inf
ROOT
ATOM      1  C   UNL     1      43.927  18.909  12.569  1.00  0.00     0.048 A 
ATOM      2  C   UNL     1      43.173  19.772  11.753  1.00  0.00     0.030 A 
ATOM      3  C   UNL     1      41.923  19.332  11.322  1.00  0.00     0.046 A 
ATOM      4  C   UNL     1      41.432  18.103  11.672  1.00  0.00     0.003 A 
ATOM      5  C   UNL     1      40.188  17.975  11.092  1.00  0.00     0.028 A 
ATOM      6  C   UNL     1      39.985  19.166  10.401  1.00  0.00     0.083 A 
ATOM      7  N   UNL     1      41.047  19.992  10.546  1.00  0.00    -0.361 N 
ATOM      8  C   UNL     1      42.152  17.224  12.477  1.00  0.00     0.056 A 
ATOM      9  C   UNL     1      43.420  17.636  12.931  1.00  0.00     0.116 A 
ATOM     10  H   UNL     1      41.160  20.946  10.135  1.00  0.00     0.166 HD
ENDROOT
BRANCH   9  11
ATOM     11  O   UNL     1      44.168  16.782  13.738  1.00  0.00    -0.508 OA
ATOM     12  H   UNL     1      45.052  16.398  13.425  1.00  0.00     0.293 HD
ENDBRANCH   9  11
TORSDOF 1
ENDMDL
MODEL 2
REMARK VINA RESULT:    -5.274      2.646      3.883
REMARK INTER + INTRA:          -5.428
REMARK INTER:                  -5.428
REMARK INTRA:                   0.000
REMARK UNBOUND:                 0.000
REMARK SMILES Oc1ccc2[nH]ccc2c1
REMARK SMILES IDX 3 1 4 2 5 3 9 4 8 5 7 6 6 7 10 8 2 9 1 11
REMARK H PARENT 6 10 1 12
REMARK Flexibility Score: inf
ROOT
ATOM      1  C   UNL     1      39.697  20.008   9.964  1.00  0.00     0.048 A 
ATOM      2  C   UNL     1      41.013  20.282  10.377  1.00  0.00     0.030 A 
ATOM      3  C   UNL     1      41.663  19.327  11.156  1.00  0.00     0.046 A 
ATOM      4  C   UNL     1      41.052  18.155  11.517  1.00  0.00     0.003 A 
ATOM      5  C   UNL     1      41.951  17.437  12.275  1.00  0.00     0.028 A 
ATOM      6  C   UNL     1      43.091  18.234  12.337  1.00  0.00     0.083 A 
ATOM      7  N   UNL     1      42.910  19.386  11.651  1.00  0.00    -0.361 N 
ATOM      8  C   UNL     1      39.750  17.853  11.125  1.00  0.00     0.056 A 
ATOM      9  C   UNL     1      39.064  18.796  10.337  1.00  0.00     0.116 A 
ATOM     10  H   UNL     1      43.600  20.161  11.534  1.00  0.00     0.166 HD
ENDROOT
BRANCH   9  11
ATOM     11  O   UNL     1      37.760  18.526   9.929  1.00  0.00    -0.508 OA
ATOM     12  H   UNL     1      37.539  17.712   9.366  1.00  0.00     0.293 HD
ENDBRANCH   9  11
TORSDOF 1
ENDMDL
MODEL 3
REMARK VINA RESULT:    -5.126      2.935      4.142
REMARK INTER + INTRA:          -5.276
REMARK INTER:                  -5.276
REMARK INTRA:                   0.000
REMARK UNBOUND:                 0.000
REMARK SMILES Oc1ccc2[nH]ccc2c1
REMARK SMILES IDX 3 1 4 2 5 3 9 4 8 5 7 6 6 7 10 8 2 9 1 11
REMARK H PARENT 6 10 1 12
REMARK Flexibility Score: inf
ROOT
ATOM      1  C   UNL     1      39.623  17.890  11.305  1.00  0.00     0.048 A 
ATOM      2  C   UNL     1      40.853  18.267  11.875  1.00  0.00     0.030 A 
ATOM      3  C   UNL     1      41.454  19.435  11.409  1.00  0.00     0.046 A 
ATOM      4  C   UNL     1      40.879  20.200  10.429  1.00  0.00     0.003 A 
ATOM      5  C   UNL     1      41.713  21.272  10.199  1.00  0.00     0.028 A 
ATOM      6  C   UNL     1      42.780  21.096  11.075  1.00  0.00     0.083 A 
ATOM      7  N   UNL     1      42.616  19.974  11.812  1.00  0.00    -0.361 N 
ATOM      8  C   UNL     1      39.662  19.854   9.844  1.00  0.00     0.056 A 
ATOM      9  C   UNL     1      39.027  18.680  10.291  1.00  0.00     0.116 A 
ATOM     10  H   UNL     1      43.264  19.603  12.543  1.00  0.00     0.166 HD
ENDROOT
BRANCH   9  11
ATOM     11  O   UNL     1      37.810  18.304   9.727  1.00  0.00    -0.508 OA
ATOM     12  H   UNL     1      37.134  18.994   9.419  1.00  0.00     0.293 HD
ENDBRANCH   9  11
TORSDOF 1
ENDMDL
MODEL 4
REMARK VINA RESULT:    -5.119      1.478      1.843
REMARK INTER + INTRA:          -5.269
REMARK INTER:                  -5.269
REMARK INTRA:                   0.000
REMARK UNBOUND:                 0.000
REMARK SMILES Oc1ccc2[nH]ccc2c1
REMARK SMILES IDX 3 1 4 2 5 3 9 4 8 5 7 6 6 7 10 8 2 9 1 11
REMARK H PARENT 6 10 1 12
REMARK Flexibility Score: inf
ROOT
ATOM      1  C   UNL     1      42.821  17.778  11.021  1.00  0.00     0.048 A 
ATOM      2  C   UNL     1      41.870  17.964  10.002  1.00  0.00     0.030 A 
ATOM      3  C   UNL     1      40.600  18.406  10.371  1.00  0.00     0.046 A 
ATOM      4  C   UNL     1      40.276  18.656  11.677  1.00  0.00     0.003 A 
ATOM      5  C   UNL     1      38.963  19.074  11.704  1.00  0.00     0.028 A 
ATOM      6  C   UNL     1      38.549  19.056  10.375  1.00  0.00     0.083 A 
ATOM      7  N   UNL     1      39.553  18.648   9.565  1.00  0.00    -0.361 N 
ATOM      8  C   UNL     1      41.195  18.482  12.710  1.00  0.00     0.056 A 
ATOM      9  C   UNL     1      42.487  18.036  12.374  1.00  0.00     0.116 A 
ATOM     10  H   UNL     1      39.516  18.542   8.527  1.00  0.00     0.166 HD
ENDROOT
BRANCH   9  11
ATOM     11  O   UNL     1      43.430  17.851  13.382  1.00  0.00    -0.508 OA
ATOM     12  H   UNL     1      43.155  17.747  14.352  1.00  0.00     0.293 HD
ENDBRANCH   9  11
TORSDOF 1
ENDMDL
MODEL 5
REMARK VINA RESULT:    -5.096      0.821      2.234
REMARK INTER + INTRA:          -5.245
REMARK INTER:                  -5.245
REMARK INTRA:                   0.000
REMARK UNBOUND:                 0.000
REMARK SMILES Oc1ccc2[nH]ccc2c1
REMARK SMILES IDX 3 1 4 2 5 3 9 4 8 5 7 6 6 7 10 8 2 9 1 11
REMARK H PARENT 6 10 1 12
REMARK Flexibility Score: inf
ROOT
ATOM      1  C   UNL     1      42.160  17.150  12.305  1.00  0.00     0.048 A 
ATOM      2  C   UNL     1      41.376  17.919  11.426  1.00  0.00     0.030 A 
ATOM      3  C   UNL     1      41.814  19.208  11.124  1.00  0.00     0.046 A 
ATOM      4  C   UNL     1      42.966  19.720  11.658  1.00  0.00     0.003 A 
ATOM      5  C   UNL     1      43.116  20.999  11.166  1.00  0.00     0.028 A 
ATOM      6  C   UNL     1      42.015  21.200  10.337  1.00  0.00     0.083 A 
ATOM      7  N   UNL     1      41.225  20.103  10.315  1.00  0.00    -0.361 N 
ATOM      8  C   UNL     1      43.764  18.985  12.531  1.00  0.00     0.056 A 
ATOM      9  C   UNL     1      43.352  17.679  12.859  1.00  0.00     0.116 A 
ATOM     10  H   UNL     1      40.337  19.981   9.778  1.00  0.00     0.166 HD
ENDROOT
BRANCH   9  11
ATOM     11  O   UNL     1      44.126  16.916  13.730  1.00  0.00    -0.508 OA
ATOM     12  H   UNL     1      44.952  16.423  13.410  1.00  0.00     0.293 HD
ENDBRANCH   9  11
TORSDOF 1
ENDMDL
MODEL 6
REMARK VINA RESULT:    -5.000     16.149     16.703
REMARK INTER + INTRA:          -5.146
REMARK INTER:                  -5.146
REMARK INTRA:                   0.000
REMARK UNBOUND:                 0.000
REMARK SMILES Oc1ccc2[nH]ccc2c1
REMARK SMILES IDX 3 1 4 2 5 3 9 4 8 5 7 6 6 7 10 8 2 9 1 11
REMARK H PARENT 6 10 1 12
REMARK Flexibility Score: inf
ROOT
ATOM      1  C   UNL     1      35.471   2.875  15.508  1.00  0.00     0.048 A 
ATOM      2  C   UNL     1      34.170   3.214  15.092  1.00  0.00     0.030 A 
ATOM      3  C   UNL     1      33.586   4.352  15.647  1.00  0.00     0.046 A 
ATOM      4  C   UNL     1      34.244   5.123  16.567  1.00  0.00     0.003 A 
ATOM      5  C   UNL     1      33.405   6.160  16.913  1.00  0.00     0.028 A 
ATOM      6  C   UNL     1      32.249   5.956  16.164  1.00  0.00     0.083 A 
ATOM      7  N   UNL     1      32.366   4.852  15.392  1.00  0.00    -0.361 N 
ATOM      8  C   UNL     1      35.532   4.815  17.001  1.00  0.00     0.056 A 
ATOM      9  C   UNL     1      36.153   3.673  16.461  1.00  0.00     0.116 A 
ATOM     10  H   UNL     1      31.651   4.468  14.734  1.00  0.00     0.166 HD
ENDROOT
BRANCH   9  11
ATOM     11  O   UNL     1      37.440   3.335  16.872  1.00  0.00    -0.508 OA
ATOM     12  H   UNL     1      37.713   3.382  17.847  1.00  0.00     0.293 HD
ENDBRANCH   9  11
TORSDOF 1
ENDMDL
MODEL 7
REMARK VINA RESULT:    -5.000     16.057     16.951
REMARK INTER + INTRA:          -5.146
REMARK INTER:                  -5.146
REMARK INTRA:                   0.000
REMARK UNBOUND:                 0.000
REMARK SMILES Oc1ccc2[nH]ccc2c1
REMARK SMILES IDX 3 1 4 2 5 3 9 4 8 5 7 6 6 7 10 8 2 9 1 11
REMARK H PARENT 6 10 1 12
REMARK Flexibility Score: inf
ROOT
ATOM      1  C   UNL     1      33.616   4.311  16.930  1.00  0.00     0.048 A 
ATOM      2  C   UNL     1      33.896   4.784  15.635  1.00  0.00     0.030 A 
ATOM      3  C   UNL     1      35.050   4.317  15.009  1.00  0.00     0.046 A 
ATOM      4  C   UNL     1      35.893   3.428  15.620  1.00  0.00     0.003 A 
ATOM      5  C   UNL     1      36.926   3.169  14.746  1.00  0.00     0.028 A 
ATOM      6  C   UNL     1      36.648   3.937  13.619  1.00  0.00     0.083 A 
ATOM      7  N   UNL     1      35.502   4.636  13.784  1.00  0.00    -0.361 N 
ATOM      8  C   UNL     1      35.644   2.940  16.902  1.00  0.00     0.056 A 
ATOM      9  C   UNL     1      34.487   3.391  17.565  1.00  0.00     0.116 A 
ATOM     10  H   UNL     1      35.061   5.289  13.098  1.00  0.00     0.166 HD
ENDROOT
BRANCH   9  11
ATOM     11  O   UNL     1      34.209   2.924  18.847  1.00  0.00    -0.508 OA
ATOM     12  H   UNL     1      34.030   1.942  19.026  1.00  0.00     0.293 HD
ENDBRANCH   9  11
TORSDOF 1
ENDMDL
MODEL 8
REMARK VINA RESULT:    -4.917     16.069     16.644
REMARK INTER + INTRA:          -5.061
REMARK INTER:                  -5.061
REMARK INTRA:                   0.000
REMARK UNBOUND:                 0.000
REMARK SMILES Oc1ccc2[nH]ccc2c1
REMARK SMILES IDX 3 1 4 2 5 3 9 4 8 5 7 6 6 7 10 8 2 9 1 11
REMARK H PARENT 6 10 1 12
REMARK Flexibility Score: inf
ROOT
ATOM      1  C   UNL     1      33.586   6.276  17.374  1.00  0.00     0.048 A 
ATOM      2  C   UNL     1      34.887   5.748  17.466  1.00  0.00     0.030 A 
ATOM      3  C   UNL     1      35.255   4.765  16.550  1.00  0.00     0.046 A 
ATOM      4  C   UNL     1      34.391   4.317  15.587  1.00  0.00     0.003 A 
ATOM      5  C   UNL     1      35.053   3.357  14.852  1.00  0.00     0.028 A 
ATOM      6  C   UNL     1      36.319   3.271  15.424  1.00  0.00     0.083 A 
ATOM      7  N   UNL     1      36.438   4.133  16.460  1.00  0.00    -0.361 N 
ATOM      8  C   UNL     1      33.096   4.817  15.469  1.00  0.00     0.056 A 
ATOM      9  C   UNL     1      32.690   5.813  16.379  1.00  0.00     0.116 A 
ATOM     10  H   UNL     1      37.278   4.275  17.065  1.00  0.00     0.166 HD
ENDROOT
BRANCH   9  11
ATOM     11  O   UNL     1      31.402   6.335  16.290  1.00  0.00    -0.508 OA
ATOM     12  H   UNL     1      31.238   7.291  15.996  1.00  0.00     0.293 HD
ENDBRANCH   9  11
TORSDOF 1
ENDMDL
MODEL 9
REMARK VINA RESULT:    -4.881      2.710      4.189
REMARK INTER + INTRA:          -5.024
REMARK INTER:                  -5.024
REMARK INTRA:                   0.000
REMARK UNBOUND:                 0.000
REMARK SMILES Oc1ccc2[nH]ccc2c1
REMARK SMILES IDX 3 1 4 2 5 3 9 4 8 5 7 6 6 7 10 8 2 9 1 11
REMARK H PARENT 6 10 1 12
REMARK Flexibility Score: inf
ROOT
ATOM      1  C   UNL     1      39.472  18.836  10.597  1.00  0.00     0.048 A 
ATOM      2  C   UNL     1      40.013  17.847  11.439  1.00  0.00     0.030 A 
ATOM      3  C   UNL     1      41.346  17.982  11.826  1.00  0.00     0.046 A 
ATOM      4  C   UNL     1      42.114  19.036  11.408  1.00  0.00     0.003 A 
ATOM      5  C   UNL     1      43.367  18.878  11.960  1.00  0.00     0.028 A 
ATOM      6  C   UNL     1      43.290  17.703  12.704  1.00  0.00     0.083 A 
ATOM      7  N   UNL     1      42.054  17.161  12.619  1.00  0.00    -0.361 N 
ATOM      8  C   UNL     1      41.608  20.031  10.574  1.00  0.00     0.056 A 
ATOM      9  C   UNL     1      40.266  19.927  10.164  1.00  0.00     0.116 A 
ATOM     10  H   UNL     1      41.721  16.283  13.076  1.00  0.00     0.166 HD
ENDROOT
BRANCH   9  11
ATOM     11  O   UNL     1      39.728  20.904   9.329  1.00  0.00    -0.508 OA
ATOM     12  H   UNL     1      40.264  21.300   8.565  1.00  0.00     0.293 HD
ENDBRANCH   9  11
TORSDOF 1
ENDMDL
