MODEL 1
REMARK VINA RESULT:    -4.228      0.000      0.000
REMARK INTER + INTRA:          -6.913
REMARK INTER:                  -6.452
REMARK INTRA:                  -0.461
REMARK UNBOUND:                -0.461
REMARK SMILES O=C([O-])CCCCCCCCC(=O)[O-]
REMARK SMILES IDX 7 1 6 2 5 3 4 4 2 5 1 6 3 7 8 8 9 9 10 10 11 11 12 12 13 13
REMARK SMILES IDX 14 14
REMARK H PARENT
REMARK Flexibility Score: inf
ROOT
ATOM      1  C   UNL     1      -5.125  -3.020  -0.924  1.00  0.00     0.000 C 
ENDROOT
BRANCH   1   2
ATOM      2  C   UNL     1      -6.241  -2.975   0.133  1.00  0.00     0.000 C 
BRANCH   2   3
ATOM      3  C   UNL     1      -7.627  -3.296  -0.454  1.00  0.00     0.006 C 
BRANCH   3   4
ATOM      4  C   UNL     1      -8.513  -4.060   0.539  1.00  0.00     0.053 C 
BRANCH   4   5
ATOM      5  C   UNL     1      -8.003  -5.445   0.791  1.00  0.00     0.041 C 
ATOM      6  O   UNL     1      -7.989  -5.912   1.961  1.00  0.00    -0.550 OA
ATOM      7  O   UNL     1      -7.572  -6.233  -0.269  1.00  0.00    -0.550 OA
ENDBRANCH   4   5
ENDBRANCH   3   4
ENDBRANCH   2   3
ENDBRANCH   1   2
BRANCH   1   8
ATOM      8  C   UNL     1      -5.441  -3.991  -2.075  1.00  0.00     0.000 C 
BRANCH   8   9
ATOM      9  C   UNL     1      -4.545  -3.772  -3.307  1.00  0.00     0.000 C 
BRANCH   9  10
ATOM     10  C   UNL     1      -5.296  -3.451  -4.616  1.00  0.00     0.006 C 
BRANCH  10  11
ATOM     11  C   UNL     1      -4.387  -3.090  -5.801  1.00  0.00     0.053 C 
BRANCH  11  12
ATOM     12  C   UNL     1      -4.589  -1.676  -6.251  1.00  0.00     0.041 C 
ATOM     13  O   UNL     1      -5.749  -1.191  -6.318  1.00  0.00    -0.550 OA
ATOM     14  O   UNL     1      -3.498  -0.904  -6.629  1.00  0.00    -0.550 OA
ENDBRANCH  11  12
ENDBRANCH  10  11
ENDBRANCH   9  10
ENDBRANCH   8   9
ENDBRANCH   1   8
TORSDOF 9
ENDMDL
MODEL 2
REMARK VINA RESULT:    -4.220      1.727      2.872
REMARK INTER + INTRA:          -6.900
REMARK INTER:                  -6.429
REMARK INTRA:                  -0.471
REMARK UNBOUND:                -0.461
REMARK SMILES O=C([O-])CCCCCCCCC(=O)[O-]
REMARK SMILES IDX 7 1 6 2 5 3 4 4 2 5 1 6 3 7 8 8 9 9 10 10 11 11 12 12 13 13
REMARK SMILES IDX 14 14
REMARK H PARENT
REMARK Flexibility Score: inf
ROOT
ATOM      1  C   UNL     1      -4.980  -4.184  -3.520  1.00  0.00     0.000 C 
ENDROOT
BRANCH   1   2
ATOM      2  C   UNL     1      -4.269  -3.285  -2.495  1.00  0.00     0.000 C 
BRANCH   2   3
ATOM      3  C   UNL     1      -4.939  -3.322  -1.109  1.00  0.00     0.006 C 
BRANCH   3   4
ATOM      4  C   UNL     1      -6.307  -4.015  -1.146  1.00  0.00     0.053 C 
BRANCH   4   5
ATOM      5  C   UNL     1      -7.278  -3.386  -0.193  1.00  0.00     0.041 C 
ATOM      6  O   UNL     1      -8.436  -3.864  -0.062  1.00  0.00    -0.550 OA
ATOM      7  O   UNL     1      -6.894  -2.293   0.572  1.00  0.00    -0.550 OA
ENDBRANCH   4   5
ENDBRANCH   3   4
ENDBRANCH   2   3
ENDBRANCH   1   2
BRANCH   1   8
ATOM      8  C   UNL     1      -5.382  -3.422  -4.795  1.00  0.00     0.000 C 
BRANCH   8   9
ATOM      9  C   UNL     1      -4.265  -3.394  -5.853  1.00  0.00     0.000 C 
BRANCH   9  10
ATOM     10  C   UNL     1      -4.026  -2.023  -6.519  1.00  0.00     0.006 C 
BRANCH  10  11
ATOM     11  C   UNL     1      -5.121  -0.980  -6.245  1.00  0.00     0.053 C 
BRANCH  11  12
ATOM     12  C   UNL     1      -4.550   0.384  -6.011  1.00  0.00     0.041 C 
ATOM     13  O   UNL     1      -3.303   0.548  -5.950  1.00  0.00    -0.550 OA
ATOM     14  O   UNL     1      -5.396   1.470  -5.826  1.00  0.00    -0.550 OA
ENDBRANCH  11  12
ENDBRANCH  10  11
ENDBRANCH   9  10
ENDBRANCH   8   9
ENDBRANCH   1   8
TORSDOF 9
ENDMDL
MODEL 3
REMARK VINA RESULT:    -4.193      0.219      7.206
REMARK INTER + INTRA:          -6.860
REMARK INTER:                  -6.458
REMARK INTRA:                  -0.402
REMARK UNBOUND:                -0.461
REMARK SMILES O=C([O-])CCCCCCCCC(=O)[O-]
REMARK SMILES IDX 7 1 6 2 5 3 4 4 2 5 1 6 3 7 8 8 9 9 10 10 11 11 12 12 13 13
REMARK SMILES IDX 14 14
REMARK H PARENT
REMARK Flexibility Score: inf
ROOT
ATOM      1  C   UNL     1      -5.460  -4.132  -2.319  1.00  0.00     0.000 C 
ENDROOT
BRANCH   1   2
ATOM      2  C   UNL     1      -4.533  -4.000  -3.539  1.00  0.00     0.000 C 
BRANCH   2   3
ATOM      3  C   UNL     1      -5.254  -3.428  -4.773  1.00  0.00     0.006 C 
BRANCH   3   4
ATOM      4  C   UNL     1      -4.279  -3.096  -5.910  1.00  0.00     0.053 C 
BRANCH   4   5
ATOM      5  C   UNL     1      -4.379  -1.662  -6.330  1.00  0.00     0.041 C 
ATOM      6  O   UNL     1      -3.337  -1.001  -6.582  1.00  0.00    -0.550 OA
ATOM      7  O   UNL     1      -5.624  -1.063  -6.474  1.00  0.00    -0.550 OA
ENDBRANCH   4   5
ENDBRANCH   3   4
ENDBRANCH   2   3
ENDBRANCH   1   2
BRANCH   1   8
ATOM      8  C   UNL     1      -5.064  -3.188  -1.171  1.00  0.00     0.000 C 
BRANCH   8   9
ATOM      9  C   UNL     1      -6.138  -3.096  -0.073  1.00  0.00     0.000 C 
BRANCH   9  10
ATOM     10  C   UNL     1      -7.577  -3.406  -0.535  1.00  0.00     0.006 C 
BRANCH  10  11
ATOM     11  C   UNL     1      -8.475  -4.027   0.545  1.00  0.00     0.053 C 
BRANCH  11  12
ATOM     12  C   UNL     1      -8.141  -5.466   0.792  1.00  0.00     0.041 C 
ATOM     13  O   UNL     1      -8.259  -5.956   1.945  1.00  0.00    -0.550 OA
ATOM     14  O   UNL     1      -7.668  -6.258  -0.247  1.00  0.00    -0.550 OA
ENDBRANCH  11  12
ENDBRANCH  10  11
ENDBRANCH   9  10
ENDBRANCH   8   9
ENDBRANCH   1   8
TORSDOF 9
ENDMDL
MODEL 4
REMARK VINA RESULT:    -4.090      1.210      6.738
REMARK INTER + INTRA:          -6.703
REMARK INTER:                  -6.024
REMARK INTRA:                  -0.679
REMARK UNBOUND:                -0.461
REMARK SMILES O=C([O-])CCCCCCCCC(=O)[O-]
REMARK SMILES IDX 7 1 6 2 5 3 4 4 2 5 1 6 3 7 8 8 9 9 10 10 11 11 12 12 13 13
REMARK SMILES IDX 14 14
REMARK H PARENT
REMARK Flexibility Score: inf
ROOT
ATOM      1  C   UNL     1      -5.227  -3.014  -0.537  1.00  0.00     0.000 C 
ENDROOT
BRANCH   1   2
ATOM      2  C   UNL     1      -5.495  -3.792  -1.836  1.00  0.00     0.000 C 
BRANCH   2   3
ATOM      3  C   UNL     1      -4.453  -3.496  -2.930  1.00  0.00     0.006 C 
BRANCH   3   4
ATOM      4  C   UNL     1      -5.085  -3.425  -4.326  1.00  0.00     0.053 C 
BRANCH   4   5
ATOM      5  C   UNL     1      -4.355  -2.472  -5.222  1.00  0.00     0.041 C 
ATOM      6  O   UNL     1      -3.945  -1.369  -4.773  1.00  0.00    -0.550 OA
ATOM      7  O   UNL     1      -4.101  -2.814  -6.544  1.00  0.00    -0.550 OA
ENDBRANCH   4   5
ENDBRANCH   3   4
ENDBRANCH   2   3
ENDBRANCH   1   2
BRANCH   1   8
ATOM      8  C   UNL     1      -6.521  -2.668   0.221  1.00  0.00     0.000 C 
BRANCH   8   9
ATOM      9  C   UNL     1      -7.764  -3.356  -0.371  1.00  0.00     0.000 C 
BRANCH   9  10
ATOM     10  C   UNL     1      -8.520  -4.291   0.597  1.00  0.00     0.006 C 
BRANCH  10  11
ATOM     11  C   UNL     1      -7.619  -5.244   1.398  1.00  0.00     0.053 C 
BRANCH  11  12
ATOM     12  C   UNL     1      -6.968  -6.269   0.520  1.00  0.00     0.041 C 
ATOM     13  O   UNL     1      -5.722  -6.444   0.566  1.00  0.00    -0.550 OA
ATOM     14  O   UNL     1      -7.734  -7.008  -0.373  1.00  0.00    -0.550 OA
ENDBRANCH  11  12
ENDBRANCH  10  11
ENDBRANCH   9  10
ENDBRANCH   8   9
ENDBRANCH   1   8
TORSDOF 9
ENDMDL
MODEL 5
REMARK VINA RESULT:    -4.086      1.950      7.124
REMARK INTER + INTRA:          -6.697
REMARK INTER:                  -6.333
REMARK INTRA:                  -0.364
REMARK UNBOUND:                -0.461
REMARK SMILES O=C([O-])CCCCCCCCC(=O)[O-]
REMARK SMILES IDX 7 1 6 2 5 3 4 4 2 5 1 6 3 7 8 8 9 9 10 10 11 11 12 12 13 13
REMARK SMILES IDX 14 14
REMARK H PARENT
REMARK Flexibility Score: inf
ROOT
ATOM      1  C   UNL     1      -5.187  -3.364  -5.073  1.00  0.00     0.000 C 
ENDROOT
BRANCH   1   2
ATOM      2  C   UNL     1      -4.304  -2.747  -6.169  1.00  0.00     0.000 C 
BRANCH   2   3
ATOM      3  C   UNL     1      -4.697  -1.296  -6.501  1.00  0.00     0.006 C 
BRANCH   3   4
ATOM      4  C   UNL     1      -3.562  -0.307  -6.205  1.00  0.00     0.053 C 
BRANCH   4   5
ATOM      5  C   UNL     1      -3.847   0.521  -4.989  1.00  0.00     0.041 C 
ATOM      6  O   UNL     1      -3.247   0.285  -3.908  1.00  0.00    -0.550 OA
ATOM      7  O   UNL     1      -4.751   1.573  -5.059  1.00  0.00    -0.550 OA
ENDBRANCH   4   5
ENDBRANCH   3   4
ENDBRANCH   2   3
ENDBRANCH   1   2
BRANCH   1   8
ATOM      8  C   UNL     1      -4.480  -3.420  -3.707  1.00  0.00     0.000 C 
BRANCH   8   9
ATOM      9  C   UNL     1      -5.132  -4.420  -2.736  1.00  0.00     0.000 C 
BRANCH   9  10
ATOM     10  C   UNL     1      -5.605  -3.821  -1.395  1.00  0.00     0.006 C 
BRANCH  10  11
ATOM     11  C   UNL     1      -6.624  -4.682  -0.634  1.00  0.00     0.053 C 
BRANCH  11  12
ATOM     12  C   UNL     1      -7.676  -3.848   0.031  1.00  0.00     0.041 C 
ATOM     13  O   UNL     1      -7.471  -2.625   0.250  1.00  0.00    -0.550 OA
ATOM     14  O   UNL     1      -8.869  -4.430   0.441  1.00  0.00    -0.550 OA
ENDBRANCH  11  12
ENDBRANCH  10  11
ENDBRANCH   9  10
ENDBRANCH   8   9
ENDBRANCH   1   8
TORSDOF 9
ENDMDL
MODEL 6
REMARK VINA RESULT:    -4.031      1.219      1.942
REMARK INTER + INTRA:          -6.612
REMARK INTER:                  -5.963
REMARK INTRA:                  -0.649
REMARK UNBOUND:                -0.461
REMARK SMILES O=C([O-])CCCCCCCCC(=O)[O-]
REMARK SMILES IDX 7 1 6 2 5 3 4 4 2 5 1 6 3 7 8 8 9 9 10 10 11 11 12 12 13 13
REMARK SMILES IDX 14 14
REMARK H PARENT
REMARK Flexibility Score: inf
ROOT
ATOM      1  C   UNL     1      -6.638  -2.679   0.267  1.00  0.00     0.000 C 
ENDROOT
BRANCH   1   2
ATOM      2  C   UNL     1      -7.811  -3.418  -0.396  1.00  0.00     0.000 C 
BRANCH   2   3
ATOM      3  C   UNL     1      -8.598  -4.294   0.596  1.00  0.00     0.006 C 
BRANCH   3   4
ATOM      4  C   UNL     1      -7.684  -5.245   1.378  1.00  0.00     0.053 C 
BRANCH   4   5
ATOM      5  C   UNL     1      -7.045  -6.266   0.487  1.00  0.00     0.041 C 
ATOM      6  O   UNL     1      -7.746  -6.923  -0.327  1.00  0.00    -0.550 OA
ATOM      7  O   UNL     1      -5.672  -6.469   0.532  1.00  0.00    -0.550 OA
ENDBRANCH   4   5
ENDBRANCH   3   4
ENDBRANCH   2   3
ENDBRANCH   1   2
BRANCH   1   8
ATOM      8  C   UNL     1      -5.297  -2.945  -0.439  1.00  0.00     0.000 C 
BRANCH   8   9
ATOM      9  C   UNL     1      -5.454  -3.756  -1.737  1.00  0.00     0.000 C 
BRANCH   9  10
ATOM     10  C   UNL     1      -4.435  -3.423  -2.847  1.00  0.00     0.006 C 
BRANCH  10  11
ATOM     11  C   UNL     1      -4.986  -3.541  -4.276  1.00  0.00     0.053 C 
BRANCH  11  12
ATOM     12  C   UNL     1      -4.227  -2.682  -5.241  1.00  0.00     0.041 C 
ATOM     13  O   UNL     1      -3.612  -1.662  -4.834  1.00  0.00    -0.550 OA
ATOM     14  O   UNL     1      -4.228  -2.991  -6.596  1.00  0.00    -0.550 OA
ENDBRANCH  11  12
ENDBRANCH  10  11
ENDBRANCH   9  10
ENDBRANCH   8   9
ENDBRANCH   1   8
TORSDOF 9
ENDMDL
MODEL 7
REMARK VINA RESULT:    -4.023      2.084      6.895
REMARK INTER + INTRA:          -6.601
REMARK INTER:                  -6.034
REMARK INTRA:                  -0.567
REMARK UNBOUND:                -0.461
REMARK SMILES O=C([O-])CCCCCCCCC(=O)[O-]
REMARK SMILES IDX 7 1 6 2 5 3 4 4 2 5 1 6 3 7 8 8 9 9 10 10 11 11 12 12 13 13
REMARK SMILES IDX 14 14
REMARK H PARENT
REMARK Flexibility Score: inf
ROOT
ATOM      1  C   UNL     1      -4.846  -3.355  -4.882  1.00  0.00     0.000 C 
ENDROOT
BRANCH   1   2
ATOM      2  C   UNL     1      -4.266  -2.833  -6.207  1.00  0.00     0.000 C 
BRANCH   2   3
ATOM      3  C   UNL     1      -4.827  -1.454  -6.598  1.00  0.00     0.006 C 
BRANCH   3   4
ATOM      4  C   UNL     1      -4.030  -0.306  -5.966  1.00  0.00     0.053 C 
BRANCH   4   5
ATOM      5  C   UNL     1      -4.877   0.912  -5.756  1.00  0.00     0.041 C 
ATOM      6  O   UNL     1      -4.445   1.873  -5.067  1.00  0.00    -0.550 OA
ATOM      7  O   UNL     1      -6.131   0.999  -6.347  1.00  0.00    -0.550 OA
ENDBRANCH   4   5
ENDBRANCH   3   4
ENDBRANCH   2   3
ENDBRANCH   1   2
BRANCH   1   8
ATOM      8  C   UNL     1      -3.756  -3.647  -3.835  1.00  0.00     0.000 C 
BRANCH   8   9
ATOM      9  C   UNL     1      -3.750  -2.632  -2.678  1.00  0.00     0.000 C 
BRANCH   9  10
ATOM     10  C   UNL     1      -3.784  -3.249  -1.264  1.00  0.00     0.006 C 
BRANCH  10  11
ATOM     11  C   UNL     1      -5.032  -2.894  -0.441  1.00  0.00     0.053 C 
BRANCH  11  12
ATOM     12  C   UNL     1      -6.241  -3.645  -0.907  1.00  0.00     0.041 C 
ATOM     13  O   UNL     1      -7.390  -3.151  -0.758  1.00  0.00    -0.550 OA
ATOM     14  O   UNL     1      -6.102  -4.905  -1.474  1.00  0.00    -0.550 OA
ENDBRANCH  11  12
ENDBRANCH  10  11
ENDBRANCH   9  10
ENDBRANCH   8   9
ENDBRANCH   1   8
TORSDOF 9
ENDMDL
MODEL 8
REMARK VINA RESULT:    -3.996      2.627      7.674
REMARK INTER + INTRA:          -6.558
REMARK INTER:                  -6.203
REMARK INTRA:                  -0.356
REMARK UNBOUND:                -0.461
REMARK SMILES O=C([O-])CCCCCCCCC(=O)[O-]
REMARK SMILES IDX 7 1 6 2 5 3 4 4 2 5 1 6 3 7 8 8 9 9 10 10 11 11 12 12 13 13
REMARK SMILES IDX 14 14
REMARK H PARENT
REMARK Flexibility Score: inf
ROOT
ATOM      1  C   UNL     1      -4.505  -2.082  -6.518  1.00  0.00     0.000 C 
ENDROOT
BRANCH   1   2
ATOM      2  C   UNL     1      -3.975  -0.677  -6.188  1.00  0.00     0.000 C 
BRANCH   2   3
ATOM      3  C   UNL     1      -5.098   0.371  -6.084  1.00  0.00     0.006 C 
BRANCH   3   4
ATOM      4  C   UNL     1      -4.652   1.623  -5.317  1.00  0.00     0.053 C 
BRANCH   4   5
ATOM      5  C   UNL     1      -3.836   2.541  -6.174  1.00  0.00     0.041 C 
ATOM      6  O   UNL     1      -2.597   2.656  -5.979  1.00  0.00    -0.550 OA
ATOM      7  O   UNL     1      -4.438   3.248  -7.207  1.00  0.00    -0.550 OA
ENDBRANCH   4   5
ENDBRANCH   3   4
ENDBRANCH   2   3
ENDBRANCH   1   2
BRANCH   1   8
ATOM      8  C   UNL     1      -4.025  -3.144  -5.514  1.00  0.00     0.000 C 
BRANCH   8   9
ATOM      9  C   UNL     1      -5.099  -3.518  -4.477  1.00  0.00     0.000 C 
BRANCH   9  10
ATOM     10  C   UNL     1      -4.651  -3.421  -3.004  1.00  0.00     0.006 C 
BRANCH  10  11
ATOM     11  C   UNL     1      -5.517  -4.222  -2.019  1.00  0.00     0.053 C 
BRANCH  11  12
ATOM     12  C   UNL     1      -6.088  -3.353  -0.941  1.00  0.00     0.041 C 
ATOM     13  O   UNL     1      -5.328  -2.663  -0.213  1.00  0.00    -0.550 OA
ATOM     14  O   UNL     1      -7.460  -3.331  -0.720  1.00  0.00    -0.550 OA
ENDBRANCH  11  12
ENDBRANCH  10  11
ENDBRANCH   9  10
ENDBRANCH   8   9
ENDBRANCH   1   8
TORSDOF 9
ENDMDL
MODEL 9
REMARK VINA RESULT:    -3.944      2.733      4.641
REMARK INTER + INTRA:          -6.480
REMARK INTER:                  -5.999
REMARK INTRA:                  -0.481
REMARK UNBOUND:                -0.461
REMARK SMILES O=C([O-])CCCCCCCCC(=O)[O-]
REMARK SMILES IDX 7 1 6 2 5 3 4 4 2 5 1 6 3 7 8 8 9 9 10 10 11 11 12 12 13 13
REMARK SMILES IDX 14 14
REMARK H PARENT
REMARK Flexibility Score: inf
ROOT
ATOM      1  C   UNL     1      -4.372  -2.944  -6.096  1.00  0.00     0.000 C 
ENDROOT
BRANCH   1   2
ATOM      2  C   UNL     1      -5.366  -3.341  -4.992  1.00  0.00     0.000 C 
BRANCH   2   3
ATOM      3  C   UNL     1      -4.715  -4.193  -3.887  1.00  0.00     0.006 C 
BRANCH   3   4
ATOM      4  C   UNL     1      -4.418  -3.373  -2.625  1.00  0.00     0.053 C 
BRANCH   4   5
ATOM      5  C   UNL     1      -5.329  -3.740  -1.494  1.00  0.00     0.041 C 
ATOM      6  O   UNL     1      -5.875  -4.875  -1.463  1.00  0.00    -0.550 OA
ATOM      7  O   UNL     1      -5.550  -2.842  -0.458  1.00  0.00    -0.550 OA
ENDBRANCH   4   5
ENDBRANCH   3   4
ENDBRANCH   2   3
ENDBRANCH   1   2
BRANCH   1   8
ATOM      8  C   UNL     1      -4.497  -1.465  -6.499  1.00  0.00     0.000 C 
BRANCH   8   9
ATOM      9  C   UNL     1      -3.326  -0.605  -5.992  1.00  0.00     0.000 C 
BRANCH   9  10
ATOM     10  C   UNL     1      -3.702   0.467  -4.947  1.00  0.00     0.006 C 
BRANCH  10  11
ATOM     11  C   UNL     1      -4.578   1.607  -5.488  1.00  0.00     0.053 C 
BRANCH  11  12
ATOM     12  C   UNL     1      -3.776   2.617  -6.249  1.00  0.00     0.041 C 
ATOM     13  O   UNL     1      -2.565   2.811  -5.963  1.00  0.00    -0.550 OA
ATOM     14  O   UNL     1      -4.374   3.368  -7.253  1.00  0.00    -0.550 OA
ENDBRANCH  11  12
ENDBRANCH  10  11
ENDBRANCH   9  10
ENDBRANCH   8   9
ENDBRANCH   1   8
TORSDOF 9
ENDMDL
