MODEL 1
REMARK VINA RESULT:    -5.131      0.000      0.000
REMARK INTER + INTRA:          -8.893
REMARK INTER:                  -8.130
REMARK INTRA:                  -0.762
REMARK UNBOUND:                -0.762
REMARK SMILES CCCCCCCCCCCC(=O)[O-]
REMARK SMILES IDX 7 1 8 2 9 3 10 4 11 5 12 6 13 7 14 8 6 9 5 10 4 11 3 12 2 13
REMARK SMILES IDX 1 14
REMARK H PARENT
REMARK Flexibility Score: inf
ROOT
ATOM      1  C   UNL     1      25.482  12.825  35.467  1.00  0.00     0.000 C 
ENDROOT
BRANCH   1   2
ATOM      2  C   UNL     1      25.811  11.790  34.386  1.00  0.00     0.000 C 
BRANCH   2   3
ATOM      3  C   UNL     1      27.155  11.103  34.672  1.00  0.00     0.000 C 
BRANCH   3   4
ATOM      4  C   UNL     1      28.337  11.761  33.939  1.00  0.00     0.006 C 
BRANCH   4   5
ATOM      5  C   UNL     1      27.918  12.710  32.803  1.00  0.00     0.053 C 
BRANCH   5   6
ATOM      6  C   UNL     1      28.234  12.162  31.444  1.00  0.00     0.041 C 
ATOM      7  O   UNL     1      28.962  12.811  30.648  1.00  0.00    -0.550 OA
ATOM      8  O   UNL     1      27.749  10.915  31.068  1.00  0.00    -0.550 OA
ENDBRANCH   5   6
ENDBRANCH   4   5
ENDBRANCH   3   4
ENDBRANCH   2   3
ENDBRANCH   1   2
BRANCH   1   9
ATOM      9  C   UNL     1      24.229  12.422  36.254  1.00  0.00     0.000 C 
BRANCH   9  10
ATOM     10  C   UNL     1      23.545  11.205  35.612  1.00  0.00    -0.000 C 
BRANCH  10  11
ATOM     11  C   UNL     1      22.049  11.437  35.343  1.00  0.00    -0.000 C 
BRANCH  11  12
ATOM     12  C   UNL     1      21.801  12.511  34.270  1.00  0.00    -0.000 C 
BRANCH  12  13
ATOM     13  C   UNL     1      20.929  13.667  34.784  1.00  0.00    -0.003 C 
ATOM     14  C   UNL     1      19.884  13.213  35.804  1.00  0.00     0.004 C 
ENDBRANCH  12  13
ENDBRANCH  11  12
ENDBRANCH  10  11
ENDBRANCH   9  10
ENDBRANCH   1   9
TORSDOF 10
ENDMDL
MODEL 2
REMARK VINA RESULT:    -5.102      0.934      1.740
REMARK INTER + INTRA:          -8.847
REMARK INTER:                  -8.093
REMARK INTRA:                  -0.754
REMARK UNBOUND:                -0.762
REMARK SMILES CCCCCCCCCCCC(=O)[O-]
REMARK SMILES IDX 7 1 8 2 9 3 10 4 11 5 12 6 13 7 14 8 6 9 5 10 4 11 3 12 2 13
REMARK SMILES IDX 1 14
REMARK H PARENT
REMARK Flexibility Score: inf
ROOT
ATOM      1  C   UNL     1      26.063  11.006  34.729  1.00  0.00     0.000 C 
ENDROOT
BRANCH   1   2
ATOM      2  C   UNL     1      27.452  11.535  35.104  1.00  0.00     0.000 C 
BRANCH   2   3
ATOM      3  C   UNL     1      28.136  12.190  33.895  1.00  0.00     0.000 C 
BRANCH   3   4
ATOM      4  C   UNL     1      27.255  13.242  33.199  1.00  0.00     0.006 C 
BRANCH   4   5
ATOM      5  C   UNL     1      26.844  12.863  31.765  1.00  0.00     0.053 C 
BRANCH   5   6
ATOM      6  C   UNL     1      27.963  12.237  30.989  1.00  0.00     0.041 C 
ATOM      7  O   UNL     1      27.897  11.030  30.637  1.00  0.00    -0.550 OA
ATOM      8  O   UNL     1      29.067  12.998  30.626  1.00  0.00    -0.550 OA
ENDBRANCH   5   6
ENDBRANCH   4   5
ENDBRANCH   3   4
ENDBRANCH   2   3
ENDBRANCH   1   2
BRANCH   1   9
ATOM      9  C   UNL     1      25.068  11.208  35.879  1.00  0.00     0.000 C 
BRANCH   9  10
ATOM     10  C   UNL     1      24.393  12.585  35.785  1.00  0.00    -0.000 C 
BRANCH  10  11
ATOM     11  C   UNL     1      23.102  12.559  34.951  1.00  0.00    -0.000 C 
BRANCH  11  12
ATOM     12  C   UNL     1      22.223  11.336  35.259  1.00  0.00    -0.000 C 
BRANCH  12  13
ATOM     13  C   UNL     1      20.810  11.727  35.722  1.00  0.00    -0.003 C 
ATOM     14  C   UNL     1      20.505  13.209  35.504  1.00  0.00     0.004 C 
ENDBRANCH  12  13
ENDBRANCH  11  12
ENDBRANCH  10  11
ENDBRANCH   9  10
ENDBRANCH   1   9
TORSDOF 10
ENDMDL
MODEL 3
REMARK VINA RESULT:    -5.002      3.667      6.900
REMARK INTER + INTRA:          -8.689
REMARK INTER:                  -8.036
REMARK INTRA:                  -0.653
REMARK UNBOUND:                -0.762
REMARK SMILES CCCCCCCCCCCC(=O)[O-]
REMARK SMILES IDX 7 1 8 2 9 3 10 4 11 5 12 6 13 7 14 8 6 9 5 10 4 11 3 12 2 13
REMARK SMILES IDX 1 14
REMARK H PARENT
REMARK Flexibility Score: inf
ROOT
ATOM      1  C   UNL     1      25.415  12.429  35.874  1.00  0.00     0.000 C 
ENDROOT
BRANCH   1   2
ATOM      2  C   UNL     1      23.884  12.505  35.871  1.00  0.00     0.000 C 
BRANCH   2   3
ATOM      3  C   UNL     1      23.277  11.341  35.074  1.00  0.00     0.000 C 
BRANCH   3   4
ATOM      4  C   UNL     1      22.015  10.753  35.730  1.00  0.00     0.006 C 
BRANCH   4   5
ATOM      5  C   UNL     1      20.701  11.178  35.049  1.00  0.00     0.053 C 
BRANCH   5   6
ATOM      6  C   UNL     1      20.143  12.451  35.610  1.00  0.00     0.041 C 
ATOM      7  O   UNL     1      19.237  12.418  36.484  1.00  0.00    -0.550 OA
ATOM      8  O   UNL     1      20.646  13.675  35.189  1.00  0.00    -0.550 OA
ENDBRANCH   5   6
ENDBRANCH   4   5
ENDBRANCH   3   4
ENDBRANCH   2   3
ENDBRANCH   1   2
BRANCH   1   9
ATOM      9  C   UNL     1      25.903  11.118  35.245  1.00  0.00     0.000 C 
BRANCH   9  10
ATOM     10  C   UNL     1      27.344  11.256  34.734  1.00  0.00    -0.000 C 
BRANCH  10  11
ATOM     11  C   UNL     1      27.789  12.722  34.596  1.00  0.00    -0.000 C 
BRANCH  11  12
ATOM     12  C   UNL     1      27.652  13.248  33.157  1.00  0.00    -0.000 C 
BRANCH  12  13
ATOM     13  C   UNL     1      28.047  12.200  32.106  1.00  0.00    -0.003 C 
ATOM     14  C   UNL     1      28.702  12.817  30.870  1.00  0.00     0.004 C 
ENDBRANCH  12  13
ENDBRANCH  11  12
ENDBRANCH  10  11
ENDBRANCH   9  10
ENDBRANCH   1   9
TORSDOF 10
ENDMDL
MODEL 4
REMARK VINA RESULT:    -4.988      3.845      6.571
REMARK INTER + INTRA:          -8.667
REMARK INTER:                  -7.828
REMARK INTRA:                  -0.839
REMARK UNBOUND:                -0.762
REMARK SMILES CCCCCCCCCCCC(=O)[O-]
REMARK SMILES IDX 7 1 8 2 9 3 10 4 11 5 12 6 13 7 14 8 6 9 5 10 4 11 3 12 2 13
REMARK SMILES IDX 1 14
REMARK H PARENT
REMARK Flexibility Score: inf
ROOT
ATOM      1  C   UNL     1      25.822  11.187  34.500  1.00  0.00     0.000 C 
ENDROOT
BRANCH   1   2
ATOM      2  C   UNL     1      24.997  11.210  35.792  1.00  0.00     0.000 C 
BRANCH   2   3
ATOM      3  C   UNL     1      24.207  12.521  35.917  1.00  0.00     0.000 C 
BRANCH   3   4
ATOM      4  C   UNL     1      22.859  12.487  35.176  1.00  0.00     0.006 C 
BRANCH   4   5
ATOM      5  C   UNL     1      21.928  11.347  35.626  1.00  0.00     0.053 C 
BRANCH   5   6
ATOM      6  C   UNL     1      20.489  11.763  35.685  1.00  0.00     0.041 C 
ATOM      7  O   UNL     1      19.573  10.906  35.580  1.00  0.00    -0.550 OA
ATOM      8  O   UNL     1      20.160  13.097  35.889  1.00  0.00    -0.550 OA
ENDBRANCH   5   6
ENDBRANCH   4   5
ENDBRANCH   3   4
ENDBRANCH   2   3
ENDBRANCH   1   2
BRANCH   1   9
ATOM      9  C   UNL     1      27.325  11.163  34.805  1.00  0.00     0.000 C 
BRANCH   9  10
ATOM     10  C   UNL     1      27.940  12.562  34.648  1.00  0.00    -0.000 C 
BRANCH  10  11
ATOM     11  C   UNL     1      27.481  13.272  33.365  1.00  0.00    -0.000 C 
BRANCH  11  12
ATOM     12  C   UNL     1      28.161  12.713  32.104  1.00  0.00    -0.000 C 
BRANCH  12  13
ATOM     13  C   UNL     1      27.197  12.608  30.912  1.00  0.00    -0.003 C 
ATOM     14  C   UNL     1      25.768  13.020  31.267  1.00  0.00     0.004 C 
ENDBRANCH  12  13
ENDBRANCH  11  12
ENDBRANCH  10  11
ENDBRANCH   9  10
ENDBRANCH   1   9
TORSDOF 10
ENDMDL
MODEL 5
REMARK VINA RESULT:    -4.955      1.737      2.430
REMARK INTER + INTRA:          -8.614
REMARK INTER:                  -8.098
REMARK INTRA:                  -0.516
REMARK UNBOUND:                -0.762
REMARK SMILES CCCCCCCCCCCC(=O)[O-]
REMARK SMILES IDX 7 1 8 2 9 3 10 4 11 5 12 6 13 7 14 8 6 9 5 10 4 11 3 12 2 13
REMARK SMILES IDX 1 14
REMARK H PARENT
REMARK Flexibility Score: inf
ROOT
ATOM      1  C   UNL     1      24.333  11.761  35.482  1.00  0.00     0.000 C 
ENDROOT
BRANCH   1   2
ATOM      2  C   UNL     1      25.378  11.810  34.361  1.00  0.00     0.000 C 
BRANCH   2   3
ATOM      3  C   UNL     1      26.648  11.043  34.758  1.00  0.00     0.000 C 
BRANCH   3   4
ATOM      4  C   UNL     1      27.935  11.675  34.198  1.00  0.00     0.006 C 
BRANCH   4   5
ATOM      5  C   UNL     1      27.692  12.687  33.064  1.00  0.00     0.053 C 
BRANCH   5   6
ATOM      6  C   UNL     1      28.093  12.158  31.720  1.00  0.00     0.041 C 
ATOM      7  O   UNL     1      27.685  11.033  31.330  1.00  0.00    -0.550 OA
ATOM      8  O   UNL     1      28.895  12.924  30.883  1.00  0.00    -0.550 OA
ENDBRANCH   5   6
ENDBRANCH   4   5
ENDBRANCH   3   4
ENDBRANCH   2   3
ENDBRANCH   1   2
BRANCH   1   9
ATOM      9  C   UNL     1      23.088  12.575  35.110  1.00  0.00     0.000 C 
BRANCH   9  10
ATOM     10  C   UNL     1      21.809  11.749  35.314  1.00  0.00    -0.000 C 
BRANCH  10  11
ATOM     11  C   UNL     1      22.096  10.326  35.820  1.00  0.00    -0.000 C 
BRANCH  11  12
ATOM     12  C   UNL     1      21.020   9.316  35.384  1.00  0.00    -0.000 C 
BRANCH  12  13
ATOM     13  C   UNL     1      19.743   9.413  36.234  1.00  0.00    -0.003 C 
ATOM     14  C   UNL     1      19.443   8.124  37.001  1.00  0.00     0.004 C 
ENDBRANCH  12  13
ENDBRANCH  11  12
ENDBRANCH  10  11
ENDBRANCH   9  10
ENDBRANCH   1   9
TORSDOF 10
ENDMDL
MODEL 6
REMARK VINA RESULT:    -4.907      4.232      6.714
REMARK INTER + INTRA:          -8.538
REMARK INTER:                  -7.576
REMARK INTRA:                  -0.962
REMARK UNBOUND:                -0.762
REMARK SMILES CCCCCCCCCCCC(=O)[O-]
REMARK SMILES IDX 7 1 8 2 9 3 10 4 11 5 12 6 13 7 14 8 6 9 5 10 4 11 3 12 2 13
REMARK SMILES IDX 1 14
REMARK H PARENT
REMARK Flexibility Score: inf
ROOT
ATOM      1  C   UNL     1      24.307  12.523  35.850  1.00  0.00     0.000 C 
ENDROOT
BRANCH   1   2
ATOM      2  C   UNL     1      22.823  12.524  35.467  1.00  0.00     0.000 C 
BRANCH   2   3
ATOM      3  C   UNL     1      22.610  11.880  34.089  1.00  0.00     0.000 C 
BRANCH   3   4
ATOM      4  C   UNL     1      21.651  10.677  34.126  1.00  0.00     0.006 C 
BRANCH   4   5
ATOM      5  C   UNL     1      21.410  10.114  35.538  1.00  0.00     0.053 C 
BRANCH   5   6
ATOM      6  C   UNL     1      19.974   9.759  35.783  1.00  0.00     0.041 C 
ATOM      7  O   UNL     1      19.676   8.785  36.522  1.00  0.00    -0.550 OA
ATOM      8  O   UNL     1      18.963  10.526  35.217  1.00  0.00    -0.550 OA
ENDBRANCH   5   6
ENDBRANCH   4   5
ENDBRANCH   3   4
ENDBRANCH   2   3
ENDBRANCH   1   2
BRANCH   1   9
ATOM      9  C   UNL     1      24.893  11.107  35.782  1.00  0.00     0.000 C 
BRANCH   9  10
ATOM     10  C   UNL     1      26.269  11.114  35.099  1.00  0.00    -0.000 C 
BRANCH  10  11
ATOM     11  C   UNL     1      26.233  11.735  33.694  1.00  0.00    -0.000 C 
BRANCH  11  12
ATOM     12  C   UNL     1      27.434  12.657  33.424  1.00  0.00    -0.000 C 
BRANCH  12  13
ATOM     13  C   UNL     1      28.006  13.272  34.711  1.00  0.00    -0.003 C 
ATOM     14  C   UNL     1      27.302  14.569  35.111  1.00  0.00     0.004 C 
ENDBRANCH  12  13
ENDBRANCH  11  12
ENDBRANCH  10  11
ENDBRANCH   9  10
ENDBRANCH   1   9
TORSDOF 10
ENDMDL
MODEL 7
REMARK VINA RESULT:    -4.878      3.211      6.183
REMARK INTER + INTRA:          -8.492
REMARK INTER:                  -7.523
REMARK INTRA:                  -0.970
REMARK UNBOUND:                -0.762
REMARK SMILES CCCCCCCCCCCC(=O)[O-]
REMARK SMILES IDX 7 1 8 2 9 3 10 4 11 5 12 6 13 7 14 8 6 9 5 10 4 11 3 12 2 13
REMARK SMILES IDX 1 14
REMARK H PARENT
REMARK Flexibility Score: inf
ROOT
ATOM      1  C   UNL     1      24.933  11.403  34.591  1.00  0.00     0.000 C 
ENDROOT
BRANCH   1   2
ATOM      2  C   UNL     1      23.930  11.800  35.680  1.00  0.00     0.000 C 
BRANCH   2   3
ATOM      3  C   UNL     1      22.828  10.741  35.826  1.00  0.00     0.000 C 
BRANCH   3   4
ATOM      4  C   UNL     1      21.467  11.206  35.279  1.00  0.00     0.006 C 
BRANCH   4   5
ATOM      5  C   UNL     1      21.237  12.724  35.386  1.00  0.00     0.053 C 
BRANCH   5   6
ATOM      6  C   UNL     1      21.071  13.380  34.048  1.00  0.00     0.041 C 
ATOM      7  O   UNL     1      21.307  12.739  32.991  1.00  0.00    -0.550 OA
ATOM      8  O   UNL     1      20.624  14.693  33.970  1.00  0.00    -0.550 OA
ENDBRANCH   5   6
ENDBRANCH   4   5
ENDBRANCH   3   4
ENDBRANCH   2   3
ENDBRANCH   1   2
BRANCH   1   9
ATOM      9  C   UNL     1      24.783  12.295  33.352  1.00  0.00     0.000 C 
BRANCH   9  10
ATOM     10  C   UNL     1      26.001  12.160  32.426  1.00  0.00    -0.000 C 
BRANCH  10  11
ATOM     11  C   UNL     1      27.115  13.166  32.757  1.00  0.00    -0.000 C 
BRANCH  11  12
ATOM     12  C   UNL     1      28.155  12.596  33.736  1.00  0.00    -0.000 C 
BRANCH  12  13
ATOM     13  C   UNL     1      27.992  13.155  35.158  1.00  0.00    -0.003 C 
ATOM     14  C   UNL     1      27.288  14.512  35.185  1.00  0.00     0.004 C 
ENDBRANCH  12  13
ENDBRANCH  11  12
ENDBRANCH  10  11
ENDBRANCH   9  10
ENDBRANCH   1   9
TORSDOF 10
ENDMDL
MODEL 8
REMARK VINA RESULT:    -4.863      4.227      7.013
REMARK INTER + INTRA:          -8.468
REMARK INTER:                  -7.832
REMARK INTRA:                  -0.636
REMARK UNBOUND:                -0.762
REMARK SMILES CCCCCCCCCCCC(=O)[O-]
REMARK SMILES IDX 7 1 8 2 9 3 10 4 11 5 12 6 13 7 14 8 6 9 5 10 4 11 3 12 2 13
REMARK SMILES IDX 1 14
REMARK H PARENT
REMARK Flexibility Score: inf
ROOT
ATOM      1  C   UNL     1      23.758  12.094  35.519  1.00  0.00     0.000 C 
ENDROOT
BRANCH   1   2
ATOM      2  C   UNL     1      22.731  10.998  35.825  1.00  0.00     0.000 C 
BRANCH   2   3
ATOM      3  C   UNL     1      21.388  11.297  35.144  1.00  0.00     0.000 C 
BRANCH   3   4
ATOM      4  C   UNL     1      21.342  12.685  34.481  1.00  0.00     0.006 C 
BRANCH   4   5
ATOM      5  C   UNL     1      20.579  13.742  35.299  1.00  0.00     0.053 C 
BRANCH   5   6
ATOM      6  C   UNL     1      19.132  13.397  35.487  1.00  0.00     0.041 C 
ATOM      7  O   UNL     1      18.699  13.062  36.620  1.00  0.00    -0.550 OA
ATOM      8  O   UNL     1      18.255  13.474  34.412  1.00  0.00    -0.550 OA
ENDBRANCH   5   6
ENDBRANCH   4   5
ENDBRANCH   3   4
ENDBRANCH   2   3
ENDBRANCH   1   2
BRANCH   1   9
ATOM      9  C   UNL     1      25.163  11.676  35.971  1.00  0.00     0.000 C 
BRANCH   9  10
ATOM     10  C   UNL     1      25.975  11.113  34.795  1.00  0.00    -0.000 C 
BRANCH  10  11
ATOM     11  C   UNL     1      27.475  11.430  34.902  1.00  0.00    -0.000 C 
BRANCH  11  12
ATOM     12  C   UNL     1      27.977  12.312  33.746  1.00  0.00    -0.000 C 
BRANCH  12  13
ATOM     13  C   UNL     1      27.346  13.713  33.757  1.00  0.00    -0.003 C 
ATOM     14  C   UNL     1      27.502  14.423  35.102  1.00  0.00     0.004 C 
ENDBRANCH  12  13
ENDBRANCH  11  12
ENDBRANCH  10  11
ENDBRANCH   9  10
ENDBRANCH   1   9
TORSDOF 10
ENDMDL
MODEL 9
REMARK VINA RESULT:    -4.765      1.998      3.299
REMARK INTER + INTRA:          -8.314
REMARK INTER:                  -7.176
REMARK INTRA:                  -1.138
REMARK UNBOUND:                -0.762
REMARK SMILES CCCCCCCCCCCC(=O)[O-]
REMARK SMILES IDX 7 1 8 2 9 3 10 4 11 5 12 6 13 7 14 8 6 9 5 10 4 11 3 12 2 13
REMARK SMILES IDX 1 14
REMARK H PARENT
REMARK Flexibility Score: inf
ROOT
ATOM      1  C   UNL     1      22.310  11.117  34.106  1.00  0.00     0.000 C 
ENDROOT
BRANCH   1   2
ATOM      2  C   UNL     1      23.674  11.803  34.247  1.00  0.00     0.000 C 
BRANCH   2   3
ATOM      3  C   UNL     1      23.758  12.596  35.559  1.00  0.00     0.000 C 
BRANCH   3   4
ATOM      4  C   UNL     1      25.164  12.585  36.184  1.00  0.00     0.006 C 
BRANCH   4   5
ATOM      5  C   UNL     1      26.274  12.138  35.215  1.00  0.00     0.053 C 
BRANCH   5   6
ATOM      6  C   UNL     1      26.969  13.293  34.560  1.00  0.00     0.041 C 
ATOM      7  O   UNL     1      27.666  14.088  35.243  1.00  0.00    -0.550 OA
ATOM      8  O   UNL     1      26.873  13.473  33.186  1.00  0.00    -0.550 OA
ENDBRANCH   5   6
ENDBRANCH   4   5
ENDBRANCH   3   4
ENDBRANCH   2   3
ENDBRANCH   1   2
BRANCH   1   9
ATOM      9  C   UNL     1      21.725  10.765  35.479  1.00  0.00     0.000 C 
BRANCH   9  10
ATOM     10  C   UNL     1      20.205  10.980  35.501  1.00  0.00    -0.000 C 
BRANCH  10  11
ATOM     11  C   UNL     1      19.805  12.340  36.096  1.00  0.00    -0.000 C 
BRANCH  11  12
ATOM     12  C   UNL     1      19.323  13.335  35.026  1.00  0.00    -0.000 C 
BRANCH  12  13
ATOM     13  C   UNL     1      20.470  14.178  34.447  1.00  0.00    -0.003 C 
ATOM     14  C   UNL     1      20.465  14.216  32.918  1.00  0.00     0.004 C 
ENDBRANCH  12  13
ENDBRANCH  11  12
ENDBRANCH  10  11
ENDBRANCH   9  10
ENDBRANCH   1   9
TORSDOF 10
ENDMDL
