MODEL 1
REMARK VINA RESULT:    -4.243      0.000      0.000
REMARK INTER + INTRA:          -9.665
REMARK INTER:                  -7.964
REMARK INTRA:                  -1.701
REMARK UNBOUND:                -1.701
REMARK SMILES O=C([O-])CCCCCCCCCCCCCCC(=O)[O-]
REMARK SMILES IDX 10 1 9 2 8 3 7 4 6 5 5 6 4 7 2 8 1 9 3 10 11 11 12 12 13 13
REMARK SMILES IDX 14 14 15 15 16 16 17 17 18 18 19 19 20 20
REMARK H PARENT
REMARK Flexibility Score: inf
ROOT
ATOM      1  C   UNL     1      28.303  -0.599  -7.502  1.00  0.00     0.000 C 
ENDROOT
BRANCH   1   2
ATOM      2  C   UNL     1      28.508  -1.739  -6.484  1.00  0.00     0.000 C 
BRANCH   2   3
ATOM      3  C   UNL     1      29.237  -2.970  -7.059  1.00  0.00     0.000 C 
BRANCH   3   4
ATOM      4  C   UNL     1      28.299  -4.105  -7.525  1.00  0.00     0.000 C 
BRANCH   4   5
ATOM      5  C   UNL     1      26.972  -4.218  -6.746  1.00  0.00     0.000 C 
BRANCH   5   6
ATOM      6  C   UNL     1      25.880  -5.081  -7.413  1.00  0.00     0.006 C 
BRANCH   6   7
ATOM      7  C   UNL     1      26.074  -5.316  -8.920  1.00  0.00     0.053 C 
BRANCH   7   8
ATOM      8  C   UNL     1      24.798  -5.134  -9.683  1.00  0.00     0.041 C 
ATOM      9  O   UNL     1      24.822  -4.967 -10.932  1.00  0.00    -0.550 OA
ATOM     10  O   UNL     1      23.582  -5.118  -9.010  1.00  0.00    -0.550 OA
ENDBRANCH   7   8
ENDBRANCH   6   7
ENDBRANCH   5   6
ENDBRANCH   4   5
ENDBRANCH   3   4
ENDBRANCH   2   3
ENDBRANCH   1   2
BRANCH   1  11
ATOM     11  C   UNL     1      26.819  -0.394  -7.850  1.00  0.00     0.000 C 
BRANCH  11  12
ATOM     12  C   UNL     1      26.342  -1.305  -8.991  1.00  0.00     0.000 C 
BRANCH  12  13
ATOM     13  C   UNL     1      24.850  -1.667  -8.877  1.00  0.00     0.000 C 
BRANCH  13  14
ATOM     14  C   UNL     1      24.109  -1.540 -10.219  1.00  0.00     0.000 C 
BRANCH  14  15
ATOM     15  C   UNL     1      24.941  -0.802 -11.283  1.00  0.00     0.000 C 
BRANCH  15  16
ATOM     16  C   UNL     1      24.065  -0.081 -12.321  1.00  0.00     0.006 C 
BRANCH  16  17
ATOM     17  C   UNL     1      24.479  -0.400 -13.764  1.00  0.00     0.053 C 
BRANCH  17  18
ATOM     18  C   UNL     1      25.071   0.810 -14.415  1.00  0.00     0.041 C 
ATOM     19  O   UNL     1      25.357   0.794 -15.643  1.00  0.00    -0.550 OA
ATOM     20  O   UNL     1      25.352   1.941 -13.658  1.00  0.00    -0.550 OA
ENDBRANCH  17  18
ENDBRANCH  16  17
ENDBRANCH  15  16
ENDBRANCH  14  15
ENDBRANCH  13  14
ENDBRANCH  12  13
ENDBRANCH  11  12
ENDBRANCH   1  11
TORSDOF 15
ENDMDL
MODEL 2
REMARK VINA RESULT:    -4.219      1.749      2.309
REMARK INTER + INTRA:          -9.619
REMARK INTER:                  -7.613
REMARK INTRA:                  -2.006
REMARK UNBOUND:                -1.701
REMARK SMILES O=C([O-])CCCCCCCCCCCCCCC(=O)[O-]
REMARK SMILES IDX 10 1 9 2 8 3 7 4 6 5 5 6 4 7 2 8 1 9 3 10 11 11 12 12 13 13
REMARK SMILES IDX 14 14 15 15 16 16 17 17 18 18 19 19 20 20
REMARK H PARENT
REMARK Flexibility Score: inf
ROOT
ATOM      1  C   UNL     1      26.824  -1.137  -8.351  1.00  0.00     0.000 C 
ENDROOT
BRANCH   1   2
ATOM      2  C   UNL     1      26.486  -2.521  -7.762  1.00  0.00     0.000 C 
BRANCH   2   3
ATOM      3  C   UNL     1      27.239  -3.688  -8.432  1.00  0.00     0.000 C 
BRANCH   3   4
ATOM      4  C   UNL     1      27.012  -3.800  -9.956  1.00  0.00     0.000 C 
BRANCH   4   5
ATOM      5  C   UNL     1      25.859  -4.735 -10.379  1.00  0.00     0.000 C 
BRANCH   5   6
ATOM      6  C   UNL     1      25.080  -5.395  -9.222  1.00  0.00     0.006 C 
BRANCH   6   7
ATOM      7  C   UNL     1      23.551  -5.259  -9.314  1.00  0.00     0.053 C 
BRANCH   7   8
ATOM      8  C   UNL     1      22.902  -6.530  -9.769  1.00  0.00     0.041 C 
ATOM      9  O   UNL     1      23.606  -7.512 -10.122  1.00  0.00    -0.550 OA
ATOM     10  O   UNL     1      21.516  -6.618  -9.832  1.00  0.00    -0.550 OA
ENDBRANCH   7   8
ENDBRANCH   6   7
ENDBRANCH   5   6
ENDBRANCH   4   5
ENDBRANCH   3   4
ENDBRANCH   2   3
ENDBRANCH   1   2
BRANCH   1  11
ATOM     11  C   UNL     1      25.618  -0.501  -9.065  1.00  0.00     0.000 C 
BRANCH  11  12
ATOM     12  C   UNL     1      24.353  -1.368  -8.987  1.00  0.00     0.000 C 
BRANCH  12  13
ATOM     13  C   UNL     1      23.761  -1.681 -10.373  1.00  0.00     0.000 C 
BRANCH  13  14
ATOM     14  C   UNL     1      24.691  -1.254 -11.520  1.00  0.00     0.000 C 
BRANCH  14  15
ATOM     15  C   UNL     1      24.031  -0.236 -12.467  1.00  0.00     0.000 C 
BRANCH  15  16
ATOM     16  C   UNL     1      25.022   0.820 -12.983  1.00  0.00     0.006 C 
BRANCH  16  17
ATOM     17  C   UNL     1      25.044   0.906 -14.516  1.00  0.00     0.053 C 
BRANCH  17  18
ATOM     18  C   UNL     1      25.597  -0.355 -15.101  1.00  0.00     0.041 C 
ATOM     19  O   UNL     1      24.897  -1.053 -15.882  1.00  0.00    -0.550 OA
ATOM     20  O   UNL     1      26.871  -0.786 -14.746  1.00  0.00    -0.550 OA
ENDBRANCH  17  18
ENDBRANCH  16  17
ENDBRANCH  15  16
ENDBRANCH  14  15
ENDBRANCH  13  14
ENDBRANCH  12  13
ENDBRANCH  11  12
ENDBRANCH   1  11
TORSDOF 15
ENDMDL
MODEL 3
REMARK VINA RESULT:    -4.201     16.827     19.257
REMARK INTER + INTRA:          -9.585
REMARK INTER:                  -8.000
REMARK INTRA:                  -1.585
REMARK UNBOUND:                -1.701
REMARK SMILES O=C([O-])CCCCCCCCCCCCCCC(=O)[O-]
REMARK SMILES IDX 10 1 9 2 8 3 7 4 6 5 5 6 4 7 2 8 1 9 3 10 11 11 12 12 13 13
REMARK SMILES IDX 14 14 15 15 16 16 17 17 18 18 19 19 20 20
REMARK H PARENT
REMARK Flexibility Score: inf
ROOT
ATOM      1  C   UNL     1      12.243   4.940  -5.121  1.00  0.00     0.000 C 
ENDROOT
BRANCH   1   2
ATOM      2  C   UNL     1      10.882   4.543  -5.729  1.00  0.00     0.000 C 
BRANCH   2   3
ATOM      3  C   UNL     1      10.635   5.117  -7.138  1.00  0.00     0.000 C 
BRANCH   3   4
ATOM      4  C   UNL     1      10.004   6.527  -7.150  1.00  0.00     0.000 C 
BRANCH   4   5
ATOM      5  C   UNL     1      11.009   7.694  -7.053  1.00  0.00     0.000 C 
BRANCH   5   6
ATOM      6  C   UNL     1      10.404   9.107  -7.185  1.00  0.00     0.006 C 
BRANCH   6   7
ATOM      7  C   UNL     1      10.791   9.857  -8.470  1.00  0.00     0.053 C 
BRANCH   7   8
ATOM      8  C   UNL     1      12.136  10.505  -8.356  1.00  0.00     0.041 C 
ATOM      9  O   UNL     1      12.533  10.958  -7.250  1.00  0.00    -0.550 OA
ATOM     10  O   UNL     1      12.941  10.637  -9.482  1.00  0.00    -0.550 OA
ENDBRANCH   7   8
ENDBRANCH   6   7
ENDBRANCH   5   6
ENDBRANCH   4   5
ENDBRANCH   3   4
ENDBRANCH   2   3
ENDBRANCH   1   2
BRANCH   1  11
ATOM     11  C   UNL     1      12.084   5.845  -3.887  1.00  0.00     0.000 C 
BRANCH  11  12
ATOM     12  C   UNL     1      10.674   5.786  -3.280  1.00  0.00     0.000 C 
BRANCH  12  13
ATOM     13  C   UNL     1      10.054   7.180  -3.080  1.00  0.00     0.000 C 
BRANCH  13  14
ATOM     14  C   UNL     1      11.019   8.314  -3.465  1.00  0.00     0.000 C 
BRANCH  14  15
ATOM     15  C   UNL     1      11.512   9.108  -2.242  1.00  0.00     0.000 C 
BRANCH  15  16
ATOM     16  C   UNL     1      12.903   8.658  -1.768  1.00  0.00     0.006 C 
BRANCH  16  17
ATOM     17  C   UNL     1      13.387   9.440  -0.539  1.00  0.00     0.053 C 
BRANCH  17  18
ATOM     18  C   UNL     1      14.842   9.189  -0.301  1.00  0.00     0.041 C 
ATOM     19  O   UNL     1      15.218   8.534   0.707  1.00  0.00    -0.550 OA
ATOM     20  O   UNL     1      15.791   9.722  -1.168  1.00  0.00    -0.550 OA
ENDBRANCH  17  18
ENDBRANCH  16  17
ENDBRANCH  15  16
ENDBRANCH  14  15
ENDBRANCH  13  14
ENDBRANCH  12  13
ENDBRANCH  11  12
ENDBRANCH   1  11
TORSDOF 15
ENDMDL
MODEL 4
REMARK VINA RESULT:    -4.181      0.804      6.573
REMARK INTER + INTRA:          -9.549
REMARK INTER:                  -8.051
REMARK INTRA:                  -1.498
REMARK UNBOUND:                -1.701
REMARK SMILES O=C([O-])CCCCCCCCCCCCCCC(=O)[O-]
REMARK SMILES IDX 10 1 9 2 8 3 7 4 6 5 5 6 4 7 2 8 1 9 3 10 11 11 12 12 13 13
REMARK SMILES IDX 14 14 15 15 16 16 17 17 18 18 19 19 20 20
REMARK H PARENT
REMARK Flexibility Score: inf
ROOT
ATOM      1  C   UNL     1      27.134  -1.468  -8.519  1.00  0.00     0.000 C 
ENDROOT
BRANCH   1   2
ATOM      2  C   UNL     1      25.829  -0.718  -8.852  1.00  0.00     0.000 C 
BRANCH   2   3
ATOM      3  C   UNL     1      24.575  -1.615  -8.861  1.00  0.00     0.000 C 
BRANCH   3   4
ATOM      4  C   UNL     1      23.860  -1.697 -10.228  1.00  0.00     0.000 C 
BRANCH   4   5
ATOM      5  C   UNL     1      24.714  -1.267 -11.439  1.00  0.00     0.000 C 
BRANCH   5   6
ATOM      6  C   UNL     1      24.054  -0.246 -12.390  1.00  0.00     0.006 C 
BRANCH   6   7
ATOM      7  C   UNL     1      24.446  -0.397 -13.869  1.00  0.00     0.053 C 
BRANCH   7   8
ATOM      8  C   UNL     1      25.129   0.828 -14.395  1.00  0.00     0.041 C 
ATOM      9  O   UNL     1      25.546   0.862 -15.583  1.00  0.00    -0.550 OA
ATOM     10  O   UNL     1      25.331   1.922 -13.563  1.00  0.00    -0.550 OA
ENDBRANCH   7   8
ENDBRANCH   6   7
ENDBRANCH   5   6
ENDBRANCH   4   5
ENDBRANCH   3   4
ENDBRANCH   2   3
ENDBRANCH   1   2
BRANCH   1  11
ATOM     11  C   UNL     1      27.833  -0.891  -7.275  1.00  0.00     0.000 C 
BRANCH  11  12
ATOM     12  C   UNL     1      28.605  -1.953  -6.478  1.00  0.00     0.000 C 
BRANCH  12  13
ATOM     13  C   UNL     1      28.721  -3.291  -7.230  1.00  0.00     0.000 C 
BRANCH  13  14
ATOM     14  C   UNL     1      28.089  -4.459  -6.454  1.00  0.00     0.000 C 
BRANCH  14  15
ATOM     15  C   UNL     1      26.610  -4.677  -6.819  1.00  0.00     0.000 C 
BRANCH  15  16
ATOM     16  C   UNL     1      26.426  -5.696  -7.955  1.00  0.00     0.006 C 
BRANCH  16  17
ATOM     17  C   UNL     1      25.675  -5.107  -9.157  1.00  0.00     0.053 C 
BRANCH  17  18
ATOM     18  C   UNL     1      24.300  -5.690  -9.249  1.00  0.00     0.041 C 
ATOM     19  O   UNL     1      23.303  -5.032  -8.846  1.00  0.00    -0.550 OA
ATOM     20  O   UNL     1      24.122  -6.980  -9.734  1.00  0.00    -0.550 OA
ENDBRANCH  17  18
ENDBRANCH  16  17
ENDBRANCH  15  16
ENDBRANCH  14  15
ENDBRANCH  13  14
ENDBRANCH  12  13
ENDBRANCH  11  12
ENDBRANCH   1  11
TORSDOF 15
ENDMDL
MODEL 5
REMARK VINA RESULT:    -4.128      1.117      1.735
REMARK INTER + INTRA:          -9.450
REMARK INTER:                  -7.760
REMARK INTRA:                  -1.690
REMARK UNBOUND:                -1.701
REMARK SMILES O=C([O-])CCCCCCCCCCCCCCC(=O)[O-]
REMARK SMILES IDX 10 1 9 2 8 3 7 4 6 5 5 6 4 7 2 8 1 9 3 10 11 11 12 12 13 13
REMARK SMILES IDX 14 14 15 15 16 16 17 17 18 18 19 19 20 20
REMARK H PARENT
REMARK Flexibility Score: inf
ROOT
ATOM      1  C   UNL     1      26.868  -0.193  -7.851  1.00  0.00     0.000 C 
ENDROOT
BRANCH   1   2
ATOM      2  C   UNL     1      28.199  -0.969  -7.797  1.00  0.00     0.000 C 
BRANCH   2   3
ATOM      3  C   UNL     1      28.562  -1.496  -6.395  1.00  0.00     0.000 C 
BRANCH   3   4
ATOM      4  C   UNL     1      28.724  -3.030  -6.313  1.00  0.00     0.000 C 
BRANCH   4   5
ATOM      5  C   UNL     1      27.965  -3.826  -7.395  1.00  0.00     0.000 C 
BRANCH   5   6
ATOM      6  C   UNL     1      26.700  -4.566  -6.913  1.00  0.00     0.006 C 
BRANCH   6   7
ATOM      7  C   UNL     1      25.789  -5.086  -8.038  1.00  0.00     0.053 C 
BRANCH   7   8
ATOM      8  C   UNL     1      24.629  -4.172  -8.285  1.00  0.00     0.041 C 
ATOM      9  O   UNL     1      24.424  -3.185  -7.530  1.00  0.00    -0.550 OA
ATOM     10  O   UNL     1      23.754  -4.428  -9.335  1.00  0.00    -0.550 OA
ENDBRANCH   7   8
ENDBRANCH   6   7
ENDBRANCH   5   6
ENDBRANCH   4   5
ENDBRANCH   3   4
ENDBRANCH   2   3
ENDBRANCH   1   2
BRANCH   1  11
ATOM     11  C   UNL     1      25.943  -0.706  -8.968  1.00  0.00     0.000 C 
BRANCH  11  12
ATOM     12  C   UNL     1      26.672  -1.594  -9.987  1.00  0.00     0.000 C 
BRANCH  12  13
ATOM     13  C   UNL     1      25.845  -1.837 -11.262  1.00  0.00     0.000 C 
BRANCH  13  14
ATOM     14  C   UNL     1      24.372  -1.427 -11.095  1.00  0.00     0.000 C 
BRANCH  14  15
ATOM     15  C   UNL     1      23.930  -0.382 -12.134  1.00  0.00     0.000 C 
BRANCH  15  16
ATOM     16  C   UNL     1      25.072   0.563 -12.543  1.00  0.00     0.006 C 
BRANCH  16  17
ATOM     17  C   UNL     1      24.805   1.263 -13.883  1.00  0.00     0.053 C 
BRANCH  17  18
ATOM     18  C   UNL     1      25.709   0.721 -14.943  1.00  0.00     0.041 C 
ATOM     19  O   UNL     1      26.067   1.450 -15.907  1.00  0.00    -0.550 OA
ATOM     20  O   UNL     1      26.120  -0.607 -14.896  1.00  0.00    -0.550 OA
ENDBRANCH  17  18
ENDBRANCH  16  17
ENDBRANCH  15  16
ENDBRANCH  14  15
ENDBRANCH  13  14
ENDBRANCH  12  13
ENDBRANCH  11  12
ENDBRANCH   1  11
TORSDOF 15
ENDMDL
MODEL 6
REMARK VINA RESULT:    -4.055      2.484      3.891
REMARK INTER + INTRA:          -9.312
REMARK INTER:                  -7.057
REMARK INTRA:                  -2.256
REMARK UNBOUND:                -1.701
REMARK SMILES O=C([O-])CCCCCCCCCCCCCCC(=O)[O-]
REMARK SMILES IDX 10 1 9 2 8 3 7 4 6 5 5 6 4 7 2 8 1 9 3 10 11 11 12 12 13 13
REMARK SMILES IDX 14 14 15 15 16 16 17 17 18 18 19 19 20 20
REMARK H PARENT
REMARK Flexibility Score: inf
ROOT
ATOM      1  C   UNL     1      24.035  -4.438  -9.440  1.00  0.00     0.000 C 
ENDROOT
BRANCH   1   2
ATOM      2  C   UNL     1      25.188  -5.052 -10.259  1.00  0.00     0.000 C 
BRANCH   2   3
ATOM      3  C   UNL     1      26.235  -5.796  -9.406  1.00  0.00     0.000 C 
BRANCH   3   4
ATOM      4  C   UNL     1      27.657  -5.196  -9.478  1.00  0.00     0.000 C 
BRANCH   4   5
ATOM      5  C   UNL     1      27.746  -3.800 -10.130  1.00  0.00     0.000 C 
BRANCH   5   6
ATOM      6  C   UNL     1      28.439  -2.713  -9.283  1.00  0.00     0.006 C 
BRANCH   6   7
ATOM      7  C   UNL     1      28.396  -2.952  -7.765  1.00  0.00     0.053 C 
BRANCH   7   8
ATOM      8  C   UNL     1      28.433  -1.668  -6.994  1.00  0.00     0.041 C 
ATOM      9  O   UNL     1      28.996  -1.618  -5.868  1.00  0.00    -0.550 OA
ATOM     10  O   UNL     1      27.820  -0.532  -7.508  1.00  0.00    -0.550 OA
ENDBRANCH   7   8
ENDBRANCH   6   7
ENDBRANCH   5   6
ENDBRANCH   4   5
ENDBRANCH   3   4
ENDBRANCH   2   3
ENDBRANCH   1   2
BRANCH   1  11
ATOM     11  C   UNL     1      24.495  -3.974  -8.047  1.00  0.00     0.000 C 
BRANCH  11  12
ATOM     12  C   UNL     1      24.900  -2.492  -8.015  1.00  0.00     0.000 C 
BRANCH  12  13
ATOM     13  C   UNL     1      24.237  -1.672  -9.137  1.00  0.00     0.000 C 
BRANCH  13  14
ATOM     14  C   UNL     1      25.250  -0.827  -9.925  1.00  0.00     0.000 C 
BRANCH  14  15
ATOM     15  C   UNL     1      25.316  -1.220 -11.412  1.00  0.00     0.000 C 
BRANCH  15  16
ATOM     16  C   UNL     1      24.161  -0.622 -12.232  1.00  0.00     0.006 C 
BRANCH  16  17
ATOM     17  C   UNL     1      24.566   0.662 -12.969  1.00  0.00     0.053 C 
BRANCH  17  18
ATOM     18  C   UNL     1      25.033   0.343 -14.354  1.00  0.00     0.041 C 
ATOM     19  O   UNL     1      24.741  -0.763 -14.884  1.00  0.00    -0.550 OA
ATOM     20  O   UNL     1      25.832   1.247 -15.044  1.00  0.00    -0.550 OA
ENDBRANCH  17  18
ENDBRANCH  16  17
ENDBRANCH  15  16
ENDBRANCH  14  15
ENDBRANCH  13  14
ENDBRANCH  12  13
ENDBRANCH  11  12
ENDBRANCH   1  11
TORSDOF 15
ENDMDL
MODEL 7
REMARK VINA RESULT:    -4.026      2.011      3.900
REMARK INTER + INTRA:          -9.258
REMARK INTER:                  -7.242
REMARK INTRA:                  -2.016
REMARK UNBOUND:                -1.701
REMARK SMILES O=C([O-])CCCCCCCCCCCCCCC(=O)[O-]
REMARK SMILES IDX 10 1 9 2 8 3 7 4 6 5 5 6 4 7 2 8 1 9 3 10 11 11 12 12 13 13
REMARK SMILES IDX 14 14 15 15 16 16 17 17 18 18 19 19 20 20
REMARK H PARENT
REMARK Flexibility Score: inf
ROOT
ATOM      1  C   UNL     1      24.484  -4.047  -8.707  1.00  0.00     0.000 C 
ENDROOT
BRANCH   1   2
ATOM      2  C   UNL     1      24.990  -2.858  -7.867  1.00  0.00     0.000 C 
BRANCH   2   3
ATOM      3  C   UNL     1      25.024  -1.520  -8.632  1.00  0.00     0.000 C 
BRANCH   3   4
ATOM      4  C   UNL     1      26.437  -0.915  -8.793  1.00  0.00     0.000 C 
BRANCH   4   5
ATOM      5  C   UNL     1      27.128  -0.507  -7.475  1.00  0.00     0.000 C 
BRANCH   5   6
ATOM      6  C   UNL     1      28.601  -0.942  -7.333  1.00  0.00     0.006 C 
BRANCH   6   7
ATOM      7  C   UNL     1      28.831  -2.144  -6.401  1.00  0.00     0.053 C 
BRANCH   7   8
ATOM      8  C   UNL     1      28.520  -3.444  -7.077  1.00  0.00     0.041 C 
ATOM      9  O   UNL     1      28.784  -3.605  -8.298  1.00  0.00    -0.550 OA
ATOM     10  O   UNL     1      27.909  -4.468  -6.364  1.00  0.00    -0.550 OA
ENDBRANCH   7   8
ENDBRANCH   6   7
ENDBRANCH   5   6
ENDBRANCH   4   5
ENDBRANCH   3   4
ENDBRANCH   2   3
ENDBRANCH   1   2
BRANCH   1  11
ATOM     11  C   UNL     1      25.605  -5.054  -9.021  1.00  0.00     0.000 C 
BRANCH  11  12
ATOM     12  C   UNL     1      25.852  -5.222 -10.528  1.00  0.00     0.000 C 
BRANCH  12  13
ATOM     13  C   UNL     1      25.446  -3.977 -11.338  1.00  0.00     0.000 C 
BRANCH  13  14
ATOM     14  C   UNL     1      26.659  -3.232 -11.919  1.00  0.00     0.000 C 
BRANCH  14  15
ATOM     15  C   UNL     1      26.366  -1.745 -12.185  1.00  0.00     0.000 C 
BRANCH  15  16
ATOM     16  C   UNL     1      24.862  -1.455 -12.316  1.00  0.00     0.006 C 
BRANCH  16  17
ATOM     17  C   UNL     1      24.554   0.048 -12.356  1.00  0.00     0.053 C 
BRANCH  17  18
ATOM     18  C   UNL     1      24.953   0.627 -13.676  1.00  0.00     0.041 C 
ATOM     19  O   UNL     1      25.349   1.821 -13.752  1.00  0.00    -0.550 OA
ATOM     20  O   UNL     1      24.843  -0.136 -14.833  1.00  0.00    -0.550 OA
ENDBRANCH  17  18
ENDBRANCH  16  17
ENDBRANCH  15  16
ENDBRANCH  14  15
ENDBRANCH  13  14
ENDBRANCH  12  13
ENDBRANCH  11  12
ENDBRANCH   1  11
TORSDOF 15
ENDMDL
MODEL 8
REMARK VINA RESULT:    -3.997      2.422      4.279
REMARK INTER + INTRA:          -9.203
REMARK INTER:                  -6.880
REMARK INTRA:                  -2.323
REMARK UNBOUND:                -1.701
REMARK SMILES O=C([O-])CCCCCCCCCCCCCCC(=O)[O-]
REMARK SMILES IDX 10 1 9 2 8 3 7 4 6 5 5 6 4 7 2 8 1 9 3 10 11 11 12 12 13 13
REMARK SMILES IDX 14 14 15 15 16 16 17 17 18 18 19 19 20 20
REMARK H PARENT
REMARK Flexibility Score: inf
ROOT
ATOM      1  C   UNL     1      23.908  -5.940  -9.849  1.00  0.00     0.000 C 
ENDROOT
BRANCH   1   2
ATOM      2  C   UNL     1      25.232  -5.997 -10.638  1.00  0.00     0.000 C 
BRANCH   2   3
ATOM      3  C   UNL     1      25.618  -4.666 -11.313  1.00  0.00     0.000 C 
BRANCH   3   4
ATOM      4  C   UNL     1      27.064  -4.204 -11.029  1.00  0.00     0.000 C 
BRANCH   4   5
ATOM      5  C   UNL     1      27.646  -4.670  -9.678  1.00  0.00     0.000 C 
BRANCH   5   6
ATOM      6  C   UNL     1      28.852  -3.861  -9.157  1.00  0.00     0.006 C 
BRANCH   6   7
ATOM      7  C   UNL     1      28.492  -2.526  -8.485  1.00  0.00     0.053 C 
BRANCH   7   8
ATOM      8  C   UNL     1      28.471  -2.639  -6.991  1.00  0.00     0.041 C 
ATOM      9  O   UNL     1      28.321  -1.611  -6.278  1.00  0.00    -0.550 OA
ATOM     10  O   UNL     1      28.649  -3.877  -6.386  1.00  0.00    -0.550 OA
ENDBRANCH   7   8
ENDBRANCH   6   7
ENDBRANCH   5   6
ENDBRANCH   4   5
ENDBRANCH   3   4
ENDBRANCH   2   3
ENDBRANCH   1   2
BRANCH   1  11
ATOM     11  C   UNL     1      23.641  -4.541  -9.266  1.00  0.00     0.000 C 
BRANCH  11  12
ATOM     12  C   UNL     1      24.509  -4.232  -8.036  1.00  0.00     0.000 C 
BRANCH  12  13
ATOM     13  C   UNL     1      24.886  -2.743  -7.935  1.00  0.00     0.000 C 
BRANCH  13  14
ATOM     14  C   UNL     1      24.432  -1.936  -9.163  1.00  0.00     0.000 C 
BRANCH  14  15
ATOM     15  C   UNL     1      25.411  -0.803  -9.518  1.00  0.00     0.000 C 
BRANCH  15  16
ATOM     16  C   UNL     1      25.633  -0.668 -11.033  1.00  0.00     0.006 C 
BRANCH  16  17
ATOM     17  C   UNL     1      24.340  -0.861 -11.837  1.00  0.00     0.053 C 
BRANCH  17  18
ATOM     18  C   UNL     1      24.435  -0.161 -13.155  1.00  0.00     0.041 C 
ATOM     19  O   UNL     1      24.204   1.075 -13.236  1.00  0.00    -0.550 OA
ATOM     20  O   UNL     1      24.732  -0.882 -14.306  1.00  0.00    -0.550 OA
ENDBRANCH  17  18
ENDBRANCH  16  17
ENDBRANCH  15  16
ENDBRANCH  14  15
ENDBRANCH  13  14
ENDBRANCH  12  13
ENDBRANCH  11  12
ENDBRANCH   1  11
TORSDOF 15
ENDMDL
MODEL 9
REMARK VINA RESULT:    -3.947     16.654     19.457
REMARK INTER + INTRA:          -9.109
REMARK INTER:                  -7.924
REMARK INTRA:                  -1.185
REMARK UNBOUND:                -1.701
REMARK SMILES O=C([O-])CCCCCCCCCCCCCCC(=O)[O-]
REMARK SMILES IDX 10 1 9 2 8 3 7 4 6 5 5 6 4 7 2 8 1 9 3 10 11 11 12 12 13 13
REMARK SMILES IDX 14 14 15 15 16 16 17 17 18 18 19 19 20 20
REMARK H PARENT
REMARK Flexibility Score: inf
ROOT
ATOM      1  C   UNL     1      12.075   4.673  -5.893  1.00  0.00     0.000 C 
ENDROOT
BRANCH   1   2
ATOM      2  C   UNL     1      11.165   4.833  -7.127  1.00  0.00     0.000 C 
BRANCH   2   3
ATOM      3  C   UNL     1       9.898   5.672  -6.868  1.00  0.00     0.000 C 
BRANCH   3   4
ATOM      4  C   UNL     1      10.004   7.143  -7.328  1.00  0.00     0.000 C 
BRANCH   4   5
ATOM      5  C   UNL     1      10.186   8.172  -6.192  1.00  0.00     0.000 C 
BRANCH   5   6
ATOM      6  C   UNL     1      10.840   9.508  -6.601  1.00  0.00     0.006 C 
BRANCH   6   7
ATOM      7  C   UNL     1      11.356   9.556  -8.049  1.00  0.00     0.053 C 
BRANCH   7   8
ATOM      8  C   UNL     1      12.415  10.600  -8.231  1.00  0.00     0.041 C 
ATOM      9  O   UNL     1      12.851  11.243  -7.240  1.00  0.00    -0.550 OA
ATOM     10  O   UNL     1      12.899  10.884  -9.503  1.00  0.00    -0.550 OA
ENDBRANCH   7   8
ENDBRANCH   6   7
ENDBRANCH   5   6
ENDBRANCH   4   5
ENDBRANCH   3   4
ENDBRANCH   2   3
ENDBRANCH   1   2
BRANCH   1  11
ATOM     11  C   UNL     1      11.346   5.031  -4.586  1.00  0.00     0.000 C 
BRANCH  11  12
ATOM     12  C   UNL     1      12.100   6.075  -3.749  1.00  0.00     0.000 C 
BRANCH  12  13
ATOM     13  C   UNL     1      11.154   7.006  -2.970  1.00  0.00     0.000 C 
BRANCH  13  14
ATOM     14  C   UNL     1      10.879   6.506  -1.542  1.00  0.00     0.000 C 
BRANCH  14  15
ATOM     15  C   UNL     1      11.724   7.243  -0.487  1.00  0.00     0.000 C 
BRANCH  15  16
ATOM     16  C   UNL     1      11.940   6.406   0.785  1.00  0.00     0.006 C 
BRANCH  16  17
ATOM     17  C   UNL     1      12.425   4.983   0.477  1.00  0.00     0.053 C 
BRANCH  17  18
ATOM     18  C   UNL     1      13.404   4.531   1.513  1.00  0.00     0.041 C 
ATOM     19  O   UNL     1      14.608   4.323   1.202  1.00  0.00    -0.550 OA
ATOM     20  O   UNL     1      12.979   4.290   2.815  1.00  0.00    -0.550 OA
ENDBRANCH  17  18
ENDBRANCH  16  17
ENDBRANCH  15  16
ENDBRANCH  14  15
ENDBRANCH  13  14
ENDBRANCH  12  13
ENDBRANCH  11  12
ENDBRANCH   1  11
TORSDOF 15
ENDMDL
