MODEL 1
REMARK VINA RESULT:    -1.702      0.000      0.000
REMARK INTER + INTRA:          -3.026
REMARK INTER:                  -3.096
REMARK INTRA:                   0.070
REMARK UNBOUND:                 0.070
REMARK SMILES CCCCCCCCCCCCCCCC(=O)[O-]
REMARK SMILES IDX 9 1 10 2 11 3 12 4 13 5 14 6 15 7 16 8 17 9 18 10 8 11 7 12
REMARK SMILES IDX 6 13 5 14 4 15 3 16 2 17 1 18
REMARK H PARENT
REMARK Flexibility Score: inf
ROOT
ATOM      1  C   UNL     1      -3.214  38.132  20.196  1.00  0.00     0.000 C 
ENDROOT
BRANCH   1   2
ATOM      2  C   UNL     1      -4.454  37.734  19.379  1.00  0.00     0.000 C 
BRANCH   2   3
ATOM      3  C   UNL     1      -4.342  36.325  18.778  1.00  0.00     0.000 C 
BRANCH   3   4
ATOM      4  C   UNL     1      -5.042  35.291  19.672  1.00  0.00     0.000 C 
BRANCH   4   5
ATOM      5  C   UNL     1      -5.124  35.728  21.146  1.00  0.00     0.000 C 
BRANCH   5   6
ATOM      6  C   UNL     1      -4.334  34.846  22.133  1.00  0.00     0.006 C 
BRANCH   6   7
ATOM      7  C   UNL     1      -4.977  34.708  23.522  1.00  0.00     0.053 C 
BRANCH   7   8
ATOM      8  C   UNL     1      -5.064  36.023  24.233  1.00  0.00     0.041 C 
ATOM      9  O   UNL     1      -5.119  36.060  25.491  1.00  0.00    -0.550 OA
ATOM     10  O   UNL     1      -5.048  37.209  23.510  1.00  0.00    -0.550 OA
ENDBRANCH   7   8
ENDBRANCH   6   7
ENDBRANCH   5   6
ENDBRANCH   4   5
ENDBRANCH   3   4
ENDBRANCH   2   3
ENDBRANCH   1   2
BRANCH   1  11
ATOM     11  C   UNL     1      -1.985  37.270  19.865  1.00  0.00     0.000 C 
BRANCH  11  12
ATOM     12  C   UNL     1      -0.953  38.074  19.060  1.00  0.00    -0.000 C 
BRANCH  12  13
ATOM     13  C   UNL     1      -0.726  37.506  17.649  1.00  0.00    -0.000 C 
BRANCH  13  14
ATOM     14  C   UNL     1      -1.980  36.819  17.080  1.00  0.00    -0.000 C 
BRANCH  14  15
ATOM     15  C   UNL     1      -2.536  37.541  15.843  1.00  0.00    -0.000 C 
BRANCH  15  16
ATOM     16  C   UNL     1      -3.768  36.837  15.246  1.00  0.00    -0.000 C 
BRANCH  16  17
ATOM     17  C   UNL     1      -4.216  37.462  13.917  1.00  0.00    -0.003 C 
ATOM     18  C   UNL     1      -4.497  38.959  14.033  1.00  0.00     0.004 C 
ENDBRANCH  16  17
ENDBRANCH  15  16
ENDBRANCH  14  15
ENDBRANCH  13  14
ENDBRANCH  12  13
ENDBRANCH  11  12
ENDBRANCH   1  11
TORSDOF 14
ENDMDL
MODEL 2
REMARK VINA RESULT:    -1.452      3.358      7.521
REMARK INTER + INTRA:          -2.570
REMARK INTER:                  -3.147
REMARK INTRA:                   0.577
REMARK UNBOUND:                 0.070
REMARK SMILES CCCCCCCCCCCCCCCC(=O)[O-]
REMARK SMILES IDX 9 1 10 2 11 3 12 4 13 5 14 6 15 7 16 8 17 9 18 10 8 11 7 12
REMARK SMILES IDX 6 13 5 14 4 15 3 16 2 17 1 18
REMARK H PARENT
REMARK Flexibility Score: inf
ROOT
ATOM      1  C   UNL     1      -1.677  37.487  20.103  1.00  0.00     0.000 C 
ENDROOT
BRANCH   1   2
ATOM      2  C   UNL     1      -0.931  37.292  18.773  1.00  0.00     0.000 C 
BRANCH   2   3
ATOM      3  C   UNL     1      -1.778  37.687  17.554  1.00  0.00     0.000 C 
BRANCH   3   4
ATOM      4  C   UNL     1      -1.508  36.746  16.371  1.00  0.00     0.000 C 
BRANCH   4   5
ATOM      5  C   UNL     1      -2.755  35.955  15.935  1.00  0.00     0.000 C 
BRANCH   5   6
ATOM      6  C   UNL     1      -3.127  36.092  14.445  1.00  0.00     0.006 C 
BRANCH   6   7
ATOM      7  C   UNL     1      -4.390  36.924  14.176  1.00  0.00     0.053 C 
BRANCH   7   8
ATOM      8  C   UNL     1      -4.188  38.373  14.496  1.00  0.00     0.041 C 
ATOM      9  O   UNL     1      -3.239  38.729  15.245  1.00  0.00    -0.550 OA
ATOM     10  O   UNL     1      -5.024  39.333  13.941  1.00  0.00    -0.550 OA
ENDBRANCH   7   8
ENDBRANCH   6   7
ENDBRANCH   5   6
ENDBRANCH   4   5
ENDBRANCH   3   4
ENDBRANCH   2   3
ENDBRANCH   1   2
BRANCH   1  11
ATOM     11  C   UNL     1      -3.162  37.831  19.905  1.00  0.00     0.000 C 
BRANCH  11  12
ATOM     12  C   UNL     1      -3.972  36.575  19.550  1.00  0.00    -0.000 C 
BRANCH  12  13
ATOM     13  C   UNL     1      -4.889  36.115  20.695  1.00  0.00    -0.000 C 
BRANCH  13  14
ATOM     14  C   UNL     1      -4.297  34.937  21.489  1.00  0.00    -0.000 C 
BRANCH  14  15
ATOM     15  C   UNL     1      -4.827  34.872  22.930  1.00  0.00    -0.000 C 
BRANCH  15  16
ATOM     16  C   UNL     1      -5.119  36.263  23.520  1.00  0.00    -0.000 C 
BRANCH  16  17
ATOM     17  C   UNL     1      -5.125  36.261  25.055  1.00  0.00    -0.003 C 
ATOM     18  C   UNL     1      -4.924  37.656  25.648  1.00  0.00     0.004 C 
ENDBRANCH  16  17
ENDBRANCH  15  16
ENDBRANCH  14  15
ENDBRANCH  13  14
ENDBRANCH  12  13
ENDBRANCH  11  12
ENDBRANCH   1  11
TORSDOF 14
ENDMDL
MODEL 3
REMARK VINA RESULT:    -1.027      1.027      1.575
REMARK INTER + INTRA:          -1.798
REMARK INTER:                  -1.442
REMARK INTRA:                  -0.357
REMARK UNBOUND:                 0.070
REMARK SMILES CCCCCCCCCCCCCCCC(=O)[O-]
REMARK SMILES IDX 9 1 10 2 11 3 12 4 13 5 14 6 15 7 16 8 17 9 18 10 8 11 7 12
REMARK SMILES IDX 6 13 5 14 4 15 3 16 2 17 1 18
REMARK H PARENT
REMARK Flexibility Score: inf
ROOT
ATOM      1  C   UNL     1      -1.886  38.026  19.918  1.00  0.00     0.000 C 
ENDROOT
BRANCH   1   2
ATOM      2  C   UNL     1      -3.405  38.222  20.053  1.00  0.00     0.000 C 
BRANCH   2   3
ATOM      3  C   UNL     1      -4.171  37.813  18.786  1.00  0.00     0.000 C 
BRANCH   3   4
ATOM      4  C   UNL     1      -4.351  36.290  18.722  1.00  0.00     0.000 C 
BRANCH   4   5
ATOM      5  C   UNL     1      -3.942  35.580  20.025  1.00  0.00     0.000 C 
BRANCH   5   6
ATOM      6  C   UNL     1      -5.097  35.306  21.009  1.00  0.00     0.006 C 
BRANCH   6   7
ATOM      7  C   UNL     1      -5.123  36.228  22.237  1.00  0.00     0.053 C 
BRANCH   7   8
ATOM      8  C   UNL     1      -5.054  35.457  23.520  1.00  0.00     0.041 C 
ATOM      9  O   UNL     1      -4.957  34.202  23.499  1.00  0.00    -0.550 OA
ATOM     10  O   UNL     1      -5.061  36.128  24.736  1.00  0.00    -0.550 OA
ENDBRANCH   7   8
ENDBRANCH   6   7
ENDBRANCH   5   6
ENDBRANCH   4   5
ENDBRANCH   3   4
ENDBRANCH   2   3
ENDBRANCH   1   2
BRANCH   1  11
ATOM     11  C   UNL     1      -1.378  38.299  18.494  1.00  0.00     0.000 C 
BRANCH  11  12
ATOM     12  C   UNL     1      -0.925  36.997  17.815  1.00  0.00    -0.000 C 
BRANCH  12  13
ATOM     13  C   UNL     1      -1.493  36.837  16.396  1.00  0.00    -0.000 C 
BRANCH  13  14
ATOM     14  C   UNL     1      -2.708  35.894  16.350  1.00  0.00    -0.000 C 
BRANCH  14  15
ATOM     15  C   UNL     1      -3.435  35.937  14.996  1.00  0.00    -0.000 C 
BRANCH  15  16
ATOM     16  C   UNL     1      -3.291  37.295  14.286  1.00  0.00    -0.000 C 
BRANCH  16  17
ATOM     17  C   UNL     1      -4.647  37.955  13.999  1.00  0.00    -0.003 C 
ATOM     18  C   UNL     1      -4.621  39.470  14.205  1.00  0.00     0.004 C 
ENDBRANCH  16  17
ENDBRANCH  15  16
ENDBRANCH  14  15
ENDBRANCH  13  14
ENDBRANCH  12  13
ENDBRANCH  11  12
ENDBRANCH   1  11
TORSDOF 14
ENDMDL
MODEL 4
REMARK VINA RESULT:     0.396      1.775      2.524
REMARK INTER + INTRA:           0.790
REMARK INTER:                   1.749
REMARK INTRA:                  -0.959
REMARK UNBOUND:                 0.070
REMARK SMILES CCCCCCCCCCCCCCCC(=O)[O-]
REMARK SMILES IDX 9 1 10 2 11 3 12 4 13 5 14 6 15 7 16 8 17 9 18 10 8 11 7 12
REMARK SMILES IDX 6 13 5 14 4 15 3 16 2 17 1 18
REMARK H PARENT
REMARK Flexibility Score: inf
ROOT
ATOM      1  C   UNL     1      -2.397  37.432  19.050  1.00  0.00     0.000 C 
ENDROOT
BRANCH   1   2
ATOM      2  C   UNL     1      -3.896  37.379  18.717  1.00  0.00     0.000 C 
BRANCH   2   3
ATOM      3  C   UNL     1      -4.474  35.959  18.809  1.00  0.00     0.000 C 
BRANCH   3   4
ATOM      4  C   UNL     1      -5.050  35.691  20.208  1.00  0.00     0.000 C 
BRANCH   4   5
ATOM      5  C   UNL     1      -4.145  36.212  21.340  1.00  0.00     0.000 C 
BRANCH   5   6
ATOM      6  C   UNL     1      -4.822  37.194  22.317  1.00  0.00     0.006 C 
BRANCH   6   7
ATOM      7  C   UNL     1      -5.117  38.581  21.728  1.00  0.00     0.053 C 
BRANCH   7   8
ATOM      8  C   UNL     1      -5.072  39.656  22.770  1.00  0.00     0.041 C 
ATOM      9  O   UNL     1      -5.121  40.868  22.432  1.00  0.00    -0.550 OA
ATOM     10  O   UNL     1      -5.013  39.318  24.116  1.00  0.00    -0.550 OA
ENDBRANCH   7   8
ENDBRANCH   6   7
ENDBRANCH   5   6
ENDBRANCH   4   5
ENDBRANCH   3   4
ENDBRANCH   2   3
ENDBRANCH   1   2
BRANCH   1  11
ATOM     11  C   UNL     1      -1.526  37.734  17.821  1.00  0.00     0.000 C 
BRANCH  11  12
ATOM     12  C   UNL     1      -1.081  36.435  17.132  1.00  0.00    -0.000 C 
BRANCH  12  13
ATOM     13  C   UNL     1      -1.341  36.446  15.617  1.00  0.00    -0.000 C 
BRANCH  13  14
ATOM     14  C   UNL     1      -2.667  35.764  15.240  1.00  0.00    -0.000 C 
BRANCH  14  15
ATOM     15  C   UNL     1      -3.286  36.347  13.960  1.00  0.00    -0.000 C 
BRANCH  15  16
ATOM     16  C   UNL     1      -3.318  37.886  13.962  1.00  0.00    -0.000 C 
BRANCH  16  17
ATOM     17  C   UNL     1      -4.581  38.447  14.631  1.00  0.00    -0.003 C 
ATOM     18  C   UNL     1      -4.783  39.937  14.355  1.00  0.00     0.004 C 
ENDBRANCH  16  17
ENDBRANCH  15  16
ENDBRANCH  14  15
ENDBRANCH  13  14
ENDBRANCH  12  13
ENDBRANCH  11  12
ENDBRANCH   1  11
TORSDOF 14
ENDMDL
MODEL 5
REMARK VINA RESULT:     0.442      2.291      4.360
REMARK INTER + INTRA:           0.873
REMARK INTER:                   0.057
REMARK INTRA:                   0.816
REMARK UNBOUND:                 0.070
REMARK SMILES CCCCCCCCCCCCCCCC(=O)[O-]
REMARK SMILES IDX 9 1 10 2 11 3 12 4 13 5 14 6 15 7 16 8 17 9 18 10 8 11 7 12
REMARK SMILES IDX 6 13 5 14 4 15 3 16 2 17 1 18
REMARK H PARENT
REMARK Flexibility Score: inf
ROOT
ATOM      1  C   UNL     1      -3.904  34.984  22.710  1.00  0.00     0.000 C 
ENDROOT
BRANCH   1   2
ATOM      2  C   UNL     1      -5.118  35.263  23.610  1.00  0.00     0.000 C 
BRANCH   2   3
ATOM      3  C   UNL     1      -5.085  36.667  24.233  1.00  0.00     0.000 C 
BRANCH   3   4
ATOM      4  C   UNL     1      -4.860  36.588  25.750  1.00  0.00     0.000 C 
BRANCH   4   5
ATOM      5  C   UNL     1      -4.000  37.746  26.290  1.00  0.00     0.000 C 
BRANCH   5   6
ATOM      6  C   UNL     1      -4.337  39.135  25.711  1.00  0.00     0.006 C 
BRANCH   6   7
ATOM      7  C   UNL     1      -5.122  39.103  24.391  1.00  0.00     0.053 C 
BRANCH   7   8
ATOM      8  C   UNL     1      -5.082  40.422  23.682  1.00  0.00     0.041 C 
ATOM      9  O   UNL     1      -5.113  40.466  22.424  1.00  0.00    -0.550 OA
ATOM     10  O   UNL     1      -5.047  41.604  24.412  1.00  0.00    -0.550 OA
ENDBRANCH   7   8
ENDBRANCH   6   7
ENDBRANCH   5   6
ENDBRANCH   4   5
ENDBRANCH   3   4
ENDBRANCH   2   3
ENDBRANCH   1   2
BRANCH   1  11
ATOM     11  C   UNL     1      -4.216  35.173  21.218  1.00  0.00     0.000 C 
BRANCH  11  12
ATOM     12  C   UNL     1      -5.056  36.439  20.990  1.00  0.00    -0.000 C 
BRANCH  12  13
ATOM     13  C   UNL     1      -4.616  37.230  19.747  1.00  0.00    -0.000 C 
BRANCH  13  14
ATOM     14  C   UNL     1      -3.136  36.999  19.394  1.00  0.00    -0.000 C 
BRANCH  14  15
ATOM     15  C   UNL     1      -2.795  37.451  17.965  1.00  0.00    -0.000 C 
BRANCH  15  16
ATOM     16  C   UNL     1      -3.106  36.374  16.910  1.00  0.00    -0.000 C 
BRANCH  16  17
ATOM     17  C   UNL     1      -3.521  36.977  15.560  1.00  0.00    -0.003 C 
ATOM     18  C   UNL     1      -2.336  37.191  14.619  1.00  0.00     0.004 C 
ENDBRANCH  16  17
ENDBRANCH  15  16
ENDBRANCH  14  15
ENDBRANCH  13  14
ENDBRANCH  12  13
ENDBRANCH  11  12
ENDBRANCH   1  11
TORSDOF 14
ENDMDL
MODEL 6
REMARK VINA RESULT:     0.691      3.739      7.698
REMARK INTER + INTRA:           1.327
REMARK INTER:                   1.879
REMARK INTRA:                  -0.552
REMARK UNBOUND:                 0.070
REMARK SMILES CCCCCCCCCCCCCCCC(=O)[O-]
REMARK SMILES IDX 9 1 10 2 11 3 12 4 13 5 14 6 15 7 16 8 17 9 18 10 8 11 7 12
REMARK SMILES IDX 6 13 5 14 4 15 3 16 2 17 1 18
REMARK H PARENT
REMARK Flexibility Score: inf
ROOT
ATOM      1  C   UNL     1      -3.294  35.355  22.054  1.00  0.00     0.000 C 
ENDROOT
BRANCH   1   2
ATOM      2  C   UNL     1      -3.297  35.685  20.552  1.00  0.00     0.000 C 
BRANCH   2   3
ATOM      3  C   UNL     1      -4.382  36.703  20.171  1.00  0.00     0.000 C 
BRANCH   3   4
ATOM      4  C   UNL     1      -3.997  37.460  18.891  1.00  0.00     0.000 C 
BRANCH   4   5
ATOM      5  C   UNL     1      -2.479  37.483  18.639  1.00  0.00     0.000 C 
BRANCH   5   6
ATOM      6  C   UNL     1      -2.051  37.150  17.196  1.00  0.00     0.006 C 
BRANCH   6   7
ATOM      7  C   UNL     1      -3.075  37.541  16.120  1.00  0.00     0.053 C 
BRANCH   7   8
ATOM      8  C   UNL     1      -2.823  36.837  14.822  1.00  0.00     0.041 C 
ATOM      9  O   UNL     1      -3.666  36.908  13.889  1.00  0.00    -0.550 OA
ATOM     10  O   UNL     1      -1.642  36.131  14.631  1.00  0.00    -0.550 OA
ENDBRANCH   7   8
ENDBRANCH   6   7
ENDBRANCH   5   6
ENDBRANCH   4   5
ENDBRANCH   3   4
ENDBRANCH   2   3
ENDBRANCH   1   2
BRANCH   1  11
ATOM     11  C   UNL     1      -4.620  34.739  22.528  1.00  0.00     0.000 C 
BRANCH  11  12
ATOM     12  C   UNL     1      -4.836  34.991  24.027  1.00  0.00    -0.000 C 
BRANCH  12  13
ATOM     13  C   UNL     1      -5.013  36.482  24.361  1.00  0.00    -0.000 C 
BRANCH  13  14
ATOM     14  C   UNL     1      -4.628  36.812  25.813  1.00  0.00    -0.000 C 
BRANCH  14  15
ATOM     15  C   UNL     1      -4.387  38.314  26.032  1.00  0.00    -0.000 C 
BRANCH  15  16
ATOM     16  C   UNL     1      -5.108  39.189  24.991  1.00  0.00    -0.000 C 
BRANCH  16  17
ATOM     17  C   UNL     1      -4.251  39.446  23.743  1.00  0.00    -0.003 C 
ATOM     18  C   UNL     1      -4.993  39.136  22.444  1.00  0.00     0.004 C 
ENDBRANCH  16  17
ENDBRANCH  15  16
ENDBRANCH  14  15
ENDBRANCH  13  14
ENDBRANCH  12  13
ENDBRANCH  11  12
ENDBRANCH   1  11
TORSDOF 14
ENDMDL
MODEL 7
REMARK VINA RESULT:     0.741      2.548      4.379
REMARK INTER + INTRA:           1.417
REMARK INTER:                   1.378
REMARK INTRA:                   0.039
REMARK UNBOUND:                 0.070
REMARK SMILES CCCCCCCCCCCCCCCC(=O)[O-]
REMARK SMILES IDX 9 1 10 2 11 3 12 4 13 5 14 6 15 7 16 8 17 9 18 10 8 11 7 12
REMARK SMILES IDX 6 13 5 14 4 15 3 16 2 17 1 18
REMARK H PARENT
REMARK Flexibility Score: inf
ROOT
ATOM      1  C   UNL     1      -4.041  35.314  22.182  1.00  0.00     0.000 C 
ENDROOT
BRANCH   1   2
ATOM      2  C   UNL     1      -5.125  36.367  22.463  1.00  0.00     0.000 C 
BRANCH   2   3
ATOM      3  C   UNL     1      -4.559  37.792  22.553  1.00  0.00     0.000 C 
BRANCH   3   4
ATOM      4  C   UNL     1      -5.119  38.677  21.429  1.00  0.00     0.000 C 
BRANCH   4   5
ATOM      5  C   UNL     1      -5.116  37.979  20.057  1.00  0.00     0.000 C 
BRANCH   5   6
ATOM      6  C   UNL     1      -3.766  38.011  19.312  1.00  0.00     0.006 C 
BRANCH   6   7
ATOM      7  C   UNL     1      -2.561  37.564  20.153  1.00  0.00     0.053 C 
BRANCH   7   8
ATOM      8  C   UNL     1      -1.266  37.753  19.424  1.00  0.00     0.041 C 
ATOM      9  O   UNL     1      -1.257  38.266  18.274  1.00  0.00    -0.550 OA
ATOM     10  O   UNL     1      -0.068  37.396  20.029  1.00  0.00    -0.550 OA
ENDBRANCH   7   8
ENDBRANCH   6   7
ENDBRANCH   5   6
ENDBRANCH   4   5
ENDBRANCH   3   4
ENDBRANCH   2   3
ENDBRANCH   1   2
BRANCH   1  11
ATOM     11  C   UNL     1      -4.455  34.312  21.093  1.00  0.00     0.000 C 
BRANCH  11  12
ATOM     12  C   UNL     1      -5.061  35.038  19.883  1.00  0.00    -0.000 C 
BRANCH  12  13
ATOM     13  C   UNL     1      -4.534  34.502  18.542  1.00  0.00    -0.000 C 
BRANCH  13  14
ATOM     14  C   UNL     1      -4.360  35.611  17.490  1.00  0.00    -0.000 C 
BRANCH  14  15
ATOM     15  C   UNL     1      -3.287  35.267  16.444  1.00  0.00    -0.000 C 
BRANCH  15  16
ATOM     16  C   UNL     1      -2.387  36.467  16.098  1.00  0.00    -0.000 C 
BRANCH  16  17
ATOM     17  C   UNL     1      -3.182  37.656  15.540  1.00  0.00    -0.003 C 
ATOM     18  C   UNL     1      -3.952  37.306  14.267  1.00  0.00     0.004 C 
ENDBRANCH  16  17
ENDBRANCH  15  16
ENDBRANCH  14  15
ENDBRANCH  13  14
ENDBRANCH  12  13
ENDBRANCH  11  12
ENDBRANCH   1  11
TORSDOF 14
ENDMDL
MODEL 8
REMARK VINA RESULT:     0.881      3.672      7.161
REMARK INTER + INTRA:           1.672
REMARK INTER:                   1.917
REMARK INTRA:                  -0.246
REMARK UNBOUND:                 0.070
REMARK SMILES CCCCCCCCCCCCCCCC(=O)[O-]
REMARK SMILES IDX 9 1 10 2 11 3 12 4 13 5 14 6 15 7 16 8 17 9 18 10 8 11 7 12
REMARK SMILES IDX 6 13 5 14 4 15 3 16 2 17 1 18
REMARK H PARENT
REMARK Flexibility Score: inf
ROOT
ATOM      1  C   UNL     1      -1.886  37.288  19.960  1.00  0.00     0.000 C 
ENDROOT
BRANCH   1   2
ATOM      2  C   UNL     1      -0.620  37.449  19.104  1.00  0.00     0.000 C 
BRANCH   2   3
ATOM      3  C   UNL     1      -0.934  37.745  17.630  1.00  0.00     0.000 C 
BRANCH   3   4
ATOM      4  C   UNL     1      -2.235  37.053  17.197  1.00  0.00     0.000 C 
BRANCH   4   5
ATOM      5  C   UNL     1      -2.013  35.977  16.119  1.00  0.00     0.000 C 
BRANCH   5   6
ATOM      6  C   UNL     1      -2.484  36.364  14.703  1.00  0.00     0.006 C 
BRANCH   6   7
ATOM      7  C   UNL     1      -2.848  37.847  14.534  1.00  0.00     0.053 C 
BRANCH   7   8
ATOM      8  C   UNL     1      -4.285  38.032  14.152  1.00  0.00     0.041 C 
ATOM      9  O   UNL     1      -5.028  37.030  13.977  1.00  0.00    -0.550 OA
ATOM     10  O   UNL     1      -4.812  39.311  14.026  1.00  0.00    -0.550 OA
ENDBRANCH   7   8
ENDBRANCH   6   7
ENDBRANCH   5   6
ENDBRANCH   4   5
ENDBRANCH   3   4
ENDBRANCH   2   3
ENDBRANCH   1   2
BRANCH   1  11
ATOM     11  C   UNL     1      -2.619  38.618  20.191  1.00  0.00     0.000 C 
BRANCH  11  12
ATOM     12  C   UNL     1      -4.040  38.569  19.610  1.00  0.00    -0.000 C 
BRANCH  12  13
ATOM     13  C   UNL     1      -5.124  38.481  20.696  1.00  0.00    -0.000 C 
BRANCH  13  14
ATOM     14  C   UNL     1      -5.110  37.133  21.437  1.00  0.00    -0.000 C 
BRANCH  14  15
ATOM     15  C   UNL     1      -4.529  35.996  20.580  1.00  0.00    -0.000 C 
BRANCH  15  16
ATOM     16  C   UNL     1      -4.364  34.683  21.365  1.00  0.00    -0.000 C 
BRANCH  16  17
ATOM     17  C   UNL     1      -4.377  34.901  22.885  1.00  0.00    -0.003 C 
ATOM     18  C   UNL     1      -5.125  33.798  23.634  1.00  0.00     0.004 C 
ENDBRANCH  16  17
ENDBRANCH  15  16
ENDBRANCH  14  15
ENDBRANCH  13  14
ENDBRANCH  12  13
ENDBRANCH  11  12
ENDBRANCH   1  11
TORSDOF 14
ENDMDL
