MODEL 1
REMARK VINA RESULT:    -5.636      0.000      0.000
REMARK INTER + INTRA:          -6.594
REMARK INTER:                  -6.459
REMARK INTRA:                  -0.135
REMARK UNBOUND:                -0.135
REMARK SMILES O=C([O-])C=Cc1ccc(O)cc1
REMARK SMILES IDX 6 1 7 2 12 3 8 4 11 5 9 6 5 7 4 8 2 9 1 10 3 11 10 12
REMARK H PARENT 10 13
REMARK Flexibility Score: inf
ROOT
ATOM      1  C   UNL     1      72.882  41.557  -3.922  1.00  0.00    -0.025 A 
ATOM      2  C   UNL     1      73.640  41.324  -5.089  1.00  0.00     0.012 A 
ATOM      3  C   UNL     1      71.725  40.792  -3.701  1.00  0.00     0.012 A 
ATOM      4  C   UNL     1      73.227  40.363  -6.019  1.00  0.00     0.047 A 
ATOM      5  C   UNL     1      71.316  39.834  -4.633  1.00  0.00     0.047 A 
ATOM      6  C   UNL     1      72.066  39.619  -5.795  1.00  0.00     0.115 A 
ENDROOT
BRANCH   1   7
ATOM      7  C   UNL     1      73.281  42.555  -2.899  1.00  0.00     0.010 C 
ATOM      8  C   UNL     1      73.248  43.880  -3.097  1.00  0.00     0.025 C 
BRANCH   8   9
ATOM      9  C   UNL     1      73.643  44.834  -2.047  1.00  0.00     0.064 C 
ATOM     10  O   UNL     1      73.252  44.653  -0.865  1.00  0.00    -0.545 OA
ATOM     11  O   UNL     1      74.442  45.933  -2.341  1.00  0.00    -0.545 OA
ENDBRANCH   8   9
ENDBRANCH   1   7
BRANCH   6  12
ATOM     12  O   UNL     1      71.668  38.667  -6.732  1.00  0.00    -0.508 OA
ATOM     13  H   UNL     1      71.991  37.707  -6.680  1.00  0.00     0.293 HD
ENDBRANCH   6  12
TORSDOF 3
ENDMDL
MODEL 2
REMARK VINA RESULT:    -5.627      0.099      1.682
REMARK INTER + INTRA:          -6.584
REMARK INTER:                  -6.446
REMARK INTRA:                  -0.138
REMARK UNBOUND:                -0.135
REMARK SMILES O=C([O-])C=Cc1ccc(O)cc1
REMARK SMILES IDX 6 1 7 2 12 3 8 4 11 5 9 6 5 7 4 8 2 9 1 10 3 11 10 12
REMARK H PARENT 10 13
REMARK Flexibility Score: inf
ROOT
ATOM      1  C   UNL     1      72.845  41.548  -3.827  1.00  0.00    -0.025 A 
ATOM      2  C   UNL     1      71.660  40.795  -3.690  1.00  0.00     0.012 A 
ATOM      3  C   UNL     1      73.636  41.363  -4.972  1.00  0.00     0.012 A 
ATOM      4  C   UNL     1      71.297  39.864  -4.669  1.00  0.00     0.047 A 
ATOM      5  C   UNL     1      73.271  40.431  -5.948  1.00  0.00     0.047 A 
ATOM      6  C   UNL     1      72.100  39.678  -5.797  1.00  0.00     0.115 A 
ENDROOT
BRANCH   1   7
ATOM      7  C   UNL     1      73.269  42.556  -2.825  1.00  0.00     0.010 C 
ATOM      8  C   UNL     1      73.262  43.878  -3.047  1.00  0.00     0.025 C 
BRANCH   8   9
ATOM      9  C   UNL     1      73.682  44.842  -2.017  1.00  0.00     0.064 C 
ATOM     10  O   UNL     1      74.427  45.805  -2.335  1.00  0.00    -0.545 OA
ATOM     11  O   UNL     1      73.270  44.707  -0.697  1.00  0.00    -0.545 OA
ENDBRANCH   8   9
ENDBRANCH   1   7
BRANCH   6  12
ATOM     12  O   UNL     1      71.725  38.745  -6.763  1.00  0.00    -0.508 OA
ATOM     13  H   UNL     1      71.894  37.754  -6.634  1.00  0.00     0.293 HD
ENDBRANCH   6  12
TORSDOF 3
ENDMDL
MODEL 3
REMARK VINA RESULT:    -5.076      1.922      5.848
REMARK INTER + INTRA:          -5.953
REMARK INTER:                  -5.809
REMARK INTRA:                  -0.144
REMARK UNBOUND:                -0.135
REMARK SMILES O=C([O-])C=Cc1ccc(O)cc1
REMARK SMILES IDX 6 1 7 2 12 3 8 4 11 5 9 6 5 7 4 8 2 9 1 10 3 11 10 12
REMARK H PARENT 10 13
REMARK Flexibility Score: inf
ROOT
ATOM      1  C   UNL     1      73.968  43.223  -4.000  1.00  0.00    -0.025 A 
ATOM      2  C   UNL     1      73.236  42.524  -3.018  1.00  0.00     0.012 A 
ATOM      3  C   UNL     1      74.340  44.554  -3.747  1.00  0.00     0.012 A 
ATOM      4  C   UNL     1      72.868  43.158  -1.825  1.00  0.00     0.047 A 
ATOM      5  C   UNL     1      73.970  45.184  -2.555  1.00  0.00     0.047 A 
ATOM      6  C   UNL     1      73.231  44.486  -1.593  1.00  0.00     0.115 A 
ENDROOT
BRANCH   1   7
ATOM      7  C   UNL     1      74.394  42.596  -5.275  1.00  0.00     0.010 C 
ATOM      8  C   UNL     1      74.014  41.372  -5.667  1.00  0.00     0.025 C 
BRANCH   8   9
ATOM      9  C   UNL     1      74.452  40.794  -6.948  1.00  0.00     0.064 C 
ATOM     10  O   UNL     1      75.125  41.495  -7.747  1.00  0.00    -0.545 OA
ATOM     11  O   UNL     1      74.135  39.484  -7.290  1.00  0.00    -0.545 OA
ENDBRANCH   8   9
ENDBRANCH   1   7
BRANCH   6  12
ATOM     12  O   UNL     1      72.856  45.104  -0.400  1.00  0.00    -0.508 OA
ATOM     13  H   UNL     1      73.104  44.710   0.500  1.00  0.00     0.293 HD
ENDBRANCH   6  12
TORSDOF 3
ENDMDL
MODEL 4
REMARK VINA RESULT:    -4.993      1.221      5.835
REMARK INTER + INTRA:          -5.857
REMARK INTER:                  -5.708
REMARK INTRA:                  -0.150
REMARK UNBOUND:                -0.135
REMARK SMILES O=C([O-])C=Cc1ccc(O)cc1
REMARK SMILES IDX 6 1 7 2 12 3 8 4 11 5 9 6 5 7 4 8 2 9 1 10 3 11 10 12
REMARK H PARENT 10 13
REMARK Flexibility Score: inf
ROOT
ATOM      1  C   UNL     1      73.050  42.796  -3.085  1.00  0.00    -0.025 A 
ATOM      2  C   UNL     1      72.674  43.500  -1.921  1.00  0.00     0.012 A 
ATOM      3  C   UNL     1      74.024  43.355  -3.929  1.00  0.00     0.012 A 
ATOM      4  C   UNL     1      73.247  44.743  -1.631  1.00  0.00     0.047 A 
ATOM      5  C   UNL     1      74.593  44.598  -3.635  1.00  0.00     0.047 A 
ATOM      6  C   UNL     1      74.204  45.295  -2.486  1.00  0.00     0.115 A 
ENDROOT
BRANCH   1   7
ATOM      7  C   UNL     1      72.482  41.471  -3.434  1.00  0.00     0.010 C 
ATOM      8  C   UNL     1      72.325  41.034  -4.691  1.00  0.00     0.025 C 
BRANCH   8   9
ATOM      9  C   UNL     1      71.767  39.705  -4.989  1.00  0.00     0.064 C 
ATOM     10  O   UNL     1      71.089  39.106  -4.115  1.00  0.00    -0.545 OA
ATOM     11  O   UNL     1      71.978  39.099  -6.222  1.00  0.00    -0.545 OA
ENDBRANCH   8   9
ENDBRANCH   1   7
BRANCH   6  12
ATOM     12  O   UNL     1      74.764  46.535  -2.182  1.00  0.00    -0.508 OA
ATOM     13  H   UNL     1      74.190  47.316  -1.888  1.00  0.00     0.293 HD
ENDBRANCH   6  12
TORSDOF 3
ENDMDL
MODEL 5
REMARK VINA RESULT:    -4.947      1.993      6.193
REMARK INTER + INTRA:          -5.806
REMARK INTER:                  -5.668
REMARK INTRA:                  -0.138
REMARK UNBOUND:                -0.135
REMARK SMILES O=C([O-])C=Cc1ccc(O)cc1
REMARK SMILES IDX 6 1 7 2 12 3 8 4 11 5 9 6 5 7 4 8 2 9 1 10 3 11 10 12
REMARK H PARENT 10 13
REMARK Flexibility Score: inf
ROOT
ATOM      1  C   UNL     1      73.652  40.955  -5.636  1.00  0.00    -0.025 A 
ATOM      2  C   UNL     1      72.606  40.686  -4.728  1.00  0.00     0.012 A 
ATOM      3  C   UNL     1      74.645  41.878  -5.270  1.00  0.00     0.012 A 
ATOM      4  C   UNL     1      72.550  41.348  -3.497  1.00  0.00     0.047 A 
ATOM      5  C   UNL     1      74.585  42.539  -4.039  1.00  0.00     0.047 A 
ATOM      6  C   UNL     1      73.536  42.276  -3.151  1.00  0.00     0.115 A 
ENDROOT
BRANCH   1   7
ATOM      7  C   UNL     1      73.765  40.272  -6.948  1.00  0.00     0.010 C 
ATOM      8  C   UNL     1      72.711  39.878  -7.677  1.00  0.00     0.025 C 
BRANCH   8   9
ATOM      9  C   UNL     1      72.872  39.214  -8.980  1.00  0.00     0.064 C 
ATOM     10  O   UNL     1      72.163  39.578  -9.954  1.00  0.00    -0.545 OA
ATOM     11  O   UNL     1      73.794  38.188  -9.154  1.00  0.00    -0.545 OA
ENDBRANCH   8   9
ENDBRANCH   1   7
BRANCH   6  12
ATOM     12  O   UNL     1      73.465  42.928  -1.921  1.00  0.00    -0.508 OA
ATOM     13  H   UNL     1      72.932  43.783  -1.806  1.00  0.00     0.293 HD
ENDBRANCH   6  12
TORSDOF 3
ENDMDL
MODEL 6
REMARK VINA RESULT:    -4.344     14.703     15.978
REMARK INTER + INTRA:          -5.114
REMARK INTER:                  -4.959
REMARK INTRA:                  -0.154
REMARK UNBOUND:                -0.135
REMARK SMILES O=C([O-])C=Cc1ccc(O)cc1
REMARK SMILES IDX 6 1 7 2 12 3 8 4 11 5 9 6 5 7 4 8 2 9 1 10 3 11 10 12
REMARK H PARENT 10 13
REMARK Flexibility Score: inf
ROOT
ATOM      1  C   UNL     1      63.242  45.199   8.691  1.00  0.00    -0.025 A 
ATOM      2  C   UNL     1      62.017  45.186   9.390  1.00  0.00     0.012 A 
ATOM      3  C   UNL     1      63.642  44.042   8.003  1.00  0.00     0.012 A 
ATOM      4  C   UNL     1      61.230  44.029   9.414  1.00  0.00     0.047 A 
ATOM      5  C   UNL     1      62.853  42.888   8.030  1.00  0.00     0.047 A 
ATOM      6  C   UNL     1      61.645  42.879   8.738  1.00  0.00     0.115 A 
ENDROOT
BRANCH   1   7
ATOM      7  C   UNL     1      64.109  46.402   8.624  1.00  0.00     0.010 C 
ATOM      8  C   UNL     1      65.182  46.503   7.829  1.00  0.00     0.025 C 
BRANCH   8   9
ATOM      9  C   UNL     1      66.007  47.722   7.787  1.00  0.00     0.064 C 
ATOM     10  O   UNL     1      65.658  48.731   8.453  1.00  0.00    -0.545 OA
ATOM     11  O   UNL     1      67.167  47.777   7.024  1.00  0.00    -0.545 OA
ENDBRANCH   8   9
ENDBRANCH   1   7
BRANCH   6  12
ATOM     12  O   UNL     1      60.850  41.735   8.773  1.00  0.00    -0.508 OA
ATOM     13  H   UNL     1      59.896  41.744   8.432  1.00  0.00     0.293 HD
ENDBRANCH   6  12
TORSDOF 3
ENDMDL
MODEL 7
REMARK VINA RESULT:    -4.235     14.470     15.598
REMARK INTER + INTRA:          -4.990
REMARK INTER:                  -4.851
REMARK INTRA:                  -0.139
REMARK UNBOUND:                -0.135
REMARK SMILES O=C([O-])C=Cc1ccc(O)cc1
REMARK SMILES IDX 6 1 7 2 12 3 8 4 11 5 9 6 5 7 4 8 2 9 1 10 3 11 10 12
REMARK H PARENT 10 13
REMARK Flexibility Score: inf
ROOT
ATOM      1  C   UNL     1      69.791  49.029   9.075  1.00  0.00    -0.025 A 
ATOM      2  C   UNL     1      70.542  48.460  10.124  1.00  0.00     0.012 A 
ATOM      3  C   UNL     1      70.471  49.598   7.985  1.00  0.00     0.012 A 
ATOM      4  C   UNL     1      71.941  48.485  10.086  1.00  0.00     0.047 A 
ATOM      5  C   UNL     1      71.869  49.622   7.952  1.00  0.00     0.047 A 
ATOM      6  C   UNL     1      72.606  49.066   9.004  1.00  0.00     0.115 A 
ENDROOT
BRANCH   1   7
ATOM      7  C   UNL     1      68.307  49.020   9.060  1.00  0.00     0.010 C 
ATOM      8  C   UNL     1      67.574  48.157   8.343  1.00  0.00     0.025 C 
BRANCH   8   9
ATOM      9  C   UNL     1      66.103  48.177   8.367  1.00  0.00     0.064 C 
ATOM     10  O   UNL     1      65.505  48.643   9.372  1.00  0.00    -0.545 OA
ATOM     11  O   UNL     1      65.361  47.689   7.298  1.00  0.00    -0.545 OA
ENDBRANCH   8   9
ENDBRANCH   1   7
BRANCH   6  12
ATOM     12  O   UNL     1      74.000  49.084   8.982  1.00  0.00    -0.508 OA
ATOM     13  H   UNL     1      74.541  48.234   9.085  1.00  0.00     0.293 HD
ENDBRANCH   6  12
TORSDOF 3
ENDMDL
MODEL 8
REMARK VINA RESULT:    -4.107     10.156     13.682
REMARK INTER + INTRA:          -4.842
REMARK INTER:                  -4.692
REMARK INTRA:                  -0.151
REMARK UNBOUND:                -0.135
REMARK SMILES O=C([O-])C=Cc1ccc(O)cc1
REMARK SMILES IDX 6 1 7 2 12 3 8 4 11 5 9 6 5 7 4 8 2 9 1 10 3 11 10 12
REMARK H PARENT 10 13
REMARK Flexibility Score: inf
ROOT
ATOM      1  C   UNL     1      71.300  48.597   7.316  1.00  0.00    -0.025 A 
ATOM      2  C   UNL     1      71.641  49.253   8.518  1.00  0.00     0.012 A 
ATOM      3  C   UNL     1      69.943  48.396   7.016  1.00  0.00     0.012 A 
ATOM      4  C   UNL     1      70.642  49.671   9.403  1.00  0.00     0.047 A 
ATOM      5  C   UNL     1      68.947  48.815   7.903  1.00  0.00     0.047 A 
ATOM      6  C   UNL     1      69.295  49.452   9.100  1.00  0.00     0.115 A 
ENDROOT
BRANCH   1   7
ATOM      7  C   UNL     1      72.320  48.143   6.338  1.00  0.00     0.010 C 
ATOM      8  C   UNL     1      72.127  47.140   5.471  1.00  0.00     0.025 C 
BRANCH   8   9
ATOM      9  C   UNL     1      73.164  46.731   4.511  1.00  0.00     0.064 C 
ATOM     10  O   UNL     1      74.368  47.020   4.736  1.00  0.00    -0.545 OA
ATOM     11  O   UNL     1      72.836  46.031   3.356  1.00  0.00    -0.545 OA
ENDBRANCH   8   9
ENDBRANCH   1   7
BRANCH   6  12
ATOM     12  O   UNL     1      68.312  49.874   9.993  1.00  0.00    -0.508 OA
ATOM     13  H   UNL     1      67.329  49.850   9.747  1.00  0.00     0.293 HD
ENDBRANCH   6  12
TORSDOF 3
ENDMDL
