MODEL 1
REMARK VINA RESULT:    -1.306      0.000      0.000
REMARK INTER + INTRA:          -1.306
REMARK INTER:                  -1.306
REMARK INTRA:                   0.000
REMARK UNBOUND:                 0.000
REMARK SMILES O=c1ccc2ccccc2o1
REMARK SMILES IDX 7 1 8 2 9 3 10 4 5 5 6 6 4 7 3 8 2 9 1 10 11 11
REMARK H PARENT
REMARK Flexibility Score: inf
ROOT
ATOM      1  C   UNL     1      18.436  39.829  10.379  1.00  0.00     0.001 A 
ATOM      2  C   UNL     1      17.837  40.926   9.750  1.00  0.00     0.004 A 
ATOM      3  C   UNL     1      18.182  42.228  10.129  1.00  0.00     0.048 A 
ATOM      4  C   UNL     1      19.129  42.437  11.136  1.00  0.00     0.138 A 
ATOM      5  C   UNL     1      19.736  41.329  11.770  1.00  0.00     0.018 A 
ATOM      6  C   UNL     1      19.385  40.026  11.387  1.00  0.00     0.012 A 
ATOM      7  C   UNL     1      20.680  41.569  12.774  1.00  0.00     0.019 A 
ATOM      8  C   UNL     1      20.993  42.884  13.117  1.00  0.00     0.094 A 
ATOM      9  C   UNL     1      20.353  43.932  12.446  1.00  0.00     0.336 A 
ATOM     10  O   UNL     1      20.623  45.125  12.742  1.00  0.00    -0.246 OA
ATOM     11  O   UNL     1      19.458  43.676  11.494  1.00  0.00    -0.423 OA
ENDROOT
TORSDOF 0
ENDMDL
MODEL 2
REMARK VINA RESULT:    -1.127      1.628      3.822
REMARK INTER + INTRA:          -1.127
REMARK INTER:                  -1.127
REMARK INTRA:                   0.000
REMARK UNBOUND:                 0.000
REMARK SMILES O=c1ccc2ccccc2o1
REMARK SMILES IDX 7 1 8 2 9 3 10 4 5 5 6 6 4 7 3 8 2 9 1 10 11 11
REMARK H PARENT
REMARK Flexibility Score: inf
ROOT
ATOM      1  C   UNL     1      21.000  44.291  13.125  1.00  0.00     0.001 A 
ATOM      2  C   UNL     1      20.127  44.971  12.268  1.00  0.00     0.004 A 
ATOM      3  C   UNL     1      19.292  44.255  11.403  1.00  0.00     0.048 A 
ATOM      4  C   UNL     1      19.326  42.857  11.394  1.00  0.00     0.138 A 
ATOM      5  C   UNL     1      20.206  42.170  12.261  1.00  0.00     0.018 A 
ATOM      6  C   UNL     1      21.042  42.893  13.125  1.00  0.00     0.012 A 
ATOM      7  C   UNL     1      20.218  40.772  12.228  1.00  0.00     0.019 A 
ATOM      8  C   UNL     1      19.367  40.101  11.351  1.00  0.00     0.094 A 
ATOM      9  C   UNL     1      18.521  40.846  10.522  1.00  0.00     0.336 A 
ATOM     10  O   UNL     1      17.746  40.259   9.723  1.00  0.00    -0.246 OA
ATOM     11  O   UNL     1      18.530  42.177  10.572  1.00  0.00    -0.423 OA
ENDROOT
TORSDOF 0
ENDMDL
MODEL 3
REMARK VINA RESULT:     0.455      1.663      3.841
REMARK INTER + INTRA:           0.455
REMARK INTER:                   0.455
REMARK INTRA:                   0.000
REMARK UNBOUND:                 0.000
REMARK SMILES O=c1ccc2ccccc2o1
REMARK SMILES IDX 7 1 8 2 9 3 10 4 5 5 6 6 4 7 3 8 2 9 1 10 11 11
REMARK H PARENT
REMARK Flexibility Score: inf
ROOT
ATOM      1  C   UNL     1      21.154  42.319  12.973  1.00  0.00     0.001 A 
ATOM      2  C   UNL     1      20.505  43.503  12.607  1.00  0.00     0.004 A 
ATOM      3  C   UNL     1      19.426  43.466  11.717  1.00  0.00     0.048 A 
ATOM      4  C   UNL     1      18.991  42.245  11.192  1.00  0.00     0.138 A 
ATOM      5  C   UNL     1      19.646  41.049  11.563  1.00  0.00     0.018 A 
ATOM      6  C   UNL     1      20.728  41.092  12.455  1.00  0.00     0.012 A 
ATOM      7  C   UNL     1      19.189  39.843  11.022  1.00  0.00     0.019 A 
ATOM      8  C   UNL     1      18.110  39.854  10.139  1.00  0.00     0.094 A 
ATOM      9  C   UNL     1      17.509  41.077   9.817  1.00  0.00     0.336 A 
ATOM     10  O   UNL     1      16.534  41.108   9.023  1.00  0.00    -0.246 OA
ATOM     11  O   UNL     1      17.964  42.211  10.346  1.00  0.00    -0.423 OA
ENDROOT
TORSDOF 0
ENDMDL
