MODEL 1
REMARK VINA RESULT:    -4.876      0.000      0.000
REMARK INTER + INTRA:         -11.948
REMARK INTER:                  -9.152
REMARK INTRA:                  -2.796
REMARK UNBOUND:                -2.796
REMARK SMILES CCCCCCCCCCCCCC=CC=CC(=O)OC
REMARK SMILES IDX 9 1 8 2 7 3 6 4 5 5 4 6 3 7 2 8 1 9 10 10 11 11 12 12 13 13
REMARK SMILES IDX 14 14 15 15 16 16 17 17 18 18 19 19 20 20 21 21
REMARK H PARENT
REMARK Flexibility Score: inf
ROOT
ATOM      1  C   UNL     1      48.992  -7.487  -5.469  1.00  0.00     0.000 C 
ENDROOT
BRANCH   1   2
ATOM      2  C   UNL     1      48.863  -5.956  -5.479  1.00  0.00     0.000 C 
BRANCH   2   3
ATOM      3  C   UNL     1      49.764  -5.321  -4.412  1.00  0.00     0.000 C 
BRANCH   3   4
ATOM      4  C   UNL     1      50.744  -4.322  -5.047  1.00  0.00    -0.000 C 
BRANCH   4   5
ATOM      5  C   UNL     1      52.213  -4.667  -4.755  1.00  0.00    -0.000 C 
BRANCH   5   6
ATOM      6  C   UNL     1      53.069  -4.741  -6.029  1.00  0.00    -0.000 C 
BRANCH   6   7
ATOM      7  C   UNL     1      52.284  -4.234  -7.248  1.00  0.00    -0.000 C 
BRANCH   7   8
ATOM      8  C   UNL     1      52.081  -5.322  -8.314  1.00  0.00    -0.003 C 
ATOM      9  C   UNL     1      50.650  -5.368  -8.848  1.00  0.00     0.004 C 
ENDBRANCH   7   8
ENDBRANCH   6   7
ENDBRANCH   5   6
ENDBRANCH   4   5
ENDBRANCH   3   4
ENDBRANCH   2   3
ENDBRANCH   1   2
BRANCH   1  10
ATOM     10  C   UNL     1      50.106  -7.993  -6.399  1.00  0.00     0.000 C 
BRANCH  10  11
ATOM     11  C   UNL     1      51.453  -8.154  -5.674  1.00  0.00     0.000 C 
BRANCH  11  12
ATOM     12  C   UNL     1      51.344  -9.022  -4.410  1.00  0.00     0.004 C 
BRANCH  12  13
ATOM     13  C   UNL     1      51.967  -8.353  -3.174  1.00  0.00     0.027 C 
BRANCH  13  14
ATOM     14  C   UNL     1      50.962  -8.224  -2.066  1.00  0.00    -0.027 C 
ATOM     15  C   UNL     1      49.658  -8.427  -2.276  1.00  0.00    -0.004 C 
BRANCH  15  16
ATOM     16  C   UNL     1      48.685  -8.297  -1.180  1.00  0.00     0.007 C 
ATOM     17  C   UNL     1      47.856  -7.251  -1.119  1.00  0.00     0.093 C 
BRANCH  17  18
ATOM     18  C   UNL     1      46.868  -7.099  -0.041  1.00  0.00     0.330 C 
ATOM     19  O   UNL     1      47.237  -6.632   1.071  1.00  0.00    -0.247 OA
BRANCH  18  20
ATOM     20  O   UNL     1      45.533  -7.465  -0.246  1.00  0.00    -0.466 OA
ATOM     21  C   UNL     1      44.447  -6.765   0.347  1.00  0.00     0.282 C 
ENDBRANCH  18  20
ENDBRANCH  17  18
ENDBRANCH  15  16
ENDBRANCH  13  14
ENDBRANCH  12  13
ENDBRANCH  11  12
ENDBRANCH  10  11
ENDBRANCH   1  10
TORSDOF 15
ENDMDL
MODEL 2
REMARK VINA RESULT:    -4.582      3.230      7.547
REMARK INTER + INTRA:         -11.395
REMARK INTER:                  -9.748
REMARK INTRA:                  -1.647
REMARK UNBOUND:                -2.796
REMARK SMILES CCCCCCCCCCCCCC=CC=CC(=O)OC
REMARK SMILES IDX 9 1 8 2 7 3 6 4 5 5 4 6 3 7 2 8 1 9 10 10 11 11 12 12 13 13
REMARK SMILES IDX 14 14 15 15 16 16 17 17 18 18 19 19 20 20 21 21
REMARK H PARENT
REMARK Flexibility Score: inf
ROOT
ATOM      1  C   UNL     1      49.278  -5.969  -4.421  1.00  0.00     0.000 C 
ENDROOT
BRANCH   1   2
ATOM      2  C   UNL     1      50.529  -6.713  -3.929  1.00  0.00     0.000 C 
BRANCH   2   3
ATOM      3  C   UNL     1      50.173  -8.119  -3.430  1.00  0.00     0.000 C 
BRANCH   3   4
ATOM      4  C   UNL     1      49.957  -8.121  -1.909  1.00  0.00    -0.000 C 
BRANCH   4   5
ATOM      5  C   UNL     1      48.472  -8.050  -1.520  1.00  0.00    -0.000 C 
BRANCH   5   6
ATOM      6  C   UNL     1      48.099  -6.721  -0.844  1.00  0.00    -0.000 C 
BRANCH   6   7
ATOM      7  C   UNL     1      47.182  -6.959   0.365  1.00  0.00    -0.000 C 
BRANCH   7   8
ATOM      8  C   UNL     1      45.731  -7.258  -0.043  1.00  0.00    -0.003 C 
ATOM      9  C   UNL     1      44.710  -6.508   0.811  1.00  0.00     0.004 C 
ENDBRANCH   7   8
ENDBRANCH   6   7
ENDBRANCH   5   6
ENDBRANCH   4   5
ENDBRANCH   3   4
ENDBRANCH   2   3
ENDBRANCH   1   2
BRANCH   1  10
ATOM     10  C   UNL     1      48.299  -6.889  -5.168  1.00  0.00     0.000 C 
BRANCH  10  11
ATOM     11  C   UNL     1      47.857  -6.307  -6.521  1.00  0.00     0.000 C 
BRANCH  11  12
ATOM     12  C   UNL     1      48.110  -7.271  -7.691  1.00  0.00     0.004 C 
BRANCH  12  13
ATOM     13  C   UNL     1      49.200  -6.769  -8.651  1.00  0.00     0.027 C 
BRANCH  13  14
ATOM     14  C   UNL     1      50.479  -6.485  -7.915  1.00  0.00    -0.027 C 
ATOM     15  C   UNL     1      51.106  -5.311  -8.027  1.00  0.00    -0.004 C 
BRANCH  15  16
ATOM     16  C   UNL     1      52.357  -5.048  -7.298  1.00  0.00     0.007 C 
ATOM     17  C   UNL     1      52.337  -4.653  -6.022  1.00  0.00     0.093 C 
BRANCH  17  18
ATOM     18  C   UNL     1      53.572  -4.391  -5.266  1.00  0.00     0.330 C 
ATOM     19  O   UNL     1      53.805  -5.057  -4.221  1.00  0.00    -0.247 OA
BRANCH  18  20
ATOM     20  O   UNL     1      54.476  -3.417  -5.701  1.00  0.00    -0.466 OA
ATOM     21  C   UNL     1      55.607  -3.024  -4.933  1.00  0.00     0.282 C 
ENDBRANCH  18  20
ENDBRANCH  17  18
ENDBRANCH  15  16
ENDBRANCH  13  14
ENDBRANCH  12  13
ENDBRANCH  11  12
ENDBRANCH  10  11
ENDBRANCH   1  10
TORSDOF 15
ENDMDL
MODEL 3
REMARK VINA RESULT:    -4.489      3.490      7.319
REMARK INTER + INTRA:         -11.221
REMARK INTER:                  -9.234
REMARK INTRA:                  -1.987
REMARK UNBOUND:                -2.796
REMARK SMILES CCCCCCCCCCCCCC=CC=CC(=O)OC
REMARK SMILES IDX 9 1 8 2 7 3 6 4 5 5 4 6 3 7 2 8 1 9 10 10 11 11 12 12 13 13
REMARK SMILES IDX 14 14 15 15 16 16 17 17 18 18 19 19 20 20 21 21
REMARK H PARENT
REMARK Flexibility Score: inf
ROOT
ATOM      1  C   UNL     1      48.410  -6.789  -5.128  1.00  0.00     0.000 C 
ENDROOT
BRANCH   1   2
ATOM      2  C   UNL     1      49.472  -5.949  -4.402  1.00  0.00     0.000 C 
BRANCH   2   3
ATOM      3  C   UNL     1      50.738  -6.774  -4.136  1.00  0.00     0.000 C 
BRANCH   3   4
ATOM      4  C   UNL     1      50.382  -8.155  -3.565  1.00  0.00    -0.000 C 
BRANCH   4   5
ATOM      5  C   UNL     1      50.481  -8.207  -2.032  1.00  0.00    -0.000 C 
BRANCH   5   6
ATOM      6  C   UNL     1      49.180  -8.686  -1.370  1.00  0.00    -0.000 C 
BRANCH   6   7
ATOM      7  C   UNL     1      48.077  -7.625  -1.496  1.00  0.00    -0.000 C 
BRANCH   7   8
ATOM      8  C   UNL     1      47.962  -6.741  -0.245  1.00  0.00    -0.003 C 
ATOM      9  C   UNL     1      46.704  -7.032   0.572  1.00  0.00     0.004 C 
ENDBRANCH   7   8
ENDBRANCH   6   7
ENDBRANCH   5   6
ENDBRANCH   4   5
ENDBRANCH   3   4
ENDBRANCH   2   3
ENDBRANCH   1   2
BRANCH   1  10
ATOM     10  C   UNL     1      48.059  -6.228  -6.516  1.00  0.00     0.000 C 
BRANCH  10  11
ATOM     11  C   UNL     1      48.188  -7.282  -7.628  1.00  0.00     0.000 C 
BRANCH  11  12
ATOM     12  C   UNL     1      49.549  -7.228  -8.339  1.00  0.00     0.004 C 
BRANCH  12  13
ATOM     13  C   UNL     1      49.931  -5.808  -8.788  1.00  0.00     0.027 C 
BRANCH  13  14
ATOM     14  C   UNL     1      51.332  -5.468  -8.366  1.00  0.00    -0.027 C 
ATOM     15  C   UNL     1      51.589  -4.905  -7.182  1.00  0.00    -0.004 C 
BRANCH  15  16
ATOM     16  C   UNL     1      52.967  -4.578  -6.781  1.00  0.00     0.007 C 
ATOM     17  C   UNL     1      53.246  -4.196  -5.532  1.00  0.00     0.093 C 
BRANCH  17  18
ATOM     18  C   UNL     1      54.615  -3.871  -5.102  1.00  0.00     0.330 C 
ATOM     19  O   UNL     1      55.143  -2.796  -5.492  1.00  0.00    -0.247 OA
BRANCH  18  20
ATOM     20  O   UNL     1      55.321  -4.744  -4.267  1.00  0.00    -0.466 OA
ATOM     21  C   UNL     1      55.338  -6.151  -4.469  1.00  0.00     0.282 C 
ENDBRANCH  18  20
ENDBRANCH  17  18
ENDBRANCH  15  16
ENDBRANCH  13  14
ENDBRANCH  12  13
ENDBRANCH  11  12
ENDBRANCH  10  11
ENDBRANCH   1  10
TORSDOF 15
ENDMDL
MODEL 4
REMARK VINA RESULT:    -4.457      2.890      6.712
REMARK INTER + INTRA:         -11.161
REMARK INTER:                  -8.953
REMARK INTRA:                  -2.208
REMARK UNBOUND:                -2.796
REMARK SMILES CCCCCCCCCCCCCC=CC=CC(=O)OC
REMARK SMILES IDX 9 1 8 2 7 3 6 4 5 5 4 6 3 7 2 8 1 9 10 10 11 11 12 12 13 13
REMARK SMILES IDX 14 14 15 15 16 16 17 17 18 18 19 19 20 20 21 21
REMARK H PARENT
REMARK Flexibility Score: inf
ROOT
ATOM      1  C   UNL     1      49.208  -5.696  -5.499  1.00  0.00     0.000 C 
ENDROOT
BRANCH   1   2
ATOM      2  C   UNL     1      49.250  -5.866  -3.973  1.00  0.00     0.000 C 
BRANCH   2   3
ATOM      3  C   UNL     1      48.684  -7.230  -3.556  1.00  0.00     0.000 C 
BRANCH   3   4
ATOM      4  C   UNL     1      49.585  -7.899  -2.508  1.00  0.00    -0.000 C 
BRANCH   4   5
ATOM      5  C   UNL     1      48.814  -8.332  -1.251  1.00  0.00    -0.000 C 
BRANCH   5   6
ATOM      6  C   UNL     1      47.970  -7.195  -0.652  1.00  0.00    -0.000 C 
BRANCH   6   7
ATOM      7  C   UNL     1      46.523  -7.650  -0.418  1.00  0.00    -0.000 C 
BRANCH   7   8
ATOM      8  C   UNL     1      45.797  -6.795   0.632  1.00  0.00    -0.003 C 
ATOM      9  C   UNL     1      44.282  -6.769   0.430  1.00  0.00     0.004 C 
ENDBRANCH   7   8
ENDBRANCH   6   7
ENDBRANCH   5   6
ENDBRANCH   4   5
ENDBRANCH   3   4
ENDBRANCH   2   3
ENDBRANCH   1   2
BRANCH   1  10
ATOM     10  C   UNL     1      48.028  -6.439  -6.146  1.00  0.00     0.000 C 
BRANCH  10  11
ATOM     11  C   UNL     1      48.446  -7.242  -7.389  1.00  0.00     0.000 C 
BRANCH  11  12
ATOM     12  C   UNL     1      48.750  -8.714  -7.067  1.00  0.00     0.004 C 
BRANCH  12  13
ATOM     13  C   UNL     1      50.217  -9.091  -7.333  1.00  0.00     0.027 C 
BRANCH  13  14
ATOM     14  C   UNL     1      51.010  -9.104  -6.058  1.00  0.00    -0.027 C 
ATOM     15  C   UNL     1      51.778  -8.070  -5.701  1.00  0.00    -0.004 C 
BRANCH  15  16
ATOM     16  C   UNL     1      52.549  -8.097  -4.448  1.00  0.00     0.007 C 
ATOM     17  C   UNL     1      52.832  -6.967  -3.794  1.00  0.00     0.093 C 
BRANCH  17  18
ATOM     18  C   UNL     1      53.593  -6.964  -2.534  1.00  0.00     0.330 C 
ATOM     19  O   UNL     1      53.119  -7.555  -1.528  1.00  0.00    -0.247 OA
BRANCH  18  20
ATOM     20  O   UNL     1      54.830  -6.313  -2.455  1.00  0.00    -0.466 OA
ATOM     21  C   UNL     1      55.736  -6.254  -3.549  1.00  0.00     0.282 C 
ENDBRANCH  18  20
ENDBRANCH  17  18
ENDBRANCH  15  16
ENDBRANCH  13  14
ENDBRANCH  12  13
ENDBRANCH  11  12
ENDBRANCH  10  11
ENDBRANCH   1  10
TORSDOF 15
ENDMDL
MODEL 5
REMARK VINA RESULT:    -4.371      1.190      2.413
REMARK INTER + INTRA:         -11.000
REMARK INTER:                  -9.288
REMARK INTRA:                  -1.712
REMARK UNBOUND:                -2.796
REMARK SMILES CCCCCCCCCCCCCC=CC=CC(=O)OC
REMARK SMILES IDX 9 1 8 2 7 3 6 4 5 5 4 6 3 7 2 8 1 9 10 10 11 11 12 12 13 13
REMARK SMILES IDX 14 14 15 15 16 16 17 17 18 18 19 19 20 20 21 21
REMARK H PARENT
REMARK Flexibility Score: inf
ROOT
ATOM      1  C   UNL     1      48.089  -6.103  -6.501  1.00  0.00     0.000 C 
ENDROOT
BRANCH   1   2
ATOM      2  C   UNL     1      48.297  -7.366  -7.350  1.00  0.00     0.000 C 
BRANCH   2   3
ATOM      3  C   UNL     1      48.904  -7.018  -8.715  1.00  0.00     0.000 C 
BRANCH   3   4
ATOM      4  C   UNL     1      50.124  -6.099  -8.554  1.00  0.00    -0.000 C 
BRANCH   4   5
ATOM      5  C   UNL     1      51.381  -6.857  -8.099  1.00  0.00    -0.000 C 
BRANCH   5   6
ATOM      6  C   UNL     1      52.305  -6.000  -7.219  1.00  0.00    -0.000 C 
BRANCH   6   7
ATOM      7  C   UNL     1      51.789  -4.556  -7.125  1.00  0.00    -0.000 C 
BRANCH   7   8
ATOM      8  C   UNL     1      51.948  -3.962  -5.717  1.00  0.00    -0.003 C 
ATOM      9  C   UNL     1      52.711  -4.886  -4.768  1.00  0.00     0.004 C 
ENDBRANCH   7   8
ENDBRANCH   6   7
ENDBRANCH   5   6
ENDBRANCH   4   5
ENDBRANCH   3   4
ENDBRANCH   2   3
ENDBRANCH   1   2
BRANCH   1  10
ATOM     10  C   UNL     1      49.032  -6.043  -5.288  1.00  0.00     0.000 C 
BRANCH  10  11
ATOM     11  C   UNL     1      49.150  -7.395  -4.564  1.00  0.00     0.000 C 
BRANCH  11  12
ATOM     12  C   UNL     1      50.598  -7.904  -4.494  1.00  0.00     0.004 C 
BRANCH  12  13
ATOM     13  C   UNL     1      50.946  -8.519  -3.129  1.00  0.00     0.027 C 
BRANCH  13  14
ATOM     14  C   UNL     1      50.072  -7.958  -2.045  1.00  0.00    -0.027 C 
ATOM     15  C   UNL     1      48.912  -8.532  -1.713  1.00  0.00    -0.004 C 
BRANCH  15  16
ATOM     16  C   UNL     1      48.066  -7.970  -0.647  1.00  0.00     0.007 C 
ATOM     17  C   UNL     1      46.773  -7.715  -0.862  1.00  0.00     0.093 C 
BRANCH  17  18
ATOM     18  C   UNL     1      45.901  -7.162   0.186  1.00  0.00     0.330 C 
ATOM     19  O   UNL     1      46.406  -6.824   1.291  1.00  0.00    -0.247 OA
BRANCH  18  20
ATOM     20  O   UNL     1      44.529  -7.011  -0.040  1.00  0.00    -0.466 OA
ATOM     21  C   UNL     1      43.624  -6.607   0.981  1.00  0.00     0.282 C 
ENDBRANCH  18  20
ENDBRANCH  17  18
ENDBRANCH  15  16
ENDBRANCH  13  14
ENDBRANCH  12  13
ENDBRANCH  11  12
ENDBRANCH  10  11
ENDBRANCH   1  10
TORSDOF 15
ENDMDL
MODEL 6
REMARK VINA RESULT:    -4.314      3.996      8.135
REMARK INTER + INTRA:         -10.894
REMARK INTER:                  -8.993
REMARK INTRA:                  -1.901
REMARK UNBOUND:                -2.796
REMARK SMILES CCCCCCCCCCCCCC=CC=CC(=O)OC
REMARK SMILES IDX 9 1 8 2 7 3 6 4 5 5 4 6 3 7 2 8 1 9 10 10 11 11 12 12 13 13
REMARK SMILES IDX 14 14 15 15 16 16 17 17 18 18 19 19 20 20 21 21
REMARK H PARENT
REMARK Flexibility Score: inf
ROOT
ATOM      1  C   UNL     1      50.591  -6.344  -4.294  1.00  0.00     0.000 C 
ENDROOT
BRANCH   1   2
ATOM      2  C   UNL     1      50.739  -7.866  -4.145  1.00  0.00     0.000 C 
BRANCH   2   3
ATOM      3  C   UNL     1      51.607  -8.218  -2.930  1.00  0.00     0.000 C 
BRANCH   3   4
ATOM      4  C   UNL     1      50.792  -8.986  -1.879  1.00  0.00    -0.000 C 
BRANCH   4   5
ATOM      5  C   UNL     1      49.297  -8.630  -1.912  1.00  0.00    -0.000 C 
BRANCH   5   6
ATOM      6  C   UNL     1      48.922  -7.549  -0.887  1.00  0.00    -0.000 C 
BRANCH   6   7
ATOM      7  C   UNL     1      47.403  -7.325  -0.856  1.00  0.00    -0.000 C 
BRANCH   7   8
ATOM      8  C   UNL     1      46.904  -6.837   0.513  1.00  0.00    -0.003 C 
ATOM      9  C   UNL     1      45.379  -6.802   0.609  1.00  0.00     0.004 C 
ENDBRANCH   7   8
ENDBRANCH   6   7
ENDBRANCH   5   6
ENDBRANCH   4   5
ENDBRANCH   3   4
ENDBRANCH   2   3
ENDBRANCH   1   2
BRANCH   1  10
ATOM     10  C   UNL     1      49.122  -5.900  -4.390  1.00  0.00     0.000 C 
BRANCH  10  11
ATOM     11  C   UNL     1      48.237  -6.938  -5.100  1.00  0.00     0.000 C 
BRANCH  11  12
ATOM     12  C   UNL     1      47.917  -6.549  -6.552  1.00  0.00     0.004 C 
BRANCH  12  13
ATOM     13  C   UNL     1      48.545  -7.506  -7.577  1.00  0.00     0.027 C 
BRANCH  13  14
ATOM     14  C   UNL     1      49.813  -6.934  -8.144  1.00  0.00    -0.027 C 
ATOM     15  C   UNL     1      50.072  -5.624  -8.098  1.00  0.00    -0.004 C 
BRANCH  15  16
ATOM     16  C   UNL     1      51.319  -5.078  -8.656  1.00  0.00     0.007 C 
ATOM     17  C   UNL     1      52.215  -4.474  -7.871  1.00  0.00     0.093 C 
BRANCH  17  18
ATOM     18  C   UNL     1      53.475  -3.927  -8.399  1.00  0.00     0.330 C 
ATOM     19  O   UNL     1      53.441  -2.896  -9.123  1.00  0.00    -0.247 OA
BRANCH  18  20
ATOM     20  O   UNL     1      54.695  -4.542  -8.100  1.00  0.00    -0.466 OA
ATOM     21  C   UNL     1      55.354  -5.417  -9.007  1.00  0.00     0.282 C 
ENDBRANCH  18  20
ENDBRANCH  17  18
ENDBRANCH  15  16
ENDBRANCH  13  14
ENDBRANCH  12  13
ENDBRANCH  11  12
ENDBRANCH  10  11
ENDBRANCH   1  10
TORSDOF 15
ENDMDL
MODEL 7
REMARK VINA RESULT:    -4.307      8.346     10.850
REMARK INTER + INTRA:         -10.880
REMARK INTER:                  -7.943
REMARK INTRA:                  -2.937
REMARK UNBOUND:                -2.796
REMARK SMILES CCCCCCCCCCCCCC=CC=CC(=O)OC
REMARK SMILES IDX 9 1 8 2 7 3 6 4 5 5 4 6 3 7 2 8 1 9 10 10 11 11 12 12 13 13
REMARK SMILES IDX 14 14 15 15 16 16 17 17 18 18 19 19 20 20 21 21
REMARK H PARENT
REMARK Flexibility Score: inf
ROOT
ATOM      1  C   UNL     1      60.007   1.196  -3.306  1.00  0.00     0.000 C 
ENDROOT
BRANCH   1   2
ATOM      2  C   UNL     1      60.232  -0.322  -3.227  1.00  0.00     0.000 C 
BRANCH   2   3
ATOM      3  C   UNL     1      61.011  -0.698  -1.960  1.00  0.00     0.000 C 
BRANCH   3   4
ATOM      4  C   UNL     1      61.034  -2.221  -1.763  1.00  0.00    -0.000 C 
BRANCH   4   5
ATOM      5  C   UNL     1      60.564  -2.644  -0.362  1.00  0.00    -0.000 C 
BRANCH   5   6
ATOM      6  C   UNL     1      59.504  -3.756  -0.403  1.00  0.00    -0.000 C 
BRANCH   6   7
ATOM      7  C   UNL     1      59.094  -4.071  -1.850  1.00  0.00    -0.000 C 
BRANCH   7   8
ATOM      8  C   UNL     1      57.613  -3.768  -2.123  1.00  0.00    -0.003 C 
ATOM      9  C   UNL     1      57.407  -2.456  -2.879  1.00  0.00     0.004 C 
ENDBRANCH   7   8
ENDBRANCH   6   7
ENDBRANCH   5   6
ENDBRANCH   4   5
ENDBRANCH   3   4
ENDBRANCH   2   3
ENDBRANCH   1   2
BRANCH   1  10
ATOM     10  C   UNL     1      58.527   1.583  -3.156  1.00  0.00     0.000 C 
BRANCH  10  11
ATOM     11  C   UNL     1      58.140   1.884  -1.698  1.00  0.00     0.000 C 
BRANCH  11  12
ATOM     12  C   UNL     1      57.505   0.675  -0.993  1.00  0.00     0.004 C 
BRANCH  12  13
ATOM     13  C   UNL     1      58.293   0.228   0.248  1.00  0.00     0.027 C 
BRANCH  13  14
ATOM     14  C   UNL     1      57.597  -0.901   0.952  1.00  0.00    -0.027 C 
ATOM     15  C   UNL     1      56.338  -1.240   0.657  1.00  0.00    -0.004 C 
BRANCH  15  16
ATOM     16  C   UNL     1      55.669  -2.350   1.355  1.00  0.00     0.007 C 
ATOM     17  C   UNL     1      56.033  -3.616   1.135  1.00  0.00     0.093 C 
BRANCH  17  18
ATOM     18  C   UNL     1      55.389  -4.745   1.824  1.00  0.00     0.330 C 
ATOM     19  O   UNL     1      54.133  -4.849   1.791  1.00  0.00    -0.247 OA
BRANCH  18  20
ATOM     20  O   UNL     1      56.160  -5.692   2.507  1.00  0.00    -0.466 OA
ATOM     21  C   UNL     1      57.575  -5.604   2.601  1.00  0.00     0.282 C 
ENDBRANCH  18  20
ENDBRANCH  17  18
ENDBRANCH  15  16
ENDBRANCH  13  14
ENDBRANCH  12  13
ENDBRANCH  11  12
ENDBRANCH  10  11
ENDBRANCH   1  10
TORSDOF 15
ENDMDL
MODEL 8
REMARK VINA RESULT:    -4.307      7.877     10.613
REMARK INTER + INTRA:         -10.880
REMARK INTER:                  -8.686
REMARK INTRA:                  -2.193
REMARK UNBOUND:                -2.796
REMARK SMILES CCCCCCCCCCCCCC=CC=CC(=O)OC
REMARK SMILES IDX 9 1 8 2 7 3 6 4 5 5 4 6 3 7 2 8 1 9 10 10 11 11 12 12 13 13
REMARK SMILES IDX 14 14 15 15 16 16 17 17 18 18 19 19 20 20 21 21
REMARK H PARENT
REMARK Flexibility Score: inf
ROOT
ATOM      1  C   UNL     1      60.836   0.298  -2.834  1.00  0.00     0.000 C 
ENDROOT
BRANCH   1   2
ATOM      2  C   UNL     1      60.516  -1.186  -2.593  1.00  0.00     0.000 C 
BRANCH   2   3
ATOM      3  C   UNL     1      59.368  -1.655  -3.496  1.00  0.00     0.000 C 
BRANCH   3   4
ATOM      4  C   UNL     1      58.302  -2.403  -2.682  1.00  0.00    -0.000 C 
BRANCH   4   5
ATOM      5  C   UNL     1      57.098  -2.833  -3.534  1.00  0.00    -0.000 C 
BRANCH   5   6
ATOM      6  C   UNL     1      57.376  -4.102  -4.356  1.00  0.00    -0.000 C 
BRANCH   6   7
ATOM      7  C   UNL     1      56.313  -4.292  -5.448  1.00  0.00    -0.000 C 
BRANCH   7   8
ATOM      8  C   UNL     1      55.067  -3.423  -5.218  1.00  0.00    -0.003 C 
ATOM      9  C   UNL     1      53.892  -3.826  -6.108  1.00  0.00     0.004 C 
ENDBRANCH   7   8
ENDBRANCH   6   7
ENDBRANCH   5   6
ENDBRANCH   4   5
ENDBRANCH   3   4
ENDBRANCH   2   3
ENDBRANCH   1   2
BRANCH   1  10
ATOM     10  C   UNL     1      59.901   0.943  -3.871  1.00  0.00     0.000 C 
BRANCH  10  11
ATOM     11  C   UNL     1      59.361   2.307  -3.410  1.00  0.00     0.000 C 
BRANCH  11  12
ATOM     12  C   UNL     1      57.936   2.217  -2.840  1.00  0.00     0.004 C 
BRANCH  12  13
ATOM     13  C   UNL     1      57.914   2.128  -1.305  1.00  0.00     0.027 C 
BRANCH  13  14
ATOM     14  C   UNL     1      57.783   0.702  -0.850  1.00  0.00    -0.027 C 
ATOM     15  C   UNL     1      58.386   0.263   0.259  1.00  0.00    -0.004 C 
BRANCH  15  16
ATOM     16  C   UNL     1      58.247  -1.136   0.693  1.00  0.00     0.007 C 
ATOM     17  C   UNL     1      57.047  -1.721   0.747  1.00  0.00     0.093 C 
BRANCH  17  18
ATOM     18  C   UNL     1      56.878  -3.120   1.169  1.00  0.00     0.330 C 
ATOM     19  O   UNL     1      57.803  -3.684   1.814  1.00  0.00    -0.247 OA
BRANCH  18  20
ATOM     20  O   UNL     1      55.705  -3.817   0.860  1.00  0.00    -0.466 OA
ATOM     21  C   UNL     1      54.991  -4.581   1.824  1.00  0.00     0.282 C 
ENDBRANCH  18  20
ENDBRANCH  17  18
ENDBRANCH  15  16
ENDBRANCH  13  14
ENDBRANCH  12  13
ENDBRANCH  11  12
ENDBRANCH  10  11
ENDBRANCH   1  10
TORSDOF 15
ENDMDL
MODEL 9
REMARK VINA RESULT:    -4.272      5.228      9.057
REMARK INTER + INTRA:         -10.815
REMARK INTER:                  -9.894
REMARK INTRA:                  -0.921
REMARK UNBOUND:                -2.796
REMARK SMILES CCCCCCCCCCCCCC=CC=CC(=O)OC
REMARK SMILES IDX 9 1 8 2 7 3 6 4 5 5 4 6 3 7 2 8 1 9 10 10 11 11 12 12 13 13
REMARK SMILES IDX 14 14 15 15 16 16 17 17 18 18 19 19 20 20 21 21
REMARK H PARENT
REMARK Flexibility Score: inf
ROOT
ATOM      1  C   UNL     1      49.395  -5.335  -4.636  1.00  0.00     0.000 C 
ENDROOT
BRANCH   1   2
ATOM      2  C   UNL     1      48.873  -6.749  -4.337  1.00  0.00     0.000 C 
BRANCH   2   3
ATOM      3  C   UNL     1      49.978  -7.627  -3.735  1.00  0.00     0.000 C 
BRANCH   3   4
ATOM      4  C   UNL     1      49.947  -7.570  -2.200  1.00  0.00    -0.000 C 
BRANCH   4   5
ATOM      5  C   UNL     1      49.190  -8.753  -1.577  1.00  0.00    -0.000 C 
BRANCH   5   6
ATOM      6  C   UNL     1      47.773  -8.376  -1.119  1.00  0.00    -0.000 C 
BRANCH   6   7
ATOM      7  C   UNL     1      47.755  -6.978  -0.483  1.00  0.00    -0.000 C 
BRANCH   7   8
ATOM      8  C   UNL     1      46.778  -6.878   0.698  1.00  0.00    -0.003 C 
ATOM      9  C   UNL     1      45.314  -6.899   0.257  1.00  0.00     0.004 C 
ENDBRANCH   7   8
ENDBRANCH   6   7
ENDBRANCH   5   6
ENDBRANCH   4   5
ENDBRANCH   3   4
ENDBRANCH   2   3
ENDBRANCH   1   2
BRANCH   1  10
ATOM     10  C   UNL     1      50.708  -5.347  -5.436  1.00  0.00     0.000 C 
BRANCH  10  11
ATOM     11  C   UNL     1      51.666  -4.220  -5.013  1.00  0.00     0.000 C 
BRANCH  11  12
ATOM     12  C   UNL     1      53.126  -4.690  -4.918  1.00  0.00     0.004 C 
BRANCH  12  13
ATOM     13  C   UNL     1      54.079  -3.853  -5.786  1.00  0.00     0.027 C 
BRANCH  13  14
ATOM     14  C   UNL     1      55.238  -3.344  -4.979  1.00  0.00    -0.027 C 
ATOM     15  C   UNL     1      56.405  -3.993  -4.943  1.00  0.00    -0.004 C 
BRANCH  15  16
ATOM     16  C   UNL     1      57.533  -3.481  -4.148  1.00  0.00     0.007 C 
ATOM     17  C   UNL     1      57.365  -2.469  -3.293  1.00  0.00     0.093 C 
BRANCH  17  18
ATOM     18  C   UNL     1      58.471  -1.942  -2.479  1.00  0.00     0.330 C 
ATOM     19  O   UNL     1      58.957  -2.660  -1.563  1.00  0.00    -0.247 OA
BRANCH  18  20
ATOM     20  O   UNL     1      58.980  -0.661  -2.718  1.00  0.00    -0.466 OA
ATOM     21  C   UNL     1      60.272  -0.257  -2.284  1.00  0.00     0.282 C 
ENDBRANCH  18  20
ENDBRANCH  17  18
ENDBRANCH  15  16
ENDBRANCH  13  14
ENDBRANCH  12  13
ENDBRANCH  11  12
ENDBRANCH  10  11
ENDBRANCH   1  10
TORSDOF 15
ENDMDL
