MODEL 1
REMARK VINA RESULT:    -5.311      0.000      0.000
REMARK INTER + INTRA:          -5.311
REMARK INTER:                  -5.311
REMARK INTRA:                   0.000
REMARK UNBOUND:                 0.000
REMARK SMILES C=C1CCC[C@]2(C)CC(=O)C(=C(C)C)C[C@@H]12
REMARK SMILES IDX 13 1 12 2 11 3 15 4 16 5 2 6 1 7 3 8 4 9 5 10 6 11 8 12 9 13
REMARK SMILES IDX 10 14 7 15 14 16
REMARK H PARENT
REMARK Flexibility Score: inf
ROOT
ATOM      1  C   UNL     1       2.980  14.584  13.757  1.00  0.00     0.039 C 
ATOM      2  C   UNL     1       3.210  13.186  14.282  1.00  0.00    -0.070 C 
ATOM      3  C   UNL     1       2.678  12.765  15.468  1.00  0.00    -0.006 C 
ATOM      4  C   UNL     1       2.869  11.335  15.955  1.00  0.00     0.047 C 
ATOM      5  C   UNL     1       1.685  10.831  16.817  1.00  0.00     0.025 C 
ATOM      6  C   UNL     1       1.839   9.414  17.367  1.00  0.00    -0.073 C 
ATOM      7  C   UNL     1       2.915   8.632  17.150  1.00  0.00     0.008 C 
ATOM      8  C   UNL     1       0.673   8.875  18.163  1.00  0.00     0.031 C 
ATOM      9  C   UNL     1       0.299   9.848  19.284  1.00  0.00     0.005 C 
ATOM     10  C   UNL     1       0.094  11.277  18.752  1.00  0.00     0.008 C 
ATOM     11  C   UNL     1       1.327  11.821  17.970  1.00  0.00    -0.018 C 
ATOM     12  C   UNL     1       0.940  13.185  17.348  1.00  0.00     0.088 C 
ATOM     13  C   UNL     1       1.993  13.699  16.409  1.00  0.00     0.159 C 
ATOM     14  O   UNL     1       2.287  14.923  16.446  1.00  0.00    -0.295 OA
ATOM     15  C   UNL     1       2.516  12.022  18.950  1.00  0.00     0.012 C 
ATOM     16  C   UNL     1       4.029  12.256  13.416  1.00  0.00     0.039 C 
ENDROOT
TORSDOF 0
ENDMDL
MODEL 2
REMARK VINA RESULT:    -5.307      2.690      4.528
REMARK INTER + INTRA:          -5.307
REMARK INTER:                  -5.307
REMARK INTRA:                   0.000
REMARK UNBOUND:                 0.000
REMARK SMILES C=C1CCC[C@]2(C)CC(=O)C(=C(C)C)C[C@@H]12
REMARK SMILES IDX 13 1 12 2 11 3 15 4 16 5 2 6 1 7 3 8 4 9 5 10 6 11 8 12 9 13
REMARK SMILES IDX 10 14 7 15 14 16
REMARK H PARENT
REMARK Flexibility Score: inf
ROOT
ATOM      1  C   UNL     1       1.560  10.368  16.047  1.00  0.00     0.039 C 
ATOM      2  C   UNL     1       1.973   9.512  17.222  1.00  0.00    -0.070 C 
ATOM      3  C   UNL     1       1.342   9.596  18.430  1.00  0.00    -0.006 C 
ATOM      4  C   UNL     1       1.729   8.684  19.587  1.00  0.00     0.047 C 
ATOM      5  C   UNL     1       0.540   8.374  20.531  1.00  0.00     0.025 C 
ATOM      6  C   UNL     1       0.878   7.495  21.734  1.00  0.00    -0.073 C 
ATOM      7  C   UNL     1       2.110   7.013  21.995  1.00  0.00     0.008 C 
ATOM      8  C   UNL     1      -0.274   7.127  22.639  1.00  0.00     0.031 C 
ATOM      9  C   UNL     1      -1.019   8.387  23.089  1.00  0.00     0.005 C 
ATOM     10  C   UNL     1      -1.413   9.272  21.893  1.00  0.00     0.008 C 
ATOM     11  C   UNL     1      -0.199   9.667  21.000  1.00  0.00    -0.018 C 
ATOM     12  C   UNL     1      -0.739  10.408  19.752  1.00  0.00     0.088 C 
ATOM     13  C   UNL     1       0.334  10.655  18.731  1.00  0.00     0.159 C 
ATOM     14  O   UNL     1       0.367  11.773  18.151  1.00  0.00    -0.295 OA
ATOM     15  C   UNL     1       0.743  10.616  21.792  1.00  0.00     0.012 C 
ATOM     16  C   UNL     1       3.095   8.527  16.990  1.00  0.00     0.039 C 
ENDROOT
TORSDOF 0
ENDMDL
MODEL 3
REMARK VINA RESULT:    -5.279      2.543      5.892
REMARK INTER + INTRA:          -5.279
REMARK INTER:                  -5.279
REMARK INTRA:                   0.000
REMARK UNBOUND:                 0.000
REMARK SMILES C=C1CCC[C@]2(C)CC(=O)C(=C(C)C)C[C@@H]12
REMARK SMILES IDX 13 1 12 2 11 3 15 4 16 5 2 6 1 7 3 8 4 9 5 10 6 11 8 12 9 13
REMARK SMILES IDX 10 14 7 15 14 16
REMARK H PARENT
REMARK Flexibility Score: inf
ROOT
ATOM      1  C   UNL     1      -0.273   8.109  21.616  1.00  0.00     0.039 C 
ATOM      2  C   UNL     1      -0.055   9.504  21.079  1.00  0.00    -0.070 C 
ATOM      3  C   UNL     1       0.621   9.730  19.914  1.00  0.00    -0.006 C 
ATOM      4  C   UNL     1       0.781  11.138  19.355  1.00  0.00     0.047 C 
ATOM      5  C   UNL     1       0.863  11.164  17.808  1.00  0.00     0.025 C 
ATOM      6  C   UNL     1       1.064  12.548  17.192  1.00  0.00    -0.073 C 
ATOM      7  C   UNL     1       1.176  13.684  17.907  1.00  0.00     0.008 C 
ATOM      8  C   UNL     1       1.089  12.611  15.682  1.00  0.00     0.031 C 
ATOM      9  C   UNL     1       2.117  11.621  15.126  1.00  0.00     0.005 C 
ATOM     10  C   UNL     1       1.911  10.207  15.696  1.00  0.00     0.008 C 
ATOM     11  C   UNL     1       1.929  10.167  17.253  1.00  0.00    -0.018 C 
ATOM     12  C   UNL     1       1.549   8.736  17.704  1.00  0.00     0.088 C 
ATOM     13  C   UNL     1       1.343   8.644  19.188  1.00  0.00     0.159 C 
ATOM     14  O   UNL     1       1.802   7.643  19.799  1.00  0.00    -0.295 OA
ATOM     15  C   UNL     1       3.357  10.504  17.766  1.00  0.00     0.012 C 
ATOM     16  C   UNL     1      -0.652  10.644  21.873  1.00  0.00     0.039 C 
ENDROOT
TORSDOF 0
ENDMDL
MODEL 4
REMARK VINA RESULT:    -5.271      4.828      7.270
REMARK INTER + INTRA:          -5.271
REMARK INTER:                  -5.271
REMARK INTRA:                   0.000
REMARK UNBOUND:                 0.000
REMARK SMILES C=C1CCC[C@]2(C)CC(=O)C(=C(C)C)C[C@@H]12
REMARK SMILES IDX 13 1 12 2 11 3 15 4 16 5 2 6 1 7 3 8 4 9 5 10 6 11 8 12 9 13
REMARK SMILES IDX 10 14 7 15 14 16
REMARK H PARENT
REMARK Flexibility Score: inf
ROOT
ATOM      1  C   UNL     1       5.814  12.337  24.259  1.00  0.00     0.039 C 
ATOM      2  C   UNL     1       5.394  12.566  22.826  1.00  0.00    -0.070 C 
ATOM      3  C   UNL     1       4.353  13.390  22.504  1.00  0.00    -0.006 C 
ATOM      4  C   UNL     1       3.979  13.657  21.052  1.00  0.00     0.047 C 
ATOM      5  C   UNL     1       3.368  15.065  20.839  1.00  0.00     0.025 C 
ATOM      6  C   UNL     1       2.937  15.375  19.406  1.00  0.00    -0.073 C 
ATOM      7  C   UNL     1       3.053  14.511  18.379  1.00  0.00     0.008 C 
ATOM      8  C   UNL     1       2.392  16.762  19.158  1.00  0.00     0.031 C 
ATOM      9  C   UNL     1       1.257  17.071  20.138  1.00  0.00     0.005 C 
ATOM     10  C   UNL     1       1.678  16.810  21.595  1.00  0.00     0.008 C 
ATOM     11  C   UNL     1       2.198  15.360  21.830  1.00  0.00    -0.018 C 
ATOM     12  C   UNL     1       2.743  15.272  23.277  1.00  0.00     0.088 C 
ATOM     13  C   UNL     1       3.450  13.973  23.538  1.00  0.00     0.159 C 
ATOM     14  O   UNL     1       3.251  13.390  24.637  1.00  0.00    -0.295 OA
ATOM     15  C   UNL     1       1.028  14.353  21.659  1.00  0.00     0.012 C 
ATOM     16  C   UNL     1       6.203  11.868  21.756  1.00  0.00     0.039 C 
ENDROOT
TORSDOF 0
ENDMDL
MODEL 5
REMARK VINA RESULT:    -5.265      2.170      4.274
REMARK INTER + INTRA:          -5.265
REMARK INTER:                  -5.265
REMARK INTRA:                   0.000
REMARK UNBOUND:                 0.000
REMARK SMILES C=C1CCC[C@]2(C)CC(=O)C(=C(C)C)C[C@@H]12
REMARK SMILES IDX 13 1 12 2 11 3 15 4 16 5 2 6 1 7 3 8 4 9 5 10 6 11 8 12 9 13
REMARK SMILES IDX 10 14 7 15 14 16
REMARK H PARENT
REMARK Flexibility Score: inf
ROOT
ATOM      1  C   UNL     1       2.076  12.431  15.730  1.00  0.00     0.039 C 
ATOM      2  C   UNL     1       1.212  12.348  16.967  1.00  0.00    -0.070 C 
ATOM      3  C   UNL     1       1.073  11.186  17.671  1.00  0.00    -0.006 C 
ATOM      4  C   UNL     1       0.246  11.133  18.950  1.00  0.00     0.047 C 
ATOM      5  C   UNL     1       0.766  10.077  19.957  1.00  0.00     0.025 C 
ATOM      6  C   UNL     1      -0.049   9.951  21.244  1.00  0.00    -0.073 C 
ATOM      7  C   UNL     1      -1.150  10.679  21.514  1.00  0.00     0.008 C 
ATOM      8  C   UNL     1       0.469   8.971  22.270  1.00  0.00     0.031 C 
ATOM      9  C   UNL     1       0.680   7.595  21.632  1.00  0.00     0.005 C 
ATOM     10  C   UNL     1       1.537   7.685  20.356  1.00  0.00     0.008 C 
ATOM     11  C   UNL     1       0.957   8.673  19.301  1.00  0.00    -0.018 C 
ATOM     12  C   UNL     1       1.983   8.803  18.148  1.00  0.00     0.088 C 
ATOM     13  C   UNL     1       1.609   9.885  17.176  1.00  0.00     0.159 C 
ATOM     14  O   UNL     1       1.748   9.661  15.943  1.00  0.00    -0.295 OA
ATOM     15  C   UNL     1      -0.378   8.111  18.739  1.00  0.00     0.012 C 
ATOM     16  C   UNL     1       0.533  13.623  17.414  1.00  0.00     0.039 C 
ENDROOT
TORSDOF 0
ENDMDL
MODEL 6
REMARK VINA RESULT:    -5.196      1.980      5.456
REMARK INTER + INTRA:          -5.196
REMARK INTER:                  -5.196
REMARK INTRA:                   0.000
REMARK UNBOUND:                 0.000
REMARK SMILES C=C1CCC[C@]2(C)CC(=O)C(=C(C)C)C[C@@H]12
REMARK SMILES IDX 13 1 12 2 11 3 15 4 16 5 2 6 1 7 3 8 4 9 5 10 6 11 8 12 9 13
REMARK SMILES IDX 10 14 7 15 14 16
REMARK H PARENT
REMARK Flexibility Score: inf
ROOT
ATOM      1  C   UNL     1       0.144   8.110  19.179  1.00  0.00     0.039 C 
ATOM      2  C   UNL     1       0.141   9.613  19.022  1.00  0.00    -0.070 C 
ATOM      3  C   UNL     1       0.964  10.246  18.134  1.00  0.00    -0.006 C 
ATOM      4  C   UNL     1       0.907  11.756  17.944  1.00  0.00     0.047 C 
ATOM      5  C   UNL     1       1.285  12.194  16.507  1.00  0.00     0.025 C 
ATOM      6  C   UNL     1       1.284  13.704  16.267  1.00  0.00    -0.073 C 
ATOM      7  C   UNL     1       0.992  14.618  17.213  1.00  0.00     0.008 C 
ATOM      8  C   UNL     1       1.592  14.157  14.859  1.00  0.00     0.031 C 
ATOM      9  C   UNL     1       2.906  13.539  14.376  1.00  0.00     0.005 C 
ATOM     10  C   UNL     1       2.919  12.011  14.564  1.00  0.00     0.008 C 
ATOM     11  C   UNL     1       2.638  11.575  16.033  1.00  0.00    -0.018 C 
ATOM     12  C   UNL     1       2.511  10.032  16.061  1.00  0.00     0.088 C 
ATOM     13  C   UNL     1       2.042   9.526  17.395  1.00  0.00     0.159 C 
ATOM     14  O   UNL     1       2.587   8.495  17.873  1.00  0.00    -0.295 OA
ATOM     15  C   UNL     1       3.822  12.009  16.940  1.00  0.00     0.012 C 
ATOM     16  C   UNL     1      -0.844  10.388  19.867  1.00  0.00     0.039 C 
ENDROOT
TORSDOF 0
ENDMDL
MODEL 7
REMARK VINA RESULT:    -5.161      3.698      5.725
REMARK INTER + INTRA:          -5.161
REMARK INTER:                  -5.161
REMARK INTRA:                   0.000
REMARK UNBOUND:                 0.000
REMARK SMILES C=C1CCC[C@]2(C)CC(=O)C(=C(C)C)C[C@@H]12
REMARK SMILES IDX 13 1 12 2 11 3 15 4 16 5 2 6 1 7 3 8 4 9 5 10 6 11 8 12 9 13
REMARK SMILES IDX 10 14 7 15 14 16
REMARK H PARENT
REMARK Flexibility Score: inf
ROOT
ATOM      1  C   UNL     1       1.344  15.168  15.428  1.00  0.00     0.039 C 
ATOM      2  C   UNL     1       0.822  15.689  16.746  1.00  0.00    -0.070 C 
ATOM      3  C   UNL     1       1.319  15.253  17.941  1.00  0.00    -0.006 C 
ATOM      4  C   UNL     1       0.824  15.832  19.260  1.00  0.00     0.047 C 
ATOM      5  C   UNL     1       1.911  15.823  20.365  1.00  0.00     0.025 C 
ATOM      6  C   UNL     1       1.459  16.357  21.724  1.00  0.00    -0.073 C 
ATOM      7  C   UNL     1       0.213  16.801  21.985  1.00  0.00     0.008 C 
ATOM      8  C   UNL     1       2.514  16.415  22.804  1.00  0.00     0.031 C 
ATOM      9  C   UNL     1       3.189  15.050  22.961  1.00  0.00     0.005 C 
ATOM     10  C   UNL     1       3.695  14.507  21.613  1.00  0.00     0.008 C 
ATOM     11  C   UNL     1       2.577  14.422  20.531  1.00  0.00    -0.018 C 
ATOM     12  C   UNL     1       3.236  14.026  19.187  1.00  0.00     0.088 C 
ATOM     13  C   UNL     1       2.275  14.111  18.037  1.00  0.00     0.159 C 
ATOM     14  O   UNL     1       2.288  13.195  17.172  1.00  0.00    -0.295 OA
ATOM     15  C   UNL     1       1.544  13.334  20.936  1.00  0.00     0.012 C 
ATOM     16  C   UNL     1      -0.256  16.747  16.684  1.00  0.00     0.039 C 
ENDROOT
TORSDOF 0
ENDMDL
MODEL 8
REMARK VINA RESULT:    -5.157      3.706      5.920
REMARK INTER + INTRA:          -5.157
REMARK INTER:                  -5.157
REMARK INTRA:                   0.000
REMARK UNBOUND:                 0.000
REMARK SMILES C=C1CCC[C@]2(C)CC(=O)C(=C(C)C)C[C@@H]12
REMARK SMILES IDX 13 1 12 2 11 3 15 4 16 5 2 6 1 7 3 8 4 9 5 10 6 11 8 12 9 13
REMARK SMILES IDX 10 14 7 15 14 16
REMARK H PARENT
REMARK Flexibility Score: inf
ROOT
ATOM      1  C   UNL     1       0.612  12.637  16.536  1.00  0.00     0.039 C 
ATOM      2  C   UNL     1       0.284  13.692  17.568  1.00  0.00    -0.070 C 
ATOM      3  C   UNL     1       0.830  13.668  18.820  1.00  0.00    -0.006 C 
ATOM      4  C   UNL     1       0.537  14.772  19.828  1.00  0.00     0.047 C 
ATOM      5  C   UNL     1       1.711  15.013  20.811  1.00  0.00     0.025 C 
ATOM      6  C   UNL     1       1.459  16.083  21.872  1.00  0.00    -0.073 C 
ATOM      7  C   UNL     1       0.311  16.780  21.985  1.00  0.00     0.008 C 
ATOM      8  C   UNL     1       2.608  16.381  22.807  1.00  0.00     0.031 C 
ATOM      9  C   UNL     1       3.113  15.090  23.457  1.00  0.00     0.005 C 
ATOM     10  C   UNL     1       3.419  14.007  22.407  1.00  0.00     0.008 C 
ATOM     11  C   UNL     1       2.204  13.693  21.483  1.00  0.00    -0.018 C 
ATOM     12  C   UNL     1       2.679  12.722  20.375  1.00  0.00     0.088 C 
ATOM     13  C   UNL     1       1.635  12.514  19.316  1.00  0.00     0.159 C 
ATOM     14  O   UNL     1       1.450  11.349  18.874  1.00  0.00    -0.295 OA
ATOM     15  C   UNL     1       1.081  13.013  22.314  1.00  0.00     0.012 C 
ATOM     16  C   UNL     1      -0.649  14.801  17.139  1.00  0.00     0.039 C 
ENDROOT
TORSDOF 0
ENDMDL
MODEL 9
REMARK VINA RESULT:    -5.048      2.120      4.675
REMARK INTER + INTRA:          -5.048
REMARK INTER:                  -5.048
REMARK INTRA:                   0.000
REMARK UNBOUND:                 0.000
REMARK SMILES C=C1CCC[C@]2(C)CC(=O)C(=C(C)C)C[C@@H]12
REMARK SMILES IDX 13 1 12 2 11 3 15 4 16 5 2 6 1 7 3 8 4 9 5 10 6 11 8 12 9 13
REMARK SMILES IDX 10 14 7 15 14 16
REMARK H PARENT
REMARK Flexibility Score: inf
ROOT
ATOM      1  C   UNL     1       2.369  14.367  22.294  1.00  0.00     0.039 C 
ATOM      2  C   UNL     1       1.741  13.081  21.809  1.00  0.00    -0.070 C 
ATOM      3  C   UNL     1       1.677  12.768  20.481  1.00  0.00    -0.006 C 
ATOM      4  C   UNL     1       1.096  11.441  20.011  1.00  0.00     0.047 C 
ATOM      5  C   UNL     1       1.739  10.936  18.695  1.00  0.00     0.025 C 
ATOM      6  C   UNL     1       1.167   9.626  18.153  1.00  0.00    -0.073 C 
ATOM      7  C   UNL     1       0.170   8.937  18.742  1.00  0.00     0.008 C 
ATOM      8  C   UNL     1       1.816   9.080  16.903  1.00  0.00     0.031 C 
ATOM      9  C   UNL     1       1.841  10.148  15.807  1.00  0.00     0.005 C 
ATOM     10  C   UNL     1       2.454  11.466  16.311  1.00  0.00     0.008 C 
ATOM     11  C   UNL     1       1.740  12.026  17.578  1.00  0.00    -0.018 C 
ATOM     12  C   UNL     1       2.543  13.250  18.082  1.00  0.00     0.088 C 
ATOM     13  C   UNL     1       2.051  13.741  19.413  1.00  0.00     0.159 C 
ATOM     14  O   UNL     1       1.952  14.984  19.598  1.00  0.00    -0.295 OA
ATOM     15  C   UNL     1       0.299  12.475  17.207  1.00  0.00     0.012 C 
ATOM     16  C   UNL     1       1.217  12.135  22.864  1.00  0.00     0.039 C 
ENDROOT
TORSDOF 0
ENDMDL
