MODEL 1
REMARK VINA RESULT:    -0.923      0.000      0.000
REMARK INTER + INTRA:          -0.923
REMARK INTER:                  -0.923
REMARK INTRA:                   0.000
REMARK UNBOUND:                 0.000
REMARK SMILES C=C1CCC[C@]2(C)CC(=O)C(=C(C)C)C[C@H]12
REMARK SMILES IDX 13 1 12 2 11 3 15 4 16 5 2 6 1 7 3 8 4 9 5 10 6 11 8 12 9 13
REMARK SMILES IDX 10 14 7 15 14 16
REMARK H PARENT
REMARK Flexibility Score: inf
ROOT
ATOM      1  C   UNL     1      32.208  24.775  34.921  1.00  0.00     0.039 C 
ATOM      2  C   UNL     1      32.917  24.831  33.588  1.00  0.00    -0.070 C 
ATOM      3  C   UNL     1      32.256  24.591  32.419  1.00  0.00    -0.006 C 
ATOM      4  C   UNL     1      32.958  24.608  31.076  1.00  0.00     0.047 C 
ATOM      5  C   UNL     1      32.382  23.583  30.066  1.00  0.00     0.025 C 
ATOM      6  C   UNL     1      32.989  23.853  28.699  1.00  0.00    -0.073 C 
ATOM      7  C   UNL     1      34.034  23.132  28.261  1.00  0.00     0.008 C 
ATOM      8  C   UNL     1      32.499  25.048  27.908  1.00  0.00     0.031 C 
ATOM      9  C   UNL     1      30.967  25.124  27.889  1.00  0.00     0.005 C 
ATOM     10  C   UNL     1      30.342  24.913  29.281  1.00  0.00     0.008 C 
ATOM     11  C   UNL     1      30.823  23.599  29.967  1.00  0.00    -0.018 C 
ATOM     12  C   UNL     1      30.192  23.473  31.378  1.00  0.00     0.088 C 
ATOM     13  C   UNL     1      30.784  24.431  32.361  1.00  0.00     0.159 C 
ATOM     14  O   UNL     1      30.023  25.089  33.121  1.00  0.00    -0.295 OA
ATOM     15  C   UNL     1      30.340  22.372  29.149  1.00  0.00     0.012 C 
ATOM     16  C   UNL     1      34.399  25.125  33.605  1.00  0.00     0.039 C 
ENDROOT
TORSDOF 0
ENDMDL
