MODEL 1
REMARK VINA RESULT:    36.344      0.000      0.000
REMARK INTER + INTRA:          45.425
REMARK INTER:                  45.904
REMARK INTRA:                  -0.480
REMARK UNBOUND:                -0.480
REMARK SMILES O=C(C=Cc1ccc(O)cc1)c1ccc(O)cc1O
REMARK SMILES IDX 4 1 3 2 5 3 6 4 7 5 8 6 11 7 10 8 9 9 2 11 1 12 12 13 18 14
REMARK SMILES IDX 13 15 17 16 14 17 15 18 19 19 16 21
REMARK H PARENT 9 10 19 20 16 22
REMARK Flexibility Score: inf
ROOT
ATOM      1  C   UNL     1     -35.951  40.064 -22.329  1.00  0.00     0.012 C 
ATOM      2  C   UNL     1     -35.014  40.946 -22.705  1.00  0.00     0.053 C 
ENDROOT
BRANCH   1   3
ATOM      3  C   UNL     1     -36.892  40.294 -21.205  1.00  0.00    -0.025 A 
ATOM      4  C   UNL     1     -36.458  40.681 -19.920  1.00  0.00     0.012 A 
ATOM      5  C   UNL     1     -37.384  40.897 -18.896  1.00  0.00     0.047 A 
ATOM      6  C   UNL     1     -38.752  40.743 -19.137  1.00  0.00     0.115 A 
ATOM      7  C   UNL     1     -38.269  40.158 -21.442  1.00  0.00     0.012 A 
ATOM      8  C   UNL     1     -39.193  40.375 -20.414  1.00  0.00     0.047 A 
BRANCH   6   9
ATOM      9  O   UNL     1     -39.663  40.962 -18.107  1.00  0.00    -0.508 OA
ATOM     10  H   UNL     1     -39.871  40.244 -17.422  1.00  0.00     0.293 HD
ENDBRANCH   6   9
ENDBRANCH   1   3
BRANCH   2  11
ATOM     11  C   UNL     1     -34.082  40.677 -23.822  1.00  0.00     0.189 C 
ATOM     12  O   UNL     1     -34.533  40.307 -24.941  1.00  0.00    -0.289 OA
BRANCH  11  13
ATOM     13  C   UNL     1     -32.616  40.785 -23.638  1.00  0.00     0.064 A 
ATOM     14  C   UNL     1     -31.722  40.737 -24.732  1.00  0.00     0.130 A 
ATOM     15  C   UNL     1     -32.098  40.911 -22.337  1.00  0.00     0.020 A 
ATOM     16  C   UNL     1     -30.342  40.857 -24.511  1.00  0.00     0.093 A 
ATOM     17  C   UNL     1     -30.721  41.024 -22.128  1.00  0.00     0.047 A 
ATOM     18  C   UNL     1     -29.841  41.002 -23.211  1.00  0.00     0.119 A 
BRANCH  14  19
ATOM     19  O   UNL     1     -32.198  40.545 -26.028  1.00  0.00    -0.507 OA
ATOM     20  H   UNL     1     -32.707  41.269 -26.522  1.00  0.00     0.293 HD
ENDBRANCH  14  19
BRANCH  18  21
ATOM     21  O   UNL     1     -28.471  41.119 -22.986  1.00  0.00    -0.508 OA
ATOM     22  H   UNL     1     -27.839  40.345 -23.153  1.00  0.00     0.293 HD
ENDBRANCH  18  21
ENDBRANCH  11  13
ENDBRANCH   2  11
TORSDOF 6
ENDMDL
MODEL 2
REMARK VINA RESULT:    37.519     14.460     15.522
REMARK INTER + INTRA:          46.910
REMARK INTER:                  47.281
REMARK INTRA:                  -0.371
REMARK UNBOUND:                -0.480
REMARK SMILES O=C(C=Cc1ccc(O)cc1)c1ccc(O)cc1O
REMARK SMILES IDX 4 1 3 2 5 3 6 4 7 5 8 6 11 7 10 8 9 9 2 11 1 12 12 13 18 14
REMARK SMILES IDX 13 15 17 16 14 17 15 18 19 19 16 21
REMARK H PARENT 9 10 19 20 16 22
REMARK Flexibility Score: inf
ROOT
ATOM      1  C   UNL     1     -31.377  28.761 -18.109  1.00  0.00     0.012 C 
ATOM      2  C   UNL     1     -30.716  29.048 -16.979  1.00  0.00     0.053 C 
ENDROOT
BRANCH   1   3
ATOM      3  C   UNL     1     -31.120  29.437 -19.405  1.00  0.00    -0.025 A 
ATOM      4  C   UNL     1     -31.502  30.770 -19.654  1.00  0.00     0.012 A 
ATOM      5  C   UNL     1     -31.227  31.368 -20.888  1.00  0.00     0.047 A 
ATOM      6  C   UNL     1     -30.559  30.651 -21.884  1.00  0.00     0.115 A 
ATOM      7  C   UNL     1     -30.434  28.731 -20.408  1.00  0.00     0.012 A 
ATOM      8  C   UNL     1     -30.160  29.331 -21.641  1.00  0.00     0.047 A 
BRANCH   6   9
ATOM      9  O   UNL     1     -30.292  31.259 -23.109  1.00  0.00    -0.508 OA
ATOM     10  H   UNL     1     -29.945  32.210 -23.164  1.00  0.00     0.293 HD
ENDBRANCH   6   9
ENDBRANCH   1   3
BRANCH   2  11
ATOM     11  C   UNL     1     -31.009  28.364 -15.700  1.00  0.00     0.189 C 
ATOM     12  O   UNL     1     -31.750  28.924 -14.844  1.00  0.00    -0.289 OA
BRANCH  11  13
ATOM     13  C   UNL     1     -30.406  27.050 -15.379  1.00  0.00     0.064 A 
ATOM     14  C   UNL     1     -30.462  26.502 -14.078  1.00  0.00     0.130 A 
ATOM     15  C   UNL     1     -29.736  26.340 -16.391  1.00  0.00     0.020 A 
ATOM     16  C   UNL     1     -29.889  25.247 -13.823  1.00  0.00     0.093 A 
ATOM     17  C   UNL     1     -29.164  25.094 -16.125  1.00  0.00     0.047 A 
ATOM     18  C   UNL     1     -29.242  24.542 -14.845  1.00  0.00     0.119 A 
BRANCH  14  19
ATOM     19  O   UNL     1     -31.060  27.210 -13.035  1.00  0.00    -0.507 OA
ATOM     20  H   UNL     1     -31.774  26.794 -12.449  1.00  0.00     0.293 HD
ENDBRANCH  14  19
BRANCH  18  21
ATOM     21  O   UNL     1     -28.669  23.296 -14.597  1.00  0.00    -0.508 OA
ATOM     22  H   UNL     1     -28.470  22.647 -15.349  1.00  0.00     0.293 HD
ENDBRANCH  18  21
ENDBRANCH  11  13
ENDBRANCH   2  11
TORSDOF 6
ENDMDL
MODEL 3
REMARK VINA RESULT:    39.021     14.378     14.989
REMARK INTER + INTRA:          48.807
REMARK INTER:                  49.275
REMARK INTRA:                  -0.468
REMARK UNBOUND:                -0.480
REMARK SMILES O=C(C=Cc1ccc(O)cc1)c1ccc(O)cc1O
REMARK SMILES IDX 4 1 3 2 5 3 6 4 7 5 8 6 11 7 10 8 9 9 2 11 1 12 12 13 18 14
REMARK SMILES IDX 13 15 17 16 14 17 15 18 19 19 16 21
REMARK H PARENT 9 10 19 20 16 22
REMARK Flexibility Score: inf
ROOT
ATOM      1  C   UNL     1     -30.192  27.885 -16.008  1.00  0.00     0.012 C 
ATOM      2  C   UNL     1     -31.107  28.075 -16.970  1.00  0.00     0.053 C 
ENDROOT
BRANCH   1   3
ATOM      3  C   UNL     1     -29.828  26.550 -15.473  1.00  0.00    -0.025 A 
ATOM      4  C   UNL     1     -30.147  26.146 -14.161  1.00  0.00     0.012 A 
ATOM      5  C   UNL     1     -29.793  24.872 -13.706  1.00  0.00     0.047 A 
ATOM      6  C   UNL     1     -29.128  23.981 -14.552  1.00  0.00     0.115 A 
ATOM      7  C   UNL     1     -29.174  25.641 -16.321  1.00  0.00     0.012 A 
ATOM      8  C   UNL     1     -28.822  24.367 -15.863  1.00  0.00     0.047 A 
BRANCH   6   9
ATOM      9  O   UNL     1     -28.782  22.715 -14.085  1.00  0.00    -0.508 OA
ATOM     10  H   UNL     1     -29.473  22.088 -13.692  1.00  0.00     0.293 HD
ENDBRANCH   6   9
ENDBRANCH   1   3
BRANCH   2  11
ATOM     11  C   UNL     1     -31.456  29.423 -17.469  1.00  0.00     0.189 C 
ATOM     12  O   UNL     1     -32.021  30.250 -16.701  1.00  0.00    -0.289 OA
BRANCH  11  13
ATOM     13  C   UNL     1     -31.202  29.808 -18.877  1.00  0.00     0.064 A 
ATOM     14  C   UNL     1     -31.679  31.024 -19.415  1.00  0.00     0.130 A 
ATOM     15  C   UNL     1     -30.489  28.925 -19.708  1.00  0.00     0.020 A 
ATOM     16  C   UNL     1     -31.401  31.353 -20.750  1.00  0.00     0.093 A 
ATOM     17  C   UNL     1     -30.223  29.260 -21.038  1.00  0.00     0.047 A 
ATOM     18  C   UNL     1     -30.674  30.474 -21.561  1.00  0.00     0.119 A 
BRANCH  14  19
ATOM     19  O   UNL     1     -32.447  31.891 -18.638  1.00  0.00    -0.507 OA
ATOM     20  H   UNL     1     -33.086  32.557 -19.056  1.00  0.00     0.293 HD
ENDBRANCH  14  19
BRANCH  18  21
ATOM     21  O   UNL     1     -30.397  30.795 -22.889  1.00  0.00    -0.508 OA
ATOM     22  H   UNL     1     -30.402  30.089 -23.616  1.00  0.00     0.293 HD
ENDBRANCH  18  21
ENDBRANCH  11  13
ENDBRANCH   2  11
TORSDOF 6
ENDMDL
