MODEL 1
REMARK VINA RESULT:    -1.580      0.000      0.000
REMARK INTER + INTRA:          -7.654
REMARK INTER:                  -3.426
REMARK INTRA:                  -4.227
REMARK UNBOUND:                -4.227
REMARK SMILES CCCCCCCCCCCCCCCCCCCCCC(=O)[O-]
REMARK SMILES IDX 12 1 11 2 10 3 9 4 8 5 7 6 6 7 5 8 4 9 3 10 2 11 1 12 13 13
REMARK SMILES IDX 14 14 15 15 16 16 17 17 18 18 19 19 20 20 21 21 22 22 23 23
REMARK SMILES IDX 24 24
REMARK H PARENT
REMARK Flexibility Score: inf
ROOT
ATOM      1  C   UNL     1     113.391  16.348  23.151  1.00  0.00     0.000 C 
ENDROOT
BRANCH   1   2
ATOM      2  C   UNL     1     114.870  16.104  22.801  1.00  0.00     0.000 C 
BRANCH   2   3
ATOM      3  C   UNL     1     115.047  15.250  21.534  1.00  0.00     0.000 C 
BRANCH   3   4
ATOM      4  C   UNL     1     116.454  15.386  20.925  1.00  0.00    -0.000 C 
BRANCH   4   5
ATOM      5  C   UNL     1     117.456  16.036  21.893  1.00  0.00    -0.000 C 
BRANCH   5   6
ATOM      6  C   UNL     1     118.799  15.292  21.944  1.00  0.00    -0.000 C 
BRANCH   6   7
ATOM      7  C   UNL     1     119.823  16.064  22.791  1.00  0.00    -0.000 C 
BRANCH   7   8
ATOM      8  C   UNL     1     119.189  17.230  23.567  1.00  0.00    -0.000 C 
BRANCH   8   9
ATOM      9  C   UNL     1     119.085  16.951  25.074  1.00  0.00    -0.000 C 
BRANCH   9  10
ATOM     10  C   UNL     1     118.241  18.023  25.774  1.00  0.00    -0.000 C 
BRANCH  10  11
ATOM     11  C   UNL     1     116.827  18.081  25.184  1.00  0.00    -0.003 C 
ATOM     12  C   UNL     1     115.775  17.766  26.243  1.00  0.00     0.004 C 
ENDBRANCH  10  11
ENDBRANCH   9  10
ENDBRANCH   8   9
ENDBRANCH   7   8
ENDBRANCH   6   7
ENDBRANCH   5   6
ENDBRANCH   4   5
ENDBRANCH   3   4
ENDBRANCH   2   3
ENDBRANCH   1   2
BRANCH   1  13
ATOM     13  C   UNL     1     112.591  15.041  23.278  1.00  0.00     0.000 C 
BRANCH  13  14
ATOM     14  C   UNL     1     112.634  14.463  24.703  1.00  0.00     0.000 C 
BRANCH  14  15
ATOM     15  C   UNL     1     112.919  12.953  24.722  1.00  0.00     0.000 C 
BRANCH  15  16
ATOM     16  C   UNL     1     113.207  12.385  23.324  1.00  0.00     0.000 C 
BRANCH  16  17
ATOM     17  C   UNL     1     114.653  11.877  23.229  1.00  0.00     0.000 C 
BRANCH  17  18
ATOM     18  C   UNL     1     115.485  12.192  24.486  1.00  0.00     0.000 C 
BRANCH  18  19
ATOM     19  C   UNL     1     116.549  13.289  24.304  1.00  0.00     0.000 C 
BRANCH  19  20
ATOM     20  C   UNL     1     116.549  14.319  25.443  1.00  0.00     0.006 C 
BRANCH  20  21
ATOM     21  C   UNL     1     115.921  13.735  26.712  1.00  0.00     0.053 C 
BRANCH  21  22
ATOM     22  C   UNL     1     116.756  14.066  27.909  1.00  0.00     0.041 C 
ATOM     23  O   UNL     1     116.735  13.319  28.923  1.00  0.00    -0.550 OA
ATOM     24  O   UNL     1     117.592  15.176  27.888  1.00  0.00    -0.550 OA
ENDBRANCH  21  22
ENDBRANCH  20  21
ENDBRANCH  19  20
ENDBRANCH  18  19
ENDBRANCH  17  18
ENDBRANCH  16  17
ENDBRANCH  15  16
ENDBRANCH  14  15
ENDBRANCH  13  14
ENDBRANCH   1  13
TORSDOF 20
ENDMDL
MODEL 2
REMARK VINA RESULT:    -1.556      2.619      5.059
REMARK INTER + INTRA:          -7.602
REMARK INTER:                  -3.558
REMARK INTRA:                  -4.045
REMARK UNBOUND:                -4.227
REMARK SMILES CCCCCCCCCCCCCCCCCCCCCC(=O)[O-]
REMARK SMILES IDX 12 1 11 2 10 3 9 4 8 5 7 6 6 7 5 8 4 9 3 10 2 11 1 12 13 13
REMARK SMILES IDX 14 14 15 15 16 16 17 17 18 18 19 19 20 20 21 21 22 22 23 23
REMARK SMILES IDX 24 24
REMARK H PARENT
REMARK Flexibility Score: inf
ROOT
ATOM      1  C   UNL     1     116.294  16.480  23.542  1.00  0.00     0.000 C 
ENDROOT
BRANCH   1   2
ATOM      2  C   UNL     1     117.639  17.222  23.651  1.00  0.00     0.000 C 
BRANCH   2   3
ATOM      3  C   UNL     1     118.788  16.304  24.101  1.00  0.00     0.000 C 
BRANCH   3   4
ATOM      4  C   UNL     1     119.733  16.993  25.101  1.00  0.00    -0.000 C 
BRANCH   4   5
ATOM      5  C   UNL     1     119.010  17.451  26.378  1.00  0.00    -0.000 C 
BRANCH   5   6
ATOM      6  C   UNL     1     118.462  16.276  27.203  1.00  0.00    -0.000 C 
BRANCH   6   7
ATOM      7  C   UNL     1     117.245  16.708  28.034  1.00  0.00    -0.000 C 
BRANCH   7   8
ATOM      8  C   UNL     1     116.791  15.626  29.027  1.00  0.00    -0.000 C 
BRANCH   8   9
ATOM      9  C   UNL     1     117.329  14.232  28.671  1.00  0.00    -0.000 C 
BRANCH   9  10
ATOM     10  C   UNL     1     116.227  13.172  28.791  1.00  0.00    -0.000 C 
BRANCH  10  11
ATOM     11  C   UNL     1     114.846  13.826  28.907  1.00  0.00    -0.003 C 
ATOM     12  C   UNL     1     113.732  12.799  28.726  1.00  0.00     0.004 C 
ENDBRANCH  10  11
ENDBRANCH   9  10
ENDBRANCH   8   9
ENDBRANCH   7   8
ENDBRANCH   6   7
ENDBRANCH   5   6
ENDBRANCH   4   5
ENDBRANCH   3   4
ENDBRANCH   2   3
ENDBRANCH   1   2
BRANCH   1  13
ATOM     13  C   UNL     1     115.480  16.538  24.845  1.00  0.00     0.000 C 
BRANCH  13  14
ATOM     14  C   UNL     1     115.112  15.140  25.371  1.00  0.00     0.000 C 
BRANCH  14  15
ATOM     15  C   UNL     1     116.244  14.117  25.176  1.00  0.00     0.000 C 
BRANCH  15  16
ATOM     16  C   UNL     1     115.730  12.673  25.080  1.00  0.00     0.000 C 
BRANCH  16  17
ATOM     17  C   UNL     1     114.196  12.642  25.007  1.00  0.00     0.000 C 
BRANCH  17  18
ATOM     18  C   UNL     1     113.669  12.166  23.641  1.00  0.00     0.000 C 
BRANCH  18  19
ATOM     19  C   UNL     1     113.762  13.205  22.510  1.00  0.00     0.000 C 
BRANCH  19  20
ATOM     20  C   UNL     1     114.754  12.805  21.408  1.00  0.00     0.006 C 
BRANCH  20  21
ATOM     21  C   UNL     1     115.530  14.022  20.897  1.00  0.00     0.053 C 
BRANCH  21  22
ATOM     22  C   UNL     1     117.000  13.742  20.893  1.00  0.00     0.041 C 
ATOM     23  O   UNL     1     117.629  13.673  19.805  1.00  0.00    -0.550 OA
ATOM     24  O   UNL     1     117.684  13.599  22.094  1.00  0.00    -0.550 OA
ENDBRANCH  21  22
ENDBRANCH  20  21
ENDBRANCH  19  20
ENDBRANCH  18  19
ENDBRANCH  17  18
ENDBRANCH  16  17
ENDBRANCH  15  16
ENDBRANCH  14  15
ENDBRANCH  13  14
ENDBRANCH   1  13
TORSDOF 20
ENDMDL
MODEL 3
REMARK VINA RESULT:    -1.555      2.500      4.835
REMARK INTER + INTRA:          -7.600
REMARK INTER:                  -3.662
REMARK INTRA:                  -3.938
REMARK UNBOUND:                -4.227
REMARK SMILES CCCCCCCCCCCCCCCCCCCCCC(=O)[O-]
REMARK SMILES IDX 12 1 11 2 10 3 9 4 8 5 7 6 6 7 5 8 4 9 3 10 2 11 1 12 13 13
REMARK SMILES IDX 14 14 15 15 16 16 17 17 18 18 19 19 20 20 21 21 22 22 23 23
REMARK SMILES IDX 24 24
REMARK H PARENT
REMARK Flexibility Score: inf
ROOT
ATOM      1  C   UNL     1     115.037  13.718  25.776  1.00  0.00     0.000 C 
ENDROOT
BRANCH   1   2
ATOM      2  C   UNL     1     114.431  13.734  27.192  1.00  0.00     0.000 C 
BRANCH   2   3
ATOM      3  C   UNL     1     115.432  14.204  28.260  1.00  0.00     0.000 C 
BRANCH   3   4
ATOM      4  C   UNL     1     116.875  14.265  27.727  1.00  0.00    -0.000 C 
BRANCH   4   5
ATOM      5  C   UNL     1     117.772  15.199  28.556  1.00  0.00    -0.000 C 
BRANCH   5   6
ATOM      6  C   UNL     1     118.546  16.203  27.688  1.00  0.00    -0.000 C 
BRANCH   6   7
ATOM      7  C   UNL     1     118.291  17.644  28.156  1.00  0.00    -0.000 C 
BRANCH   7   8
ATOM      8  C   UNL     1     116.795  17.992  28.213  1.00  0.00    -0.000 C 
BRANCH   8   9
ATOM      9  C   UNL     1     116.230  18.403  26.844  1.00  0.00    -0.000 C 
BRANCH   9  10
ATOM     10  C   UNL     1     115.127  17.437  26.394  1.00  0.00    -0.000 C 
BRANCH  10  11
ATOM     11  C   UNL     1     113.916  17.511  27.330  1.00  0.00    -0.003 C 
ATOM     12  C   UNL     1     112.668  16.938  26.664  1.00  0.00     0.004 C 
ENDBRANCH  10  11
ENDBRANCH   9  10
ENDBRANCH   8   9
ENDBRANCH   7   8
ENDBRANCH   6   7
ENDBRANCH   5   6
ENDBRANCH   4   5
ENDBRANCH   3   4
ENDBRANCH   2   3
ENDBRANCH   1   2
BRANCH   1  13
ATOM     13  C   UNL     1     115.004  12.321  25.136  1.00  0.00     0.000 C 
BRANCH  13  14
ATOM     14  C   UNL     1     116.218  12.063  24.226  1.00  0.00     0.000 C 
BRANCH  14  15
ATOM     15  C   UNL     1     115.824  11.875  22.752  1.00  0.00     0.000 C 
BRANCH  15  16
ATOM     16  C   UNL     1     116.886  12.410  21.780  1.00  0.00     0.000 C 
BRANCH  16  17
ATOM     17  C   UNL     1     117.427  13.766  22.254  1.00  0.00     0.000 C 
BRANCH  17  18
ATOM     18  C   UNL     1     116.418  14.914  22.069  1.00  0.00     0.000 C 
BRANCH  18  19
ATOM     19  C   UNL     1     116.415  15.964  23.194  1.00  0.00     0.000 C 
BRANCH  19  20
ATOM     20  C   UNL     1     117.666  15.896  24.081  1.00  0.00     0.006 C 
BRANCH  20  21
ATOM     21  C   UNL     1     118.398  17.241  24.103  1.00  0.00     0.053 C 
BRANCH  21  22
ATOM     22  C   UNL     1     119.873  17.031  24.247  1.00  0.00     0.041 C 
ATOM     23  O   UNL     1     120.458  16.149  23.564  1.00  0.00    -0.550 OA
ATOM     24  O   UNL     1     120.610  17.840  25.104  1.00  0.00    -0.550 OA
ENDBRANCH  21  22
ENDBRANCH  20  21
ENDBRANCH  19  20
ENDBRANCH  18  19
ENDBRANCH  17  18
ENDBRANCH  16  17
ENDBRANCH  15  16
ENDBRANCH  14  15
ENDBRANCH  13  14
ENDBRANCH   1  13
TORSDOF 20
ENDMDL
MODEL 4
REMARK VINA RESULT:    -1.537      2.617      5.858
REMARK INTER + INTRA:          -7.562
REMARK INTER:                  -3.123
REMARK INTRA:                  -4.439
REMARK UNBOUND:                -4.227
REMARK SMILES CCCCCCCCCCCCCCCCCCCCCC(=O)[O-]
REMARK SMILES IDX 12 1 11 2 10 3 9 4 8 5 7 6 6 7 5 8 4 9 3 10 2 11 1 12 13 13
REMARK SMILES IDX 14 14 15 15 16 16 17 17 18 18 19 19 20 20 21 21 22 22 23 23
REMARK SMILES IDX 24 24
REMARK H PARENT
REMARK Flexibility Score: inf
ROOT
ATOM      1  C   UNL     1     116.710  18.694  22.204  1.00  0.00     0.000 C 
ENDROOT
BRANCH   1   2
ATOM      2  C   UNL     1     116.567  17.871  23.498  1.00  0.00     0.000 C 
BRANCH   2   3
ATOM      3  C   UNL     1     115.808  18.628  24.601  1.00  0.00     0.000 C 
BRANCH   3   4
ATOM      4  C   UNL     1     116.539  18.582  25.954  1.00  0.00    -0.000 C 
BRANCH   4   5
ATOM      5  C   UNL     1     118.053  18.811  25.817  1.00  0.00    -0.000 C 
BRANCH   5   6
ATOM      6  C   UNL     1     118.878  17.888  26.727  1.00  0.00    -0.000 C 
BRANCH   6   7
ATOM      7  C   UNL     1     118.594  16.412  26.413  1.00  0.00    -0.000 C 
BRANCH   7   8
ATOM      8  C   UNL     1     117.962  15.665  27.599  1.00  0.00    -0.000 C 
BRANCH   8   9
ATOM      9  C   UNL     1     116.782  14.776  27.178  1.00  0.00    -0.000 C 
BRANCH   9  10
ATOM     10  C   UNL     1     116.699  14.661  25.651  1.00  0.00    -0.000 C 
BRANCH  10  11
ATOM     11  C   UNL     1     115.245  14.748  25.171  1.00  0.00    -0.003 C 
ATOM     12  C   UNL     1     114.385  15.530  26.159  1.00  0.00     0.004 C 
ENDBRANCH  10  11
ENDBRANCH   9  10
ENDBRANCH   8   9
ENDBRANCH   7   8
ENDBRANCH   6   7
ENDBRANCH   5   6
ENDBRANCH   4   5
ENDBRANCH   3   4
ENDBRANCH   2   3
ENDBRANCH   1   2
BRANCH   1  13
ATOM     13  C   UNL     1     117.999  19.532  22.178  1.00  0.00     0.000 C 
BRANCH  13  14
ATOM     14  C   UNL     1     118.912  19.169  20.993  1.00  0.00     0.000 C 
BRANCH  14  15
ATOM     15  C   UNL     1     120.274  18.619  21.443  1.00  0.00     0.000 C 
BRANCH  15  16
ATOM     16  C   UNL     1     120.372  18.444  22.966  1.00  0.00     0.000 C 
BRANCH  16  17
ATOM     17  C   UNL     1     120.525  16.961  23.336  1.00  0.00     0.000 C 
BRANCH  17  18
ATOM     18  C   UNL     1     120.015  16.012  22.237  1.00  0.00     0.000 C 
BRANCH  18  19
ATOM     19  C   UNL     1     118.700  15.282  22.566  1.00  0.00     0.000 C 
BRANCH  19  20
ATOM     20  C   UNL     1     117.819  15.048  21.330  1.00  0.00     0.006 C 
BRANCH  20  21
ATOM     21  C   UNL     1     116.590  14.205  21.683  1.00  0.00     0.053 C 
BRANCH  21  22
ATOM     22  C   UNL     1     116.972  12.767  21.845  1.00  0.00     0.041 C 
ATOM     23  O   UNL     1     117.313  12.085  20.844  1.00  0.00    -0.550 OA
ATOM     24  O   UNL     1     116.991  12.191  23.110  1.00  0.00    -0.550 OA
ENDBRANCH  21  22
ENDBRANCH  20  21
ENDBRANCH  19  20
ENDBRANCH  18  19
ENDBRANCH  17  18
ENDBRANCH  16  17
ENDBRANCH  15  16
ENDBRANCH  14  15
ENDBRANCH  13  14
ENDBRANCH   1  13
TORSDOF 20
ENDMDL
MODEL 5
REMARK VINA RESULT:    -1.511      3.074      5.144
REMARK INTER + INTRA:          -7.505
REMARK INTER:                  -3.583
REMARK INTRA:                  -3.922
REMARK UNBOUND:                -4.227
REMARK SMILES CCCCCCCCCCCCCCCCCCCCCC(=O)[O-]
REMARK SMILES IDX 12 1 11 2 10 3 9 4 8 5 7 6 6 7 5 8 4 9 3 10 2 11 1 12 13 13
REMARK SMILES IDX 14 14 15 15 16 16 17 17 18 18 19 19 20 20 21 21 22 22 23 23
REMARK SMILES IDX 24 24
REMARK H PARENT
REMARK Flexibility Score: inf
ROOT
ATOM      1  C   UNL     1     114.837  16.820  25.835  1.00  0.00     0.000 C 
ENDROOT
BRANCH   1   2
ATOM      2  C   UNL     1     114.160  16.412  27.156  1.00  0.00     0.000 C 
BRANCH   2   3
ATOM      3  C   UNL     1     115.169  16.175  28.291  1.00  0.00     0.000 C 
BRANCH   3   4
ATOM      4  C   UNL     1     115.678  14.723  28.331  1.00  0.00    -0.000 C 
BRANCH   4   5
ATOM      5  C   UNL     1     117.174  14.611  27.994  1.00  0.00    -0.000 C 
BRANCH   5   6
ATOM      6  C   UNL     1     118.033  15.624  28.767  1.00  0.00    -0.000 C 
BRANCH   6   7
ATOM      7  C   UNL     1     118.875  16.476  27.806  1.00  0.00    -0.000 C 
BRANCH   7   8
ATOM      8  C   UNL     1     118.422  16.341  26.343  1.00  0.00    -0.000 C 
BRANCH   8   9
ATOM      9  C   UNL     1     118.466  17.676  25.584  1.00  0.00    -0.000 C 
BRANCH   9  10
ATOM     10  C   UNL     1     118.161  17.471  24.095  1.00  0.00    -0.000 C 
BRANCH  10  11
ATOM     11  C   UNL     1     118.465  16.031  23.666  1.00  0.00    -0.003 C 
ATOM     12  C   UNL     1     119.436  16.000  22.489  1.00  0.00     0.004 C 
ENDBRANCH  10  11
ENDBRANCH   9  10
ENDBRANCH   8   9
ENDBRANCH   7   8
ENDBRANCH   6   7
ENDBRANCH   5   6
ENDBRANCH   4   5
ENDBRANCH   3   4
ENDBRANCH   2   3
ENDBRANCH   1   2
BRANCH   1  13
ATOM     13  C   UNL     1     114.983  15.642  24.858  1.00  0.00     0.000 C 
BRANCH  13  14
ATOM     14  C   UNL     1     113.960  14.525  25.128  1.00  0.00     0.000 C 
BRANCH  14  15
ATOM     15  C   UNL     1     114.540  13.121  24.896  1.00  0.00     0.000 C 
BRANCH  15  16
ATOM     16  C   UNL     1     116.076  13.099  24.927  1.00  0.00     0.000 C 
BRANCH  16  17
ATOM     17  C   UNL     1     116.624  11.964  24.050  1.00  0.00     0.000 C 
BRANCH  17  18
ATOM     18  C   UNL     1     116.031  11.962  22.629  1.00  0.00     0.000 C 
BRANCH  18  19
ATOM     19  C   UNL     1     117.000  12.408  21.519  1.00  0.00     0.000 C 
BRANCH  19  20
ATOM     20  C   UNL     1     116.785  13.866  21.087  1.00  0.00     0.006 C 
BRANCH  20  21
ATOM     21  C   UNL     1     115.354  14.323  21.383  1.00  0.00     0.053 C 
BRANCH  21  22
ATOM     22  C   UNL     1     114.618  14.599  20.110  1.00  0.00     0.041 C 
ATOM     23  O   UNL     1     113.995  15.683  19.960  1.00  0.00    -0.550 OA
ATOM     24  O   UNL     1     114.657  13.677  19.071  1.00  0.00    -0.550 OA
ENDBRANCH  21  22
ENDBRANCH  20  21
ENDBRANCH  19  20
ENDBRANCH  18  19
ENDBRANCH  17  18
ENDBRANCH  16  17
ENDBRANCH  15  16
ENDBRANCH  14  15
ENDBRANCH  13  14
ENDBRANCH   1  13
TORSDOF 20
ENDMDL
MODEL 6
REMARK VINA RESULT:    -1.474      2.456      6.012
REMARK INTER + INTRA:          -7.424
REMARK INTER:                  -3.628
REMARK INTRA:                  -3.796
REMARK UNBOUND:                -4.227
REMARK SMILES CCCCCCCCCCCCCCCCCCCCCC(=O)[O-]
REMARK SMILES IDX 12 1 11 2 10 3 9 4 8 5 7 6 6 7 5 8 4 9 3 10 2 11 1 12 13 13
REMARK SMILES IDX 14 14 15 15 16 16 17 17 18 18 19 19 20 20 21 21 22 22 23 23
REMARK SMILES IDX 24 24
REMARK H PARENT
REMARK Flexibility Score: inf
ROOT
ATOM      1  C   UNL     1     114.628  15.683  26.143  1.00  0.00     0.000 C 
ENDROOT
BRANCH   1   2
ATOM      2  C   UNL     1     113.143  15.304  26.003  1.00  0.00     0.000 C 
BRANCH   2   3
ATOM      3  C   UNL     1     112.724  14.181  26.966  1.00  0.00     0.000 C 
BRANCH   3   4
ATOM      4  C   UNL     1     112.745  12.795  26.298  1.00  0.00    -0.000 C 
BRANCH   4   5
ATOM      5  C   UNL     1     112.576  12.873  24.771  1.00  0.00    -0.000 C 
BRANCH   5   6
ATOM      6  C   UNL     1     113.787  12.310  24.012  1.00  0.00    -0.000 C 
BRANCH   6   7
ATOM      7  C   UNL     1     114.991  12.137  24.950  1.00  0.00    -0.000 C 
BRANCH   7   8
ATOM      8  C   UNL     1     116.334  12.384  24.242  1.00  0.00    -0.000 C 
BRANCH   8   9
ATOM      9  C   UNL     1     116.394  13.755  23.550  1.00  0.00    -0.000 C 
BRANCH   9  10
ATOM     10  C   UNL     1     117.314  13.709  22.324  1.00  0.00    -0.000 C 
BRANCH  10  11
ATOM     11  C   UNL     1     117.090  12.426  21.516  1.00  0.00    -0.003 C 
ATOM     12  C   UNL     1     115.917  12.578  20.552  1.00  0.00     0.004 C 
ENDBRANCH  10  11
ENDBRANCH   9  10
ENDBRANCH   8   9
ENDBRANCH   7   8
ENDBRANCH   6   7
ENDBRANCH   5   6
ENDBRANCH   4   5
ENDBRANCH   3   4
ENDBRANCH   2   3
ENDBRANCH   1   2
BRANCH   1  13
ATOM     13  C   UNL     1     115.193  15.355  27.534  1.00  0.00     0.000 C 
BRANCH  13  14
ATOM     14  C   UNL     1     116.364  14.358  27.473  1.00  0.00     0.000 C 
BRANCH  14  15
ATOM     15  C   UNL     1     117.555  14.789  28.344  1.00  0.00     0.000 C 
BRANCH  15  16
ATOM     16  C   UNL     1     117.427  16.231  28.855  1.00  0.00     0.000 C 
BRANCH  16  17
ATOM     17  C   UNL     1     118.776  16.961  28.774  1.00  0.00     0.000 C 
BRANCH  17  18
ATOM     18  C   UNL     1     118.941  17.776  27.478  1.00  0.00     0.000 C 
BRANCH  18  19
ATOM     19  C   UNL     1     117.628  18.098  26.741  1.00  0.00     0.000 C 
BRANCH  19  20
ATOM     20  C   UNL     1     117.650  17.675  25.265  1.00  0.00     0.006 C 
BRANCH  20  21
ATOM     21  C   UNL     1     118.514  16.426  25.064  1.00  0.00     0.053 C 
BRANCH  21  22
ATOM     22  C   UNL     1     119.426  16.604  23.891  1.00  0.00     0.041 C 
ATOM     23  O   UNL     1     118.975  17.036  22.797  1.00  0.00    -0.550 OA
ATOM     24  O   UNL     1     120.783  16.333  24.017  1.00  0.00    -0.550 OA
ENDBRANCH  21  22
ENDBRANCH  20  21
ENDBRANCH  19  20
ENDBRANCH  18  19
ENDBRANCH  17  18
ENDBRANCH  16  17
ENDBRANCH  15  16
ENDBRANCH  14  15
ENDBRANCH  13  14
ENDBRANCH   1  13
TORSDOF 20
ENDMDL
MODEL 7
REMARK VINA RESULT:    -1.472      2.250      5.434
REMARK INTER + INTRA:          -7.420
REMARK INTER:                  -3.485
REMARK INTRA:                  -3.934
REMARK UNBOUND:                -4.227
REMARK SMILES CCCCCCCCCCCCCCCCCCCCCC(=O)[O-]
REMARK SMILES IDX 12 1 11 2 10 3 9 4 8 5 7 6 6 7 5 8 4 9 3 10 2 11 1 12 13 13
REMARK SMILES IDX 14 14 15 15 16 16 17 17 18 18 19 19 20 20 21 21 22 22 23 23
REMARK SMILES IDX 24 24
REMARK H PARENT
REMARK Flexibility Score: inf
ROOT
ATOM      1  C   UNL     1     115.969  12.590  24.771  1.00  0.00     0.000 C 
ENDROOT
BRANCH   1   2
ATOM      2  C   UNL     1     114.618  12.496  25.502  1.00  0.00     0.000 C 
BRANCH   2   3
ATOM      3  C   UNL     1     114.598  13.290  26.818  1.00  0.00     0.000 C 
BRANCH   3   4
ATOM      4  C   UNL     1     115.446  12.627  27.917  1.00  0.00    -0.000 C 
BRANCH   4   5
ATOM      5  C   UNL     1     116.317  13.637  28.683  1.00  0.00    -0.000 C 
BRANCH   5   6
ATOM      6  C   UNL     1     115.618  14.992  28.879  1.00  0.00    -0.000 C 
BRANCH   6   7
ATOM      7  C   UNL     1     116.465  16.135  28.300  1.00  0.00    -0.000 C 
BRANCH   7   8
ATOM      8  C   UNL     1     117.593  15.631  27.385  1.00  0.00    -0.000 C 
BRANCH   8   9
ATOM      9  C   UNL     1     117.315  15.901  25.898  1.00  0.00    -0.000 C 
BRANCH   9  10
ATOM     10  C   UNL     1     116.136  16.867  25.727  1.00  0.00    -0.000 C 
BRANCH  10  11
ATOM     11  C   UNL     1     115.077  16.282  24.786  1.00  0.00    -0.003 C 
ATOM     12  C   UNL     1     114.957  17.107  23.509  1.00  0.00     0.004 C 
ENDBRANCH  10  11
ENDBRANCH   9  10
ENDBRANCH   8   9
ENDBRANCH   7   8
ENDBRANCH   6   7
ENDBRANCH   5   6
ENDBRANCH   4   5
ENDBRANCH   3   4
ENDBRANCH   2   3
ENDBRANCH   1   2
BRANCH   1  13
ATOM     13  C   UNL     1     115.920  11.985  23.358  1.00  0.00     0.000 C 
BRANCH  13  14
ATOM     14  C   UNL     1     116.716  12.815  22.335  1.00  0.00     0.000 C 
BRANCH  14  15
ATOM     15  C   UNL     1     117.316  14.091  22.947  1.00  0.00     0.000 C 
BRANCH  15  16
ATOM     16  C   UNL     1     117.736  15.119  21.886  1.00  0.00     0.000 C 
BRANCH  16  17
ATOM     17  C   UNL     1     119.204  15.528  22.073  1.00  0.00     0.000 C 
BRANCH  17  18
ATOM     18  C   UNL     1     119.367  16.821  22.895  1.00  0.00     0.000 C 
BRANCH  18  19
ATOM     19  C   UNL     1     118.413  17.964  22.505  1.00  0.00     0.000 C 
BRANCH  19  20
ATOM     20  C   UNL     1     118.278  19.032  23.600  1.00  0.00     0.006 C 
BRANCH  20  21
ATOM     21  C   UNL     1     119.533  19.083  24.475  1.00  0.00     0.053 C 
BRANCH  21  22
ATOM     22  C   UNL     1     119.161  19.088  25.925  1.00  0.00     0.041 C 
ATOM     23  O   UNL     1     119.786  18.362  26.742  1.00  0.00    -0.550 OA
ATOM     24  O   UNL     1     118.152  19.927  26.381  1.00  0.00    -0.550 OA
ENDBRANCH  21  22
ENDBRANCH  20  21
ENDBRANCH  19  20
ENDBRANCH  18  19
ENDBRANCH  17  18
ENDBRANCH  16  17
ENDBRANCH  15  16
ENDBRANCH  14  15
ENDBRANCH  13  14
ENDBRANCH   1  13
TORSDOF 20
ENDMDL
MODEL 8
REMARK VINA RESULT:    -1.469      2.623      5.168
REMARK INTER + INTRA:          -7.413
REMARK INTER:                  -4.104
REMARK INTRA:                  -3.309
REMARK UNBOUND:                -4.227
REMARK SMILES CCCCCCCCCCCCCCCCCCCCCC(=O)[O-]
REMARK SMILES IDX 12 1 11 2 10 3 9 4 8 5 7 6 6 7 5 8 4 9 3 10 2 11 1 12 13 13
REMARK SMILES IDX 14 14 15 15 16 16 17 17 18 18 19 19 20 20 21 21 22 22 23 23
REMARK SMILES IDX 24 24
REMARK H PARENT
REMARK Flexibility Score: inf
ROOT
ATOM      1  C   UNL     1     114.152  14.086  23.989  1.00  0.00     0.000 C 
ENDROOT
BRANCH   1   2
ATOM      2  C   UNL     1     113.082  13.847  25.069  1.00  0.00     0.000 C 
BRANCH   2   3
ATOM      3  C   UNL     1     113.309  12.544  25.851  1.00  0.00     0.000 C 
BRANCH   3   4
ATOM      4  C   UNL     1     113.380  12.775  27.371  1.00  0.00    -0.000 C 
BRANCH   4   5
ATOM      5  C   UNL     1     114.818  12.715  27.911  1.00  0.00    -0.000 C 
BRANCH   5   6
ATOM      6  C   UNL     1     115.387  14.104  28.240  1.00  0.00    -0.000 C 
BRANCH   6   7
ATOM      7  C   UNL     1     116.922  14.097  28.180  1.00  0.00    -0.000 C 
BRANCH   7   8
ATOM      8  C   UNL     1     117.556  15.131  29.124  1.00  0.00    -0.000 C 
BRANCH   8   9
ATOM      9  C   UNL     1     118.572  16.038  28.413  1.00  0.00    -0.000 C 
BRANCH   9  10
ATOM     10  C   UNL     1     117.894  17.303  27.871  1.00  0.00    -0.000 C 
BRANCH  10  11
ATOM     11  C   UNL     1     117.817  17.273  26.341  1.00  0.00    -0.003 C 
ATOM     12  C   UNL     1     118.969  16.468  25.746  1.00  0.00     0.004 C 
ENDBRANCH  10  11
ENDBRANCH   9  10
ENDBRANCH   8   9
ENDBRANCH   7   8
ENDBRANCH   6   7
ENDBRANCH   5   6
ENDBRANCH   4   5
ENDBRANCH   3   4
ENDBRANCH   2   3
ENDBRANCH   1   2
BRANCH   1  13
ATOM     13  C   UNL     1     115.416  14.760  24.548  1.00  0.00     0.000 C 
BRANCH  13  14
ATOM     14  C   UNL     1     116.602  13.785  24.656  1.00  0.00     0.000 C 
BRANCH  14  15
ATOM     15  C   UNL     1     116.240  12.360  24.211  1.00  0.00     0.000 C 
BRANCH  15  16
ATOM     16  C   UNL     1     117.072  11.881  23.012  1.00  0.00     0.000 C 
BRANCH  16  17
ATOM     17  C   UNL     1     116.236  11.902  21.724  1.00  0.00     0.000 C 
BRANCH  17  18
ATOM     18  C   UNL     1     116.827  12.821  20.639  1.00  0.00     0.000 C 
BRANCH  18  19
ATOM     19  C   UNL     1     116.988  14.295  21.052  1.00  0.00     0.000 C 
BRANCH  19  20
ATOM     20  C   UNL     1     118.452  14.757  21.071  1.00  0.00     0.006 C 
BRANCH  20  21
ATOM     21  C   UNL     1     118.718  15.695  22.251  1.00  0.00     0.053 C 
BRANCH  21  22
ATOM     22  C   UNL     1     119.962  16.494  22.015  1.00  0.00     0.041 C 
ATOM     23  O   UNL     1     120.893  16.023  21.310  1.00  0.00    -0.550 OA
ATOM     24  O   UNL     1     120.075  17.776  22.539  1.00  0.00    -0.550 OA
ENDBRANCH  21  22
ENDBRANCH  20  21
ENDBRANCH  19  20
ENDBRANCH  18  19
ENDBRANCH  17  18
ENDBRANCH  16  17
ENDBRANCH  15  16
ENDBRANCH  14  15
ENDBRANCH  13  14
ENDBRANCH   1  13
TORSDOF 20
ENDMDL
MODEL 9
REMARK VINA RESULT:    -1.432      2.397      5.402
REMARK INTER + INTRA:          -7.334
REMARK INTER:                  -3.561
REMARK INTRA:                  -3.773
REMARK UNBOUND:                -4.227
REMARK SMILES CCCCCCCCCCCCCCCCCCCCCC(=O)[O-]
REMARK SMILES IDX 12 1 11 2 10 3 9 4 8 5 7 6 6 7 5 8 4 9 3 10 2 11 1 12 13 13
REMARK SMILES IDX 14 14 15 15 16 16 17 17 18 18 19 19 20 20 21 21 22 22 23 23
REMARK SMILES IDX 24 24
REMARK H PARENT
REMARK Flexibility Score: inf
ROOT
ATOM      1  C   UNL     1     114.697  14.419  26.502  1.00  0.00     0.000 C 
ENDROOT
BRANCH   1   2
ATOM      2  C   UNL     1     115.158  13.043  25.989  1.00  0.00     0.000 C 
BRANCH   2   3
ATOM      3  C   UNL     1     116.267  13.147  24.928  1.00  0.00     0.000 C 
BRANCH   3   4
ATOM      4  C   UNL     1     116.266  11.951  23.959  1.00  0.00    -0.000 C 
BRANCH   4   5
ATOM      5  C   UNL     1     116.715  12.340  22.541  1.00  0.00    -0.000 C 
BRANCH   5   6
ATOM      6  C   UNL     1     117.404  13.713  22.492  1.00  0.00    -0.000 C 
BRANCH   6   7
ATOM      7  C   UNL     1     117.257  14.352  21.103  1.00  0.00    -0.000 C 
BRANCH   7   8
ATOM      8  C   UNL     1     116.077  13.773  20.307  1.00  0.00    -0.000 C 
BRANCH   8   9
ATOM      9  C   UNL     1     114.856  14.705  20.295  1.00  0.00    -0.000 C 
BRANCH   9  10
ATOM     10  C   UNL     1     115.184  16.047  20.962  1.00  0.00    -0.000 C 
BRANCH  10  11
ATOM     11  C   UNL     1     114.147  16.394  22.037  1.00  0.00    -0.003 C 
ATOM     12  C   UNL     1     113.891  15.206  22.960  1.00  0.00     0.004 C 
ENDBRANCH  10  11
ENDBRANCH   9  10
ENDBRANCH   8   9
ENDBRANCH   7   8
ENDBRANCH   6   7
ENDBRANCH   5   6
ENDBRANCH   4   5
ENDBRANCH   3   4
ENDBRANCH   2   3
ENDBRANCH   1   2
BRANCH   1  13
ATOM     13  C   UNL     1     114.915  14.589  28.014  1.00  0.00     0.000 C 
BRANCH  13  14
ATOM     14  C   UNL     1     115.989  13.633  28.564  1.00  0.00     0.000 C 
BRANCH  14  15
ATOM     15  C   UNL     1     117.363  14.306  28.709  1.00  0.00     0.000 C 
BRANCH  15  16
ATOM     16  C   UNL     1     117.288  15.838  28.616  1.00  0.00     0.000 C 
BRANCH  16  17
ATOM     17  C   UNL     1     118.366  16.381  27.668  1.00  0.00     0.000 C 
BRANCH  17  18
ATOM     18  C   UNL     1     118.108  16.019  26.193  1.00  0.00     0.000 C 
BRANCH  18  19
ATOM     19  C   UNL     1     117.058  16.892  25.483  1.00  0.00     0.000 C 
BRANCH  19  20
ATOM     20  C   UNL     1     117.285  16.988  23.968  1.00  0.00     0.006 C 
BRANCH  20  21
ATOM     21  C   UNL     1     118.503  17.860  23.648  1.00  0.00     0.053 C 
BRANCH  21  22
ATOM     22  C   UNL     1     119.430  17.143  22.717  1.00  0.00     0.041 C 
ATOM     23  O   UNL     1     119.647  17.599  21.563  1.00  0.00    -0.550 OA
ATOM     24  O   UNL     1     120.087  15.993  23.138  1.00  0.00    -0.550 OA
ENDBRANCH  21  22
ENDBRANCH  20  21
ENDBRANCH  19  20
ENDBRANCH  18  19
ENDBRANCH  17  18
ENDBRANCH  16  17
ENDBRANCH  15  16
ENDBRANCH  14  15
ENDBRANCH  13  14
ENDBRANCH   1  13
TORSDOF 20
ENDMDL
