MODEL 1
REMARK VINA RESULT:    12.693      0.000      0.000
REMARK INTER + INTRA:          26.336
REMARK INTER:                  23.081
REMARK INTRA:                   3.255
REMARK UNBOUND:                 3.255
REMARK SMILES CCCCCCCCCCCCCCCC(=O)[O-]
REMARK SMILES IDX 9 1 10 2 11 3 12 4 13 5 14 6 15 7 16 8 17 9 18 10 8 11 7 12
REMARK SMILES IDX 6 13 5 14 4 15 3 16 2 17 1 18
REMARK H PARENT
REMARK Flexibility Score: inf
ROOT
ATOM      1  C   UNL     1       8.842   3.704  19.814  1.00  0.00     0.000 C 
ENDROOT
BRANCH   1   2
ATOM      2  C   UNL     1      10.065   4.639  19.693  1.00  0.00     0.000 C 
BRANCH   2   3
ATOM      3  C   UNL     1       9.920   5.703  18.589  1.00  0.00     0.000 C 
BRANCH   3   4
ATOM      4  C   UNL     1       8.732   6.666  18.771  1.00  0.00     0.000 C 
BRANCH   4   5
ATOM      5  C   UNL     1       7.510   6.372  17.877  1.00  0.00     0.000 C 
BRANCH   5   6
ATOM      6  C   UNL     1       6.149   6.802  18.462  1.00  0.00     0.006 C 
BRANCH   6   7
ATOM      7  C   UNL     1       5.118   5.668  18.575  1.00  0.00     0.053 C 
BRANCH   7   8
ATOM      8  C   UNL     1       5.200   4.965  19.895  1.00  0.00     0.041 C 
ATOM      9  O   UNL     1       4.691   3.822  20.037  1.00  0.00    -0.550 OA
ATOM     10  O   UNL     1       5.869   5.557  20.959  1.00  0.00    -0.550 OA
ENDBRANCH   7   8
ENDBRANCH   6   7
ENDBRANCH   5   6
ENDBRANCH   4   5
ENDBRANCH   3   4
ENDBRANCH   2   3
ENDBRANCH   1   2
BRANCH   1  11
ATOM     11  C   UNL     1       8.607   2.879  18.536  1.00  0.00     0.000 C 
BRANCH  11  12
ATOM     12  C   UNL     1       9.623   1.737  18.377  1.00  0.00    -0.000 C 
BRANCH  12  13
ATOM     13  C   UNL     1       8.952   0.379  18.107  1.00  0.00    -0.000 C 
BRANCH  13  14
ATOM     14  C   UNL     1       7.433   0.519  17.875  1.00  0.00    -0.000 C 
BRANCH  14  15
ATOM     15  C   UNL     1       6.864   1.876  18.322  1.00  0.00    -0.000 C 
BRANCH  15  16
ATOM     16  C   UNL     1       5.873   1.755  19.489  1.00  0.00    -0.000 C 
BRANCH  16  17
ATOM     17  C   UNL     1       4.834   0.661  19.216  1.00  0.00    -0.003 C 
ATOM     18  C   UNL     1       3.968   1.014  18.010  1.00  0.00     0.004 C 
ENDBRANCH  16  17
ENDBRANCH  15  16
ENDBRANCH  14  15
ENDBRANCH  13  14
ENDBRANCH  12  13
ENDBRANCH  11  12
ENDBRANCH   1  11
TORSDOF 14
ENDMDL
MODEL 2
REMARK VINA RESULT:    13.038      1.474      4.765
REMARK INTER + INTRA:          26.963
REMARK INTER:                  27.284
REMARK INTRA:                  -0.321
REMARK UNBOUND:                 3.255
REMARK SMILES CCCCCCCCCCCCCCCC(=O)[O-]
REMARK SMILES IDX 9 1 10 2 11 3 12 4 13 5 14 6 15 7 16 8 17 9 18 10 8 11 7 12
REMARK SMILES IDX 6 13 5 14 4 15 3 16 2 17 1 18
REMARK H PARENT
REMARK Flexibility Score: inf
ROOT
ATOM      1  C   UNL     1       9.291   4.192  19.569  1.00  0.00     0.000 C 
ENDROOT
BRANCH   1   2
ATOM      2  C   UNL     1       9.087   2.667  19.439  1.00  0.00     0.000 C 
BRANCH   2   3
ATOM      3  C   UNL     1       8.598   2.227  18.046  1.00  0.00     0.000 C 
BRANCH   3   4
ATOM      4  C   UNL     1       7.068   2.208  17.876  1.00  0.00     0.000 C 
BRANCH   4   5
ATOM      5  C   UNL     1       6.422   0.808  17.924  1.00  0.00     0.000 C 
BRANCH   5   6
ATOM      6  C   UNL     1       4.970   0.771  18.443  1.00  0.00     0.006 C 
BRANCH   6   7
ATOM      7  C   UNL     1       4.721   1.624  19.697  1.00  0.00     0.053 C 
BRANCH   7   8
ATOM      8  C   UNL     1       5.686   1.300  20.795  1.00  0.00     0.041 C 
ATOM      9  O   UNL     1       5.549   0.243  21.468  1.00  0.00    -0.550 OA
ATOM     10  O   UNL     1       6.756   2.147  21.054  1.00  0.00    -0.550 OA
ENDBRANCH   7   8
ENDBRANCH   6   7
ENDBRANCH   5   6
ENDBRANCH   4   5
ENDBRANCH   3   4
ENDBRANCH   2   3
ENDBRANCH   1   2
BRANCH   1  11
ATOM     11  C   UNL     1       9.784   4.831  18.259  1.00  0.00     0.000 C 
BRANCH  11  12
ATOM     12  C   UNL     1      10.529   6.155  18.492  1.00  0.00    -0.000 C 
BRANCH  12  13
ATOM     13  C   UNL     1       9.798   7.363  17.878  1.00  0.00    -0.000 C 
BRANCH  13  14
ATOM     14  C   UNL     1       8.663   7.877  18.787  1.00  0.00    -0.000 C 
BRANCH  14  15
ATOM     15  C   UNL     1       7.543   6.848  19.018  1.00  0.00    -0.000 C 
BRANCH  15  16
ATOM     16  C   UNL     1       6.445   6.908  17.946  1.00  0.00    -0.000 C 
BRANCH  16  17
ATOM     17  C   UNL     1       5.372   5.843  18.199  1.00  0.00    -0.003 C 
ATOM     18  C   UNL     1       5.724   4.984  19.411  1.00  0.00     0.004 C 
ENDBRANCH  16  17
ENDBRANCH  15  16
ENDBRANCH  14  15
ENDBRANCH  13  14
ENDBRANCH  12  13
ENDBRANCH  11  12
ENDBRANCH   1  11
TORSDOF 14
ENDMDL
MODEL 3
REMARK VINA RESULT:    13.208     11.798     14.232
REMARK INTER + INTRA:          27.272
REMARK INTER:                  27.870
REMARK INTRA:                  -0.598
REMARK UNBOUND:                 3.255
REMARK SMILES CCCCCCCCCCCCCCCC(=O)[O-]
REMARK SMILES IDX 9 1 10 2 11 3 12 4 13 5 14 6 15 7 16 8 17 9 18 10 8 11 7 12
REMARK SMILES IDX 6 13 5 14 4 15 3 16 2 17 1 18
REMARK H PARENT
REMARK Flexibility Score: inf
ROOT
ATOM      1  C   UNL     1      14.694   2.569  28.218  1.00  0.00     0.000 C 
ENDROOT
BRANCH   1   2
ATOM      2  C   UNL     1      15.742   2.048  27.211  1.00  0.00     0.000 C 
BRANCH   2   3
ATOM      3  C   UNL     1      15.712   0.519  27.026  1.00  0.00     0.000 C 
BRANCH   3   4
ATOM      4  C   UNL     1      16.906  -0.062  26.246  1.00  0.00     0.000 C 
BRANCH   4   5
ATOM      5  C   UNL     1      18.106  -0.492  27.113  1.00  0.00     0.000 C 
BRANCH   5   6
ATOM      6  C   UNL     1      19.492  -0.265  26.477  1.00  0.00     0.006 C 
BRANCH   6   7
ATOM      7  C   UNL     1      20.664  -0.851  27.279  1.00  0.00     0.053 C 
BRANCH   7   8
ATOM      8  C   UNL     1      21.132  -2.157  26.715  1.00  0.00     0.041 C 
ATOM      9  O   UNL     1      20.747  -3.243  27.226  1.00  0.00    -0.550 OA
ATOM     10  O   UNL     1      21.964  -2.178  25.604  1.00  0.00    -0.550 OA
ENDBRANCH   7   8
ENDBRANCH   6   7
ENDBRANCH   5   6
ENDBRANCH   4   5
ENDBRANCH   3   4
ENDBRANCH   2   3
ENDBRANCH   1   2
BRANCH   1  11
ATOM     11  C   UNL     1      13.252   2.378  27.714  1.00  0.00     0.000 C 
BRANCH  11  12
ATOM     12  C   UNL     1      12.220   2.422  28.852  1.00  0.00    -0.000 C 
BRANCH  12  13
ATOM     13  C   UNL     1      11.069   3.405  28.571  1.00  0.00    -0.000 C 
BRANCH  13  14
ATOM     14  C   UNL     1      11.555   4.672  27.837  1.00  0.00    -0.000 C 
BRANCH  14  15
ATOM     15  C   UNL     1      12.472   5.565  28.689  1.00  0.00    -0.000 C 
BRANCH  15  16
ATOM     16  C   UNL     1      11.694   6.501  29.626  1.00  0.00    -0.000 C 
BRANCH  16  17
ATOM     17  C   UNL     1      11.303   7.797  28.907  1.00  0.00    -0.003 C 
ATOM     18  C   UNL     1      12.355   8.192  27.875  1.00  0.00     0.004 C 
ENDBRANCH  16  17
ENDBRANCH  15  16
ENDBRANCH  14  15
ENDBRANCH  13  14
ENDBRANCH  12  13
ENDBRANCH  11  12
ENDBRANCH   1  11
TORSDOF 14
ENDMDL
MODEL 4
REMARK VINA RESULT:    13.279     10.687     12.718
REMARK INTER + INTRA:          27.403
REMARK INTER:                  27.772
REMARK INTRA:                  -0.369
REMARK UNBOUND:                 3.255
REMARK SMILES CCCCCCCCCCCCCCCC(=O)[O-]
REMARK SMILES IDX 9 1 10 2 11 3 12 4 13 5 14 6 15 7 16 8 17 9 18 10 8 11 7 12
REMARK SMILES IDX 6 13 5 14 4 15 3 16 2 17 1 18
REMARK H PARENT
REMARK Flexibility Score: inf
ROOT
ATOM      1  C   UNL     1      14.031   2.802  28.148  1.00  0.00     0.000 C 
ENDROOT
BRANCH   1   2
ATOM      2  C   UNL     1      12.788   2.484  29.008  1.00  0.00     0.000 C 
BRANCH   2   3
ATOM      3  C   UNL     1      11.464   2.553  28.224  1.00  0.00     0.000 C 
BRANCH   3   4
ATOM      4  C   UNL     1      11.484   3.490  27.002  1.00  0.00     0.000 C 
BRANCH   4   5
ATOM      5  C   UNL     1      11.517   4.996  27.334  1.00  0.00     0.000 C 
BRANCH   5   6
ATOM      6  C   UNL     1      11.434   5.340  28.835  1.00  0.00     0.006 C 
BRANCH   6   7
ATOM      7  C   UNL     1      12.340   6.503  29.271  1.00  0.00     0.053 C 
BRANCH   7   8
ATOM      8  C   UNL     1      11.827   7.825  28.790  1.00  0.00     0.041 C 
ATOM      9  O   UNL     1      12.588   8.611  28.166  1.00  0.00    -0.550 OA
ATOM     10  O   UNL     1      10.499   8.174  28.999  1.00  0.00    -0.550 OA
ENDBRANCH   7   8
ENDBRANCH   6   7
ENDBRANCH   5   6
ENDBRANCH   4   5
ENDBRANCH   3   4
ENDBRANCH   2   3
ENDBRANCH   1   2
BRANCH   1  11
ATOM     11  C   UNL     1      14.931   1.571  27.942  1.00  0.00     0.000 C 
BRANCH  11  12
ATOM     12  C   UNL     1      15.606   1.559  26.561  1.00  0.00    -0.000 C 
BRANCH  12  13
ATOM     13  C   UNL     1      16.286   0.214  26.245  1.00  0.00    -0.000 C 
BRANCH  13  14
ATOM     14  C   UNL     1      17.420  -0.109  27.240  1.00  0.00    -0.000 C 
BRANCH  14  15
ATOM     15  C   UNL     1      18.815  -0.150  26.593  1.00  0.00    -0.000 C 
BRANCH  15  16
ATOM     16  C   UNL     1      19.800  -1.053  27.349  1.00  0.00    -0.000 C 
BRANCH  16  17
ATOM     17  C   UNL     1      21.076  -1.279  26.531  1.00  0.00    -0.003 C 
ATOM     18  C   UNL     1      21.524  -2.736  26.604  1.00  0.00     0.004 C 
ENDBRANCH  16  17
ENDBRANCH  15  16
ENDBRANCH  14  15
ENDBRANCH  13  14
ENDBRANCH  12  13
ENDBRANCH  11  12
ENDBRANCH   1  11
TORSDOF 14
ENDMDL
MODEL 5
REMARK VINA RESULT:    13.339      1.369      4.528
REMARK INTER + INTRA:          27.512
REMARK INTER:                  24.859
REMARK INTRA:                   2.653
REMARK UNBOUND:                 3.255
REMARK SMILES CCCCCCCCCCCCCCCC(=O)[O-]
REMARK SMILES IDX 9 1 10 2 11 3 12 4 13 5 14 6 15 7 16 8 17 9 18 10 8 11 7 12
REMARK SMILES IDX 6 13 5 14 4 15 3 16 2 17 1 18
REMARK H PARENT
REMARK Flexibility Score: inf
ROOT
ATOM      1  C   UNL     1       9.313   2.259  19.306  1.00  0.00     0.000 C 
ENDROOT
BRANCH   1   2
ATOM      2  C   UNL     1       8.285   1.112  19.196  1.00  0.00     0.000 C 
BRANCH   2   3
ATOM      3  C   UNL     1       7.447   1.157  17.904  1.00  0.00     0.000 C 
BRANCH   3   4
ATOM      4  C   UNL     1       6.116   1.921  18.024  1.00  0.00     0.000 C 
BRANCH   4   5
ATOM      5  C   UNL     1       5.092   1.302  18.997  1.00  0.00     0.000 C 
BRANCH   5   6
ATOM      6  C   UNL     1       4.296   2.314  19.845  1.00  0.00     0.006 C 
BRANCH   6   7
ATOM      7  C   UNL     1       3.932   3.613  19.110  1.00  0.00     0.053 C 
BRANCH   7   8
ATOM      8  C   UNL     1       4.783   4.764  19.550  1.00  0.00     0.041 C 
ATOM      9  O   UNL     1       4.878   5.794  18.831  1.00  0.00    -0.550 OA
ATOM     10  O   UNL     1       5.445   4.714  20.770  1.00  0.00    -0.550 OA
ENDBRANCH   7   8
ENDBRANCH   6   7
ENDBRANCH   5   6
ENDBRANCH   4   5
ENDBRANCH   3   4
ENDBRANCH   2   3
ENDBRANCH   1   2
BRANCH   1  11
ATOM     11  C   UNL     1      10.057   2.507  17.982  1.00  0.00     0.000 C 
BRANCH  11  12
ATOM     12  C   UNL     1      10.756   3.875  17.947  1.00  0.00    -0.000 C 
BRANCH  12  13
ATOM     13  C   UNL     1       9.761   5.048  17.875  1.00  0.00    -0.000 C 
BRANCH  13  14
ATOM     14  C   UNL     1       9.197   5.415  19.263  1.00  0.00    -0.000 C 
BRANCH  14  15
ATOM     15  C   UNL     1       7.668   5.577  19.285  1.00  0.00    -0.000 C 
BRANCH  15  16
ATOM     16  C   UNL     1       7.118   6.234  18.011  1.00  0.00    -0.000 C 
BRANCH  16  17
ATOM     17  C   UNL     1       6.738   7.697  18.268  1.00  0.00    -0.003 C 
ATOM     18  C   UNL     1       7.707   8.353  19.248  1.00  0.00     0.004 C 
ENDBRANCH  16  17
ENDBRANCH  15  16
ENDBRANCH  14  15
ENDBRANCH  13  14
ENDBRANCH  12  13
ENDBRANCH  11  12
ENDBRANCH   1  11
TORSDOF 14
ENDMDL
MODEL 6
REMARK VINA RESULT:    13.395     11.045     13.039
REMARK INTER + INTRA:          27.613
REMARK INTER:                  27.935
REMARK INTRA:                  -0.323
REMARK UNBOUND:                 3.255
REMARK SMILES CCCCCCCCCCCCCCCC(=O)[O-]
REMARK SMILES IDX 9 1 10 2 11 3 12 4 13 5 14 6 15 7 16 8 17 9 18 10 8 11 7 12
REMARK SMILES IDX 6 13 5 14 4 15 3 16 2 17 1 18
REMARK H PARENT
REMARK Flexibility Score: inf
ROOT
ATOM      1  C   UNL     1      14.971   1.680  28.175  1.00  0.00     0.000 C 
ENDROOT
BRANCH   1   2
ATOM      2  C   UNL     1      13.795   2.674  28.051  1.00  0.00     0.000 C 
BRANCH   2   3
ATOM      3  C   UNL     1      12.616   2.354  28.988  1.00  0.00     0.000 C 
BRANCH   3   4
ATOM      4  C   UNL     1      11.227   2.702  28.423  1.00  0.00     0.000 C 
BRANCH   4   5
ATOM      5  C   UNL     1      11.238   3.612  27.178  1.00  0.00     0.000 C 
BRANCH   5   6
ATOM      6  C   UNL     1      11.559   5.096  27.451  1.00  0.00     0.006 C 
BRANCH   6   7
ATOM      7  C   UNL     1      11.472   5.504  28.930  1.00  0.00     0.053 C 
BRANCH   7   8
ATOM      8  C   UNL     1      11.871   6.931  29.143  1.00  0.00     0.041 C 
ATOM      9  O   UNL     1      13.037   7.212  29.529  1.00  0.00    -0.550 OA
ATOM     10  O   UNL     1      10.969   7.953  28.881  1.00  0.00    -0.550 OA
ENDBRANCH   7   8
ENDBRANCH   6   7
ENDBRANCH   5   6
ENDBRANCH   4   5
ENDBRANCH   3   4
ENDBRANCH   2   3
ENDBRANCH   1   2
BRANCH   1  11
ATOM     11  C   UNL     1      15.950   1.780  26.992  1.00  0.00     0.000 C 
BRANCH  11  12
ATOM     12  C   UNL     1      16.126   0.441  26.259  1.00  0.00    -0.000 C 
BRANCH  12  13
ATOM     13  C   UNL     1      17.196  -0.455  26.908  1.00  0.00    -0.000 C 
BRANCH  13  14
ATOM     14  C   UNL     1      18.626  -0.009  26.539  1.00  0.00    -0.000 C 
BRANCH  14  15
ATOM     15  C   UNL     1      19.726  -0.880  27.169  1.00  0.00    -0.000 C 
BRANCH  15  16
ATOM     16  C   UNL     1      21.057  -0.809  26.406  1.00  0.00    -0.000 C 
BRANCH  16  17
ATOM     17  C   UNL     1      21.714  -2.191  26.317  1.00  0.00    -0.003 C 
ATOM     18  C   UNL     1      20.987  -3.203  27.199  1.00  0.00     0.004 C 
ENDBRANCH  16  17
ENDBRANCH  15  16
ENDBRANCH  14  15
ENDBRANCH  13  14
ENDBRANCH  12  13
ENDBRANCH  11  12
ENDBRANCH   1  11
TORSDOF 14
ENDMDL
MODEL 7
REMARK VINA RESULT:    13.734      2.017      3.941
REMARK INTER + INTRA:          28.229
REMARK INTER:                  24.843
REMARK INTRA:                   3.387
REMARK UNBOUND:                 3.255
REMARK SMILES CCCCCCCCCCCCCCCC(=O)[O-]
REMARK SMILES IDX 9 1 10 2 11 3 12 4 13 5 14 6 15 7 16 8 17 9 18 10 8 11 7 12
REMARK SMILES IDX 6 13 5 14 4 15 3 16 2 17 1 18
REMARK H PARENT
REMARK Flexibility Score: inf
ROOT
ATOM      1  C   UNL     1       8.338   6.432  19.198  1.00  0.00     0.000 C 
ENDROOT
BRANCH   1   2
ATOM      2  C   UNL     1       7.575   7.341  18.210  1.00  0.00     0.000 C 
BRANCH   2   3
ATOM      3  C   UNL     1       6.081   6.990  18.078  1.00  0.00     0.000 C 
BRANCH   3   4
ATOM      4  C   UNL     1       5.596   5.865  19.011  1.00  0.00     0.000 C 
BRANCH   4   5
ATOM      5  C   UNL     1       6.477   4.599  19.020  1.00  0.00     0.000 C 
BRANCH   5   6
ATOM      6  C   UNL     1       6.001   3.461  18.093  1.00  0.00     0.006 C 
BRANCH   6   7
ATOM      7  C   UNL     1       5.005   2.487  18.742  1.00  0.00     0.053 C 
BRANCH   7   8
ATOM      8  C   UNL     1       5.391   1.058  18.517  1.00  0.00     0.041 C 
ATOM      9  O   UNL     1       6.606   0.724  18.508  1.00  0.00    -0.550 OA
ATOM     10  O   UNL     1       4.410   0.089  18.352  1.00  0.00    -0.550 OA
ENDBRANCH   7   8
ENDBRANCH   6   7
ENDBRANCH   5   6
ENDBRANCH   4   5
ENDBRANCH   3   4
ENDBRANCH   2   3
ENDBRANCH   1   2
BRANCH   1  11
ATOM     11  C   UNL     1       9.805   6.220  18.785  1.00  0.00     0.000 C 
BRANCH  11  12
ATOM     12  C   UNL     1       9.991   4.992  17.879  1.00  0.00    -0.000 C 
BRANCH  12  13
ATOM     13  C   UNL     1       8.774   4.049  17.901  1.00  0.00    -0.000 C 
BRANCH  13  14
ATOM     14  C   UNL     1       9.191   2.564  17.876  1.00  0.00    -0.000 C 
BRANCH  14  15
ATOM     15  C   UNL     1      10.225   2.196  18.953  1.00  0.00    -0.000 C 
BRANCH  15  16
ATOM     16  C   UNL     1       9.701   2.402  20.381  1.00  0.00    -0.000 C 
BRANCH  16  17
ATOM     17  C   UNL     1       8.370   3.163  20.374  1.00  0.00    -0.003 C 
ATOM     18  C   UNL     1       8.030   3.689  21.766  1.00  0.00     0.004 C 
ENDBRANCH  16  17
ENDBRANCH  15  16
ENDBRANCH  14  15
ENDBRANCH  13  14
ENDBRANCH  12  13
ENDBRANCH  11  12
ENDBRANCH   1  11
TORSDOF 14
ENDMDL
MODEL 8
REMARK VINA RESULT:    14.536      1.478      2.477
REMARK INTER + INTRA:          29.688
REMARK INTER:                  28.156
REMARK INTRA:                   1.532
REMARK UNBOUND:                 3.255
REMARK SMILES CCCCCCCCCCCCCCCC(=O)[O-]
REMARK SMILES IDX 9 1 10 2 11 3 12 4 13 5 14 6 15 7 16 8 17 9 18 10 8 11 7 12
REMARK SMILES IDX 6 13 5 14 4 15 3 16 2 17 1 18
REMARK H PARENT
REMARK Flexibility Score: inf
ROOT
ATOM      1  C   UNL     1       8.583   3.216  19.668  1.00  0.00     0.000 C 
ENDROOT
BRANCH   1   2
ATOM      2  C   UNL     1       9.840   2.933  18.816  1.00  0.00     0.000 C 
BRANCH   2   3
ATOM      3  C   UNL     1      10.714   4.178  18.577  1.00  0.00     0.000 C 
BRANCH   3   4
ATOM      4  C   UNL     1      10.059   5.514  18.970  1.00  0.00     0.000 C 
BRANCH   4   5
ATOM      5  C   UNL     1       9.185   6.160  17.876  1.00  0.00     0.000 C 
BRANCH   5   6
ATOM      6  C   UNL     1       8.734   7.607  18.164  1.00  0.00     0.006 C 
BRANCH   6   7
ATOM      7  C   UNL     1       7.240   7.869  17.914  1.00  0.00     0.053 C 
BRANCH   7   8
ATOM      8  C   UNL     1       6.412   6.640  18.130  1.00  0.00     0.041 C 
ATOM      9  O   UNL     1       6.953   5.572  18.523  1.00  0.00    -0.550 OA
ATOM     10  O   UNL     1       5.038   6.683  17.933  1.00  0.00    -0.550 OA
ENDBRANCH   7   8
ENDBRANCH   6   7
ENDBRANCH   5   6
ENDBRANCH   4   5
ENDBRANCH   3   4
ENDBRANCH   2   3
ENDBRANCH   1   2
BRANCH   1  11
ATOM     11  C   UNL     1       7.295   2.704  18.999  1.00  0.00     0.000 C 
BRANCH  11  12
ATOM     12  C   UNL     1       7.575   1.687  17.881  1.00  0.00    -0.000 C 
BRANCH  12  13
ATOM     13  C   UNL     1       6.977   0.300  18.177  1.00  0.00    -0.000 C 
BRANCH  13  14
ATOM     14  C   UNL     1       5.496   0.387  18.603  1.00  0.00    -0.000 C 
BRANCH  14  15
ATOM     15  C   UNL     1       4.793   1.671  18.130  1.00  0.00    -0.000 C 
BRANCH  15  16
ATOM     16  C   UNL     1       3.846   2.257  19.186  1.00  0.00    -0.000 C 
BRANCH  16  17
ATOM     17  C   UNL     1       3.904   3.789  19.187  1.00  0.00    -0.003 C 
ATOM     18  C   UNL     1       4.580   4.313  20.451  1.00  0.00     0.004 C 
ENDBRANCH  16  17
ENDBRANCH  15  16
ENDBRANCH  14  15
ENDBRANCH  13  14
ENDBRANCH  12  13
ENDBRANCH  11  12
ENDBRANCH   1  11
TORSDOF 14
ENDMDL
