MODEL 1
REMARK VINA RESULT:     8.349      0.000      0.000
REMARK INTER + INTRA:          15.461
REMARK INTER:                  10.789
REMARK INTRA:                   4.671
REMARK UNBOUND:                 4.671
REMARK SMILES CCO[C@@H]1O[C@@H](CO)[C@H](O)[C@@H](O)[C@H]1O
REMARK SMILES IDX 4 1 13 2 11 3 9 4 6 5 5 6 3 7 2 8 1 9 14 10 12 12 7 14 8 15
REMARK SMILES IDX 10 17
REMARK H PARENT 14 11 12 13 8 16 10 18
REMARK Flexibility Score: inf
ROOT
ATOM      1  C   UNL     1      81.875 107.717 102.423  1.00  0.00     0.281 C 
ATOM      2  C   UNL     1      82.700 106.532 101.875  1.00  0.00     0.202 C 
ATOM      3  C   UNL     1      84.155 106.623 102.374  1.00  0.00     0.179 C 
ATOM      4  C   UNL     1      84.176 106.789 103.902  1.00  0.00     0.177 C 
ATOM      5  C   UNL     1      83.250 107.961 104.320  1.00  0.00     0.178 C 
ATOM      6  O   UNL     1      81.928 107.757 103.842  1.00  0.00    -0.341 OA
ENDROOT
BRANCH   1   7
ATOM      7  O   UNL     1      82.329 108.950 101.879  1.00  0.00    -0.350 OA
BRANCH   7   8
ATOM      8  C   UNL     1      83.742 109.041 101.879  1.00  0.00     0.160 C 
ATOM      9  C   UNL     1      84.215 109.915 103.036  1.00  0.00     0.035 C 
ENDBRANCH   7   8
ENDBRANCH   1   7
BRANCH   2  10
ATOM     10  O   UNL     1      82.110 105.329 102.304  1.00  0.00    -0.385 OA
ATOM     11  H   UNL     1      81.161 105.532 102.517  1.00  0.00     0.211 HD
ENDBRANCH   2  10
BRANCH   3  12
ATOM     12  O   UNL     1      84.873 105.472 102.016  1.00  0.00    -0.387 OA
ATOM     13  H   UNL     1      84.703 105.316 101.051  1.00  0.00     0.211 HD
ENDBRANCH   3  12
BRANCH   5  14
ATOM     14  C   UNL     1      83.197 108.111 105.846  1.00  0.00     0.191 C 
BRANCH  14  15
ATOM     15  O   UNL     1      84.471 107.930 106.401  1.00  0.00    -0.394 OA
ATOM     16  H   UNL     1      84.334 107.427 107.246  1.00  0.00     0.210 HD
ENDBRANCH  14  15
ENDBRANCH   5  14
BRANCH   4  17
ATOM     17  O   UNL     1      85.493 106.989 104.358  1.00  0.00    -0.387 OA
ATOM     18  H   UNL     1      85.446 107.227 105.321  1.00  0.00     0.211 HD
ENDBRANCH   4  17
TORSDOF 7
ENDMDL
MODEL 2
REMARK VINA RESULT:     9.112      1.770      3.700
REMARK INTER + INTRA:          16.447
REMARK INTER:                  16.633
REMARK INTRA:                  -0.186
REMARK UNBOUND:                 4.671
REMARK SMILES CCO[C@@H]1O[C@@H](CO)[C@H](O)[C@@H](O)[C@H]1O
REMARK SMILES IDX 4 1 13 2 11 3 9 4 6 5 5 6 3 7 2 8 1 9 14 10 12 12 7 14 8 15
REMARK SMILES IDX 10 17
REMARK H PARENT 14 11 12 13 8 16 10 18
REMARK Flexibility Score: inf
ROOT
ATOM      1  C   UNL     1      85.099 107.346 103.767  1.00  0.00     0.281 C 
ATOM      2  C   UNL     1      84.075 106.397 103.106  1.00  0.00     0.202 C 
ATOM      3  C   UNL     1      82.762 107.150 102.820  1.00  0.00     0.179 C 
ATOM      4  C   UNL     1      83.057 108.444 102.044  1.00  0.00     0.177 C 
ATOM      5  C   UNL     1      84.152 109.262 102.776  1.00  0.00     0.178 C 
ATOM      6  O   UNL     1      85.330 108.487 102.954  1.00  0.00    -0.341 OA
ENDROOT
BRANCH   1   7
ATOM      7  O   UNL     1      84.663 107.744 105.061  1.00  0.00    -0.350 OA
BRANCH   7   8
ATOM      8  C   UNL     1      85.614 107.424 106.061  1.00  0.00     0.160 C 
ATOM      9  C   UNL     1      86.423 108.661 106.436  1.00  0.00     0.035 C 
ENDBRANCH   7   8
ENDBRANCH   1   7
BRANCH   2  10
ATOM     10  O   UNL     1      84.623 105.897 101.911  1.00  0.00    -0.385 OA
ATOM     11  H   UNL     1      83.991 106.134 101.181  1.00  0.00     0.211 HD
ENDBRANCH   2  10
BRANCH   3  12
ATOM     12  O   UNL     1      81.883 106.347 102.077  1.00  0.00    -0.387 OA
ATOM     13  H   UNL     1      82.214 105.414 102.153  1.00  0.00     0.211 HD
ENDBRANCH   3  12
BRANCH   5  14
ATOM     14  C   UNL     1      84.518 110.529 101.992  1.00  0.00     0.191 C 
BRANCH  14  15
ATOM     15  O   UNL     1      84.487 111.651 102.833  1.00  0.00    -0.394 OA
ATOM     16  H   UNL     1      83.900 112.314 102.384  1.00  0.00     0.210 HD
ENDBRANCH  14  15
ENDBRANCH   5  14
BRANCH   4  17
ATOM     17  O   UNL     1      81.880 109.198 101.877  1.00  0.00    -0.387 OA
ATOM     18  H   UNL     1      81.906 109.601 100.970  1.00  0.00     0.211 HD
ENDBRANCH   4  17
TORSDOF 7
ENDMDL
MODEL 3
REMARK VINA RESULT:     9.871      1.720      3.379
REMARK INTER + INTRA:          17.427
REMARK INTER:                  17.031
REMARK INTRA:                   0.396
REMARK UNBOUND:                 4.671
REMARK SMILES CCO[C@@H]1O[C@@H](CO)[C@H](O)[C@@H](O)[C@H]1O
REMARK SMILES IDX 4 1 13 2 11 3 9 4 6 5 5 6 3 7 2 8 1 9 14 10 12 12 7 14 8 15
REMARK SMILES IDX 10 17
REMARK H PARENT 14 11 12 13 8 16 10 18
REMARK Flexibility Score: inf
ROOT
ATOM      1  C   UNL     1      83.083 108.175 103.041  1.00  0.00     0.281 C 
ATOM      2  C   UNL     1      83.029 107.408 104.381  1.00  0.00     0.202 C 
ATOM      3  C   UNL     1      84.335 107.623 105.168  1.00  0.00     0.179 C 
ATOM      4  C   UNL     1      84.639 109.126 105.281  1.00  0.00     0.177 C 
ATOM      5  C   UNL     1      84.586 109.784 103.878  1.00  0.00     0.178 C 
ATOM      6  O   UNL     1      83.328 109.557 103.259  1.00  0.00    -0.341 OA
ENDROOT
BRANCH   1   7
ATOM      7  O   UNL     1      84.075 107.629 102.180  1.00  0.00    -0.350 OA
BRANCH   7   8
ATOM      8  C   UNL     1      83.822 106.270 101.875  1.00  0.00     0.160 C 
ATOM      9  C   UNL     1      82.321 105.999 101.876  1.00  0.00     0.035 C 
ENDBRANCH   7   8
ENDBRANCH   1   7
BRANCH   2  10
ATOM     10  O   UNL     1      81.927 107.868 105.125  1.00  0.00    -0.385 OA
ATOM     11  H   UNL     1      81.663 107.131 105.737  1.00  0.00     0.211 HD
ENDBRANCH   2  10
BRANCH   3  12
ATOM     12  O   UNL     1      84.237 107.065 106.452  1.00  0.00    -0.387 OA
ATOM     13  H   UNL     1      84.715 107.679 107.068  1.00  0.00     0.211 HD
ENDBRANCH   3  12
BRANCH   5  14
ATOM     14  C   UNL     1      84.819 111.298 103.964  1.00  0.00     0.191 C 
BRANCH  14  15
ATOM     15  O   UNL     1      84.479 111.915 102.753  1.00  0.00    -0.394 OA
ATOM     16  H   UNL     1      85.309 111.927 102.208  1.00  0.00     0.210 HD
ENDBRANCH  14  15
ENDBRANCH   5  14
BRANCH   4  17
ATOM     17  O   UNL     1      85.888 109.331 105.898  1.00  0.00    -0.387 OA
ATOM     18  H   UNL     1      86.305 108.441 106.039  1.00  0.00     0.211 HD
ENDBRANCH   4  17
TORSDOF 7
ENDMDL
