MODEL 1
REMARK VINA RESULT:    -4.949      0.000      0.000
REMARK INTER + INTRA:          -5.369
REMARK INTER:                  -5.239
REMARK INTRA:                  -0.130
REMARK UNBOUND:                -0.130
REMARK SMILES C=C(C)[C@H]1CC=C(C)CC1
REMARK SMILES IDX 8 1 7 2 6 3 5 4 4 5 10 6 9 7 2 8 1 9 3 10
REMARK H PARENT
REMARK Flexibility Score: inf
ROOT
ATOM      1  C   UNL     1     107.503 100.483 129.380  1.00  0.00     0.039 C 
ATOM      2  C   UNL     1     106.879 101.051 128.136  1.00  0.00    -0.077 C 
ATOM      3  C   UNL     1     107.496 100.864 126.948  1.00  0.00    -0.027 C 
ATOM      4  C   UNL     1     106.978 101.439 125.653  1.00  0.00     0.035 C 
ATOM      5  C   UNL     1     105.473 101.753 125.717  1.00  0.00     0.018 C 
ATOM      6  C   UNL     1     105.158 102.540 126.999  1.00  0.00     0.013 C 
ATOM      7  C   UNL     1     105.512 101.702 128.233  1.00  0.00     0.031 C 
ENDROOT
BRANCH   5   8
ATOM      8  C   UNL     1     105.010 102.501 124.474  1.00  0.00    -0.077 C 
ATOM      9  C   UNL     1     105.662 102.342 123.311  1.00  0.00     0.008 C 
ATOM     10  C   UNL     1     103.829 103.438 124.513  1.00  0.00     0.039 C 
ENDBRANCH   5   8
TORSDOF 1
ENDMDL
MODEL 2
REMARK VINA RESULT:    -4.921      6.182      6.592
REMARK INTER + INTRA:          -5.339
REMARK INTER:                  -5.208
REMARK INTRA:                  -0.130
REMARK UNBOUND:                -0.130
REMARK SMILES C=C(C)[C@H]1CC=C(C)CC1
REMARK SMILES IDX 8 1 7 2 6 3 5 4 4 5 10 6 9 7 2 8 1 9 3 10
REMARK H PARENT
REMARK Flexibility Score: inf
ROOT
ATOM      1  C   UNL     1     112.006 107.513 129.287  1.00  0.00     0.039 C 
ATOM      2  C   UNL     1     111.433 106.881 128.049  1.00  0.00    -0.077 C 
ATOM      3  C   UNL     1     111.609 107.495 126.859  1.00  0.00    -0.027 C 
ATOM      4  C   UNL     1     111.027 106.970 125.569  1.00  0.00     0.035 C 
ATOM      5  C   UNL     1     110.720 105.464 125.641  1.00  0.00     0.018 C 
ATOM      6  C   UNL     1     109.944 105.150 126.929  1.00  0.00     0.013 C 
ATOM      7  C   UNL     1     110.789 105.512 128.156  1.00  0.00     0.031 C 
ENDROOT
BRANCH   5   8
ATOM      8  C   UNL     1     109.965 104.993 124.404  1.00  0.00    -0.077 C 
ATOM      9  C   UNL     1     110.098 105.654 123.243  1.00  0.00     0.008 C 
ATOM     10  C   UNL     1     109.051 103.794 124.450  1.00  0.00     0.039 C 
ENDBRANCH   5   8
TORSDOF 1
ENDMDL
MODEL 3
REMARK VINA RESULT:    -4.904      6.127      6.594
REMARK INTER + INTRA:          -5.321
REMARK INTER:                  -5.192
REMARK INTRA:                  -0.129
REMARK UNBOUND:                -0.130
REMARK SMILES C=C(C)[C@H]1CC=C(C)CC1
REMARK SMILES IDX 8 1 7 2 6 3 5 4 4 5 10 6 9 7 2 8 1 9 3 10
REMARK H PARENT
REMARK Flexibility Score: inf
ROOT
ATOM      1  C   UNL     1     100.395 104.935 129.276  1.00  0.00     0.039 C 
ATOM      2  C   UNL     1     100.985 105.565 128.044  1.00  0.00    -0.077 C 
ATOM      3  C   UNL     1     100.903 104.906 126.868  1.00  0.00    -0.027 C 
ATOM      4  C   UNL     1     101.510 105.428 125.588  1.00  0.00     0.035 C 
ATOM      5  C   UNL     1     101.719 106.952 125.624  1.00  0.00     0.018 C 
ATOM      6  C   UNL     1     102.413 107.354 126.935  1.00  0.00     0.013 C 
ATOM      7  C   UNL     1     101.536 106.975 128.134  1.00  0.00     0.031 C 
ENDROOT
BRANCH   5   8
ATOM      8  C   UNL     1     102.499 107.433 124.408  1.00  0.00    -0.077 C 
ATOM      9  C   UNL     1     102.373 106.795 123.233  1.00  0.00     0.008 C 
ATOM     10  C   UNL     1     103.431 108.617 124.488  1.00  0.00     0.039 C 
ENDBRANCH   5   8
TORSDOF 1
ENDMDL
MODEL 4
REMARK VINA RESULT:    -4.875      8.235      9.302
REMARK INTER + INTRA:          -5.290
REMARK INTER:                  -5.160
REMARK INTRA:                  -0.130
REMARK UNBOUND:                -0.130
REMARK SMILES C=C(C)[C@H]1CC=C(C)CC1
REMARK SMILES IDX 8 1 7 2 6 3 5 4 4 5 10 6 9 7 2 8 1 9 3 10
REMARK H PARENT
REMARK Flexibility Score: inf
ROOT
ATOM      1  C   UNL     1     104.892 112.000 129.260  1.00  0.00     0.039 C 
ATOM      2  C   UNL     1     105.528 111.418 128.028  1.00  0.00    -0.077 C 
ATOM      3  C   UNL     1     104.885 111.525 126.845  1.00  0.00    -0.027 C 
ATOM      4  C   UNL     1     105.414 110.929 125.564  1.00  0.00     0.035 C 
ATOM      5  C   UNL     1     106.934 110.699 125.615  1.00  0.00     0.018 C 
ATOM      6  C   UNL     1     107.310 109.981 126.920  1.00  0.00     0.013 C 
ATOM      7  C   UNL     1     106.929 110.847 128.127  1.00  0.00     0.031 C 
ENDROOT
BRANCH   5   8
ATOM      8  C   UNL     1     107.419 109.928 124.393  1.00  0.00    -0.077 C 
ATOM      9  C   UNL     1     106.739 110.002 123.238  1.00  0.00     0.008 C 
ATOM     10  C   UNL     1     108.654 109.064 124.447  1.00  0.00     0.039 C 
ENDBRANCH   5   8
TORSDOF 1
ENDMDL
MODEL 5
REMARK VINA RESULT:    -4.840      1.077      4.642
REMARK INTER + INTRA:          -5.253
REMARK INTER:                  -5.132
REMARK INTRA:                  -0.121
REMARK UNBOUND:                -0.130
REMARK SMILES C=C(C)[C@H]1CC=C(C)CC1
REMARK SMILES IDX 8 1 7 2 6 3 5 4 4 5 10 6 9 7 2 8 1 9 3 10
REMARK H PARENT
REMARK Flexibility Score: inf
ROOT
ATOM      1  C   UNL     1     104.484 103.595 123.629  1.00  0.00     0.039 C 
ATOM      2  C   UNL     1     104.916 102.901 124.891  1.00  0.00    -0.077 C 
ATOM      3  C   UNL     1     104.613 103.460 126.083  1.00  0.00    -0.027 C 
ATOM      4  C   UNL     1     105.048 102.871 127.403  1.00  0.00     0.035 C 
ATOM      5  C   UNL     1     105.356 101.367 127.294  1.00  0.00     0.018 C 
ATOM      6  C   UNL     1     106.268 101.108 126.085  1.00  0.00     0.013 C 
ATOM      7  C   UNL     1     105.564 101.534 124.791  1.00  0.00     0.031 C 
ENDROOT
BRANCH   5   8
ATOM      8  C   UNL     1     105.969 100.833 128.582  1.00  0.00    -0.077 C 
ATOM      9  C   UNL     1     105.178 100.473 129.605  1.00  0.00     0.008 C 
ATOM     10  C   UNL     1     107.463 100.705 128.748  1.00  0.00     0.039 C 
ENDBRANCH   5   8
TORSDOF 1
ENDMDL
MODEL 6
REMARK VINA RESULT:    -4.800      5.722      7.276
REMARK INTER + INTRA:          -5.211
REMARK INTER:                  -5.089
REMARK INTRA:                  -0.121
REMARK UNBOUND:                -0.130
REMARK SMILES C=C(C)[C@H]1CC=C(C)CC1
REMARK SMILES IDX 8 1 7 2 6 3 5 4 4 5 10 6 9 7 2 8 1 9 3 10
REMARK H PARENT
REMARK Flexibility Score: inf
ROOT
ATOM      1  C   UNL     1     108.785 104.378 123.577  1.00  0.00     0.039 C 
ATOM      2  C   UNL     1     109.492 104.843 124.820  1.00  0.00    -0.077 C 
ATOM      3  C   UNL     1     108.965 104.541 126.026  1.00  0.00    -0.027 C 
ATOM      4  C   UNL     1     109.569 105.007 127.328  1.00  0.00     0.035 C 
ATOM      5  C   UNL     1     111.062 105.350 127.186  1.00  0.00     0.018 C 
ATOM      6  C   UNL     1     111.276 106.252 125.961  1.00  0.00     0.013 C 
ATOM      7  C   UNL     1     110.842 105.522 124.685  1.00  0.00     0.031 C 
ENDROOT
BRANCH   5   8
ATOM      8  C   UNL     1     111.607 105.991 128.455  1.00  0.00    -0.077 C 
ATOM      9  C   UNL     1     111.914 105.228 129.516  1.00  0.00     0.008 C 
ATOM     10  C   UNL     1     111.804 107.483 128.561  1.00  0.00     0.039 C 
ENDBRANCH   5   8
TORSDOF 1
ENDMDL
MODEL 7
REMARK VINA RESULT:    -4.796      8.177      9.800
REMARK INTER + INTRA:          -5.207
REMARK INTER:                  -5.080
REMARK INTRA:                  -0.127
REMARK UNBOUND:                -0.130
REMARK SMILES C=C(C)[C@H]1CC=C(C)CC1
REMARK SMILES IDX 8 1 7 2 6 3 5 4 4 5 10 6 9 7 2 8 1 9 3 10
REMARK H PARENT
REMARK Flexibility Score: inf
ROOT
ATOM      1  C   UNL     1     106.087 109.391 123.123  1.00  0.00     0.039 C 
ATOM      2  C   UNL     1     106.029 109.921 124.529  1.00  0.00    -0.077 C 
ATOM      3  C   UNL     1     107.019 110.728 124.968  1.00  0.00    -0.027 C 
ATOM      4  C   UNL     1     107.079 111.266 126.376  1.00  0.00     0.035 C 
ATOM      5  C   UNL     1     105.697 111.277 127.053  1.00  0.00     0.018 C 
ATOM      6  C   UNL     1     105.010 109.917 126.860  1.00  0.00     0.013 C 
ATOM      7  C   UNL     1     104.796 109.640 125.367  1.00  0.00     0.031 C 
ENDROOT
BRANCH   5   8
ATOM      8  C   UNL     1     105.805 111.645 128.527  1.00  0.00    -0.077 C 
ATOM      9  C   UNL     1     104.700 111.943 129.229  1.00  0.00     0.008 C 
ATOM     10  C   UNL     1     107.139 111.696 129.230  1.00  0.00     0.039 C 
ENDBRANCH   5   8
TORSDOF 1
ENDMDL
MODEL 8
REMARK VINA RESULT:    -4.794      6.496      7.714
REMARK INTER + INTRA:          -5.204
REMARK INTER:                  -5.084
REMARK INTRA:                  -0.120
REMARK UNBOUND:                -0.130
REMARK SMILES C=C(C)[C@H]1CC=C(C)CC1
REMARK SMILES IDX 8 1 7 2 6 3 5 4 4 5 10 6 9 7 2 8 1 9 3 10
REMARK H PARENT
REMARK Flexibility Score: inf
ROOT
ATOM      1  C   UNL     1     103.669 107.771 123.686  1.00  0.00     0.039 C 
ATOM      2  C   UNL     1     102.947 107.414 124.956  1.00  0.00    -0.077 C 
ATOM      3  C   UNL     1     103.494 107.761 126.141  1.00  0.00    -0.027 C 
ATOM      4  C   UNL     1     102.875 107.402 127.470  1.00  0.00     0.035 C 
ATOM      5  C   UNL     1     101.367 107.124 127.351  1.00  0.00     0.018 C 
ATOM      6  C   UNL     1     101.104 106.162 126.182  1.00  0.00     0.013 C 
ATOM      7  C   UNL     1     101.566 106.795 124.864  1.00  0.00     0.031 C 
ENDROOT
BRANCH   5   8
ATOM      8  C   UNL     1     100.799 106.585 128.657  1.00  0.00    -0.077 C 
ATOM      9  C   UNL     1     100.398 107.433 129.618  1.00  0.00     0.008 C 
ATOM     10  C   UNL     1     100.681 105.103 128.912  1.00  0.00     0.039 C 
ENDBRANCH   5   8
TORSDOF 1
ENDMDL
MODEL 9
REMARK VINA RESULT:    -4.793      8.300      9.561
REMARK INTER + INTRA:          -5.203
REMARK INTER:                  -5.081
REMARK INTRA:                  -0.122
REMARK UNBOUND:                -0.130
REMARK SMILES C=C(C)[C@H]1CC=C(C)CC1
REMARK SMILES IDX 8 1 7 2 6 3 5 4 4 5 10 6 9 7 2 8 1 9 3 10
REMARK H PARENT
REMARK Flexibility Score: inf
ROOT
ATOM      1  C   UNL     1     108.006 108.782 123.664  1.00  0.00     0.039 C 
ATOM      2  C   UNL     1     107.571 109.495 124.914  1.00  0.00    -0.077 C 
ATOM      3  C   UNL     1     107.915 108.982 126.115  1.00  0.00    -0.027 C 
ATOM      4  C   UNL     1     107.482 109.592 127.425  1.00  0.00     0.035 C 
ATOM      5  C   UNL     1     107.117 111.080 127.280  1.00  0.00     0.018 C 
ATOM      6  C   UNL     1     106.176 111.273 126.081  1.00  0.00     0.013 C 
ATOM      7  C   UNL     1     106.873 110.835 124.787  1.00  0.00     0.031 C 
ENDROOT
BRANCH   5   8
ATOM      8  C   UNL     1     106.507 111.629 128.564  1.00  0.00    -0.077 C 
ATOM      9  C   UNL     1     107.288 111.871 129.629  1.00  0.00     0.008 C 
ATOM     10  C   UNL     1     105.028 111.902 128.678  1.00  0.00     0.039 C 
ENDBRANCH   5   8
TORSDOF 1
ENDMDL
