MODEL 1
REMARK VINA RESULT:    -4.526      0.000      0.000
REMARK INTER + INTRA:          -9.150
REMARK INTER:                  -8.231
REMARK INTRA:                  -0.919
REMARK UNBOUND:                -0.919
REMARK SMILES CCCCCCCCCCCCCCCC(=O)[O-]
REMARK SMILES IDX 9 1 10 2 11 3 12 4 13 5 14 6 15 7 16 8 17 9 18 10 8 11 7 12
REMARK SMILES IDX 6 13 5 14 4 15 3 16 2 17 1 18
REMARK H PARENT
REMARK Flexibility Score: inf
ROOT
ATOM      1  C   UNL     1       3.081  79.648  63.567  1.00  0.00     0.000 C 
ENDROOT
BRANCH   1   2
ATOM      2  C   UNL     1       4.449  79.391  64.216  1.00  0.00     0.000 C 
BRANCH   2   3
ATOM      3  C   UNL     1       5.233  78.324  63.443  1.00  0.00     0.000 C 
BRANCH   3   4
ATOM      4  C   UNL     1       5.981  77.388  64.402  1.00  0.00     0.000 C 
BRANCH   4   5
ATOM      5  C   UNL     1       7.168  78.075  65.096  1.00  0.00     0.000 C 
BRANCH   5   6
ATOM      6  C   UNL     1       7.331  77.638  66.562  1.00  0.00     0.006 C 
BRANCH   6   7
ATOM      7  C   UNL     1       6.469  78.477  67.515  1.00  0.00     0.053 C 
BRANCH   7   8
ATOM      8  C   UNL     1       5.347  77.673  68.098  1.00  0.00     0.041 C 
ATOM      9  O   UNL     1       4.579  78.183  68.956  1.00  0.00    -0.550 OA
ATOM     10  O   UNL     1       5.172  76.347  67.720  1.00  0.00    -0.550 OA
ENDBRANCH   7   8
ENDBRANCH   6   7
ENDBRANCH   5   6
ENDBRANCH   4   5
ENDBRANCH   3   4
ENDBRANCH   2   3
ENDBRANCH   1   2
BRANCH   1  11
ATOM     11  C   UNL     1       2.764  81.147  63.413  1.00  0.00     0.000 C 
BRANCH  11  12
ATOM     12  C   UNL     1       3.959  82.095  63.643  1.00  0.00    -0.000 C 
BRANCH  12  13
ATOM     13  C   UNL     1       3.659  83.330  64.511  1.00  0.00    -0.000 C 
BRANCH  13  14
ATOM     14  C   UNL     1       4.255  84.625  63.932  1.00  0.00    -0.000 C 
BRANCH  14  15
ATOM     15  C   UNL     1       4.543  84.519  62.426  1.00  0.00    -0.000 C 
BRANCH  15  16
ATOM     16  C   UNL     1       4.808  85.889  61.777  1.00  0.00    -0.000 C 
BRANCH  16  17
ATOM     17  C   UNL     1       3.868  86.983  62.305  1.00  0.00    -0.003 C 
ATOM     18  C   UNL     1       3.826  88.217  61.403  1.00  0.00     0.004 C 
ENDBRANCH  16  17
ENDBRANCH  15  16
ENDBRANCH  14  15
ENDBRANCH  13  14
ENDBRANCH  12  13
ENDBRANCH  11  12
ENDBRANCH   1  11
TORSDOF 14
ENDMDL
MODEL 2
REMARK VINA RESULT:    -4.487      1.439      3.044
REMARK INTER + INTRA:          -9.079
REMARK INTER:                  -7.816
REMARK INTRA:                  -1.263
REMARK UNBOUND:                -0.919
REMARK SMILES CCCCCCCCCCCCCCCC(=O)[O-]
REMARK SMILES IDX 9 1 10 2 11 3 12 4 13 5 14 6 15 7 16 8 17 9 18 10 8 11 7 12
REMARK SMILES IDX 6 13 5 14 4 15 3 16 2 17 1 18
REMARK H PARENT
REMARK Flexibility Score: inf
ROOT
ATOM      1  C   UNL     1       6.238  78.743  63.650  1.00  0.00     0.000 C 
ENDROOT
BRANCH   1   2
ATOM      2  C   UNL     1       6.639  77.591  64.583  1.00  0.00     0.000 C 
BRANCH   2   3
ATOM      3  C   UNL     1       7.553  78.088  65.709  1.00  0.00     0.000 C 
BRANCH   3   4
ATOM      4  C   UNL     1       7.124  77.508  67.064  1.00  0.00     0.000 C 
BRANCH   4   5
ATOM      5  C   UNL     1       6.363  78.525  67.930  1.00  0.00     0.000 C 
BRANCH   5   6
ATOM      6  C   UNL     1       5.094  77.929  68.563  1.00  0.00     0.006 C 
BRANCH   6   7
ATOM      7  C   UNL     1       4.411  76.910  67.642  1.00  0.00     0.053 C 
BRANCH   7   8
ATOM      8  C   UNL     1       3.648  75.882  68.422  1.00  0.00     0.041 C 
ATOM      9  O   UNL     1       4.235  74.864  68.874  1.00  0.00    -0.550 OA
ATOM     10  O   UNL     1       2.282  76.033  68.617  1.00  0.00    -0.550 OA
ENDBRANCH   7   8
ENDBRANCH   6   7
ENDBRANCH   5   6
ENDBRANCH   4   5
ENDBRANCH   3   4
ENDBRANCH   2   3
ENDBRANCH   1   2
BRANCH   1  11
ATOM     11  C   UNL     1       4.730  79.054  63.697  1.00  0.00     0.000 C 
BRANCH  11  12
ATOM     12  C   UNL     1       4.189  79.456  65.084  1.00  0.00    -0.000 C 
BRANCH  12  13
ATOM     13  C   UNL     1       2.905  80.304  65.066  1.00  0.00    -0.000 C 
BRANCH  13  14
ATOM     14  C   UNL     1       2.916  81.383  63.969  1.00  0.00    -0.000 C 
BRANCH  14  15
ATOM     15  C   UNL     1       3.881  82.536  64.287  1.00  0.00    -0.000 C 
BRANCH  15  16
ATOM     16  C   UNL     1       3.159  83.887  64.434  1.00  0.00    -0.000 C 
BRANCH  16  17
ATOM     17  C   UNL     1       4.124  85.081  64.358  1.00  0.00    -0.003 C 
ATOM     18  C   UNL     1       3.979  85.881  63.063  1.00  0.00     0.004 C 
ENDBRANCH  16  17
ENDBRANCH  15  16
ENDBRANCH  14  15
ENDBRANCH  13  14
ENDBRANCH  12  13
ENDBRANCH  11  12
ENDBRANCH   1  11
TORSDOF 14
ENDMDL
MODEL 3
REMARK VINA RESULT:    -4.469      1.904      2.879
REMARK INTER + INTRA:          -9.045
REMARK INTER:                  -8.056
REMARK INTRA:                  -0.989
REMARK UNBOUND:                -0.919
REMARK SMILES CCCCCCCCCCCCCCCC(=O)[O-]
REMARK SMILES IDX 9 1 10 2 11 3 12 4 13 5 14 6 15 7 16 8 17 9 18 10 8 11 7 12
REMARK SMILES IDX 6 13 5 14 4 15 3 16 2 17 1 18
REMARK H PARENT
REMARK Flexibility Score: inf
ROOT
ATOM      1  C   UNL     1       2.940  80.126  66.135  1.00  0.00     0.000 C 
ENDROOT
BRANCH   1   2
ATOM      2  C   UNL     1       3.790  79.059  66.841  1.00  0.00     0.000 C 
BRANCH   2   3
ATOM      3  C   UNL     1       4.579  79.667  68.006  1.00  0.00     0.000 C 
BRANCH   3   4
ATOM      4  C   UNL     1       5.844  78.848  68.301  1.00  0.00     0.000 C 
BRANCH   4   5
ATOM      5  C   UNL     1       5.656  77.347  68.028  1.00  0.00     0.000 C 
BRANCH   5   6
ATOM      6  C   UNL     1       6.669  76.800  67.008  1.00  0.00     0.006 C 
BRANCH   6   7
ATOM      7  C   UNL     1       7.288  77.914  66.153  1.00  0.00     0.053 C 
BRANCH   7   8
ATOM      8  C   UNL     1       6.934  77.762  64.705  1.00  0.00     0.041 C 
ATOM      9  O   UNL     1       7.754  78.103  63.812  1.00  0.00    -0.550 OA
ATOM     10  O   UNL     1       5.684  77.278  64.343  1.00  0.00    -0.550 OA
ENDBRANCH   7   8
ENDBRANCH   6   7
ENDBRANCH   5   6
ENDBRANCH   4   5
ENDBRANCH   3   4
ENDBRANCH   2   3
ENDBRANCH   1   2
BRANCH   1  11
ATOM     11  C   UNL     1       3.542  80.576  64.791  1.00  0.00     0.000 C 
BRANCH  11  12
ATOM     12  C   UNL     1       2.639  81.499  63.947  1.00  0.00    -0.000 C 
BRANCH  12  13
ATOM     13  C   UNL     1       3.296  82.809  63.477  1.00  0.00    -0.000 C 
BRANCH  13  14
ATOM     14  C   UNL     1       3.912  83.617  64.632  1.00  0.00    -0.000 C 
BRANCH  14  15
ATOM     15  C   UNL     1       4.393  85.007  64.188  1.00  0.00    -0.000 C 
BRANCH  15  16
ATOM     16  C   UNL     1       3.530  85.599  63.059  1.00  0.00    -0.000 C 
BRANCH  16  17
ATOM     17  C   UNL     1       4.356  86.420  62.057  1.00  0.00    -0.003 C 
ATOM     18  C   UNL     1       3.685  87.741  61.676  1.00  0.00     0.004 C 
ENDBRANCH  16  17
ENDBRANCH  15  16
ENDBRANCH  14  15
ENDBRANCH  13  14
ENDBRANCH  12  13
ENDBRANCH  11  12
ENDBRANCH   1  11
TORSDOF 14
ENDMDL
MODEL 4
REMARK VINA RESULT:    -4.457      5.146      7.645
REMARK INTER + INTRA:          -9.023
REMARK INTER:                  -7.295
REMARK INTRA:                  -1.728
REMARK UNBOUND:                -0.919
REMARK SMILES CCCCCCCCCCCCCCCC(=O)[O-]
REMARK SMILES IDX 9 1 10 2 11 3 12 4 13 5 14 6 15 7 16 8 17 9 18 10 8 11 7 12
REMARK SMILES IDX 6 13 5 14 4 15 3 16 2 17 1 18
REMARK H PARENT
REMARK Flexibility Score: inf
ROOT
ATOM      1  C   UNL     1       6.803  77.918  67.194  1.00  0.00     0.000 C 
ENDROOT
BRANCH   1   2
ATOM      2  C   UNL     1       7.525  77.976  65.839  1.00  0.00     0.000 C 
BRANCH   2   3
ATOM      3  C   UNL     1       6.606  77.502  64.707  1.00  0.00     0.000 C 
BRANCH   3   4
ATOM      4  C   UNL     1       5.234  78.186  64.789  1.00  0.00     0.000 C 
BRANCH   4   5
ATOM      5  C   UNL     1       4.947  79.089  63.579  1.00  0.00     0.000 C 
BRANCH   5   6
ATOM      6  C   UNL     1       6.148  79.195  62.622  1.00  0.00     0.006 C 
BRANCH   6   7
ATOM      7  C   UNL     1       5.733  79.046  61.153  1.00  0.00     0.053 C 
BRANCH   7   8
ATOM      8  C   UNL     1       6.859  79.382  60.223  1.00  0.00     0.041 C 
ATOM      9  O   UNL     1       7.159  78.599  59.283  1.00  0.00    -0.550 OA
ATOM     10  O   UNL     1       7.598  80.541  60.418  1.00  0.00    -0.550 OA
ENDBRANCH   7   8
ENDBRANCH   6   7
ENDBRANCH   5   6
ENDBRANCH   4   5
ENDBRANCH   3   4
ENDBRANCH   2   3
ENDBRANCH   1   2
BRANCH   1  11
ATOM     11  C   UNL     1       6.822  76.513  67.822  1.00  0.00     0.000 C 
BRANCH  11  12
ATOM     12  C   UNL     1       5.516  76.093  68.525  1.00  0.00    -0.000 C 
BRANCH  12  13
ATOM     13  C   UNL     1       4.316  75.850  67.592  1.00  0.00    -0.000 C 
BRANCH  13  14
ATOM     14  C   UNL     1       2.964  75.938  68.321  1.00  0.00    -0.000 C 
BRANCH  14  15
ATOM     15  C   UNL     1       2.714  77.327  68.930  1.00  0.00    -0.000 C 
BRANCH  15  16
ATOM     16  C   UNL     1       2.188  78.340  67.898  1.00  0.00    -0.000 C 
BRANCH  16  17
ATOM     17  C   UNL     1       3.233  79.406  67.535  1.00  0.00    -0.003 C 
ATOM     18  C   UNL     1       4.030  79.893  68.746  1.00  0.00     0.004 C 
ENDBRANCH  16  17
ENDBRANCH  15  16
ENDBRANCH  14  15
ENDBRANCH  13  14
ENDBRANCH  12  13
ENDBRANCH  11  12
ENDBRANCH   1  11
TORSDOF 14
ENDMDL
MODEL 5
REMARK VINA RESULT:    -4.441      5.364      7.909
REMARK INTER + INTRA:          -8.995
REMARK INTER:                  -7.395
REMARK INTRA:                  -1.600
REMARK UNBOUND:                -0.919
REMARK SMILES CCCCCCCCCCCCCCCC(=O)[O-]
REMARK SMILES IDX 9 1 10 2 11 3 12 4 13 5 14 6 15 7 16 8 17 9 18 10 8 11 7 12
REMARK SMILES IDX 6 13 5 14 4 15 3 16 2 17 1 18
REMARK H PARENT
REMARK Flexibility Score: inf
ROOT
ATOM      1  C   UNL     1       5.871  76.817  65.996  1.00  0.00     0.000 C 
ENDROOT
BRANCH   1   2
ATOM      2  C   UNL     1       6.535  77.144  64.650  1.00  0.00     0.000 C 
BRANCH   2   3
ATOM      3  C   UNL     1       5.587  77.946  63.750  1.00  0.00     0.000 C 
BRANCH   3   4
ATOM      4  C   UNL     1       6.312  79.137  63.109  1.00  0.00     0.000 C 
BRANCH   4   5
ATOM      5  C   UNL     1       7.838  79.066  63.284  1.00  0.00     0.000 C 
BRANCH   5   6
ATOM      6  C   UNL     1       8.599  79.539  62.033  1.00  0.00     0.006 C 
BRANCH   6   7
ATOM      7  C   UNL     1       8.834  78.399  61.033  1.00  0.00     0.053 C 
BRANCH   7   8
ATOM      8  C   UNL     1       8.142  78.656  59.729  1.00  0.00     0.041 C 
ATOM      9  O   UNL     1       6.890  78.549  59.642  1.00  0.00    -0.550 OA
ATOM     10  O   UNL     1       8.885  78.977  58.600  1.00  0.00    -0.550 OA
ENDBRANCH   7   8
ENDBRANCH   6   7
ENDBRANCH   5   6
ENDBRANCH   4   5
ENDBRANCH   3   4
ENDBRANCH   2   3
ENDBRANCH   1   2
BRANCH   1  11
ATOM     11  C   UNL     1       6.756  77.180  67.203  1.00  0.00     0.000 C 
BRANCH  11  12
ATOM     12  C   UNL     1       6.316  78.435  67.983  1.00  0.00    -0.000 C 
BRANCH  12  13
ATOM     13  C   UNL     1       5.057  79.136  67.442  1.00  0.00    -0.000 C 
BRANCH  13  14
ATOM     14  C   UNL     1       4.113  79.613  68.559  1.00  0.00    -0.000 C 
BRANCH  14  15
ATOM     15  C   UNL     1       3.297  78.464  69.172  1.00  0.00    -0.000 C 
BRANCH  15  16
ATOM     16  C   UNL     1       2.698  77.529  68.107  1.00  0.00    -0.000 C 
BRANCH  16  17
ATOM     17  C   UNL     1       2.471  76.105  68.635  1.00  0.00    -0.003 C 
ATOM     18  C   UNL     1       3.710  75.218  68.506  1.00  0.00     0.004 C 
ENDBRANCH  16  17
ENDBRANCH  15  16
ENDBRANCH  14  15
ENDBRANCH  13  14
ENDBRANCH  12  13
ENDBRANCH  11  12
ENDBRANCH   1  11
TORSDOF 14
ENDMDL
MODEL 6
REMARK VINA RESULT:    -4.417      2.632      4.140
REMARK INTER + INTRA:          -8.951
REMARK INTER:                  -7.725
REMARK INTRA:                  -1.227
REMARK UNBOUND:                -0.919
REMARK SMILES CCCCCCCCCCCCCCCC(=O)[O-]
REMARK SMILES IDX 9 1 10 2 11 3 12 4 13 5 14 6 15 7 16 8 17 9 18 10 8 11 7 12
REMARK SMILES IDX 6 13 5 14 4 15 3 16 2 17 1 18
REMARK H PARENT
REMARK Flexibility Score: inf
ROOT
ATOM      1  C   UNL     1       4.210  79.854  68.364  1.00  0.00     0.000 C 
ENDROOT
BRANCH   1   2
ATOM      2  C   UNL     1       4.801  78.461  68.628  1.00  0.00     0.000 C 
BRANCH   2   3
ATOM      3  C   UNL     1       6.286  78.414  68.250  1.00  0.00     0.000 C 
BRANCH   3   4
ATOM      4  C   UNL     1       6.677  77.025  67.726  1.00  0.00     0.000 C 
BRANCH   4   5
ATOM      5  C   UNL     1       6.434  76.871  66.216  1.00  0.00     0.000 C 
BRANCH   5   6
ATOM      6  C   UNL     1       7.122  77.974  65.391  1.00  0.00     0.006 C 
BRANCH   6   7
ATOM      7  C   UNL     1       6.517  78.107  63.987  1.00  0.00     0.053 C 
BRANCH   7   8
ATOM      8  C   UNL     1       7.409  78.892  63.073  1.00  0.00     0.041 C 
ATOM      9  O   UNL     1       8.653  78.913  63.264  1.00  0.00    -0.550 OA
ATOM     10  O   UNL     1       6.859  79.631  62.033  1.00  0.00    -0.550 OA
ENDBRANCH   7   8
ENDBRANCH   6   7
ENDBRANCH   5   6
ENDBRANCH   4   5
ENDBRANCH   3   4
ENDBRANCH   2   3
ENDBRANCH   1   2
BRANCH   1  11
ATOM     11  C   UNL     1       3.190  79.861  67.211  1.00  0.00     0.000 C 
BRANCH  11  12
ATOM     12  C   UNL     1       3.780  79.580  65.814  1.00  0.00    -0.000 C 
BRANCH  12  13
ATOM     13  C   UNL     1       3.261  80.491  64.687  1.00  0.00    -0.000 C 
BRANCH  13  14
ATOM     14  C   UNL     1       2.993  81.931  65.158  1.00  0.00    -0.000 C 
BRANCH  14  15
ATOM     15  C   UNL     1       3.412  82.980  64.116  1.00  0.00    -0.000 C 
BRANCH  15  16
ATOM     16  C   UNL     1       3.503  84.398  64.706  1.00  0.00    -0.000 C 
BRANCH  16  17
ATOM     17  C   UNL     1       4.272  85.366  63.795  1.00  0.00    -0.003 C 
ATOM     18  C   UNL     1       4.683  84.732  62.466  1.00  0.00     0.004 C 
ENDBRANCH  16  17
ENDBRANCH  15  16
ENDBRANCH  14  15
ENDBRANCH  13  14
ENDBRANCH  12  13
ENDBRANCH  11  12
ENDBRANCH   1  11
TORSDOF 14
ENDMDL
MODEL 7
REMARK VINA RESULT:    -4.410      4.109      6.363
REMARK INTER + INTRA:          -8.938
REMARK INTER:                  -6.945
REMARK INTRA:                  -1.993
REMARK UNBOUND:                -0.919
REMARK SMILES CCCCCCCCCCCCCCCC(=O)[O-]
REMARK SMILES IDX 9 1 10 2 11 3 12 4 13 5 14 6 15 7 16 8 17 9 18 10 8 11 7 12
REMARK SMILES IDX 6 13 5 14 4 15 3 16 2 17 1 18
REMARK H PARENT
REMARK Flexibility Score: inf
ROOT
ATOM      1  C   UNL     1       5.092  75.726  68.806  1.00  0.00     0.000 C 
ENDROOT
BRANCH   1   2
ATOM      2  C   UNL     1       6.255  76.213  67.928  1.00  0.00     0.000 C 
BRANCH   2   3
ATOM      3  C   UNL     1       6.416  77.735  68.026  1.00  0.00     0.000 C 
BRANCH   3   4
ATOM      4  C   UNL     1       6.217  78.399  66.656  1.00  0.00     0.000 C 
BRANCH   4   5
ATOM      5  C   UNL     1       5.867  77.388  65.553  1.00  0.00     0.000 C 
BRANCH   5   6
ATOM      6  C   UNL     1       6.253  77.887  64.149  1.00  0.00     0.006 C 
BRANCH   6   7
ATOM      7  C   UNL     1       7.677  78.456  64.108  1.00  0.00     0.053 C 
BRANCH   7   8
ATOM      8  C   UNL     1       7.959  79.149  62.810  1.00  0.00     0.041 C 
ATOM      9  O   UNL     1       9.147  79.357  62.447  1.00  0.00    -0.550 OA
ATOM     10  O   UNL     1       6.909  79.596  62.019  1.00  0.00    -0.550 OA
ENDBRANCH   7   8
ENDBRANCH   6   7
ENDBRANCH   5   6
ENDBRANCH   4   5
ENDBRANCH   3   4
ENDBRANCH   2   3
ENDBRANCH   1   2
BRANCH   1  11
ATOM     11  C   UNL     1       3.861  75.299  67.985  1.00  0.00     0.000 C 
BRANCH  11  12
ATOM     12  C   UNL     1       2.543  76.000  68.370  1.00  0.00    -0.000 C 
BRANCH  12  13
ATOM     13  C   UNL     1       2.689  77.457  68.845  1.00  0.00    -0.000 C 
BRANCH  13  14
ATOM     14  C   UNL     1       1.921  78.454  67.959  1.00  0.00    -0.000 C 
BRANCH  14  15
ATOM     15  C   UNL     1       2.840  79.515  67.333  1.00  0.00    -0.000 C 
BRANCH  15  16
ATOM     16  C   UNL     1       2.503  79.793  65.858  1.00  0.00    -0.000 C 
BRANCH  16  17
ATOM     17  C   UNL     1       3.505  80.751  65.195  1.00  0.00    -0.003 C 
ATOM     18  C   UNL     1       3.716  80.456  63.710  1.00  0.00     0.004 C 
ENDBRANCH  16  17
ENDBRANCH  15  16
ENDBRANCH  14  15
ENDBRANCH  13  14
ENDBRANCH  12  13
ENDBRANCH  11  12
ENDBRANCH   1  11
TORSDOF 14
ENDMDL
MODEL 8
REMARK VINA RESULT:    -4.399      5.046      7.561
REMARK INTER + INTRA:          -8.919
REMARK INTER:                  -7.055
REMARK INTRA:                  -1.864
REMARK UNBOUND:                -0.919
REMARK SMILES CCCCCCCCCCCCCCCC(=O)[O-]
REMARK SMILES IDX 9 1 10 2 11 3 12 4 13 5 14 6 15 7 16 8 17 9 18 10 8 11 7 12
REMARK SMILES IDX 6 13 5 14 4 15 3 16 2 17 1 18
REMARK H PARENT
REMARK Flexibility Score: inf
ROOT
ATOM      1  C   UNL     1       4.269  87.654  60.659  1.00  0.00     0.000 C 
ENDROOT
BRANCH   1   2
ATOM      2  C   UNL     1       3.768  87.615  62.110  1.00  0.00     0.000 C 
BRANCH   2   3
ATOM      3  C   UNL     1       3.318  86.202  62.499  1.00  0.00     0.000 C 
BRANCH   3   4
ATOM      4  C   UNL     1       4.525  85.299  62.789  1.00  0.00     0.000 C 
BRANCH   4   5
ATOM      5  C   UNL     1       4.558  84.803  64.243  1.00  0.00     0.000 C 
BRANCH   5   6
ATOM      6  C   UNL     1       3.736  83.518  64.448  1.00  0.00     0.006 C 
BRANCH   6   7
ATOM      7  C   UNL     1       2.467  83.770  65.273  1.00  0.00     0.053 C 
BRANCH   7   8
ATOM      8  C   UNL     1       1.228  83.612  64.444  1.00  0.00     0.041 C 
ATOM      9  O   UNL     1       0.092  83.711  64.976  1.00  0.00    -0.550 OA
ATOM     10  O   UNL     1       1.332  83.319  63.090  1.00  0.00    -0.550 OA
ENDBRANCH   7   8
ENDBRANCH   6   7
ENDBRANCH   5   6
ENDBRANCH   4   5
ENDBRANCH   3   4
ENDBRANCH   2   3
ENDBRANCH   1   2
BRANCH   1  11
ATOM     11  C   UNL     1       4.544  89.084  60.159  1.00  0.00     0.000 C 
BRANCH  11  12
ATOM     12  C   UNL     1       3.717  90.187  60.848  1.00  0.00    -0.000 C 
BRANCH  12  13
ATOM     13  C   UNL     1       2.423  90.590  60.118  1.00  0.00    -0.000 C 
BRANCH  13  14
ATOM     14  C   UNL     1       1.166  89.952  60.736  1.00  0.00    -0.000 C 
BRANCH  14  15
ATOM     15  C   UNL     1       0.719  88.686  59.987  1.00  0.00    -0.000 C 
BRANCH  15  16
ATOM     16  C   UNL     1      -0.203  87.792  60.834  1.00  0.00    -0.000 C 
BRANCH  16  17
ATOM     17  C   UNL     1       0.028  87.971  62.342  1.00  0.00    -0.003 C 
ATOM     18  C   UNL     1      -0.358  86.732  63.153  1.00  0.00     0.004 C 
ENDBRANCH  16  17
ENDBRANCH  15  16
ENDBRANCH  14  15
ENDBRANCH  13  14
ENDBRANCH  12  13
ENDBRANCH  11  12
ENDBRANCH   1  11
TORSDOF 14
ENDMDL
MODEL 9
REMARK VINA RESULT:    -4.399      2.862      6.159
REMARK INTER + INTRA:          -8.918
REMARK INTER:                  -7.073
REMARK INTRA:                  -1.845
REMARK UNBOUND:                -0.919
REMARK SMILES CCCCCCCCCCCCCCCC(=O)[O-]
REMARK SMILES IDX 9 1 10 2 11 3 12 4 13 5 14 6 15 7 16 8 17 9 18 10 8 11 7 12
REMARK SMILES IDX 6 13 5 14 4 15 3 16 2 17 1 18
REMARK H PARENT
REMARK Flexibility Score: inf
ROOT
ATOM      1  C   UNL     1       4.399  86.728  61.331  1.00  0.00     0.000 C 
ENDROOT
BRANCH   1   2
ATOM      2  C   UNL     1       4.622  85.424  62.112  1.00  0.00     0.000 C 
BRANCH   2   3
ATOM      3  C   UNL     1       4.131  85.559  63.558  1.00  0.00     0.000 C 
BRANCH   3   4
ATOM      4  C   UNL     1       4.157  84.203  64.277  1.00  0.00     0.000 C 
BRANCH   4   5
ATOM      5  C   UNL     1       2.836  83.889  64.999  1.00  0.00     0.000 C 
BRANCH   5   6
ATOM      6  C   UNL     1       2.453  82.402  64.910  1.00  0.00     0.006 C 
BRANCH   6   7
ATOM      7  C   UNL     1       3.384  81.619  63.975  1.00  0.00     0.053 C 
BRANCH   7   8
ATOM      8  C   UNL     1       3.690  80.255  64.514  1.00  0.00     0.041 C 
ATOM      9  O   UNL     1       3.676  80.045  65.756  1.00  0.00    -0.550 OA
ATOM     10  O   UNL     1       4.029  79.225  63.646  1.00  0.00    -0.550 OA
ENDBRANCH   7   8
ENDBRANCH   6   7
ENDBRANCH   5   6
ENDBRANCH   4   5
ENDBRANCH   3   4
ENDBRANCH   2   3
ENDBRANCH   1   2
BRANCH   1  11
ATOM     11  C   UNL     1       3.747  87.831  62.183  1.00  0.00     0.000 C 
BRANCH  11  12
ATOM     12  C   UNL     1       3.398  89.126  61.421  1.00  0.00    -0.000 C 
BRANCH  12  13
ATOM     13  C   UNL     1       1.940  89.230  60.938  1.00  0.00    -0.000 C 
BRANCH  13  14
ATOM     14  C   UNL     1       0.920  89.080  62.080  1.00  0.00    -0.000 C 
BRANCH  14  15
ATOM     15  C   UNL     1      -0.208  88.094  61.736  1.00  0.00    -0.000 C 
BRANCH  15  16
ATOM     16  C   UNL     1      -0.537  87.141  62.899  1.00  0.00    -0.000 C 
BRANCH  16  17
ATOM     17  C   UNL     1       0.546  86.071  63.107  1.00  0.00    -0.003 C 
ATOM     18  C   UNL     1       0.779  85.213  61.863  1.00  0.00     0.004 C 
ENDBRANCH  16  17
ENDBRANCH  15  16
ENDBRANCH  14  15
ENDBRANCH  13  14
ENDBRANCH  12  13
ENDBRANCH  11  12
ENDBRANCH   1  11
TORSDOF 14
ENDMDL
