MODEL 1
REMARK VINA RESULT:    -3.662      0.000      0.000
REMARK INTER + INTRA:          -5.485
REMARK INTER:                  -5.160
REMARK INTRA:                  -0.325
REMARK UNBOUND:                -0.325
REMARK SMILES CCCCCCCCC(=O)[O-]
REMARK SMILES IDX 6 1 7 2 8 3 9 4 10 5 11 6 5 7 4 8 3 9 2 10 1 11
REMARK H PARENT
REMARK Flexibility Score: inf
ROOT
ATOM      1  C   UNL     1      61.022  32.139  60.615  1.00  0.00     0.000 C 
ENDROOT
BRANCH   1   2
ATOM      2  C   UNL     1      61.162  31.104  61.746  1.00  0.00     0.006 C 
BRANCH   2   3
ATOM      3  C   UNL     1      61.441  29.687  61.227  1.00  0.00     0.053 C 
BRANCH   3   4
ATOM      4  C   UNL     1      62.886  29.342  61.404  1.00  0.00     0.041 C 
ATOM      5  O   UNL     1      63.275  28.154  61.260  1.00  0.00    -0.550 OA
ATOM      6  O   UNL     1      63.795  30.324  61.777  1.00  0.00    -0.550 OA
ENDBRANCH   3   4
ENDBRANCH   2   3
ENDBRANCH   1   2
BRANCH   1   7
ATOM      7  C   UNL     1      62.170  33.161  60.524  1.00  0.00     0.000 C 
BRANCH   7   8
ATOM      8  C   UNL     1      61.675  34.613  60.437  1.00  0.00    -0.000 C 
BRANCH   8   9
ATOM      9  C   UNL     1      62.715  35.582  61.021  1.00  0.00    -0.000 C 
BRANCH   9  10
ATOM     10  C   UNL     1      64.075  34.912  61.269  1.00  0.00    -0.003 C 
ATOM     11  C   UNL     1      65.107  35.869  61.864  1.00  0.00     0.004 C 
ENDBRANCH   9  10
ENDBRANCH   8   9
ENDBRANCH   7   8
ENDBRANCH   1   7
TORSDOF 7
ENDMDL
MODEL 2
REMARK VINA RESULT:    -3.614     12.339     13.903
REMARK INTER + INTRA:          -5.418
REMARK INTER:                  -5.118
REMARK INTRA:                  -0.300
REMARK UNBOUND:                -0.325
REMARK SMILES CCCCCCCCC(=O)[O-]
REMARK SMILES IDX 6 1 7 2 8 3 9 4 10 5 11 6 5 7 4 8 3 9 2 10 1 11
REMARK H PARENT
REMARK Flexibility Score: inf
ROOT
ATOM      1  C   UNL     1      58.142  29.064  50.207  1.00  0.00     0.000 C 
ENDROOT
BRANCH   1   2
ATOM      2  C   UNL     1      59.250  28.809  49.169  1.00  0.00     0.006 C 
BRANCH   2   3
ATOM      3  C   UNL     1      59.894  27.424  49.312  1.00  0.00     0.053 C 
BRANCH   3   4
ATOM      4  C   UNL     1      61.275  27.547  49.876  1.00  0.00     0.041 C 
ATOM      5  O   UNL     1      61.445  27.632  51.120  1.00  0.00    -0.550 OA
ATOM      6  O   UNL     1      62.370  27.616  49.024  1.00  0.00    -0.550 OA
ENDBRANCH   3   4
ENDBRANCH   2   3
ENDBRANCH   1   2
BRANCH   1   7
ATOM      7  C   UNL     1      57.062  27.969  50.288  1.00  0.00     0.000 C 
BRANCH   7   8
ATOM      8  C   UNL     1      55.676  28.519  50.655  1.00  0.00    -0.000 C 
BRANCH   8   9
ATOM      9  C   UNL     1      54.564  27.679  50.008  1.00  0.00    -0.000 C 
BRANCH   9  10
ATOM     10  C   UNL     1      55.015  26.245  49.690  1.00  0.00    -0.003 C 
ATOM     11  C   UNL     1      53.893  25.389  49.103  1.00  0.00     0.004 C 
ENDBRANCH   9  10
ENDBRANCH   8   9
ENDBRANCH   7   8
ENDBRANCH   1   7
TORSDOF 7
ENDMDL
MODEL 3
REMARK VINA RESULT:    -3.437     13.033     14.080
REMARK INTER + INTRA:          -5.169
REMARK INTER:                  -4.544
REMARK INTRA:                  -0.625
REMARK UNBOUND:                -0.325
REMARK SMILES CCCCCCCCC(=O)[O-]
REMARK SMILES IDX 6 1 7 2 8 3 9 4 10 5 11 6 5 7 4 8 3 9 2 10 1 11
REMARK H PARENT
REMARK Flexibility Score: inf
ROOT
ATOM      1  C   UNL     1      57.707  28.632  50.835  1.00  0.00     0.000 C 
ENDROOT
BRANCH   1   2
ATOM      2  C   UNL     1      56.249  28.310  50.460  1.00  0.00     0.006 C 
BRANCH   2   3
ATOM      3  C   UNL     1      56.014  26.815  50.207  1.00  0.00     0.053 C 
BRANCH   3   4
ATOM      4  C   UNL     1      54.643  26.589  49.653  1.00  0.00     0.041 C 
ATOM      5  O   UNL     1      53.795  27.519  49.662  1.00  0.00    -0.550 OA
ATOM      6  O   UNL     1      54.286  25.336  49.170  1.00  0.00    -0.550 OA
ENDBRANCH   3   4
ENDBRANCH   2   3
ENDBRANCH   1   2
BRANCH   1   7
ATOM      7  C   UNL     1      58.572  29.167  49.679  1.00  0.00     0.000 C 
BRANCH   7   8
ATOM      8  C   UNL     1      59.601  28.143  49.176  1.00  0.00    -0.000 C 
BRANCH   8   9
ATOM      9  C   UNL     1      59.962  27.140  50.282  1.00  0.00    -0.000 C 
BRANCH   9  10
ATOM     10  C   UNL     1      59.937  25.684  49.791  1.00  0.00    -0.003 C 
ATOM     11  C   UNL     1      59.160  24.758  50.725  1.00  0.00     0.004 C 
ENDBRANCH   9  10
ENDBRANCH   8   9
ENDBRANCH   7   8
ENDBRANCH   1   7
TORSDOF 7
ENDMDL
MODEL 4
REMARK VINA RESULT:    -3.432     13.193     14.300
REMARK INTER + INTRA:          -5.162
REMARK INTER:                  -4.834
REMARK INTRA:                  -0.328
REMARK UNBOUND:                -0.325
REMARK SMILES CCCCCCCCC(=O)[O-]
REMARK SMILES IDX 6 1 7 2 8 3 9 4 10 5 11 6 5 7 4 8 3 9 2 10 1 11
REMARK H PARENT
REMARK Flexibility Score: inf
ROOT
ATOM      1  C   UNL     1      55.788  28.741  50.504  1.00  0.00     0.000 C 
ENDROOT
BRANCH   1   2
ATOM      2  C   UNL     1      54.614  27.789  50.209  1.00  0.00     0.006 C 
BRANCH   2   3
ATOM      3  C   UNL     1      55.074  26.388  49.786  1.00  0.00     0.053 C 
BRANCH   3   4
ATOM      4  C   UNL     1      53.892  25.505  49.537  1.00  0.00     0.041 C 
ATOM      5  O   UNL     1      53.246  25.600  48.461  1.00  0.00    -0.550 OA
ATOM      6  O   UNL     1      53.475  24.609  50.513  1.00  0.00    -0.550 OA
ENDBRANCH   3   4
ENDBRANCH   2   3
ENDBRANCH   1   2
BRANCH   1   7
ATOM      7  C   UNL     1      57.178  28.079  50.502  1.00  0.00     0.000 C 
BRANCH   7   8
ATOM      8  C   UNL     1      58.315  29.072  50.219  1.00  0.00    -0.000 C 
BRANCH   8   9
ATOM      9  C   UNL     1      59.305  28.495  49.196  1.00  0.00    -0.000 C 
BRANCH   9  10
ATOM     10  C   UNL     1      59.600  27.006  49.434  1.00  0.00    -0.003 C 
ATOM     11  C   UNL     1      61.044  26.749  49.863  1.00  0.00     0.004 C 
ENDBRANCH   9  10
ENDBRANCH   8   9
ENDBRANCH   7   8
ENDBRANCH   1   7
TORSDOF 7
ENDMDL
MODEL 5
REMARK VINA RESULT:    -3.286      3.077      5.278
REMARK INTER + INTRA:          -4.956
REMARK INTER:                  -4.494
REMARK INTRA:                  -0.462
REMARK UNBOUND:                -0.325
REMARK SMILES CCCCCCCCC(=O)[O-]
REMARK SMILES IDX 6 1 7 2 8 3 9 4 10 5 11 6 5 7 4 8 3 9 2 10 1 11
REMARK H PARENT
REMARK Flexibility Score: inf
ROOT
ATOM      1  C   UNL     1      61.598  33.694  59.686  1.00  0.00     0.000 C 
ENDROOT
BRANCH   1   2
ATOM      2  C   UNL     1      62.151  34.758  60.652  1.00  0.00     0.006 C 
BRANCH   2   3
ATOM      3  C   UNL     1      63.611  34.502  61.049  1.00  0.00     0.053 C 
BRANCH   3   4
ATOM      4  C   UNL     1      64.269  35.779  61.468  1.00  0.00     0.041 C 
ATOM      5  O   UNL     1      65.508  35.810  61.688  1.00  0.00    -0.550 OA
ATOM      6  O   UNL     1      63.506  36.924  61.662  1.00  0.00    -0.550 OA
ENDBRANCH   3   4
ENDBRANCH   2   3
ENDBRANCH   1   2
BRANCH   1   7
ATOM      7  C   UNL     1      62.013  32.246  60.008  1.00  0.00     0.000 C 
BRANCH   7   8
ATOM      8  C   UNL     1      61.072  31.561  61.010  1.00  0.00    -0.000 C 
BRANCH   8   9
ATOM      9  C   UNL     1      61.832  30.534  61.862  1.00  0.00    -0.000 C 
BRANCH   9  10
ATOM     10  C   UNL     1      63.314  30.424  61.474  1.00  0.00    -0.003 C 
ATOM     11  C   UNL     1      63.712  29.011  61.049  1.00  0.00     0.004 C 
ENDBRANCH   9  10
ENDBRANCH   8   9
ENDBRANCH   7   8
ENDBRANCH   1   7
TORSDOF 7
ENDMDL
MODEL 6
REMARK VINA RESULT:    -3.228      1.430      2.381
REMARK INTER + INTRA:          -4.874
REMARK INTER:                  -4.370
REMARK INTRA:                  -0.504
REMARK UNBOUND:                -0.325
REMARK SMILES CCCCCCCCC(=O)[O-]
REMARK SMILES IDX 6 1 7 2 8 3 9 4 10 5 11 6 5 7 4 8 3 9 2 10 1 11
REMARK H PARENT
REMARK Flexibility Score: inf
ROOT
ATOM      1  C   UNL     1      62.139  34.384  59.596  1.00  0.00     0.000 C 
ENDROOT
BRANCH   1   2
ATOM      2  C   UNL     1      62.288  33.342  60.719  1.00  0.00     0.006 C 
BRANCH   2   3
ATOM      3  C   UNL     1      61.948  31.918  60.260  1.00  0.00     0.053 C 
BRANCH   3   4
ATOM      4  C   UNL     1      61.659  31.045  61.441  1.00  0.00     0.041 C 
ATOM      5  O   UNL     1      60.677  31.293  62.187  1.00  0.00    -0.550 OA
ATOM      6  O   UNL     1      62.505  29.985  61.745  1.00  0.00    -0.550 OA
ENDBRANCH   3   4
ENDBRANCH   2   3
ENDBRANCH   1   2
BRANCH   1   7
ATOM      7  C   UNL     1      61.231  35.581  59.935  1.00  0.00     0.000 C 
BRANCH   7   8
ATOM      8  C   UNL     1      61.827  36.500  61.011  1.00  0.00    -0.000 C 
BRANCH   8   9
ATOM      9  C   UNL     1      63.221  36.997  60.596  1.00  0.00    -0.000 C 
BRANCH   9  10
ATOM     10  C   UNL     1      64.233  36.950  61.751  1.00  0.00    -0.003 C 
ATOM     11  C   UNL     1      65.036  35.649  61.780  1.00  0.00     0.004 C 
ENDBRANCH   9  10
ENDBRANCH   8   9
ENDBRANCH   7   8
ENDBRANCH   1   7
TORSDOF 7
ENDMDL
MODEL 7
REMARK VINA RESULT:    -3.213      1.395      2.239
REMARK INTER + INTRA:          -4.852
REMARK INTER:                  -4.475
REMARK INTRA:                  -0.378
REMARK UNBOUND:                -0.325
REMARK SMILES CCCCCCCCC(=O)[O-]
REMARK SMILES IDX 6 1 7 2 8 3 9 4 10 5 11 6 5 7 4 8 3 9 2 10 1 11
REMARK H PARENT
REMARK Flexibility Score: inf
ROOT
ATOM      1  C   UNL     1      62.702  33.048  60.627  1.00  0.00     0.000 C 
ENDROOT
BRANCH   1   2
ATOM      2  C   UNL     1      62.392  31.548  60.789  1.00  0.00     0.006 C 
BRANCH   2   3
ATOM      3  C   UNL     1      63.578  30.750  61.346  1.00  0.00     0.053 C 
BRANCH   3   4
ATOM      4  C   UNL     1      63.277  29.285  61.325  1.00  0.00     0.041 C 
ATOM      5  O   UNL     1      62.155  28.863  61.710  1.00  0.00    -0.550 OA
ATOM      6  O   UNL     1      64.253  28.380  60.926  1.00  0.00    -0.550 OA
ENDBRANCH   3   4
ENDBRANCH   2   3
ENDBRANCH   1   2
BRANCH   1   7
ATOM      7  C   UNL     1      64.169  33.439  60.879  1.00  0.00     0.000 C 
BRANCH   7   8
ATOM      8  C   UNL     1      64.325  34.873  61.407  1.00  0.00    -0.000 C 
BRANCH   8   9
ATOM      9  C   UNL     1      63.638  35.880  60.472  1.00  0.00    -0.000 C 
BRANCH   9  10
ATOM     10  C   UNL     1      62.571  36.721  61.190  1.00  0.00    -0.003 C 
ATOM     11  C   UNL     1      61.157  36.443  60.681  1.00  0.00     0.004 C 
ENDBRANCH   9  10
ENDBRANCH   8   9
ENDBRANCH   7   8
ENDBRANCH   1   7
TORSDOF 7
ENDMDL
MODEL 8
REMARK VINA RESULT:    -3.211     12.312     13.595
REMARK INTER + INTRA:          -4.850
REMARK INTER:                  -4.298
REMARK INTRA:                  -0.553
REMARK UNBOUND:                -0.325
REMARK SMILES CCCCCCCCC(=O)[O-]
REMARK SMILES IDX 6 1 7 2 8 3 9 4 10 5 11 6 5 7 4 8 3 9 2 10 1 11
REMARK H PARENT
REMARK Flexibility Score: inf
ROOT
ATOM      1  C   UNL     1      57.755  27.072  50.501  1.00  0.00     0.000 C 
ENDROOT
BRANCH   1   2
ATOM      2  C   UNL     1      57.823  28.570  50.153  1.00  0.00     0.006 C 
BRANCH   2   3
ATOM      3  C   UNL     1      59.002  28.916  49.234  1.00  0.00     0.053 C 
BRANCH   3   4
ATOM      4  C   UNL     1      60.292  28.485  49.857  1.00  0.00     0.041 C 
ATOM      5  O   UNL     1      61.009  27.617  49.293  1.00  0.00    -0.550 OA
ATOM      6  O   UNL     1      60.680  29.006  51.085  1.00  0.00    -0.550 OA
ENDBRANCH   3   4
ENDBRANCH   2   3
ENDBRANCH   1   2
BRANCH   1   7
ATOM      7  C   UNL     1      56.463  26.360  50.060  1.00  0.00     0.000 C 
BRANCH   7   8
ATOM      8  C   UNL     1      55.219  26.852  50.815  1.00  0.00    -0.000 C 
BRANCH   8   9
ATOM      9  C   UNL     1      54.176  27.424  49.841  1.00  0.00    -0.000 C 
BRANCH   9  10
ATOM     10  C   UNL     1      53.750  28.854  50.205  1.00  0.00    -0.003 C 
ATOM     11  C   UNL     1      54.445  29.377  51.462  1.00  0.00     0.004 C 
ENDBRANCH   9  10
ENDBRANCH   8   9
ENDBRANCH   7   8
ENDBRANCH   1   7
TORSDOF 7
ENDMDL
MODEL 9
REMARK VINA RESULT:    -3.197      2.317      4.867
REMARK INTER + INTRA:          -4.831
REMARK INTER:                  -4.229
REMARK INTRA:                  -0.602
REMARK UNBOUND:                -0.325
REMARK SMILES CCCCCCCCC(=O)[O-]
REMARK SMILES IDX 6 1 7 2 8 3 9 4 10 5 11 6 5 7 4 8 3 9 2 10 1 11
REMARK H PARENT
REMARK Flexibility Score: inf
ROOT
ATOM      1  C   UNL     1      61.345  31.825  59.850  1.00  0.00     0.000 C 
ENDROOT
BRANCH   1   2
ATOM      2  C   UNL     1      61.881  33.225  59.500  1.00  0.00     0.006 C 
BRANCH   2   3
ATOM      3  C   UNL     1      62.429  33.977  60.719  1.00  0.00     0.053 C 
BRANCH   3   4
ATOM      4  C   UNL     1      63.925  33.976  60.704  1.00  0.00     0.041 C 
ATOM      5  O   UNL     1      64.549  33.317  59.832  1.00  0.00    -0.550 OA
ATOM      6  O   UNL     1      64.631  34.665  61.682  1.00  0.00    -0.550 OA
ENDBRANCH   3   4
ENDBRANCH   2   3
ENDBRANCH   1   2
BRANCH   1   7
ATOM      7  C   UNL     1      61.153  31.560  61.355  1.00  0.00     0.000 C 
BRANCH   7   8
ATOM      8  C   UNL     1      61.848  30.277  61.831  1.00  0.00    -0.000 C 
BRANCH   8   9
ATOM      9  C   UNL     1      63.363  30.348  61.580  1.00  0.00    -0.000 C 
BRANCH   9  10
ATOM     10  C   UNL     1      63.938  29.022  61.059  1.00  0.00    -0.003 C 
ATOM     11  C   UNL     1      62.934  27.873  61.130  1.00  0.00     0.004 C 
ENDBRANCH   9  10
ENDBRANCH   8   9
ENDBRANCH   7   8
ENDBRANCH   1   7
TORSDOF 7
ENDMDL
