MODEL 1
REMARK VINA RESULT:    -4.832      0.000      0.000
REMARK INTER + INTRA:          -5.604
REMARK INTER:                  -5.397
REMARK INTRA:                  -0.207
REMARK UNBOUND:                -0.207
REMARK SMILES CC(C)c1ccc(C(=O)[O-])cc1
REMARK SMILES IDX 7 1 6 2 11 3 5 4 12 5 4 6 8 7 9 8 10 9 2 10 1 11 3 12
REMARK H PARENT
REMARK Flexibility Score: inf
ROOT
ATOM      1  C   UNL     1     -13.900 -26.909 -17.582  1.00  0.00    -0.003 A 
ATOM      2  C   UNL     1     -14.663 -26.429 -16.504  1.00  0.00     0.010 A 
ATOM      3  C   UNL     1     -14.527 -27.115 -18.821  1.00  0.00     0.010 A 
ATOM      4  C   UNL     1     -16.026 -26.159 -16.665  1.00  0.00     0.004 A 
ATOM      5  C   UNL     1     -15.890 -26.846 -18.982  1.00  0.00     0.004 A 
ATOM      6  C   UNL     1     -16.654 -26.365 -17.906  1.00  0.00    -0.045 A 
ENDROOT
BRANCH   1   7
ATOM      7  C   UNL     1     -12.459 -27.197 -17.416  1.00  0.00     0.071 C 
ATOM      8  O   UNL     1     -12.069 -28.070 -16.595  1.00  0.00    -0.545 OA
ATOM      9  O   UNL     1     -11.511 -26.505 -18.164  1.00  0.00    -0.545 OA
ENDBRANCH   1   7
BRANCH   6  10
ATOM     10  C   UNL     1     -18.132 -26.077 -18.094  1.00  0.00     0.013 C 
ATOM     11  C   UNL     1     -18.487 -25.960 -19.581  1.00  0.00     0.012 C 
ATOM     12  C   UNL     1     -18.995 -27.140 -17.402  1.00  0.00     0.012 C 
ENDBRANCH   6  10
TORSDOF 2
ENDMDL
MODEL 2
REMARK VINA RESULT:    -4.827      0.038      1.398
REMARK INTER + INTRA:          -5.599
REMARK INTER:                  -5.392
REMARK INTRA:                  -0.207
REMARK UNBOUND:                -0.207
REMARK SMILES CC(C)c1ccc(C(=O)[O-])cc1
REMARK SMILES IDX 7 1 6 2 11 3 5 4 12 5 4 6 8 7 9 8 10 9 2 10 1 11 3 12
REMARK H PARENT
REMARK Flexibility Score: inf
ROOT
ATOM      1  C   UNL     1     -13.882 -26.920 -17.591  1.00  0.00    -0.003 A 
ATOM      2  C   UNL     1     -14.503 -27.084 -18.841  1.00  0.00     0.010 A 
ATOM      3  C   UNL     1     -14.651 -26.477 -16.503  1.00  0.00     0.010 A 
ATOM      4  C   UNL     1     -15.865 -26.812 -18.998  1.00  0.00     0.004 A 
ATOM      5  C   UNL     1     -16.013 -26.204 -16.659  1.00  0.00     0.004 A 
ATOM      6  C   UNL     1     -16.636 -26.368 -17.908  1.00  0.00    -0.045 A 
ENDROOT
BRANCH   1   7
ATOM      7  C   UNL     1     -12.441 -27.206 -17.421  1.00  0.00     0.071 C 
ATOM      8  O   UNL     1     -12.052 -28.067 -16.587  1.00  0.00    -0.545 OA
ATOM      9  O   UNL     1     -11.494 -26.527 -18.180  1.00  0.00    -0.545 OA
ENDBRANCH   1   7
BRANCH   6  10
ATOM     10  C   UNL     1     -18.115 -26.068 -18.063  1.00  0.00     0.013 C 
ATOM     11  C   UNL     1     -18.494 -25.909 -19.540  1.00  0.00     0.012 C 
ATOM     12  C   UNL     1     -18.971 -27.146 -17.387  1.00  0.00     0.012 C 
ENDBRANCH   6  10
TORSDOF 2
ENDMDL
MODEL 3
REMARK VINA RESULT:    -4.816      8.603     10.768
REMARK INTER + INTRA:          -5.586
REMARK INTER:                  -5.368
REMARK INTRA:                  -0.218
REMARK UNBOUND:                -0.207
REMARK SMILES CC(C)c1ccc(C(=O)[O-])cc1
REMARK SMILES IDX 7 1 6 2 11 3 5 4 12 5 4 6 8 7 9 8 10 9 2 10 1 11 3 12
REMARK H PARENT
REMARK Flexibility Score: inf
ROOT
ATOM      1  C   UNL     1     -25.993 -24.683 -17.814  1.00  0.00    -0.003 A 
ATOM      2  C   UNL     1     -25.193 -23.816 -17.049  1.00  0.00     0.010 A 
ATOM      3  C   UNL     1     -25.369 -25.636 -18.636  1.00  0.00     0.010 A 
ATOM      4  C   UNL     1     -23.799 -23.902 -17.106  1.00  0.00     0.004 A 
ATOM      5  C   UNL     1     -23.975 -25.722 -18.693  1.00  0.00     0.004 A 
ATOM      6  C   UNL     1     -23.174 -24.856 -17.929  1.00  0.00    -0.045 A 
ENDROOT
BRANCH   1   7
ATOM      7  C   UNL     1     -27.468 -24.594 -17.758  1.00  0.00     0.071 C 
ATOM      8  O   UNL     1     -28.035 -23.870 -16.896  1.00  0.00    -0.545 OA
ATOM      9  O   UNL     1     -28.252 -25.311 -18.656  1.00  0.00    -0.545 OA
ENDBRANCH   1   7
BRANCH   6  10
ATOM     10  C   UNL     1     -21.662 -24.961 -18.000  1.00  0.00     0.013 C 
ATOM     11  C   UNL     1     -21.055 -25.152 -16.605  1.00  0.00     0.012 C 
ATOM     12  C   UNL     1     -21.231 -26.087 -18.949  1.00  0.00     0.012 C 
ENDBRANCH   6  10
TORSDOF 2
ENDMDL
MODEL 4
REMARK VINA RESULT:    -4.734     11.627     12.428
REMARK INTER + INTRA:          -5.494
REMARK INTER:                  -5.288
REMARK INTRA:                  -0.207
REMARK UNBOUND:                -0.207
REMARK SMILES CC(C)c1ccc(C(=O)[O-])cc1
REMARK SMILES IDX 7 1 6 2 11 3 5 4 12 5 4 6 8 7 9 8 10 9 2 10 1 11 3 12
REMARK H PARENT
REMARK Flexibility Score: inf
ROOT
ATOM      1  C   UNL     1     -12.178 -36.389 -24.243  1.00  0.00    -0.003 A 
ATOM      2  C   UNL     1     -13.108 -37.037 -25.074  1.00  0.00     0.010 A 
ATOM      3  C   UNL     1     -11.769 -35.085 -24.565  1.00  0.00     0.010 A 
ATOM      4  C   UNL     1     -13.619 -36.391 -26.204  1.00  0.00     0.004 A 
ATOM      5  C   UNL     1     -12.279 -34.439 -25.695  1.00  0.00     0.004 A 
ATOM      6  C   UNL     1     -13.210 -35.085 -26.527  1.00  0.00    -0.045 A 
ENDROOT
BRANCH   1   7
ATOM      7  C   UNL     1     -11.634 -37.070 -23.047  1.00  0.00     0.071 C 
ATOM      8  O   UNL     1     -12.307 -37.951 -22.449  1.00  0.00    -0.545 OA
ATOM      9  O   UNL     1     -10.371 -36.744 -22.564  1.00  0.00    -0.545 OA
ENDBRANCH   1   7
BRANCH   6  10
ATOM     10  C   UNL     1     -13.756 -34.372 -27.751  1.00  0.00     0.013 C 
ATOM     11  C   UNL     1     -13.054 -34.849 -29.028  1.00  0.00     0.012 C 
ATOM     12  C   UNL     1     -15.276 -34.544 -27.858  1.00  0.00     0.012 C 
ENDBRANCH   6  10
TORSDOF 2
ENDMDL
MODEL 5
REMARK VINA RESULT:    -4.713     16.951     18.505
REMARK INTER + INTRA:          -5.471
REMARK INTER:                  -5.255
REMARK INTRA:                  -0.216
REMARK UNBOUND:                -0.207
REMARK SMILES CC(C)c1ccc(C(=O)[O-])cc1
REMARK SMILES IDX 7 1 6 2 11 3 5 4 12 5 4 6 8 7 9 8 10 9 2 10 1 11 3 12
REMARK H PARENT
REMARK Flexibility Score: inf
ROOT
ATOM      1  C   UNL     1     -27.753 -19.519 -28.243  1.00  0.00    -0.003 A 
ATOM      2  C   UNL     1     -27.022 -20.719 -28.242  1.00  0.00     0.010 A 
ATOM      3  C   UNL     1     -28.462 -19.155 -29.399  1.00  0.00     0.010 A 
ATOM      4  C   UNL     1     -27.002 -21.538 -29.375  1.00  0.00     0.004 A 
ATOM      5  C   UNL     1     -28.442 -19.973 -30.533  1.00  0.00     0.004 A 
ATOM      6  C   UNL     1     -27.712 -21.174 -30.533  1.00  0.00    -0.045 A 
ENDROOT
BRANCH   1   7
ATOM      7  C   UNL     1     -27.776 -18.649 -27.047  1.00  0.00     0.071 C 
ATOM      8  O   UNL     1     -28.832 -18.049 -26.710  1.00  0.00    -0.545 OA
ATOM      9  O   UNL     1     -26.631 -18.479 -26.277  1.00  0.00    -0.545 OA
ENDBRANCH   1   7
BRANCH   6  10
ATOM     10  C   UNL     1     -27.699 -22.053 -31.770  1.00  0.00     0.013 C 
ATOM     11  C   UNL     1     -26.972 -23.376 -31.500  1.00  0.00     0.012 C 
ATOM     12  C   UNL     1     -29.122 -22.300 -32.287  1.00  0.00     0.012 C 
ENDBRANCH   6  10
TORSDOF 2
ENDMDL
MODEL 6
REMARK VINA RESULT:    -4.665      7.768      9.977
REMARK INTER + INTRA:          -5.418
REMARK INTER:                  -5.203
REMARK INTRA:                  -0.215
REMARK UNBOUND:                -0.207
REMARK SMILES CC(C)c1ccc(C(=O)[O-])cc1
REMARK SMILES IDX 7 1 6 2 11 3 5 4 12 5 4 6 8 7 9 8 10 9 2 10 1 11 3 12
REMARK H PARENT
REMARK Flexibility Score: inf
ROOT
ATOM      1  C   UNL     1     -24.985 -24.917 -17.886  1.00  0.00    -0.003 A 
ATOM      2  C   UNL     1     -24.363 -25.491 -19.008  1.00  0.00     0.010 A 
ATOM      3  C   UNL     1     -24.213 -24.642 -16.747  1.00  0.00     0.010 A 
ATOM      4  C   UNL     1     -22.995 -25.782 -18.989  1.00  0.00     0.004 A 
ATOM      5  C   UNL     1     -22.845 -24.933 -16.727  1.00  0.00     0.004 A 
ATOM      6  C   UNL     1     -22.221 -25.506 -17.848  1.00  0.00    -0.045 A 
ENDROOT
BRANCH   1   7
ATOM      7  C   UNL     1     -26.431 -24.608 -17.902  1.00  0.00     0.071 C 
ATOM      8  O   UNL     1     -26.857 -23.504 -17.469  1.00  0.00    -0.545 OA
ATOM      9  O   UNL     1     -27.344 -25.535 -18.394  1.00  0.00    -0.545 OA
ENDBRANCH   1   7
BRANCH   6  10
ATOM     10  C   UNL     1     -20.737 -25.817 -17.813  1.00  0.00     0.013 C 
ATOM     11  C   UNL     1     -20.368 -26.615 -16.556  1.00  0.00     0.012 C 
ATOM     12  C   UNL     1     -20.297 -26.554 -19.084  1.00  0.00     0.012 C 
ENDBRANCH   6  10
TORSDOF 2
ENDMDL
MODEL 7
REMARK VINA RESULT:    -4.664     11.939     13.328
REMARK INTER + INTRA:          -5.416
REMARK INTER:                  -5.211
REMARK INTRA:                  -0.205
REMARK UNBOUND:                -0.207
REMARK SMILES CC(C)c1ccc(C(=O)[O-])cc1
REMARK SMILES IDX 7 1 6 2 11 3 5 4 12 5 4 6 8 7 9 8 10 9 2 10 1 11 3 12
REMARK H PARENT
REMARK Flexibility Score: inf
ROOT
ATOM      1  C   UNL     1     -10.869 -36.552 -23.723  1.00  0.00    -0.003 A 
ATOM      2  C   UNL     1     -11.069 -35.276 -24.277  1.00  0.00     0.010 A 
ATOM      3  C   UNL     1     -10.553 -37.622 -24.576  1.00  0.00     0.010 A 
ATOM      4  C   UNL     1     -10.955 -35.076 -25.656  1.00  0.00     0.004 A 
ATOM      5  C   UNL     1     -10.440 -37.422 -25.955  1.00  0.00     0.004 A 
ATOM      6  C   UNL     1     -10.639 -36.147 -26.511  1.00  0.00    -0.045 A 
ENDROOT
BRANCH   1   7
ATOM      7  C   UNL     1     -10.989 -36.768 -22.265  1.00  0.00     0.071 C 
ATOM      8  O   UNL     1     -11.990 -36.336 -21.633  1.00  0.00    -0.545 OA
ATOM      9  O   UNL     1      -9.997 -37.451 -21.569  1.00  0.00    -0.545 OA
ENDBRANCH   1   7
BRANCH   6  10
ATOM     10  C   UNL     1     -10.512 -35.945 -28.009  1.00  0.00     0.013 C 
ATOM     11  C   UNL     1     -11.448 -34.833 -28.498  1.00  0.00     0.012 C 
ATOM     12  C   UNL     1      -9.059 -35.657 -28.406  1.00  0.00     0.012 C 
ENDBRANCH   6  10
TORSDOF 2
ENDMDL
MODEL 8
REMARK VINA RESULT:    -4.660     11.626     12.351
REMARK INTER + INTRA:          -5.412
REMARK INTER:                  -5.207
REMARK INTRA:                  -0.205
REMARK UNBOUND:                -0.207
REMARK SMILES CC(C)c1ccc(C(=O)[O-])cc1
REMARK SMILES IDX 7 1 6 2 11 3 5 4 12 5 4 6 8 7 9 8 10 9 2 10 1 11 3 12
REMARK H PARENT
REMARK Flexibility Score: inf
ROOT
ATOM      1  C   UNL     1     -11.721 -36.237 -23.831  1.00  0.00    -0.003 A 
ATOM      2  C   UNL     1     -12.702 -37.037 -24.442  1.00  0.00     0.010 A 
ATOM      3  C   UNL     1     -11.251 -35.101 -24.509  1.00  0.00     0.010 A 
ATOM      4  C   UNL     1     -13.202 -36.705 -25.705  1.00  0.00     0.004 A 
ATOM      5  C   UNL     1     -11.749 -34.769 -25.772  1.00  0.00     0.004 A 
ATOM      6  C   UNL     1     -12.730 -35.567 -26.384  1.00  0.00    -0.045 A 
ENDROOT
BRANCH   1   7
ATOM      7  C   UNL     1     -11.189 -36.585 -22.496  1.00  0.00     0.071 C 
ATOM      8  O   UNL     1     -10.064 -37.140 -22.378  1.00  0.00    -0.545 OA
ATOM      9  O   UNL     1     -11.925 -36.306 -21.349  1.00  0.00    -0.545 OA
ENDBRANCH   1   7
BRANCH   6  10
ATOM     10  C   UNL     1     -13.264 -35.195 -27.755  1.00  0.00     0.013 C 
ATOM     11  C   UNL     1     -14.648 -34.544 -27.652  1.00  0.00     0.012 C 
ATOM     12  C   UNL     1     -12.280 -34.285 -28.502  1.00  0.00     0.012 C 
ENDBRANCH   6  10
TORSDOF 2
ENDMDL
MODEL 9
REMARK VINA RESULT:    -4.593      3.139      5.259
REMARK INTER + INTRA:          -5.337
REMARK INTER:                  -5.128
REMARK INTRA:                  -0.209
REMARK UNBOUND:                -0.207
REMARK SMILES CC(C)c1ccc(C(=O)[O-])cc1
REMARK SMILES IDX 7 1 6 2 11 3 5 4 12 5 4 6 8 7 9 8 10 9 2 10 1 11 3 12
REMARK H PARENT
REMARK Flexibility Score: inf
ROOT
ATOM      1  C   UNL     1     -16.861 -26.130 -18.076  1.00  0.00    -0.003 A 
ATOM      2  C   UNL     1     -15.985 -26.676 -19.030  1.00  0.00     0.010 A 
ATOM      3  C   UNL     1     -16.431 -26.015 -16.744  1.00  0.00     0.010 A 
ATOM      4  C   UNL     1     -14.705 -27.097 -18.658  1.00  0.00     0.004 A 
ATOM      5  C   UNL     1     -15.151 -26.436 -16.372  1.00  0.00     0.004 A 
ATOM      6  C   UNL     1     -14.274 -26.983 -17.324  1.00  0.00    -0.045 A 
ENDROOT
BRANCH   1   7
ATOM      7  C   UNL     1     -18.217 -25.684 -18.465  1.00  0.00     0.071 C 
ATOM      8  O   UNL     1     -18.651 -25.891 -19.630  1.00  0.00    -0.545 OA
ATOM      9  O   UNL     1     -19.032 -25.026 -17.550  1.00  0.00    -0.545 OA
ENDBRANCH   1   7
BRANCH   6  10
ATOM     10  C   UNL     1     -12.888 -27.436 -16.906  1.00  0.00     0.013 C 
ATOM     11  C   UNL     1     -12.824 -28.961 -16.763  1.00  0.00     0.012 C 
ATOM     12  C   UNL     1     -11.822 -26.928 -17.886  1.00  0.00     0.012 C 
ENDBRANCH   6  10
TORSDOF 2
ENDMDL
