MODEL 1
REMARK VINA RESULT:    -1.898      0.000      0.000
REMARK INTER + INTRA:          -1.898
REMARK INTER:                  -1.898
REMARK INTRA:                   0.000
REMARK UNBOUND:                 0.000
REMARK SMILES CC(=O)[O-]
REMARK SMILES IDX 1 1 2 2 3 3 4 4
REMARK H PARENT
REMARK Flexibility Score: inf
ROOT
ATOM      1  C   UNL     1      54.066  21.810  23.519  1.00  0.00     0.063 C 
ATOM      2  C   UNL     1      55.492  21.965  23.111  1.00  0.00     0.038 C 
ATOM      3  O   UNL     1      55.908  23.071  22.675  1.00  0.00    -0.550 OA
ATOM      4  O   UNL     1      56.352  20.875  23.159  1.00  0.00    -0.550 OA
ENDROOT
TORSDOF 0
ENDMDL
MODEL 2
REMARK VINA RESULT:    -1.854      7.028      7.363
REMARK INTER + INTRA:          -1.854
REMARK INTER:                  -1.854
REMARK INTRA:                   0.000
REMARK UNBOUND:                 0.000
REMARK SMILES CC(=O)[O-]
REMARK SMILES IDX 1 1 2 2 3 3 4 4
REMARK H PARENT
REMARK Flexibility Score: inf
ROOT
ATOM      1  C   UNL     1      60.743  21.987  20.522  1.00  0.00     0.063 C 
ATOM      2  C   UNL     1      61.947  22.043  19.644  1.00  0.00     0.038 C 
ATOM      3  O   UNL     1      61.854  22.489  18.471  1.00  0.00    -0.550 OA
ATOM      4  O   UNL     1      63.164  21.551  20.101  1.00  0.00    -0.550 OA
ENDROOT
TORSDOF 0
ENDMDL
MODEL 3
REMARK VINA RESULT:    -1.828      1.913      2.422
REMARK INTER + INTRA:          -1.828
REMARK INTER:                  -1.828
REMARK INTRA:                   0.000
REMARK UNBOUND:                 0.000
REMARK SMILES CC(=O)[O-]
REMARK SMILES IDX 1 1 2 2 3 3 4 4
REMARK H PARENT
REMARK Flexibility Score: inf
ROOT
ATOM      1  C   UNL     1      57.495  20.877  22.816  1.00  0.00     0.063 C 
ATOM      2  C   UNL     1      56.860  22.185  23.148  1.00  0.00     0.038 C 
ATOM      3  O   UNL     1      57.150  22.772  24.224  1.00  0.00    -0.550 OA
ATOM      4  O   UNL     1      55.907  22.731  22.299  1.00  0.00    -0.550 OA
ENDROOT
TORSDOF 0
ENDMDL
MODEL 4
REMARK VINA RESULT:    -1.821      1.849      2.175
REMARK INTER + INTRA:          -1.821
REMARK INTER:                  -1.821
REMARK INTRA:                   0.000
REMARK UNBOUND:                 0.000
REMARK SMILES CC(=O)[O-]
REMARK SMILES IDX 1 1 2 2 3 3 4 4
REMARK H PARENT
REMARK Flexibility Score: inf
ROOT
ATOM      1  C   UNL     1      57.182  20.875  22.754  1.00  0.00     0.063 C 
ATOM      2  C   UNL     1      56.735  22.232  23.182  1.00  0.00     0.038 C 
ATOM      3  O   UNL     1      55.869  22.852  22.511  1.00  0.00    -0.550 OA
ATOM      4  O   UNL     1      57.312  22.837  24.292  1.00  0.00    -0.550 OA
ENDROOT
TORSDOF 0
ENDMDL
MODEL 5
REMARK VINA RESULT:    -1.784      6.777      7.154
REMARK INTER + INTRA:          -1.784
REMARK INTER:                  -1.784
REMARK INTRA:                   0.000
REMARK UNBOUND:                 0.000
REMARK SMILES CC(=O)[O-]
REMARK SMILES IDX 1 1 2 2 3 3 4 4
REMARK H PARENT
REMARK Flexibility Score: inf
ROOT
ATOM      1  C   UNL     1      60.535  21.992  20.733  1.00  0.00     0.063 C 
ATOM      2  C   UNL     1      61.813  22.291  20.024  1.00  0.00     0.038 C 
ATOM      3  O   UNL     1      62.868  22.492  20.681  1.00  0.00    -0.550 OA
ATOM      4  O   UNL     1      61.830  22.404  18.639  1.00  0.00    -0.550 OA
ENDROOT
TORSDOF 0
ENDMDL
MODEL 6
REMARK VINA RESULT:    -1.778      6.397      6.944
REMARK INTER + INTRA:          -1.778
REMARK INTER:                  -1.778
REMARK INTRA:                   0.000
REMARK UNBOUND:                 0.000
REMARK SMILES CC(=O)[O-]
REMARK SMILES IDX 1 1 2 2 3 3 4 4
REMARK H PARENT
REMARK Flexibility Score: inf
ROOT
ATOM      1  C   UNL     1      61.913  22.231  18.845  1.00  0.00     0.063 C 
ATOM      2  C   UNL     1      61.351  22.289  20.225  1.00  0.00     0.038 C 
ATOM      3  O   UNL     1      60.363  21.573  20.535  1.00  0.00    -0.550 OA
ATOM      4  O   UNL     1      61.880  23.175  21.156  1.00  0.00    -0.550 OA
ENDROOT
TORSDOF 0
ENDMDL
MODEL 7
REMARK VINA RESULT:    -1.733      1.820      2.100
REMARK INTER + INTRA:          -1.733
REMARK INTER:                  -1.733
REMARK INTRA:                   0.000
REMARK UNBOUND:                 0.000
REMARK SMILES CC(=O)[O-]
REMARK SMILES IDX 1 1 2 2 3 3 4 4
REMARK H PARENT
REMARK Flexibility Score: inf
ROOT
ATOM      1  C   UNL     1      55.648  22.007  23.200  1.00  0.00     0.063 C 
ATOM      2  C   UNL     1      57.045  22.499  23.375  1.00  0.00     0.038 C 
ATOM      3  O   UNL     1      57.872  22.402  22.430  1.00  0.00    -0.550 OA
ATOM      4  O   UNL     1      57.453  23.015  24.598  1.00  0.00    -0.550 OA
ENDROOT
TORSDOF 0
ENDMDL
MODEL 8
REMARK VINA RESULT:    -1.669      2.425      2.939
REMARK INTER + INTRA:          -1.669
REMARK INTER:                  -1.669
REMARK INTRA:                   0.000
REMARK UNBOUND:                 0.000
REMARK SMILES CC(=O)[O-]
REMARK SMILES IDX 1 1 2 2 3 3 4 4
REMARK H PARENT
REMARK Flexibility Score: inf
ROOT
ATOM      1  C   UNL     1      58.365  22.404  22.750  1.00  0.00     0.063 C 
ATOM      2  C   UNL     1      57.389  22.664  23.847  1.00  0.00     0.038 C 
ATOM      3  O   UNL     1      57.756  23.271  24.887  1.00  0.00    -0.550 OA
ATOM      4  O   UNL     1      56.088  22.188  23.749  1.00  0.00    -0.550 OA
ENDROOT
TORSDOF 0
ENDMDL
MODEL 9
REMARK VINA RESULT:    -1.587      4.393      4.959
REMARK INTER + INTRA:          -1.587
REMARK INTER:                  -1.587
REMARK INTRA:                   0.000
REMARK UNBOUND:                 0.000
REMARK SMILES CC(=O)[O-]
REMARK SMILES IDX 1 1 2 2 3 3 4 4
REMARK H PARENT
REMARK Flexibility Score: inf
ROOT
ATOM      1  C   UNL     1      60.421  21.974  20.890  1.00  0.00     0.063 C 
ATOM      2  C   UNL     1      59.746  22.636  22.043  1.00  0.00     0.038 C 
ATOM      3  O   UNL     1      58.524  22.426  22.266  1.00  0.00    -0.550 OA
ATOM      4  O   UNL     1      60.449  23.529  22.842  1.00  0.00    -0.550 OA
ENDROOT
TORSDOF 0
ENDMDL
