MODEL 1
REMARK VINA RESULT:    -4.882      0.000      0.000
REMARK INTER + INTRA:          -5.590
REMARK INTER:                  -5.167
REMARK INTRA:                  -0.422
REMARK UNBOUND:                -0.422
REMARK SMILES CC1=CC[C@@H]2[C@H]3[C@H](C(C)C)CC[C@]2(C)[C@@H]13
REMARK SMILES IDX 1 1 2 2 3 3 4 4 5 5 6 6 15 7 13 8 12 9 11 10 7 11 14 12 8 13
REMARK SMILES IDX 9 14 10 15
REMARK H PARENT
REMARK Flexibility Score: inf
ROOT
ATOM      1  C   UNL     1     137.931 136.213 136.633  1.00  0.00     0.039 C 
ATOM      2  C   UNL     1     138.208 137.584 136.092  1.00  0.00    -0.073 C 
ATOM      3  C   UNL     1     139.392 138.208 136.329  1.00  0.00    -0.027 C 
ATOM      4  C   UNL     1     139.628 139.600 135.732  1.00  0.00     0.031 C 
ATOM      5  C   UNL     1     138.361 140.077 134.946  1.00  0.00     0.003 C 
ATOM      6  C   UNL     1     137.127 139.790 135.833  1.00  0.00     0.004 C 
ATOM      7  C   UNL     1     137.169 138.349 135.268  1.00  0.00     0.024 C 
ATOM      8  C   UNL     1     137.831 138.967 134.009  1.00  0.00    -0.022 C 
ATOM      9  C   UNL     1     136.762 139.587 133.065  1.00  0.00     0.008 C 
ATOM     10  C   UNL     1     135.554 140.169 133.842  1.00  0.00     0.005 C 
ATOM     11  C   UNL     1     135.892 140.590 135.311  1.00  0.00    -0.005 C 
ATOM     12  C   UNL     1     138.848 138.121 133.208  1.00  0.00     0.012 C 
ENDROOT
BRANCH  11  13
ATOM     13  C   UNL     1     134.646 140.451 136.244  1.00  0.00    -0.014 C 
ATOM     14  C   UNL     1     133.581 139.499 135.664  1.00  0.00     0.007 C 
ATOM     15  C   UNL     1     135.050 139.944 137.641  1.00  0.00     0.007 C 
ENDBRANCH  11  13
TORSDOF 1
ENDMDL
MODEL 2
REMARK VINA RESULT:    -4.872      3.261      5.053
REMARK INTER + INTRA:          -5.579
REMARK INTER:                  -5.156
REMARK INTRA:                  -0.423
REMARK UNBOUND:                -0.422
REMARK SMILES CC1=CC[C@@H]2[C@H]3[C@H](C(C)C)CC[C@]2(C)[C@@H]13
REMARK SMILES IDX 1 1 2 2 3 3 4 4 5 5 6 6 15 7 13 8 12 9 11 10 7 11 14 12 8 13
REMARK SMILES IDX 9 14 10 15
REMARK H PARENT
REMARK Flexibility Score: inf
ROOT
ATOM      1  C   UNL     1     136.191 134.622 136.468  1.00  0.00     0.039 C 
ATOM      2  C   UNL     1     137.588 134.392 135.975  1.00  0.00    -0.073 C 
ATOM      3  C   UNL     1     138.229 133.215 136.197  1.00  0.00    -0.027 C 
ATOM      4  C   UNL     1     139.649 133.030 135.651  1.00  0.00     0.031 C 
ATOM      5  C   UNL     1     140.128 134.333 134.927  1.00  0.00     0.003 C 
ATOM      6  C   UNL     1     139.778 135.529 135.842  1.00  0.00     0.004 C 
ATOM      7  C   UNL     1     138.362 135.476 135.218  1.00  0.00     0.024 C 
ATOM      8  C   UNL     1     139.045 134.871 133.964  1.00  0.00    -0.022 C 
ATOM      9  C   UNL     1     139.678 135.985 133.082  1.00  0.00     0.008 C 
ATOM     10  C   UNL     1     140.200 137.178 133.922  1.00  0.00     0.005 C 
ATOM     11  C   UNL     1     140.570 136.798 135.395  1.00  0.00    -0.005 C 
ATOM     12  C   UNL     1     138.255 133.864 133.095  1.00  0.00     0.012 C 
ENDROOT
BRANCH  11  13
ATOM     13  C   UNL     1     140.365 138.008 136.362  1.00  0.00    -0.014 C 
ATOM     14  C   UNL     1     139.404 139.066 135.785  1.00  0.00     0.007 C 
ATOM     15  C   UNL     1     139.824 137.545 137.728  1.00  0.00     0.007 C 
ENDBRANCH  11  13
TORSDOF 1
ENDMDL
MODEL 3
REMARK VINA RESULT:    -4.862      3.233      4.999
REMARK INTER + INTRA:          -5.569
REMARK INTER:                  -5.137
REMARK INTRA:                  -0.432
REMARK UNBOUND:                -0.422
REMARK SMILES CC1=CC[C@@H]2[C@H]3[C@H](C(C)C)CC[C@]2(C)[C@@H]13
REMARK SMILES IDX 1 1 2 2 3 3 4 4 5 5 6 6 15 7 13 8 12 9 11 10 7 11 14 12 8 13
REMARK SMILES IDX 9 14 10 15
REMARK H PARENT
REMARK Flexibility Score: inf
ROOT
ATOM      1  C   UNL     1     136.539 137.700 136.418  1.00  0.00     0.039 C 
ATOM      2  C   UNL     1     135.161 138.130 136.010  1.00  0.00    -0.073 C 
ATOM      3  C   UNL     1     134.638 139.311 136.433  1.00  0.00    -0.027 C 
ATOM      4  C   UNL     1     133.232 139.707 135.967  1.00  0.00     0.031 C 
ATOM      5  C   UNL     1     132.621 138.584 135.064  1.00  0.00     0.003 C 
ATOM      6  C   UNL     1     132.873 137.231 135.770  1.00  0.00     0.004 C 
ATOM      7  C   UNL     1     134.276 137.255 135.118  1.00  0.00     0.024 C 
ATOM      8  C   UNL     1     133.632 138.109 133.995  1.00  0.00    -0.022 C 
ATOM      9  C   UNL     1     132.883 137.211 132.971  1.00  0.00     0.008 C 
ATOM     10  C   UNL     1     132.265 135.953 133.630  1.00  0.00     0.005 C 
ATOM     11  C   UNL     1     131.957 136.126 135.155  1.00  0.00    -0.005 C 
ATOM     12  C   UNL     1     134.499 139.166 133.270  1.00  0.00     0.012 C 
ENDROOT
BRANCH  11  13
ATOM     13  C   UNL     1     132.064 134.764 135.915  1.00  0.00    -0.014 C 
ATOM     14  C   UNL     1     132.952 133.746 135.175  1.00  0.00     0.007 C 
ATOM     15  C   UNL     1     132.621 134.962 137.337  1.00  0.00     0.007 C 
ENDBRANCH  11  13
TORSDOF 1
ENDMDL
MODEL 4
REMARK VINA RESULT:    -4.859      4.600      7.225
REMARK INTER + INTRA:          -5.566
REMARK INTER:                  -5.135
REMARK INTRA:                  -0.431
REMARK UNBOUND:                -0.422
REMARK SMILES CC1=CC[C@@H]2[C@H]3[C@H](C(C)C)CC[C@]2(C)[C@@H]13
REMARK SMILES IDX 1 1 2 2 3 3 4 4 5 5 6 6 15 7 13 8 12 9 11 10 7 11 14 12 8 13
REMARK SMILES IDX 9 14 10 15
REMARK H PARENT
REMARK Flexibility Score: inf
ROOT
ATOM      1  C   UNL     1     135.028 136.550 136.401  1.00  0.00     0.039 C 
ATOM      2  C   UNL     1     134.587 135.176 135.992  1.00  0.00    -0.073 C 
ATOM      3  C   UNL     1     133.407 134.658 136.420  1.00  0.00    -0.027 C 
ATOM      4  C   UNL     1     132.999 133.256 135.952  1.00  0.00     0.031 C 
ATOM      5  C   UNL     1     134.113 132.642 135.039  1.00  0.00     0.003 C 
ATOM      6  C   UNL     1     135.472 132.884 135.737  1.00  0.00     0.004 C 
ATOM      7  C   UNL     1     135.452 134.290 135.090  1.00  0.00     0.024 C 
ATOM      8  C   UNL     1     134.586 133.655 133.971  1.00  0.00    -0.022 C 
ATOM      9  C   UNL     1     135.474 132.905 132.938  1.00  0.00     0.008 C 
ATOM     10  C   UNL     1     136.733 132.277 133.586  1.00  0.00     0.005 C 
ATOM     11  C   UNL     1     136.568 131.965 135.111  1.00  0.00    -0.005 C 
ATOM     12  C   UNL     1     133.530 134.531 133.256  1.00  0.00     0.012 C 
ENDROOT
BRANCH  11  13
ATOM     13  C   UNL     1     137.935 132.060 135.863  1.00  0.00    -0.014 C 
ATOM     14  C   UNL     1     138.955 132.941 135.116  1.00  0.00     0.007 C 
ATOM     15  C   UNL     1     137.751 132.619 137.286  1.00  0.00     0.007 C 
ENDBRANCH  11  13
TORSDOF 1
ENDMDL
MODEL 5
REMARK VINA RESULT:    -4.805      3.794      6.202
REMARK INTER + INTRA:          -5.508
REMARK INTER:                  -5.245
REMARK INTRA:                  -0.263
REMARK UNBOUND:                -0.422
REMARK SMILES CC1=CC[C@@H]2[C@H]3[C@H](C(C)C)CC[C@]2(C)[C@@H]13
REMARK SMILES IDX 1 1 2 2 3 3 4 4 5 5 6 6 15 7 13 8 12 9 11 10 7 11 14 12 8 13
REMARK SMILES IDX 9 14 10 15
REMARK H PARENT
REMARK Flexibility Score: inf
ROOT
ATOM      1  C   UNL     1     134.938 134.487 136.413  1.00  0.00     0.039 C 
ATOM      2  C   UNL     1     136.293 134.164 136.970  1.00  0.00    -0.073 C 
ATOM      3  C   UNL     1     136.444 133.728 138.248  1.00  0.00    -0.027 C 
ATOM      4  C   UNL     1     137.851 133.392 138.755  1.00  0.00     0.031 C 
ATOM      5  C   UNL     1     138.912 133.669 137.638  1.00  0.00     0.003 C 
ATOM      6  C   UNL     1     138.596 135.055 137.029  1.00  0.00     0.004 C 
ATOM      7  C   UNL     1     137.565 134.325 136.133  1.00  0.00     0.024 C 
ATOM      8  C   UNL     1     138.469 133.074 136.282  1.00  0.00    -0.022 C 
ATOM      9  C   UNL     1     139.672 133.135 135.298  1.00  0.00     0.008 C 
ATOM     10  C   UNL     1     140.154 134.586 135.045  1.00  0.00     0.005 C 
ATOM     11  C   UNL     1     139.821 135.575 136.211  1.00  0.00    -0.005 C 
ATOM     12  C   UNL     1     137.814 131.673 136.262  1.00  0.00     0.012 C 
ENDROOT
BRANCH  11  13
ATOM     13  C   UNL     1     139.617 137.031 135.682  1.00  0.00    -0.014 C 
ATOM     14  C   UNL     1     140.682 138.006 136.220  1.00  0.00     0.007 C 
ATOM     15  C   UNL     1     139.645 137.073 134.142  1.00  0.00     0.007 C 
ENDBRANCH  11  13
TORSDOF 1
ENDMDL
MODEL 6
REMARK VINA RESULT:    -4.804      1.286      2.610
REMARK INTER + INTRA:          -5.508
REMARK INTER:                  -5.232
REMARK INTRA:                  -0.275
REMARK UNBOUND:                -0.422
REMARK SMILES CC1=CC[C@@H]2[C@H]3[C@H](C(C)C)CC[C@]2(C)[C@@H]13
REMARK SMILES IDX 1 1 2 2 3 3 4 4 5 5 6 6 15 7 13 8 12 9 11 10 7 11 14 12 8 13
REMARK SMILES IDX 9 14 10 15
REMARK H PARENT
REMARK Flexibility Score: inf
ROOT
ATOM      1  C   UNL     1     138.197 134.895 136.368  1.00  0.00     0.039 C 
ATOM      2  C   UNL     1     138.511 136.239 136.956  1.00  0.00    -0.073 C 
ATOM      3  C   UNL     1     138.968 136.362 138.229  1.00  0.00    -0.027 C 
ATOM      4  C   UNL     1     139.294 137.759 138.768  1.00  0.00     0.031 C 
ATOM      5  C   UNL     1     138.982 138.846 137.686  1.00  0.00     0.003 C 
ATOM      6  C   UNL     1     137.589 138.526 137.094  1.00  0.00     0.004 C 
ATOM      7  C   UNL     1     138.316 137.531 136.157  1.00  0.00     0.024 C 
ATOM      8  C   UNL     1     139.558 138.449 136.308  1.00  0.00    -0.022 C 
ATOM      9  C   UNL     1     139.461 139.677 135.359  1.00  0.00     0.008 C 
ATOM     10  C   UNL     1     138.000 140.145 135.145  1.00  0.00     0.005 C 
ATOM     11  C   UNL     1     137.037 139.765 136.320  1.00  0.00    -0.005 C 
ATOM     12  C   UNL     1     140.967 137.814 136.245  1.00  0.00     0.012 C 
ENDROOT
BRANCH  11  13
ATOM     13  C   UNL     1     135.574 139.555 135.811  1.00  0.00    -0.014 C 
ATOM     14  C   UNL     1     134.632 140.694 136.247  1.00  0.00     0.007 C 
ATOM     15  C   UNL     1     135.529 139.439 134.276  1.00  0.00     0.007 C 
ENDBRANCH  11  13
TORSDOF 1
ENDMDL
MODEL 7
REMARK VINA RESULT:    -4.785      4.390      7.196
REMARK INTER + INTRA:          -5.487
REMARK INTER:                  -5.207
REMARK INTRA:                  -0.280
REMARK UNBOUND:                -0.422
REMARK SMILES CC1=CC[C@@H]2[C@H]3[C@H](C(C)C)CC[C@]2(C)[C@@H]13
REMARK SMILES IDX 1 1 2 2 3 3 4 4 5 5 6 6 15 7 13 8 12 9 11 10 7 11 14 12 8 13
REMARK SMILES IDX 9 14 10 15
REMARK H PARENT
REMARK Flexibility Score: inf
ROOT
ATOM      1  C   UNL     1     134.544 137.720 136.669  1.00  0.00     0.039 C 
ATOM      2  C   UNL     1     134.193 136.349 137.166  1.00  0.00    -0.073 C 
ATOM      3  C   UNL     1     133.700 136.158 138.418  1.00  0.00    -0.027 C 
ATOM      4  C   UNL     1     133.338 134.737 138.863  1.00  0.00     0.031 C 
ATOM      5  C   UNL     1     133.661 133.711 137.725  1.00  0.00     0.003 C 
ATOM      6  C   UNL     1     135.073 134.041 137.188  1.00  0.00     0.004 C 
ATOM      7  C   UNL     1     134.387 135.104 136.296  1.00  0.00     0.024 C 
ATOM      8  C   UNL     1     133.128 134.201 136.359  1.00  0.00    -0.022 C 
ATOM      9  C   UNL     1     133.229 133.031 135.340  1.00  0.00     0.008 C 
ATOM     10  C   UNL     1     134.688 132.551 135.135  1.00  0.00     0.005 C 
ATOM     11  C   UNL     1     135.626 132.842 136.355  1.00  0.00    -0.005 C 
ATOM     12  C   UNL     1     131.731 134.863 136.299  1.00  0.00     0.012 C 
ENDROOT
BRANCH  11  13
ATOM     13  C   UNL     1     137.105 133.056 135.898  1.00  0.00    -0.014 C 
ATOM     14  C   UNL     1     137.999 131.842 136.214  1.00  0.00     0.007 C 
ATOM     15  C   UNL     1     137.184 133.345 134.386  1.00  0.00     0.007 C 
ENDBRANCH  11  13
TORSDOF 1
ENDMDL
MODEL 8
REMARK VINA RESULT:    -4.749      2.502      4.521
REMARK INTER + INTRA:          -5.449
REMARK INTER:                  -5.144
REMARK INTRA:                  -0.305
REMARK UNBOUND:                -0.422
REMARK SMILES CC1=CC[C@@H]2[C@H]3[C@H](C(C)C)CC[C@]2(C)[C@@H]13
REMARK SMILES IDX 1 1 2 2 3 3 4 4 5 5 6 6 15 7 13 8 12 9 11 10 7 11 14 12 8 13
REMARK SMILES IDX 9 14 10 15
REMARK H PARENT
REMARK Flexibility Score: inf
ROOT
ATOM      1  C   UNL     1     137.836 138.184 136.602  1.00  0.00     0.039 C 
ATOM      2  C   UNL     1     136.477 138.514 137.145  1.00  0.00    -0.073 C 
ATOM      3  C   UNL     1     136.324 139.035 138.390  1.00  0.00    -0.027 C 
ATOM      4  C   UNL     1     134.912 139.373 138.884  1.00  0.00     0.031 C 
ATOM      5  C   UNL     1     133.851 138.993 137.797  1.00  0.00     0.003 C 
ATOM      6  C   UNL     1     134.196 137.576 137.285  1.00  0.00     0.004 C 
ATOM      7  C   UNL     1     135.203 138.264 136.332  1.00  0.00     0.024 C 
ATOM      8  C   UNL     1     134.271 139.502 136.399  1.00  0.00    -0.022 C 
ATOM      9  C   UNL     1     133.064 139.343 135.432  1.00  0.00     0.008 C 
ATOM     10  C   UNL     1     132.614 137.868 135.285  1.00  0.00     0.005 C 
ATOM     11  C   UNL     1     132.979 136.971 136.515  1.00  0.00    -0.005 C 
ATOM     12  C   UNL     1     134.893 140.913 136.276  1.00  0.00     0.012 C 
ENDROOT
BRANCH  11  13
ATOM     13  C   UNL     1     133.213 135.486 136.088  1.00  0.00    -0.014 C 
ATOM     14  C   UNL     1     134.276 134.786 136.956  1.00  0.00     0.007 C 
ATOM     15  C   UNL     1     131.907 134.673 136.159  1.00  0.00     0.007 C 
ENDBRANCH  11  13
TORSDOF 1
ENDMDL
MODEL 9
REMARK VINA RESULT:    -4.640      2.780      5.402
REMARK INTER + INTRA:          -5.333
REMARK INTER:                  -5.051
REMARK INTRA:                  -0.282
REMARK UNBOUND:                -0.422
REMARK SMILES CC1=CC[C@@H]2[C@H]3[C@H](C(C)C)CC[C@]2(C)[C@@H]13
REMARK SMILES IDX 1 1 2 2 3 3 4 4 5 5 6 6 15 7 13 8 12 9 11 10 7 11 14 12 8 13
REMARK SMILES IDX 9 14 10 15
REMARK H PARENT
REMARK Flexibility Score: inf
ROOT
ATOM      1  C   UNL     1     139.681 137.553 139.516  1.00  0.00     0.039 C 
ATOM      2  C   UNL     1     139.101 137.375 138.144  1.00  0.00    -0.073 C 
ATOM      3  C   UNL     1     138.118 138.192 137.684  1.00  0.00    -0.027 C 
ATOM      4  C   UNL     1     137.579 137.976 136.265  1.00  0.00     0.031 C 
ATOM      5  C   UNL     1     138.289 136.753 135.594  1.00  0.00     0.003 C 
ATOM      6  C   UNL     1     138.303 135.600 136.624  1.00  0.00     0.004 C 
ATOM      7  C   UNL     1     139.575 136.259 137.209  1.00  0.00     0.024 C 
ATOM      8  C   UNL     1     139.822 136.819 135.784  1.00  0.00    -0.022 C 
ATOM      9  C   UNL     1     140.481 135.747 134.870  1.00  0.00     0.008 C 
ATOM     10  C   UNL     1     140.021 134.309 135.220  1.00  0.00     0.005 C 
ATOM     11  C   UNL     1     138.618 134.246 135.911  1.00  0.00    -0.005 C 
ATOM     12  C   UNL     1     140.533 138.184 135.631  1.00  0.00     0.012 C 
ENDROOT
BRANCH  11  13
ATOM     13  C   UNL     1     138.512 133.019 136.873  1.00  0.00    -0.014 C 
ATOM     14  C   UNL     1     137.773 133.361 138.181  1.00  0.00     0.007 C 
ATOM     15  C   UNL     1     137.792 131.839 136.195  1.00  0.00     0.007 C 
ENDBRANCH  11  13
TORSDOF 1
ENDMDL
