MODEL 1
REMARK VINA RESULT:    -3.054      0.000      0.000
REMARK INTER + INTRA:          -3.538
REMARK INTER:                  -3.411
REMARK INTRA:                  -0.127
REMARK UNBOUND:                -0.127
REMARK SMILES O=C([O-])C=Cc1ccccc1
REMARK SMILES IDX 4 1 5 2 2 3 1 4 3 5 6 6 7 7 11 8 8 9 10 10 9 11
REMARK H PARENT
REMARK Flexibility Score: inf
ROOT
ATOM      1  C   UNL     1      -0.162  12.848  -6.879  1.00  0.00     0.025 C 
ATOM      2  C   UNL     1       0.344  13.671  -5.948  1.00  0.00     0.010 C 
ENDROOT
BRANCH   1   3
ATOM      3  C   UNL     1      -0.209  13.221  -8.303  1.00  0.00     0.064 C 
ATOM      4  O   UNL     1      -1.271  13.050  -8.954  1.00  0.00    -0.545 OA
ATOM      5  O   UNL     1       0.902  13.762  -8.940  1.00  0.00    -0.545 OA
ENDBRANCH   1   3
BRANCH   2   6
ATOM      6  C   UNL     1       0.426  13.362  -4.495  1.00  0.00    -0.026 A 
ATOM      7  C   UNL     1      -0.633  13.596  -3.590  1.00  0.00     0.008 A 
ATOM      8  C   UNL     1       1.622  12.809  -4.002  1.00  0.00     0.008 A 
ATOM      9  C   UNL     1      -0.488  13.283  -2.234  1.00  0.00     0.001 A 
ATOM     10  C   UNL     1       1.760  12.498  -2.646  1.00  0.00     0.001 A 
ATOM     11  C   UNL     1       0.706  12.734  -1.763  1.00  0.00     0.000 A 
ENDBRANCH   2   6
TORSDOF 2
ENDMDL
MODEL 2
REMARK VINA RESULT:    -3.025      0.261      1.760
REMARK INTER + INTRA:          -3.506
REMARK INTER:                  -3.370
REMARK INTRA:                  -0.136
REMARK UNBOUND:                -0.127
REMARK SMILES O=C([O-])C=Cc1ccccc1
REMARK SMILES IDX 4 1 5 2 2 3 1 4 3 5 6 6 7 7 11 8 8 9 10 10 9 11
REMARK H PARENT
REMARK Flexibility Score: inf
ROOT
ATOM      1  C   UNL     1      -0.230  12.936  -6.962  1.00  0.00     0.025 C 
ATOM      2  C   UNL     1       0.646  13.483  -6.105  1.00  0.00     0.010 C 
ENDROOT
BRANCH   1   3
ATOM      3  C   UNL     1      -0.172  13.206  -8.408  1.00  0.00     0.064 C 
ATOM      4  O   UNL     1       0.935  13.463  -8.948  1.00  0.00    -0.545 OA
ATOM      5  O   UNL     1      -1.322  13.178  -9.190  1.00  0.00    -0.545 OA
ENDBRANCH   1   3
BRANCH   2   6
ATOM      6  C   UNL     1       0.650  13.256  -4.634  1.00  0.00    -0.026 A 
ATOM      7  C   UNL     1       1.757  12.731  -3.933  1.00  0.00     0.008 A 
ATOM      8  C   UNL     1      -0.511  13.582  -3.910  1.00  0.00     0.008 A 
ATOM      9  C   UNL     1       1.693  12.541  -2.548  1.00  0.00     0.001 A 
ATOM     10  C   UNL     1      -0.568  13.391  -2.527  1.00  0.00     0.001 A 
ATOM     11  C   UNL     1       0.533  12.871  -1.846  1.00  0.00     0.000 A 
ENDBRANCH   2   6
TORSDOF 2
ENDMDL
MODEL 3
REMARK VINA RESULT:    -2.928      0.944      1.880
REMARK INTER + INTRA:          -3.398
REMARK INTER:                  -3.253
REMARK INTRA:                  -0.144
REMARK UNBOUND:                -0.127
REMARK SMILES O=C([O-])C=Cc1ccccc1
REMARK SMILES IDX 4 1 5 2 2 3 1 4 3 5 6 6 7 7 11 8 8 9 10 10 9 11
REMARK H PARENT
REMARK Flexibility Score: inf
ROOT
ATOM      1  C   UNL     1      -0.314  13.256  -5.918  1.00  0.00     0.025 C 
ATOM      2  C   UNL     1       0.573  13.296  -4.912  1.00  0.00     0.010 C 
ENDROOT
BRANCH   1   3
ATOM      3  C   UNL     1       0.102  13.374  -7.325  1.00  0.00     0.064 C 
ATOM      4  O   UNL     1      -0.730  13.144  -8.240  1.00  0.00    -0.545 OA
ATOM      5  O   UNL     1       1.401  13.740  -7.661  1.00  0.00    -0.545 OA
ENDBRANCH   1   3
BRANCH   2   6
ATOM      6  C   UNL     1       0.227  13.181  -3.469  1.00  0.00    -0.026 A 
ATOM      7  C   UNL     1       1.148  12.774  -2.479  1.00  0.00     0.008 A 
ATOM      8  C   UNL     1      -1.087  13.494  -3.076  1.00  0.00     0.008 A 
ATOM      9  C   UNL     1       0.755  12.686  -1.139  1.00  0.00     0.001 A 
ATOM     10  C   UNL     1      -1.473  13.405  -1.736  1.00  0.00     0.001 A 
ATOM     11  C   UNL     1      -0.552  13.001  -0.767  1.00  0.00     0.000 A 
ENDBRANCH   2   6
TORSDOF 2
ENDMDL
MODEL 4
REMARK VINA RESULT:    -2.919      1.502      2.099
REMARK INTER + INTRA:          -3.388
REMARK INTER:                  -3.260
REMARK INTRA:                  -0.128
REMARK UNBOUND:                -0.127
REMARK SMILES O=C([O-])C=Cc1ccccc1
REMARK SMILES IDX 4 1 5 2 2 3 1 4 3 5 6 6 7 7 11 8 8 9 10 10 9 11
REMARK H PARENT
REMARK Flexibility Score: inf
ROOT
ATOM      1  C   UNL     1      -0.200  13.282  -6.240  1.00  0.00     0.025 C 
ATOM      2  C   UNL     1       0.428  13.532  -5.081  1.00  0.00     0.010 C 
ENDROOT
BRANCH   1   3
ATOM      3  C   UNL     1       0.533  12.865  -7.446  1.00  0.00     0.064 C 
ATOM      4  O   UNL     1       0.275  13.412  -8.549  1.00  0.00    -0.545 OA
ATOM      5  O   UNL     1       1.509  11.877  -7.388  1.00  0.00    -0.545 OA
ENDBRANCH   1   3
BRANCH   2   6
ATOM      6  C   UNL     1      -0.245  13.954  -3.823  1.00  0.00    -0.026 A 
ATOM      7  C   UNL     1      -1.251  13.194  -3.187  1.00  0.00     0.008 A 
ATOM      8  C   UNL     1       0.143  15.176  -3.242  1.00  0.00     0.008 A 
ATOM      9  C   UNL     1      -1.844  13.652  -2.006  1.00  0.00     0.001 A 
ATOM     10  C   UNL     1      -0.454  15.626  -2.061  1.00  0.00     0.001 A 
ATOM     11  C   UNL     1      -1.447  14.865  -1.443  1.00  0.00     0.000 A 
ENDBRANCH   2   6
TORSDOF 2
ENDMDL
MODEL 5
REMARK VINA RESULT:    -2.909      1.572      2.154
REMARK INTER + INTRA:          -3.377
REMARK INTER:                  -3.242
REMARK INTRA:                  -0.135
REMARK UNBOUND:                -0.127
REMARK SMILES O=C([O-])C=Cc1ccccc1
REMARK SMILES IDX 4 1 5 2 2 3 1 4 3 5 6 6 7 7 11 8 8 9 10 10 9 11
REMARK H PARENT
REMARK Flexibility Score: inf
ROOT
ATOM      1  C   UNL     1      -0.155  13.253  -6.467  1.00  0.00     0.025 C 
ATOM      2  C   UNL     1       0.559  13.655  -5.403  1.00  0.00     0.010 C 
ENDROOT
BRANCH   1   3
ATOM      3  C   UNL     1       0.491  12.826  -7.719  1.00  0.00     0.064 C 
ATOM      4  O   UNL     1       0.891  13.693  -8.538  1.00  0.00    -0.545 OA
ATOM      5  O   UNL     1       0.668  11.479  -8.011  1.00  0.00    -0.545 OA
ENDBRANCH   1   3
BRANCH   2   6
ATOM      6  C   UNL     1      -0.023  14.098  -4.108  1.00  0.00    -0.026 A 
ATOM      7  C   UNL     1       0.322  15.312  -3.475  1.00  0.00     0.008 A 
ATOM      8  C   UNL     1      -0.965  13.259  -3.483  1.00  0.00     0.008 A 
ATOM      9  C   UNL     1      -0.263  15.667  -2.255  1.00  0.00     0.001 A 
ATOM     10  C   UNL     1      -1.547  13.620  -2.265  1.00  0.00     0.001 A 
ATOM     11  C   UNL     1      -1.197  14.824  -1.651  1.00  0.00     0.000 A 
ENDBRANCH   2   6
TORSDOF 2
ENDMDL
MODEL 6
REMARK VINA RESULT:    -2.808      4.511      5.853
REMARK INTER + INTRA:          -3.264
REMARK INTER:                  -3.132
REMARK INTRA:                  -0.132
REMARK UNBOUND:                -0.127
REMARK SMILES O=C([O-])C=Cc1ccccc1
REMARK SMILES IDX 4 1 5 2 2 3 1 4 3 5 6 6 7 7 11 8 8 9 10 10 9 11
REMARK H PARENT
REMARK Flexibility Score: inf
ROOT
ATOM      1  C   UNL     1      -2.326  14.329  -1.301  1.00  0.00     0.025 C 
ATOM      2  C   UNL     1      -1.573  13.568  -2.111  1.00  0.00     0.010 C 
ENDROOT
BRANCH   1   3
ATOM      3  C   UNL     1      -3.237  13.739  -0.307  1.00  0.00     0.064 C 
ATOM      4  O   UNL     1      -2.889  12.704   0.316  1.00  0.00    -0.545 OA
ATOM      5  O   UNL     1      -4.477  14.309  -0.042  1.00  0.00    -0.545 OA
ENDBRANCH   1   3
BRANCH   2   6
ATOM      6  C   UNL     1      -0.631  14.093  -3.136  1.00  0.00    -0.026 A 
ATOM      7  C   UNL     1       0.041  15.329  -3.013  1.00  0.00     0.008 A 
ATOM      8  C   UNL     1      -0.403  13.315  -4.286  1.00  0.00     0.008 A 
ATOM      9  C   UNL     1       0.914  15.763  -4.017  1.00  0.00     0.001 A 
ATOM     10  C   UNL     1       0.470  13.755  -5.285  1.00  0.00     0.001 A 
ATOM     11  C   UNL     1       1.129  14.978  -5.150  1.00  0.00     0.000 A 
ENDBRANCH   2   6
TORSDOF 2
ENDMDL
MODEL 7
REMARK VINA RESULT:    -2.801      3.116      4.364
REMARK INTER + INTRA:          -3.256
REMARK INTER:                  -3.123
REMARK INTRA:                  -0.133
REMARK UNBOUND:                -0.127
REMARK SMILES O=C([O-])C=Cc1ccccc1
REMARK SMILES IDX 4 1 5 2 2 3 1 4 3 5 6 6 7 7 11 8 8 9 10 10 9 11
REMARK H PARENT
REMARK Flexibility Score: inf
ROOT
ATOM      1  C   UNL     1       1.422  13.073  -2.936  1.00  0.00     0.025 C 
ATOM      2  C   UNL     1       0.147  13.277  -3.300  1.00  0.00     0.010 C 
ENDROOT
BRANCH   1   3
ATOM      3  C   UNL     1       2.322  12.205  -3.713  1.00  0.00     0.064 C 
ATOM      4  O   UNL     1       2.537  12.462  -4.926  1.00  0.00    -0.545 OA
ATOM      5  O   UNL     1       2.941  11.105  -3.129  1.00  0.00    -0.545 OA
ENDBRANCH   1   3
BRANCH   2   6
ATOM      6  C   UNL     1      -0.818  14.140  -2.567  1.00  0.00    -0.026 A 
ATOM      7  C   UNL     1      -1.978  13.643  -1.932  1.00  0.00     0.008 A 
ATOM      8  C   UNL     1      -0.558  15.522  -2.506  1.00  0.00     0.008 A 
ATOM      9  C   UNL     1      -2.844  14.512  -1.260  1.00  0.00     0.001 A 
ATOM     10  C   UNL     1      -1.428  16.383  -1.832  1.00  0.00     0.001 A 
ATOM     11  C   UNL     1      -2.570  15.879  -1.209  1.00  0.00     0.000 A 
ENDBRANCH   2   6
TORSDOF 2
ENDMDL
MODEL 8
REMARK VINA RESULT:    -2.780      4.292      8.156
REMARK INTER + INTRA:          -3.233
REMARK INTER:                  -3.104
REMARK INTRA:                  -0.128
REMARK UNBOUND:                -0.127
REMARK SMILES O=C([O-])C=Cc1ccccc1
REMARK SMILES IDX 4 1 5 2 2 3 1 4 3 5 6 6 7 7 11 8 8 9 10 10 9 11
REMARK H PARENT
REMARK Flexibility Score: inf
ROOT
ATOM      1  C   UNL     1      -0.888  13.256  -9.628  1.00  0.00     0.025 C 
ATOM      2  C   UNL     1      -1.933  12.794 -10.332  1.00  0.00     0.010 C 
ENDROOT
BRANCH   1   3
ATOM      3  C   UNL     1      -0.472  12.637  -8.359  1.00  0.00     0.064 C 
ATOM      4  O   UNL     1      -0.589  13.283  -7.286  1.00  0.00    -0.545 OA
ATOM      5  O   UNL     1       0.046  11.347  -8.326  1.00  0.00    -0.545 OA
ENDBRANCH   1   3
BRANCH   2   6
ATOM      6  C   UNL     1      -2.409  13.366 -11.621  1.00  0.00    -0.026 A 
ATOM      7  C   UNL     1      -1.544  13.742 -12.671  1.00  0.00     0.008 A 
ATOM      8  C   UNL     1      -3.795  13.541 -11.796  1.00  0.00     0.008 A 
ATOM      9  C   UNL     1      -2.059  14.276 -13.857  1.00  0.00     0.001 A 
ATOM     10  C   UNL     1      -4.303  14.074 -12.984  1.00  0.00     0.001 A 
ATOM     11  C   UNL     1      -3.436  14.441 -14.014  1.00  0.00     0.000 A 
ENDBRANCH   2   6
TORSDOF 2
ENDMDL
MODEL 9
REMARK VINA RESULT:    -2.780      2.890      4.152
REMARK INTER + INTRA:          -3.233
REMARK INTER:                  -3.103
REMARK INTRA:                  -0.130
REMARK UNBOUND:                -0.127
REMARK SMILES O=C([O-])C=Cc1ccccc1
REMARK SMILES IDX 4 1 5 2 2 3 1 4 3 5 6 6 7 7 11 8 8 9 10 10 9 11
REMARK H PARENT
REMARK Flexibility Score: inf
ROOT
ATOM      1  C   UNL     1       1.376  13.369  -3.563  1.00  0.00     0.025 C 
ATOM      2  C   UNL     1       0.052  13.223  -3.398  1.00  0.00     0.010 C 
ENDROOT
BRANCH   1   3
ATOM      3  C   UNL     1       2.174  12.401  -4.333  1.00  0.00     0.064 C 
ATOM      4  O   UNL     1       2.289  12.543  -5.578  1.00  0.00    -0.545 OA
ATOM      5  O   UNL     1       2.804  11.331  -3.708  1.00  0.00    -0.545 OA
ENDBRANCH   1   3
BRANCH   2   6
ATOM      6  C   UNL     1      -0.817  14.160  -2.636  1.00  0.00    -0.026 A 
ATOM      7  C   UNL     1      -0.556  15.543  -2.521  1.00  0.00     0.008 A 
ATOM      8  C   UNL     1      -1.957  13.636  -1.998  1.00  0.00     0.008 A 
ATOM      9  C   UNL     1      -1.416  16.367  -1.787  1.00  0.00     0.001 A 
ATOM     10  C   UNL     1      -2.811  14.465  -1.267  1.00  0.00     0.001 A 
ATOM     11  C   UNL     1      -2.542  15.830  -1.161  1.00  0.00     0.000 A 
ENDBRANCH   2   6
TORSDOF 2
ENDMDL
