MODEL 1
REMARK VINA RESULT:    -3.825      0.000      0.000
REMARK INTER + INTRA:          -4.288
REMARK INTER:                  -4.160
REMARK INTRA:                  -0.128
REMARK UNBOUND:                -0.128
REMARK SMILES Cc1ccc(C(C)C)cc1O
REMARK SMILES IDX 1 1 2 2 10 3 9 4 5 5 4 6 3 7 11 8 6 10 7 11 8 12
REMARK H PARENT 11 9
REMARK Flexibility Score: inf
ROOT
ATOM      1  C   UNL     1     118.200 112.210 117.223  1.00  0.00     0.048 C 
ATOM      2  C   UNL     1     118.376 113.499 117.977  1.00  0.00    -0.009 A 
ATOM      3  C   UNL     1     118.221 113.552 119.380  1.00  0.00     0.118 A 
ATOM      4  C   UNL     1     118.391 114.767 120.054  1.00  0.00     0.050 A 
ATOM      5  C   UNL     1     118.714 115.943 119.353  1.00  0.00    -0.042 A 
ATOM      6  C   UNL     1     118.867 115.881 117.958  1.00  0.00     0.004 A 
ATOM      7  C   UNL     1     118.699 114.674 117.279  1.00  0.00     0.007 A 
ENDROOT
BRANCH   3   8
ATOM      8  O   UNL     1     117.900 112.419 120.132  1.00  0.00    -0.508 OA
ATOM      9  H   UNL     1     117.233 111.723 119.823  1.00  0.00     0.293 HD
ENDBRANCH   3   8
BRANCH   5  10
ATOM     10  C   UNL     1     118.899 117.263 120.077  1.00  0.00     0.013 C 
ATOM     11  C   UNL     1     120.127 118.016 119.550  1.00  0.00     0.012 C 
ATOM     12  C   UNL     1     117.637 118.130 119.978  1.00  0.00     0.012 C 
ENDBRANCH   5  10
TORSDOF 2
ENDMDL
MODEL 2
REMARK VINA RESULT:    -3.809      3.939      4.557
REMARK INTER + INTRA:          -4.271
REMARK INTER:                  -4.143
REMARK INTRA:                  -0.128
REMARK UNBOUND:                -0.128
REMARK SMILES Cc1ccc(C(C)C)cc1O
REMARK SMILES IDX 1 1 2 2 10 3 9 4 5 5 4 6 3 7 11 8 6 10 7 11 8 12
REMARK H PARENT 11 9
REMARK Flexibility Score: inf
ROOT
ATOM      1  C   UNL     1     120.967 118.255 117.240  1.00  0.00     0.048 C 
ATOM      2  C   UNL     1     119.673 118.390 117.994  1.00  0.00    -0.009 A 
ATOM      3  C   UNL     1     119.617 118.192 119.391  1.00  0.00     0.118 A 
ATOM      4  C   UNL     1     118.398 118.324 120.065  1.00  0.00     0.050 A 
ATOM      5  C   UNL     1     117.220 118.652 119.369  1.00  0.00    -0.042 A 
ATOM      6  C   UNL     1     117.284 118.847 117.980  1.00  0.00     0.004 A 
ATOM      7  C   UNL     1     118.497 118.717 117.301  1.00  0.00     0.007 A 
ENDROOT
BRANCH   3   8
ATOM      8  O   UNL     1     120.752 117.864 120.138  1.00  0.00    -0.508 OA
ATOM      9  H   UNL     1     120.707 117.384 121.028  1.00  0.00     0.293 HD
ENDBRANCH   3   8
BRANCH   5  10
ATOM     10  C   UNL     1     115.895 118.796 120.093  1.00  0.00     0.013 C 
ATOM     11  C   UNL     1     115.140 120.044 119.621  1.00  0.00     0.012 C 
ATOM     12  C   UNL     1     115.035 117.537 119.928  1.00  0.00     0.012 C 
ENDBRANCH   5  10
TORSDOF 2
ENDMDL
MODEL 3
REMARK VINA RESULT:    -3.788      4.546      6.428
REMARK INTER + INTRA:          -4.249
REMARK INTER:                  -4.120
REMARK INTRA:                  -0.129
REMARK UNBOUND:                -0.128
REMARK SMILES Cc1ccc(C(C)C)cc1O
REMARK SMILES IDX 1 1 2 2 10 3 9 4 5 5 4 6 3 7 11 8 6 10 7 11 8 12
REMARK H PARENT 11 9
REMARK Flexibility Score: inf
ROOT
ATOM      1  C   UNL     1     114.965 120.934 117.215  1.00  0.00     0.048 C 
ATOM      2  C   UNL     1     114.806 119.641 117.965  1.00  0.00    -0.009 A 
ATOM      3  C   UNL     1     115.007 119.577 119.362  1.00  0.00     0.118 A 
ATOM      4  C   UNL     1     114.852 118.358 120.032  1.00  0.00     0.050 A 
ATOM      5  C   UNL     1     114.498 117.189 119.333  1.00  0.00    -0.042 A 
ATOM      6  C   UNL     1     114.301 117.262 117.945  1.00  0.00     0.004 A 
ATOM      7  C   UNL     1     114.453 118.474 117.269  1.00  0.00     0.007 A 
ENDROOT
BRANCH   3   8
ATOM      8  O   UNL     1     115.359 120.702 120.111  1.00  0.00    -0.508 OA
ATOM      9  H   UNL     1     116.138 120.713 120.757  1.00  0.00     0.293 HD
ENDBRANCH   3   8
BRANCH   5  10
ATOM     10  C   UNL     1     114.329 115.865 120.054  1.00  0.00     0.013 C 
ATOM     11  C   UNL     1     113.031 115.167 119.630  1.00  0.00     0.012 C 
ATOM     12  C   UNL     1     115.543 114.954 119.830  1.00  0.00     0.012 C 
ENDBRANCH   5  10
TORSDOF 2
ENDMDL
MODEL 4
REMARK VINA RESULT:    -3.779      3.885      4.243
REMARK INTER + INTRA:          -4.239
REMARK INTER:                  -4.112
REMARK INTRA:                  -0.128
REMARK UNBOUND:                -0.128
REMARK SMILES Cc1ccc(C(C)C)cc1O
REMARK SMILES IDX 1 1 2 2 10 3 9 4 5 5 4 6 3 7 11 8 6 10 7 11 8 12
REMARK H PARENT 11 9
REMARK Flexibility Score: inf
ROOT
ATOM      1  C   UNL     1     112.721 114.500 117.333  1.00  0.00     0.048 C 
ATOM      2  C   UNL     1     113.814 114.714 118.343  1.00  0.00    -0.009 A 
ATOM      3  C   UNL     1     113.517 115.034 119.686  1.00  0.00     0.118 A 
ATOM      4  C   UNL     1     114.558 115.227 120.602  1.00  0.00     0.050 A 
ATOM      5  C   UNL     1     115.902 115.107 120.205  1.00  0.00    -0.042 A 
ATOM      6  C   UNL     1     116.188 114.787 118.868  1.00  0.00     0.004 A 
ATOM      7  C   UNL     1     115.156 114.594 117.948  1.00  0.00     0.007 A 
ENDROOT
BRANCH   3   8
ATOM      8  O   UNL     1     112.203 115.168 120.141  1.00  0.00    -0.508 OA
ATOM      9  H   UNL     1     111.398 115.084 119.533  1.00  0.00     0.293 HD
ENDBRANCH   3   8
BRANCH   5  10
ATOM     10  C   UNL     1     117.034 115.315 121.194  1.00  0.00     0.013 C 
ATOM     11  C   UNL     1     118.293 114.555 120.760  1.00  0.00     0.012 C 
ATOM     12  C   UNL     1     117.330 116.808 121.387  1.00  0.00     0.012 C 
ENDBRANCH   5  10
TORSDOF 2
ENDMDL
MODEL 5
REMARK VINA RESULT:    -3.697      2.217      2.582
REMARK INTER + INTRA:          -4.149
REMARK INTER:                  -4.021
REMARK INTRA:                  -0.128
REMARK UNBOUND:                -0.128
REMARK SMILES Cc1ccc(C(C)C)cc1O
REMARK SMILES IDX 1 1 2 2 10 3 9 4 5 5 4 6 3 7 11 8 6 10 7 11 8 12
REMARK H PARENT 11 9
REMARK Flexibility Score: inf
ROOT
ATOM      1  C   UNL     1     118.333 112.703 119.751  1.00  0.00     0.048 C 
ATOM      2  C   UNL     1     117.846 114.108 119.981  1.00  0.00    -0.009 A 
ATOM      3  C   UNL     1     118.139 114.797 121.178  1.00  0.00     0.118 A 
ATOM      4  C   UNL     1     117.671 116.103 121.362  1.00  0.00     0.050 A 
ATOM      5  C   UNL     1     116.909 116.744 120.368  1.00  0.00    -0.042 A 
ATOM      6  C   UNL     1     116.623 116.052 119.180  1.00  0.00     0.004 A 
ATOM      7  C   UNL     1     117.086 114.749 118.990  1.00  0.00     0.007 A 
ENDROOT
BRANCH   3   8
ATOM      8  O   UNL     1     118.890 114.213 122.202  1.00  0.00    -0.508 OA
ATOM      9  H   UNL     1     119.885 114.364 122.311  1.00  0.00     0.293 HD
ENDBRANCH   3   8
BRANCH   5  10
ATOM     10  C   UNL     1     116.399 118.160 120.562  1.00  0.00     0.013 C 
ATOM     11  C   UNL     1     116.803 119.058 119.386  1.00  0.00     0.012 C 
ATOM     12  C   UNL     1     114.880 118.176 120.772  1.00  0.00     0.012 C 
ENDBRANCH   5  10
TORSDOF 2
ENDMDL
MODEL 6
REMARK VINA RESULT:    -3.686      3.216      4.732
REMARK INTER + INTRA:          -4.138
REMARK INTER:                  -4.009
REMARK INTRA:                  -0.128
REMARK UNBOUND:                -0.128
REMARK SMILES Cc1ccc(C(C)C)cc1O
REMARK SMILES IDX 1 1 2 2 10 3 9 4 5 5 4 6 3 7 11 8 6 10 7 11 8 12
REMARK H PARENT 11 9
REMARK Flexibility Score: inf
ROOT
ATOM      1  C   UNL     1     120.432 118.159 119.742  1.00  0.00     0.048 C 
ATOM      2  C   UNL     1     119.007 117.733 119.962  1.00  0.00    -0.009 A 
ATOM      3  C   UNL     1     118.311 118.086 121.140  1.00  0.00     0.118 A 
ATOM      4  C   UNL     1     116.986 117.674 121.316  1.00  0.00     0.050 A 
ATOM      5  C   UNL     1     116.330 116.909 120.333  1.00  0.00    -0.042 A 
ATOM      6  C   UNL     1     117.029 116.563 119.165  1.00  0.00     0.004 A 
ATOM      7  C   UNL     1     118.351 116.970 118.983  1.00  0.00     0.007 A 
ENDROOT
BRANCH   3   8
ATOM      8  O   UNL     1     118.908 118.843 122.151  1.00  0.00    -0.508 OA
ATOM      9  H   UNL     1     118.417 119.566 122.662  1.00  0.00     0.293 HD
ENDBRANCH   3   8
BRANCH   5  10
ATOM     10  C   UNL     1     114.893 116.459 120.518  1.00  0.00     0.013 C 
ATOM     11  C   UNL     1     114.070 116.705 119.249  1.00  0.00     0.012 C 
ATOM     12  C   UNL     1     114.826 114.986 120.943  1.00  0.00     0.012 C 
ENDBRANCH   5  10
TORSDOF 2
ENDMDL
MODEL 7
REMARK VINA RESULT:    -3.641      4.857      6.267
REMARK INTER + INTRA:          -4.088
REMARK INTER:                  -3.979
REMARK INTRA:                  -0.110
REMARK UNBOUND:                -0.128
REMARK SMILES Cc1ccc(C(C)C)cc1O
REMARK SMILES IDX 1 1 2 2 10 3 9 4 5 5 4 6 3 7 11 8 6 10 7 11 8 12
REMARK H PARENT 11 9
REMARK Flexibility Score: inf
ROOT
ATOM      1  C   UNL     1     116.230 117.647 123.124  1.00  0.00     0.048 C 
ATOM      2  C   UNL     1     115.528 117.030 121.946  1.00  0.00    -0.009 A 
ATOM      3  C   UNL     1     114.955 117.831 120.935  1.00  0.00     0.118 A 
ATOM      4  C   UNL     1     114.308 117.227 119.851  1.00  0.00     0.050 A 
ATOM      5  C   UNL     1     114.217 115.827 119.752  1.00  0.00    -0.042 A 
ATOM      6  C   UNL     1     114.791 115.037 120.762  1.00  0.00     0.004 A 
ATOM      7  C   UNL     1     115.437 115.632 121.846  1.00  0.00     0.007 A 
ENDROOT
BRANCH   3   8
ATOM      8  O   UNL     1     115.011 119.227 120.977  1.00  0.00    -0.508 OA
ATOM      9  H   UNL     1     114.189 119.814 120.910  1.00  0.00     0.293 HD
ENDBRANCH   3   8
BRANCH   5  10
ATOM     10  C   UNL     1     113.517 115.166 118.580  1.00  0.00     0.013 C 
ATOM     11  C   UNL     1     112.153 114.602 118.997  1.00  0.00     0.012 C 
ATOM     12  C   UNL     1     113.374 116.138 117.402  1.00  0.00     0.012 C 
ENDBRANCH   5  10
TORSDOF 2
ENDMDL
MODEL 8
REMARK VINA RESULT:    -3.632      3.214      3.742
REMARK INTER + INTRA:          -4.079
REMARK INTER:                  -3.950
REMARK INTRA:                  -0.129
REMARK UNBOUND:                -0.128
REMARK SMILES Cc1ccc(C(C)C)cc1O
REMARK SMILES IDX 1 1 2 2 10 3 9 4 5 5 4 6 3 7 11 8 6 10 7 11 8 12
REMARK H PARENT 11 9
REMARK Flexibility Score: inf
ROOT
ATOM      1  C   UNL     1     112.796 115.102 119.746  1.00  0.00     0.048 C 
ATOM      2  C   UNL     1     114.214 115.543 119.987  1.00  0.00    -0.009 A 
ATOM      3  C   UNL     1     114.912 115.155 121.152  1.00  0.00     0.118 A 
ATOM      4  C   UNL     1     116.231 115.582 121.347  1.00  0.00     0.050 A 
ATOM      5  C   UNL     1     116.875 116.395 120.397  1.00  0.00    -0.042 A 
ATOM      6  C   UNL     1     116.173 116.775 119.241  1.00  0.00     0.004 A 
ATOM      7  C   UNL     1     114.858 116.354 119.040  1.00  0.00     0.007 A 
ENDROOT
BRANCH   3   8
ATOM      8  O   UNL     1     114.326 114.349 122.131  1.00  0.00    -0.508 OA
ATOM      9  H   UNL     1     114.362 114.568 123.119  1.00  0.00     0.293 HD
ENDBRANCH   3   8
BRANCH   5  10
ATOM     10  C   UNL     1     118.304 116.861 120.603  1.00  0.00     0.013 C 
ATOM     11  C   UNL     1     119.150 116.620 119.348  1.00  0.00     0.012 C 
ATOM     12  C   UNL     1     118.349 118.336 121.023  1.00  0.00     0.012 C 
ENDBRANCH   5  10
TORSDOF 2
ENDMDL
MODEL 9
REMARK VINA RESULT:    -3.557      2.482      4.426
REMARK INTER + INTRA:          -3.998
REMARK INTER:                  -3.885
REMARK INTRA:                  -0.113
REMARK UNBOUND:                -0.128
REMARK SMILES Cc1ccc(C(C)C)cc1O
REMARK SMILES IDX 1 1 2 2 10 3 9 4 5 5 4 6 3 7 11 8 6 10 7 11 8 12
REMARK H PARENT 11 9
REMARK Flexibility Score: inf
ROOT
ATOM      1  C   UNL     1     120.361 118.139 119.246  1.00  0.00     0.048 C 
ATOM      2  C   UNL     1     119.103 117.582 119.854  1.00  0.00    -0.009 A 
ATOM      3  C   UNL     1     118.565 116.350 119.422  1.00  0.00     0.118 A 
ATOM      4  C   UNL     1     117.392 115.859 120.007  1.00  0.00     0.050 A 
ATOM      5  C   UNL     1     116.737 116.576 121.024  1.00  0.00    -0.042 A 
ATOM      6  C   UNL     1     117.279 117.801 121.448  1.00  0.00     0.004 A 
ATOM      7  C   UNL     1     118.447 118.297 120.869  1.00  0.00     0.007 A 
ENDROOT
BRANCH   3   8
ATOM      8  O   UNL     1     119.170 115.591 118.416  1.00  0.00    -0.508 OA
ATOM      9  H   UNL     1     119.910 115.949 117.825  1.00  0.00     0.293 HD
ENDBRANCH   3   8
BRANCH   5  10
ATOM     10  C   UNL     1     115.465 116.049 121.662  1.00  0.00     0.013 C 
ATOM     11  C   UNL     1     114.891 114.875 120.861  1.00  0.00     0.012 C 
ATOM     12  C   UNL     1     115.704 115.654 123.125  1.00  0.00     0.012 C 
ENDBRANCH   5  10
TORSDOF 2
ENDMDL
