MODEL 1
REMARK VINA RESULT:    -6.322      0.000      0.000
REMARK INTER + INTRA:          -6.322
REMARK INTER:                  -6.322
REMARK INTRA:                   0.000
REMARK UNBOUND:                 0.000
REMARK SMILES C=C1CCC[C@]2(C)CC(=O)C(=C(C)C)C[C@H]12
REMARK SMILES IDX 13 1 12 2 11 3 15 4 16 5 2 6 1 7 3 8 4 9 5 10 6 11 8 12 9 13
REMARK SMILES IDX 10 14 7 15 14 16
REMARK H PARENT
REMARK Flexibility Score: inf
ROOT
ATOM      1  C   UNL     1      -7.440 -28.338 -18.728  1.00  0.00     0.039 C 
ATOM      2  C   UNL     1      -8.575 -27.406 -18.368  1.00  0.00    -0.070 C 
ATOM      3  C   UNL     1      -8.340 -26.121 -17.977  1.00  0.00    -0.006 C 
ATOM      4  C   UNL     1      -6.938 -25.553 -17.876  1.00  0.00     0.047 C 
ATOM      5  C   UNL     1      -6.855 -24.049 -18.247  1.00  0.00     0.025 C 
ATOM      6  C   UNL     1      -5.473 -23.533 -17.880  1.00  0.00    -0.073 C 
ATOM      7  C   UNL     1      -4.514 -23.430 -18.814  1.00  0.00     0.008 C 
ATOM      8  C   UNL     1      -5.150 -23.289 -16.421  1.00  0.00     0.031 C 
ATOM      9  C   UNL     1      -6.268 -22.506 -15.718  1.00  0.00     0.005 C 
ATOM     10  C   UNL     1      -7.671 -23.058 -16.033  1.00  0.00     0.008 C 
ATOM     11  C   UNL     1      -7.949 -23.168 -17.562  1.00  0.00    -0.018 C 
ATOM     12  C   UNL     1      -9.358 -23.771 -17.805  1.00  0.00     0.088 C 
ATOM     13  C   UNL     1      -9.420 -25.232 -17.493  1.00  0.00     0.159 C 
ATOM     14  O   UNL     1     -10.387 -25.681 -16.821  1.00  0.00    -0.295 OA
ATOM     15  C   UNL     1      -7.952 -21.752 -18.199  1.00  0.00     0.012 C 
ATOM     16  C   UNL     1      -9.980 -27.947 -18.496  1.00  0.00     0.039 C 
ENDROOT
TORSDOF 0
ENDMDL
MODEL 2
REMARK VINA RESULT:    -6.307      1.695      3.212
REMARK INTER + INTRA:          -6.307
REMARK INTER:                  -6.307
REMARK INTRA:                   0.000
REMARK UNBOUND:                 0.000
REMARK SMILES C=C1CCC[C@]2(C)CC(=O)C(=C(C)C)C[C@H]12
REMARK SMILES IDX 13 1 12 2 11 3 15 4 16 5 2 6 1 7 3 8 4 9 5 10 6 11 8 12 9 13
REMARK SMILES IDX 10 14 7 15 14 16
REMARK H PARENT
REMARK Flexibility Score: inf
ROOT
ATOM      1  C   UNL     1     -10.050 -27.250 -18.398  1.00  0.00     0.039 C 
ATOM      2  C   UNL     1      -8.546 -27.392 -18.426  1.00  0.00    -0.070 C 
ATOM      3  C   UNL     1      -7.729 -26.343 -18.123  1.00  0.00    -0.006 C 
ATOM      4  C   UNL     1      -8.275 -24.979 -17.747  1.00  0.00     0.047 C 
ATOM      5  C   UNL     1      -7.405 -24.236 -16.699  1.00  0.00     0.025 C 
ATOM      6  C   UNL     1      -7.903 -22.804 -16.581  1.00  0.00    -0.073 C 
ATOM      7  C   UNL     1      -8.734 -22.451 -15.588  1.00  0.00     0.008 C 
ATOM      8  C   UNL     1      -7.573 -21.825 -17.689  1.00  0.00     0.031 C 
ATOM      9  C   UNL     1      -6.092 -21.895 -18.082  1.00  0.00     0.005 C 
ATOM     10  C   UNL     1      -5.591 -23.340 -18.265  1.00  0.00     0.008 C 
ATOM     11  C   UNL     1      -5.877 -24.241 -17.027  1.00  0.00    -0.018 C 
ATOM     12  C   UNL     1      -5.388 -25.689 -17.298  1.00  0.00     0.088 C 
ATOM     13  C   UNL     1      -6.258 -26.417 -18.271  1.00  0.00     0.159 C 
ATOM     14  O   UNL     1      -5.725 -27.079 -19.202  1.00  0.00    -0.295 OA
ATOM     15  C   UNL     1      -5.079 -23.720 -15.802  1.00  0.00     0.012 C 
ATOM     16  C   UNL     1      -7.986 -28.754 -18.766  1.00  0.00     0.039 C 
ENDROOT
TORSDOF 0
ENDMDL
MODEL 3
REMARK VINA RESULT:    -5.874      2.470      3.739
REMARK INTER + INTRA:          -5.874
REMARK INTER:                  -5.874
REMARK INTRA:                   0.000
REMARK UNBOUND:                 0.000
REMARK SMILES C=C1CCC[C@]2(C)CC(=O)C(=C(C)C)C[C@H]12
REMARK SMILES IDX 13 1 12 2 11 3 15 4 16 5 2 6 1 7 3 8 4 9 5 10 6 11 8 12 9 13
REMARK SMILES IDX 10 14 7 15 14 16
REMARK H PARENT
REMARK Flexibility Score: inf
ROOT
ATOM      1  C   UNL     1      -6.134 -27.360 -19.224  1.00  0.00     0.039 C 
ATOM      2  C   UNL     1      -5.398 -26.668 -18.100  1.00  0.00    -0.070 C 
ATOM      3  C   UNL     1      -5.711 -25.394 -17.726  1.00  0.00    -0.006 C 
ATOM      4  C   UNL     1      -6.807 -24.599 -18.409  1.00  0.00     0.047 C 
ATOM      5  C   UNL     1      -7.570 -23.651 -17.449  1.00  0.00     0.025 C 
ATOM      6  C   UNL     1      -8.465 -22.740 -18.274  1.00  0.00    -0.073 C 
ATOM      7  C   UNL     1      -9.768 -23.022 -18.428  1.00  0.00     0.008 C 
ATOM      8  C   UNL     1      -7.831 -21.602 -19.046  1.00  0.00     0.031 C 
ATOM      9  C   UNL     1      -6.840 -20.814 -18.179  1.00  0.00     0.005 C 
ATOM     10  C   UNL     1      -5.886 -21.725 -17.384  1.00  0.00     0.008 C 
ATOM     11  C   UNL     1      -6.638 -22.793 -16.534  1.00  0.00    -0.018 C 
ATOM     12  C   UNL     1      -5.619 -23.702 -15.798  1.00  0.00     0.088 C 
ATOM     13  C   UNL     1      -4.921 -24.648 -16.721  1.00  0.00     0.159 C 
ATOM     14  O   UNL     1      -3.672 -24.792 -16.631  1.00  0.00    -0.295 OA
ATOM     15  C   UNL     1      -7.485 -22.091 -15.439  1.00  0.00     0.012 C 
ATOM     16  C   UNL     1      -4.326 -27.458 -17.386  1.00  0.00     0.039 C 
ENDROOT
TORSDOF 0
ENDMDL
MODEL 4
REMARK VINA RESULT:    -5.782      2.016      4.696
REMARK INTER + INTRA:          -5.782
REMARK INTER:                  -5.782
REMARK INTRA:                   0.000
REMARK UNBOUND:                 0.000
REMARK SMILES C=C1CCC[C@]2(C)CC(=O)C(=C(C)C)C[C@H]12
REMARK SMILES IDX 13 1 12 2 11 3 15 4 16 5 2 6 1 7 3 8 4 9 5 10 6 11 8 12 9 13
REMARK SMILES IDX 10 14 7 15 14 16
REMARK H PARENT
REMARK Flexibility Score: inf
ROOT
ATOM      1  C   UNL     1      -5.302 -19.944 -18.582  1.00  0.00     0.039 C 
ATOM      2  C   UNL     1      -6.762 -20.332 -18.637  1.00  0.00    -0.070 C 
ATOM      3  C   UNL     1      -7.172 -21.596 -18.330  1.00  0.00    -0.006 C 
ATOM      4  C   UNL     1      -6.197 -22.682 -17.920  1.00  0.00     0.047 C 
ATOM      5  C   UNL     1      -6.779 -23.669 -16.874  1.00  0.00     0.025 C 
ATOM      6  C   UNL     1      -5.820 -24.838 -16.722  1.00  0.00    -0.073 C 
ATOM      7  C   UNL     1      -4.940 -24.871 -15.709  1.00  0.00     0.008 C 
ATOM      8  C   UNL     1      -5.766 -25.883 -17.818  1.00  0.00     0.031 C 
ATOM      9  C   UNL     1      -7.171 -26.334 -18.237  1.00  0.00     0.005 C 
ATOM     10  C   UNL     1      -8.137 -25.154 -18.454  1.00  0.00     0.008 C 
ATOM     11  C   UNL     1      -8.207 -24.196 -17.227  1.00  0.00    -0.018 C 
ATOM     12  C   UNL     1      -9.160 -23.010 -17.532  1.00  0.00     0.088 C 
ATOM     13  C   UNL     1      -8.575 -22.037 -18.504  1.00  0.00     0.159 C 
ATOM     14  O   UNL     1      -9.283 -21.610 -19.455  1.00  0.00    -0.295 OA
ATOM     15  C   UNL     1      -8.802 -24.948 -16.007  1.00  0.00     0.012 C 
ATOM     16  C   UNL     1      -7.750 -19.252 -19.011  1.00  0.00     0.039 C 
ENDROOT
TORSDOF 0
ENDMDL
MODEL 5
REMARK VINA RESULT:    -5.741      1.178      1.539
REMARK INTER + INTRA:          -5.741
REMARK INTER:                  -5.741
REMARK INTRA:                   0.000
REMARK UNBOUND:                 0.000
REMARK SMILES C=C1CCC[C@]2(C)CC(=O)C(=C(C)C)C[C@H]12
REMARK SMILES IDX 13 1 12 2 11 3 15 4 16 5 2 6 1 7 3 8 4 9 5 10 6 11 8 12 9 13
REMARK SMILES IDX 10 14 7 15 14 16
REMARK H PARENT
REMARK Flexibility Score: inf
ROOT
ATOM      1  C   UNL     1      -7.766 -27.489 -18.635  1.00  0.00     0.039 C 
ATOM      2  C   UNL     1      -8.455 -26.316 -17.976  1.00  0.00    -0.070 C 
ATOM      3  C   UNL     1      -7.772 -25.179 -17.661  1.00  0.00    -0.006 C 
ATOM      4  C   UNL     1      -6.291 -25.022 -17.945  1.00  0.00     0.047 C 
ATOM      5  C   UNL     1      -5.885 -23.573 -18.320  1.00  0.00     0.025 C 
ATOM      6  C   UNL     1      -4.368 -23.483 -18.344  1.00  0.00    -0.073 C 
ATOM      7  C   UNL     1      -3.698 -23.571 -19.503  1.00  0.00     0.008 C 
ATOM      8  C   UNL     1      -3.620 -23.453 -17.027  1.00  0.00     0.031 C 
ATOM      9  C   UNL     1      -4.246 -22.455 -16.044  1.00  0.00     0.005 C 
ATOM     10  C   UNL     1      -5.780 -22.578 -15.965  1.00  0.00     0.008 C 
ATOM     11  C   UNL     1      -6.467 -22.485 -17.361  1.00  0.00    -0.018 C 
ATOM     12  C   UNL     1      -8.001 -22.662 -17.211  1.00  0.00     0.088 C 
ATOM     13  C   UNL     1      -8.390 -24.070 -16.898  1.00  0.00     0.159 C 
ATOM     14  O   UNL     1      -9.235 -24.292 -15.989  1.00  0.00    -0.295 OA
ATOM     15  C   UNL     1      -6.234 -21.076 -17.969  1.00  0.00     0.012 C 
ATOM     16  C   UNL     1      -9.939 -26.442 -17.717  1.00  0.00     0.039 C 
ENDROOT
TORSDOF 0
ENDMDL
MODEL 6
REMARK VINA RESULT:    -5.706      1.547      2.279
REMARK INTER + INTRA:          -5.706
REMARK INTER:                  -5.706
REMARK INTRA:                   0.000
REMARK UNBOUND:                 0.000
REMARK SMILES C=C1CCC[C@]2(C)CC(=O)C(=C(C)C)C[C@H]12
REMARK SMILES IDX 13 1 12 2 11 3 15 4 16 5 2 6 1 7 3 8 4 9 5 10 6 11 8 12 9 13
REMARK SMILES IDX 10 14 7 15 14 16
REMARK H PARENT
REMARK Flexibility Score: inf
ROOT
ATOM      1  C   UNL     1      -4.296 -26.631 -18.882  1.00  0.00     0.039 C 
ATOM      2  C   UNL     1      -5.784 -26.895 -18.880  1.00  0.00    -0.070 C 
ATOM      3  C   UNL     1      -6.668 -25.970 -18.407  1.00  0.00    -0.006 C 
ATOM      4  C   UNL     1      -6.216 -24.631 -17.857  1.00  0.00     0.047 C 
ATOM      5  C   UNL     1      -7.211 -23.478 -18.151  1.00  0.00     0.025 C 
ATOM      6  C   UNL     1      -6.785 -22.254 -17.356  1.00  0.00    -0.073 C 
ATOM      7  C   UNL     1      -6.067 -21.280 -17.937  1.00  0.00     0.008 C 
ATOM      8  C   UNL     1      -7.047 -22.227 -15.865  1.00  0.00     0.031 C 
ATOM      9  C   UNL     1      -8.480 -22.664 -15.535  1.00  0.00     0.005 C 
ATOM     10  C   UNL     1      -8.903 -23.940 -16.288  1.00  0.00     0.008 C 
ATOM     11  C   UNL     1      -8.699 -23.829 -17.829  1.00  0.00    -0.018 C 
ATOM     12  C   UNL     1      -9.101 -25.160 -18.517  1.00  0.00     0.088 C 
ATOM     13  C   UNL     1      -8.114 -26.255 -18.271  1.00  0.00     0.159 C 
ATOM     14  O   UNL     1      -8.529 -27.401 -17.948  1.00  0.00    -0.295 OA
ATOM     15  C   UNL     1      -9.630 -22.728 -18.404  1.00  0.00     0.012 C 
ATOM     16  C   UNL     1      -6.253 -28.211 -19.456  1.00  0.00     0.039 C 
ENDROOT
TORSDOF 0
ENDMDL
MODEL 7
REMARK VINA RESULT:    -5.600      2.712      4.185
REMARK INTER + INTRA:          -5.600
REMARK INTER:                  -5.600
REMARK INTRA:                   0.000
REMARK UNBOUND:                 0.000
REMARK SMILES C=C1CCC[C@]2(C)CC(=O)C(=C(C)C)C[C@H]12
REMARK SMILES IDX 13 1 12 2 11 3 15 4 16 5 2 6 1 7 3 8 4 9 5 10 6 11 8 12 9 13
REMARK SMILES IDX 10 14 7 15 14 16
REMARK H PARENT
REMARK Flexibility Score: inf
ROOT
ATOM      1  C   UNL     1      -9.250 -30.099 -19.055  1.00  0.00     0.039 C 
ATOM      2  C   UNL     1      -9.124 -28.617 -18.787  1.00  0.00    -0.070 C 
ATOM      3  C   UNL     1      -7.904 -28.026 -18.632  1.00  0.00    -0.006 C 
ATOM      4  C   UNL     1      -6.611 -28.812 -18.714  1.00  0.00     0.047 C 
ATOM      5  C   UNL     1      -5.439 -28.008 -19.336  1.00  0.00     0.025 C 
ATOM      6  C   UNL     1      -4.153 -28.796 -19.146  1.00  0.00    -0.073 C 
ATOM      7  C   UNL     1      -3.665 -29.554 -20.140  1.00  0.00     0.008 C 
ATOM      8  C   UNL     1      -3.521 -28.837 -17.770  1.00  0.00     0.031 C 
ATOM      9  C   UNL     1      -3.444 -27.439 -17.143  1.00  0.00     0.005 C 
ATOM     10  C   UNL     1      -4.761 -26.652 -17.274  1.00  0.00     0.008 C 
ATOM     11  C   UNL     1      -5.274 -26.571 -18.744  1.00  0.00    -0.018 C 
ATOM     12  C   UNL     1      -6.623 -25.807 -18.795  1.00  0.00     0.088 C 
ATOM     13  C   UNL     1      -7.758 -26.606 -18.239  1.00  0.00     0.159 C 
ATOM     14  O   UNL     1      -8.569 -26.059 -17.444  1.00  0.00    -0.295 OA
ATOM     15  C   UNL     1      -4.268 -25.764 -19.607  1.00  0.00     0.012 C 
ATOM     16  C   UNL     1     -10.402 -27.813 -18.737  1.00  0.00     0.039 C 
ENDROOT
TORSDOF 0
ENDMDL
MODEL 8
REMARK VINA RESULT:    -5.553      2.782      4.533
REMARK INTER + INTRA:          -5.553
REMARK INTER:                  -5.553
REMARK INTRA:                   0.000
REMARK UNBOUND:                 0.000
REMARK SMILES C=C1CCC[C@]2(C)CC(=O)C(=C(C)C)C[C@H]12
REMARK SMILES IDX 13 1 12 2 11 3 15 4 16 5 2 6 1 7 3 8 4 9 5 10 6 11 8 12 9 13
REMARK SMILES IDX 10 14 7 15 14 16
REMARK H PARENT
REMARK Flexibility Score: inf
ROOT
ATOM      1  C   UNL     1      -8.258 -19.541 -21.335  1.00  0.00     0.039 C 
ATOM      2  C   UNL     1      -8.920 -20.466 -20.340  1.00  0.00    -0.070 C 
ATOM      3  C   UNL     1      -8.186 -21.176 -19.435  1.00  0.00    -0.006 C 
ATOM      4  C   UNL     1      -6.674 -21.084 -19.374  1.00  0.00     0.047 C 
ATOM      5  C   UNL     1      -6.107 -21.212 -17.935  1.00  0.00     0.025 C 
ATOM      6  C   UNL     1      -4.596 -21.349 -18.018  1.00  0.00    -0.073 C 
ATOM      7  C   UNL     1      -3.803 -20.283 -17.833  1.00  0.00     0.008 C 
ATOM      8  C   UNL     1      -4.009 -22.671 -18.469  1.00  0.00     0.031 C 
ATOM      9  C   UNL     1      -4.662 -23.856 -17.744  1.00  0.00     0.005 C 
ATOM     10  C   UNL     1      -6.198 -23.759 -17.706  1.00  0.00     0.008 C 
ATOM     11  C   UNL     1      -6.706 -22.405 -17.123  1.00  0.00    -0.018 C 
ATOM     12  C   UNL     1      -8.256 -22.359 -17.158  1.00  0.00     0.088 C 
ATOM     13  C   UNL     1      -8.796 -22.187 -18.541  1.00  0.00     0.159 C 
ATOM     14  O   UNL     1      -9.758 -22.906 -18.924  1.00  0.00    -0.295 OA
ATOM     15  C   UNL     1      -6.286 -22.285 -15.634  1.00  0.00     0.012 C 
ATOM     16  C   UNL     1     -10.429 -20.543 -20.365  1.00  0.00     0.039 C 
ENDROOT
TORSDOF 0
ENDMDL
MODEL 9
REMARK VINA RESULT:    -5.425      2.522      4.782
REMARK INTER + INTRA:          -5.425
REMARK INTER:                  -5.425
REMARK INTRA:                   0.000
REMARK UNBOUND:                 0.000
REMARK SMILES C=C1CCC[C@]2(C)CC(=O)C(=C(C)C)C[C@H]12
REMARK SMILES IDX 13 1 12 2 11 3 15 4 16 5 2 6 1 7 3 8 4 9 5 10 6 11 8 12 9 13
REMARK SMILES IDX 10 14 7 15 14 16
REMARK H PARENT
REMARK Flexibility Score: inf
ROOT
ATOM      1  C   UNL     1      -9.353 -24.869 -17.744  1.00  0.00     0.039 C 
ATOM      2  C   UNL     1      -9.391 -26.357 -18.005  1.00  0.00    -0.070 C 
ATOM      3  C   UNL     1      -8.267 -27.045 -18.357  1.00  0.00    -0.006 C 
ATOM      4  C   UNL     1      -6.921 -26.364 -18.511  1.00  0.00     0.047 C 
ATOM      5  C   UNL     1      -5.727 -27.259 -18.086  1.00  0.00     0.025 C 
ATOM      6  C   UNL     1      -4.435 -26.577 -18.505  1.00  0.00    -0.073 C 
ATOM      7  C   UNL     1      -3.725 -25.858 -17.622  1.00  0.00     0.008 C 
ATOM      8  C   UNL     1      -4.047 -26.590 -19.970  1.00  0.00     0.031 C 
ATOM      9  C   UNL     1      -4.189 -27.991 -20.579  1.00  0.00     0.005 C 
ATOM     10  C   UNL     1      -5.523 -28.669 -20.212  1.00  0.00     0.008 C 
ATOM     11  C   UNL     1      -5.780 -28.705 -18.675  1.00  0.00    -0.018 C 
ATOM     12  C   UNL     1      -7.156 -29.358 -18.381  1.00  0.00     0.088 C 
ATOM     13  C   UNL     1      -8.303 -28.472 -18.747  1.00  0.00     0.159 C 
ATOM     14  O   UNL     1      -9.279 -28.954 -19.383  1.00  0.00    -0.295 OA
ATOM     15  C   UNL     1      -4.707 -29.589 -17.984  1.00  0.00     0.012 C 
ATOM     16  C   UNL     1     -10.718 -27.057 -17.823  1.00  0.00     0.039 C 
ENDROOT
TORSDOF 0
ENDMDL
