MODEL 1
REMARK VINA RESULT:    -1.274      0.000      0.000
REMARK INTER + INTRA:          -1.011
REMARK INTER:                  -1.348
REMARK INTRA:                   0.337
REMARK UNBOUND:                 0.337
REMARK SMILES CC(C)[C@@H]1CC[C@@H](C)CC1=O
REMARK SMILES IDX 8 1 7 2 6 3 5 4 4 5 10 6 11 7 9 8 2 9 1 10 3 11
REMARK H PARENT
REMARK Flexibility Score: inf
ROOT
ATOM      1  C   UNL     1      15.747 -11.270   4.998  1.00  0.00     0.008 C 
ATOM      2  C   UNL     1      14.368 -11.034   4.372  1.00  0.00    -0.007 C 
ATOM      3  C   UNL     1      14.027  -9.531   4.363  1.00  0.00     0.004 C 
ATOM      4  C   UNL     1      12.663  -9.286   3.702  1.00  0.00     0.012 C 
ATOM      5  C   UNL     1      11.534 -10.037   4.444  1.00  0.00     0.058 C 
ATOM      6  C   UNL     1      11.917 -11.500   4.603  1.00  0.00     0.136 C 
ATOM      7  O   UNL     1      11.113 -12.400   4.418  1.00  0.00    -0.299 OA
ATOM      8  C   UNL     1      13.289 -11.834   5.125  1.00  0.00     0.079 C 
ENDROOT
BRANCH   5   9
ATOM      9  C   UNL     1      10.139  -9.761   3.795  1.00  0.00    -0.007 C 
ATOM     10  C   UNL     1       8.998 -10.425   4.584  1.00  0.00     0.008 C 
ATOM     11  C   UNL     1      10.049 -10.125   2.302  1.00  0.00     0.008 C 
ENDBRANCH   5   9
TORSDOF 1
ENDMDL
MODEL 2
REMARK VINA RESULT:    -0.614      1.673      4.792
REMARK INTER + INTRA:          -0.313
REMARK INTER:                  -0.146
REMARK INTRA:                  -0.167
REMARK UNBOUND:                 0.337
REMARK SMILES CC(C)[C@@H]1CC[C@@H](C)CC1=O
REMARK SMILES IDX 8 1 7 2 6 3 5 4 4 5 10 6 11 7 9 8 2 9 1 10 3 11
REMARK H PARENT
REMARK Flexibility Score: inf
ROOT
ATOM      1  C   UNL     1       7.537 -10.375   0.501  1.00  0.00     0.008 C 
ATOM      2  C   UNL     1       8.579 -10.007   1.562  1.00  0.00    -0.007 C 
ATOM      3  C   UNL     1       9.996 -10.374   1.080  1.00  0.00     0.004 C 
ATOM      4  C   UNL     1      11.047  -9.972   2.125  1.00  0.00     0.012 C 
ATOM      5  C   UNL     1      10.795 -10.674   3.478  1.00  0.00     0.058 C 
ATOM      6  C   UNL     1       9.352 -10.455   3.903  1.00  0.00     0.136 C 
ATOM      7  O   UNL     1       9.053 -10.185   5.056  1.00  0.00    -0.299 OA
ATOM      8  C   UNL     1       8.258 -10.702   2.898  1.00  0.00     0.079 C 
ENDROOT
BRANCH   5   9
ATOM      9  C   UNL     1      11.885 -10.295   4.533  1.00  0.00    -0.007 C 
ATOM     10  C   UNL     1      12.872  -9.250   3.988  1.00  0.00     0.008 C 
ATOM     11  C   UNL     1      12.642 -11.498   5.125  1.00  0.00     0.008 C 
ENDBRANCH   5   9
TORSDOF 1
ENDMDL
MODEL 3
REMARK VINA RESULT:    -0.458      1.238      1.917
REMARK INTER + INTRA:          -0.148
REMARK INTER:                   0.014
REMARK INTRA:                  -0.162
REMARK UNBOUND:                 0.337
REMARK SMILES CC(C)[C@@H]1CC[C@@H](C)CC1=O
REMARK SMILES IDX 8 1 7 2 6 3 5 4 4 5 10 6 11 7 9 8 2 9 1 10 3 11
REMARK H PARENT
REMARK Flexibility Score: inf
ROOT
ATOM      1  C   UNL     1      16.055  -8.369   4.287  1.00  0.00     0.008 C 
ATOM      2  C   UNL     1      14.786  -9.139   3.907  1.00  0.00    -0.007 C 
ATOM      3  C   UNL     1      13.703  -8.173   3.387  1.00  0.00     0.004 C 
ATOM      4  C   UNL     1      12.442  -8.943   2.968  1.00  0.00     0.012 C 
ATOM      5  C   UNL     1      11.853  -9.746   4.151  1.00  0.00     0.058 C 
ATOM      6  C   UNL     1      12.945 -10.596   4.781  1.00  0.00     0.136 C 
ATOM      7  O   UNL     1      12.747 -11.752   5.121  1.00  0.00    -0.299 OA
ATOM      8  C   UNL     1      14.265  -9.949   5.108  1.00  0.00     0.079 C 
ENDROOT
BRANCH   5   9
ATOM      9  C   UNL     1      10.549 -10.503   3.737  1.00  0.00    -0.007 C 
ATOM     10  C   UNL     1      10.061 -10.084   2.341  1.00  0.00     0.008 C 
ATOM     11  C   UNL     1       9.405 -10.404   4.763  1.00  0.00     0.008 C 
ENDBRANCH   5   9
TORSDOF 1
ENDMDL
MODEL 4
REMARK VINA RESULT:    -0.154      1.667      4.523
REMARK INTER + INTRA:           0.174
REMARK INTER:                  -0.262
REMARK INTRA:                   0.436
REMARK UNBOUND:                 0.337
REMARK SMILES CC(C)[C@@H]1CC[C@@H](C)CC1=O
REMARK SMILES IDX 8 1 7 2 6 3 5 4 4 5 10 6 11 7 9 8 2 9 1 10 3 11
REMARK H PARENT
REMARK Flexibility Score: inf
ROOT
ATOM      1  C   UNL     1       8.987 -10.675   3.834  1.00  0.00     0.008 C 
ATOM      2  C   UNL     1      10.515 -10.789   3.852  1.00  0.00    -0.007 C 
ATOM      3  C   UNL     1      10.986 -11.552   5.105  1.00  0.00     0.004 C 
ATOM      4  C   UNL     1      12.514 -11.703   5.109  1.00  0.00     0.012 C 
ATOM      5  C   UNL     1      13.217 -10.326   5.083  1.00  0.00     0.058 C 
ATOM      6  C   UNL     1      12.656  -9.492   3.942  1.00  0.00     0.136 C 
ATOM      7  O   UNL     1      13.377  -8.822   3.219  1.00  0.00    -0.299 OA
ATOM      8  C   UNL     1      11.162  -9.393   3.786  1.00  0.00     0.079 C 
ENDROOT
BRANCH   5   9
ATOM      9  C   UNL     1      14.772 -10.475   5.123  1.00  0.00    -0.007 C 
ATOM     10  C   UNL     1      15.483  -9.117   4.996  1.00  0.00     0.008 C 
ATOM     11  C   UNL     1      15.341 -11.481   4.104  1.00  0.00     0.008 C 
ENDBRANCH   5   9
TORSDOF 1
ENDMDL
MODEL 5
REMARK VINA RESULT:     0.085      1.719      2.814
REMARK INTER + INTRA:           0.426
REMARK INTER:                   0.202
REMARK INTRA:                   0.224
REMARK UNBOUND:                 0.337
REMARK SMILES CC(C)[C@@H]1CC[C@@H](C)CC1=O
REMARK SMILES IDX 8 1 7 2 6 3 5 4 4 5 10 6 11 7 9 8 2 9 1 10 3 11
REMARK H PARENT
REMARK Flexibility Score: inf
ROOT
ATOM      1  C   UNL     1      16.124  -8.653   4.138  1.00  0.00     0.008 C 
ATOM      2  C   UNL     1      14.966  -9.468   4.724  1.00  0.00    -0.007 C 
ATOM      3  C   UNL     1      15.198 -10.975   4.504  1.00  0.00     0.004 C 
ATOM      4  C   UNL     1      14.060 -11.798   5.123  1.00  0.00     0.012 C 
ATOM      5  C   UNL     1      12.692 -11.420   4.509  1.00  0.00     0.058 C 
ATOM      6  C   UNL     1      12.505  -9.913   4.575  1.00  0.00     0.136 C 
ATOM      7  O   UNL     1      11.441  -9.409   4.898  1.00  0.00    -0.299 OA
ATOM      8  C   UNL     1      13.627  -9.025   4.106  1.00  0.00     0.079 C 
ENDROOT
BRANCH   5   9
ATOM      9  C   UNL     1      11.535 -12.281   5.111  1.00  0.00    -0.007 C 
ATOM     10  C   UNL     1      11.882 -13.779   5.125  1.00  0.00     0.008 C 
ATOM     11  C   UNL     1      10.162 -12.050   4.455  1.00  0.00     0.008 C 
ENDBRANCH   5   9
TORSDOF 1
ENDMDL
MODEL 6
REMARK VINA RESULT:     0.926      1.675      2.251
REMARK INTER + INTRA:           1.317
REMARK INTER:                   1.484
REMARK INTRA:                  -0.167
REMARK UNBOUND:                 0.337
REMARK SMILES CC(C)[C@@H]1CC[C@@H](C)CC1=O
REMARK SMILES IDX 8 1 7 2 6 3 5 4 4 5 10 6 11 7 9 8 2 9 1 10 3 11
REMARK H PARENT
REMARK Flexibility Score: inf
ROOT
ATOM      1  C   UNL     1      16.099 -10.168   5.124  1.00  0.00     0.008 C 
ATOM      2  C   UNL     1      14.611  -9.844   4.952  1.00  0.00    -0.007 C 
ATOM      3  C   UNL     1      13.758 -11.117   5.111  1.00  0.00     0.004 C 
ATOM      4  C   UNL     1      12.263 -10.792   4.976  1.00  0.00     0.012 C 
ATOM      5  C   UNL     1      11.945 -10.160   3.602  1.00  0.00     0.058 C 
ATOM      6  C   UNL     1      12.883  -8.990   3.352  1.00  0.00     0.136 C 
ATOM      7  O   UNL     1      12.487  -7.938   2.874  1.00  0.00    -0.299 OA
ATOM      8  C   UNL     1      14.358  -9.184   3.584  1.00  0.00     0.079 C 
ENDROOT
BRANCH   5   9
ATOM      9  C   UNL     1      10.419  -9.861   3.448  1.00  0.00    -0.007 C 
ATOM     10  C   UNL     1       9.638 -10.184   4.732  1.00  0.00     0.008 C 
ATOM     11  C   UNL     1       9.759 -10.533   2.230  1.00  0.00     0.008 C 
ENDBRANCH   5   9
TORSDOF 1
ENDMDL
MODEL 7
REMARK VINA RESULT:     1.679      1.987      4.904
REMARK INTER + INTRA:           2.115
REMARK INTER:                   1.512
REMARK INTRA:                   0.603
REMARK UNBOUND:                 0.337
REMARK SMILES CC(C)[C@@H]1CC[C@@H](C)CC1=O
REMARK SMILES IDX 8 1 7 2 6 3 5 4 4 5 10 6 11 7 9 8 2 9 1 10 3 11
REMARK H PARENT
REMARK Flexibility Score: inf
ROOT
ATOM      1  C   UNL     1       7.834 -10.087   0.266  1.00  0.00     0.008 C 
ATOM      2  C   UNL     1       8.835 -10.488   1.354  1.00  0.00    -0.007 C 
ATOM      3  C   UNL     1       8.113 -10.716   2.697  1.00  0.00     0.004 C 
ATOM      4  C   UNL     1       9.107 -11.155   3.782  1.00  0.00     0.012 C 
ATOM      5  C   UNL     1      10.213 -10.097   3.996  1.00  0.00     0.058 C 
ATOM      6  C   UNL     1      10.840  -9.740   2.657  1.00  0.00     0.136 C 
ATOM      7  O   UNL     1      12.046  -9.607   2.525  1.00  0.00    -0.299 OA
ATOM      8  C   UNL     1       9.933  -9.419   1.499  1.00  0.00     0.079 C 
ENDROOT
BRANCH   5   9
ATOM      9  C   UNL     1      11.206 -10.525   5.125  1.00  0.00    -0.007 C 
ATOM     10  C   UNL     1      12.482  -9.667   5.122  1.00  0.00     0.008 C 
ATOM     11  C   UNL     1      11.561 -12.023   5.125  1.00  0.00     0.008 C 
ENDBRANCH   5   9
TORSDOF 1
ENDMDL
