MODEL 1
REMARK VINA RESULT:    -3.392      0.000      0.000
REMARK INTER + INTRA:          -3.690
REMARK INTER:                  -3.690
REMARK INTRA:                   0.000
REMARK UNBOUND:                 0.000
REMARK SMILES [NH3+]CC(=O)[O-]
REMARK SMILES IDX 2 1 1 2 3 6 4 7 5 8
REMARK H PARENT 1 3 1 4 1 5
REMARK Flexibility Score: inf
ROOT
ATOM      1  C   UNL     1      16.120  21.551  30.564  1.00  0.00     0.312 C 
ENDROOT
BRANCH   1   2
ATOM      2  N   UNL     1      17.163  20.541  30.733  1.00  0.00    -0.353 N 
ATOM      3  H   UNL     1      17.266  19.982  29.855  1.00  0.00     0.344 HD
ATOM      4  H   UNL     1      18.070  21.018  30.940  1.00  0.00     0.344 HD
ATOM      5  H   UNL     1      16.923  19.907  31.530  1.00  0.00     0.344 HD
ENDBRANCH   1   2
BRANCH   1   6
ATOM      6  C   UNL     1      16.139  22.103  29.172  1.00  0.00     0.096 C 
ATOM      7  O   UNL     1      17.061  21.784  28.377  1.00  0.00    -0.544 OA
ATOM      8  O   UNL     1      15.109  22.929  28.737  1.00  0.00    -0.544 OA
ENDBRANCH   1   6
TORSDOF 2
ENDMDL
MODEL 2
REMARK VINA RESULT:    -3.373      2.003      2.212
REMARK INTER + INTRA:          -3.669
REMARK INTER:                  -3.669
REMARK INTRA:                   0.000
REMARK UNBOUND:                 0.000
REMARK SMILES [NH3+]CC(=O)[O-]
REMARK SMILES IDX 2 1 1 2 3 6 4 7 5 8
REMARK H PARENT 1 3 1 4 1 5
REMARK Flexibility Score: inf
ROOT
ATOM      1  C   UNL     1      16.312  22.215  28.852  1.00  0.00     0.312 C 
ENDROOT
BRANCH   1   2
ATOM      2  N   UNL     1      17.552  21.610  28.370  1.00  0.00    -0.353 N 
ATOM      3  H   UNL     1      17.856  22.075  27.483  1.00  0.00     0.344 HD
ATOM      4  H   UNL     1      18.297  21.735  29.091  1.00  0.00     0.344 HD
ATOM      5  H   UNL     1      17.411  20.587  28.201  1.00  0.00     0.344 HD
ENDBRANCH   1   2
BRANCH   1   6
ATOM      6  C   UNL     1      16.053  21.827  30.275  1.00  0.00     0.096 C 
ATOM      7  O   UNL     1      16.442  20.712  30.708  1.00  0.00    -0.544 OA
ATOM      8  O   UNL     1      15.427  22.720  31.137  1.00  0.00    -0.544 OA
ENDBRANCH   1   6
TORSDOF 2
ENDMDL
MODEL 3
REMARK VINA RESULT:    -2.950     18.502     18.672
REMARK INTER + INTRA:          -3.209
REMARK INTER:                  -3.209
REMARK INTRA:                   0.000
REMARK UNBOUND:                 0.000
REMARK SMILES [NH3+]CC(=O)[O-]
REMARK SMILES IDX 2 1 1 2 3 6 4 7 5 8
REMARK H PARENT 1 3 1 4 1 5
REMARK Flexibility Score: inf
ROOT
ATOM      1  C   UNL     1      17.850   3.651  35.931  1.00  0.00     0.312 C 
ENDROOT
BRANCH   1   2
ATOM      2  N   UNL     1      17.939   4.947  36.602  1.00  0.00    -0.353 N 
ATOM      3  H   UNL     1      18.711   5.515  36.183  1.00  0.00     0.344 HD
ATOM      4  H   UNL     1      17.037   5.459  36.479  1.00  0.00     0.344 HD
ATOM      5  H   UNL     1      18.116   4.810  37.624  1.00  0.00     0.344 HD
ENDBRANCH   1   2
BRANCH   1   6
ATOM      6  C   UNL     1      17.490   3.827  34.488  1.00  0.00     0.096 C 
ATOM      7  O   UNL     1      16.292   4.020  34.153  1.00  0.00    -0.544 OA
ATOM      8  O   UNL     1      18.485   3.829  33.518  1.00  0.00    -0.544 OA
ENDBRANCH   1   6
TORSDOF 2
ENDMDL
MODEL 4
REMARK VINA RESULT:    -2.839     18.655     18.967
REMARK INTER + INTRA:          -3.087
REMARK INTER:                  -3.087
REMARK INTRA:                   0.000
REMARK UNBOUND:                 0.000
REMARK SMILES [NH3+]CC(=O)[O-]
REMARK SMILES IDX 2 1 1 2 3 6 4 7 5 8
REMARK H PARENT 1 3 1 4 1 5
REMARK Flexibility Score: inf
ROOT
ATOM      1  C   UNL     1      15.599   6.396  20.246  1.00  0.00     0.312 C 
ENDROOT
BRANCH   1   2
ATOM      2  N   UNL     1      15.897   6.582  18.828  1.00  0.00    -0.353 N 
ATOM      3  H   UNL     1      15.432   7.451  18.474  1.00  0.00     0.344 HD
ATOM      4  H   UNL     1      16.930   6.678  18.705  1.00  0.00     0.344 HD
ATOM      5  H   UNL     1      15.565   5.755  18.278  1.00  0.00     0.344 HD
ENDBRANCH   1   2
BRANCH   1   6
ATOM      6  C   UNL     1      16.073   5.054  20.714  1.00  0.00     0.096 C 
ATOM      7  O   UNL     1      15.549   4.004  20.260  1.00  0.00    -0.544 OA
ATOM      8  O   UNL     1      17.129   4.964  21.613  1.00  0.00    -0.544 OA
ENDBRANCH   1   6
TORSDOF 2
ENDMDL
MODEL 5
REMARK VINA RESULT:    -2.603      9.821     10.289
REMARK INTER + INTRA:          -2.831
REMARK INTER:                  -2.831
REMARK INTRA:                   0.000
REMARK UNBOUND:                 0.000
REMARK SMILES [NH3+]CC(=O)[O-]
REMARK SMILES IDX 2 1 1 2 3 6 4 7 5 8
REMARK H PARENT 1 3 1 4 1 5
REMARK Flexibility Score: inf
ROOT
ATOM      1  C   UNL     1      16.190  15.240  37.058  1.00  0.00     0.312 C 
ENDROOT
BRANCH   1   2
ATOM      2  N   UNL     1      14.858  15.227  36.456  1.00  0.00    -0.353 N 
ATOM      3  H   UNL     1      14.878  14.702  35.551  1.00  0.00     0.344 HD
ATOM      4  H   UNL     1      14.192  14.754  37.108  1.00  0.00     0.344 HD
ATOM      5  H   UNL     1      14.530  16.207  36.289  1.00  0.00     0.344 HD
ENDBRANCH   1   2
BRANCH   1   6
ATOM      6  C   UNL     1      17.105  14.300  36.337  1.00  0.00     0.096 C 
ATOM      7  O   UNL     1      17.503  14.571  35.173  1.00  0.00    -0.544 OA
ATOM      8  O   UNL     1      17.562  13.150  36.969  1.00  0.00    -0.544 OA
ENDBRANCH   1   6
TORSDOF 2
ENDMDL
MODEL 6
REMARK VINA RESULT:    -2.602     21.713     21.876
REMARK INTER + INTRA:          -2.830
REMARK INTER:                  -2.830
REMARK INTRA:                   0.000
REMARK UNBOUND:                 0.000
REMARK SMILES [NH3+]CC(=O)[O-]
REMARK SMILES IDX 2 1 1 2 3 6 4 7 5 8
REMARK H PARENT 1 3 1 4 1 5
REMARK Flexibility Score: inf
ROOT
ATOM      1  C   UNL     1       2.226   9.077  17.257  1.00  0.00     0.312 C 
ENDROOT
BRANCH   1   2
ATOM      2  N   UNL     1       3.623   8.876  16.875  1.00  0.00    -0.353 N 
ATOM      3  H   UNL     1       4.178   9.739  17.077  1.00  0.00     0.344 HD
ATOM      4  H   UNL     1       4.018   8.082  17.428  1.00  0.00     0.344 HD
ATOM      5  H   UNL     1       3.687   8.645  15.856  1.00  0.00     0.344 HD
ENDBRANCH   1   2
BRANCH   1   6
ATOM      6  C   UNL     1       2.118   9.405  18.714  1.00  0.00     0.096 C 
ATOM      7  O   UNL     1       2.451   8.555  19.581  1.00  0.00    -0.544 OA
ATOM      8  O   UNL     1       1.700  10.669  19.114  1.00  0.00    -0.544 OA
ENDBRANCH   1   6
TORSDOF 2
ENDMDL
MODEL 7
REMARK VINA RESULT:    -2.600     21.557     21.698
REMARK INTER + INTRA:          -2.828
REMARK INTER:                  -2.828
REMARK INTRA:                   0.000
REMARK UNBOUND:                 0.000
REMARK SMILES [NH3+]CC(=O)[O-]
REMARK SMILES IDX 2 1 1 2 3 6 4 7 5 8
REMARK H PARENT 1 3 1 4 1 5
REMARK Flexibility Score: inf
ROOT
ATOM      1  C   UNL     1       2.182   9.297  19.452  1.00  0.00     0.312 C 
ENDROOT
BRANCH   1   2
ATOM      2  N   UNL     1       2.758   8.035  19.911  1.00  0.00    -0.353 N 
ATOM      3  H   UNL     1       3.704   8.202  20.326  1.00  0.00     0.344 HD
ATOM      4  H   UNL     1       2.136   7.620  20.640  1.00  0.00     0.344 HD
ATOM      5  H   UNL     1       2.837   7.364  19.111  1.00  0.00     0.344 HD
ENDBRANCH   1   2
BRANCH   1   6
ATOM      6  C   UNL     1       2.504   9.532  18.008  1.00  0.00     0.096 C 
ATOM      7  O   UNL     1       1.982   8.811  17.118  1.00  0.00    -0.544 OA
ATOM      8  O   UNL     1       3.340  10.580  17.643  1.00  0.00    -0.544 OA
ENDBRANCH   1   6
TORSDOF 2
ENDMDL
MODEL 8
REMARK VINA RESULT:    -2.508     20.962     21.140
REMARK INTER + INTRA:          -2.728
REMARK INTER:                  -2.728
REMARK INTRA:                   0.000
REMARK UNBOUND:                 0.000
REMARK SMILES [NH3+]CC(=O)[O-]
REMARK SMILES IDX 2 1 1 2 3 6 4 7 5 8
REMARK H PARENT 1 3 1 4 1 5
REMARK Flexibility Score: inf
ROOT
ATOM      1  C   UNL     1       1.841  11.644  17.764  1.00  0.00     0.312 C 
ENDROOT
BRANCH   1   2
ATOM      2  N   UNL     1       1.326  11.850  19.116  1.00  0.00    -0.353 N 
ATOM      3  H   UNL     1       1.935  12.525  19.634  1.00  0.00     0.344 HD
ATOM      4  H   UNL     1       0.359  12.243  19.058  1.00  0.00     0.344 HD
ATOM      5  H   UNL     1       1.291  10.939  19.631  1.00  0.00     0.344 HD
ENDBRANCH   1   2
BRANCH   1   6
ATOM      6  C   UNL     1       2.864  10.551  17.749  1.00  0.00     0.096 C 
ATOM      7  O   UNL     1       2.529   9.366  18.009  1.00  0.00    -0.544 OA
ATOM      8  O   UNL     1       4.179  10.833  17.397  1.00  0.00    -0.544 OA
ENDBRANCH   1   6
TORSDOF 2
ENDMDL
MODEL 9
REMARK VINA RESULT:    -2.493     21.112     21.261
REMARK INTER + INTRA:          -2.711
REMARK INTER:                  -2.711
REMARK INTRA:                   0.000
REMARK UNBOUND:                 0.000
REMARK SMILES [NH3+]CC(=O)[O-]
REMARK SMILES IDX 2 1 1 2 3 6 4 7 5 8
REMARK H PARENT 1 3 1 4 1 5
REMARK Flexibility Score: inf
ROOT
ATOM      1  C   UNL     1       2.470   9.433  17.435  1.00  0.00     0.312 C 
ENDROOT
BRANCH   1   2
ATOM      2  N   UNL     1       2.851   8.882  18.734  1.00  0.00    -0.353 N 
ATOM      3  H   UNL     1       3.410   9.584  19.272  1.00  0.00     0.344 HD
ATOM      4  H   UNL     1       1.987   8.651  19.275  1.00  0.00     0.344 HD
ATOM      5  H   UNL     1       3.413   8.009  18.603  1.00  0.00     0.344 HD
ENDBRANCH   1   2
BRANCH   1   6
ATOM      6  C   UNL     1       3.124  10.761  17.211  1.00  0.00     0.096 C 
ATOM      7  O   UNL     1       4.376  10.870  17.280  1.00  0.00    -0.544 OA
ATOM      8  O   UNL     1       2.354  11.868  16.875  1.00  0.00    -0.544 OA
ENDBRANCH   1   6
TORSDOF 2
ENDMDL
