MODEL 1
REMARK VINA RESULT:    -3.888      0.000      0.000
REMARK INTER + INTRA:          -4.302
REMARK INTER:                  -4.229
REMARK INTRA:                  -0.073
REMARK UNBOUND:                -0.073
REMARK SMILES CCc1cccc(O)c1
REMARK SMILES IDX 3 1 9 2 7 3 6 4 5 5 4 6 2 7 1 8 8 9
REMARK H PARENT 8 10
REMARK Flexibility Score: inf
ROOT
ATOM      1  C   UNL     1       6.512  12.234   7.810  1.00  0.00    -0.045 A 
ATOM      2  C   UNL     1       7.376  13.287   7.463  1.00  0.00     0.049 A 
ATOM      3  C   UNL     1       8.706  13.023   7.107  1.00  0.00     0.115 A 
ATOM      4  C   UNL     1       9.172  11.705   7.089  1.00  0.00     0.046 A 
ATOM      5  C   UNL     1       8.314  10.652   7.420  1.00  0.00     0.004 A 
ATOM      6  C   UNL     1       6.987  10.913   7.774  1.00  0.00     0.004 A 
ENDROOT
BRANCH   1   7
ATOM      7  C   UNL     1       5.075  12.515   8.160  1.00  0.00     0.032 C 
ATOM      8  C   UNL     1       4.173  11.379   7.689  1.00  0.00     0.009 C 
ENDBRANCH   1   7
BRANCH   3   9
ATOM      9  O   UNL     1       9.570  14.062   6.769  1.00  0.00    -0.508 OA
ATOM     10  H   UNL     1       9.343  15.027   6.975  1.00  0.00     0.293 HD
ENDBRANCH   3   9
TORSDOF 2
ENDMDL
MODEL 2
REMARK VINA RESULT:    -3.734      0.986      2.922
REMARK INTER + INTRA:          -4.134
REMARK INTER:                  -4.083
REMARK INTRA:                  -0.052
REMARK UNBOUND:                -0.073
REMARK SMILES CCc1cccc(O)c1
REMARK SMILES IDX 3 1 9 2 7 3 6 4 5 5 4 6 2 7 1 8 8 9
REMARK H PARENT 8 10
REMARK Flexibility Score: inf
ROOT
ATOM      1  C   UNL     1       7.775  10.848   7.550  1.00  0.00    -0.045 A 
ATOM      2  C   UNL     1       8.830  11.700   7.183  1.00  0.00     0.049 A 
ATOM      3  C   UNL     1       8.630  13.086   7.117  1.00  0.00     0.115 A 
ATOM      4  C   UNL     1       7.377  13.623   7.428  1.00  0.00     0.046 A 
ATOM      5  C   UNL     1       6.328  12.782   7.808  1.00  0.00     0.004 A 
ATOM      6  C   UNL     1       6.525  11.400   7.875  1.00  0.00     0.004 A 
ENDROOT
BRANCH   1   7
ATOM      7  C   UNL     1       7.999   9.363   7.653  1.00  0.00     0.032 C 
ATOM      8  C   UNL     1       9.485   9.049   7.792  1.00  0.00     0.009 C 
ENDBRANCH   1   7
BRANCH   3   9
ATOM      9  O   UNL     1       9.670  13.937   6.747  1.00  0.00    -0.508 OA
ATOM     10  H   UNL     1      10.474  13.597   6.233  1.00  0.00     0.293 HD
ENDBRANCH   3   9
TORSDOF 2
ENDMDL
MODEL 3
REMARK VINA RESULT:    -3.594      1.250      2.316
REMARK INTER + INTRA:          -3.982
REMARK INTER:                  -3.906
REMARK INTRA:                  -0.076
REMARK UNBOUND:                -0.073
REMARK SMILES CCc1cccc(O)c1
REMARK SMILES IDX 3 1 9 2 7 3 6 4 5 5 4 6 2 7 1 8 8 9
REMARK H PARENT 8 10
REMARK Flexibility Score: inf
ROOT
ATOM      1  C   UNL     1       5.654  11.444   7.672  1.00  0.00    -0.045 A 
ATOM      2  C   UNL     1       7.042  11.231   7.732  1.00  0.00     0.049 A 
ATOM      3  C   UNL     1       7.924  12.321   7.762  1.00  0.00     0.115 A 
ATOM      4  C   UNL     1       7.419  13.625   7.741  1.00  0.00     0.046 A 
ATOM      5  C   UNL     1       6.039  13.842   7.695  1.00  0.00     0.004 A 
ATOM      6  C   UNL     1       5.158  12.758   7.666  1.00  0.00     0.004 A 
ENDROOT
BRANCH   1   7
ATOM      7  C   UNL     1       4.706  10.275   7.674  1.00  0.00     0.032 C 
ATOM      8  C   UNL     1       3.258  10.753   7.630  1.00  0.00     0.009 C 
ENDBRANCH   1   7
BRANCH   3   9
ATOM      9  O   UNL     1       9.301  12.118   7.815  1.00  0.00    -0.508 OA
ATOM     10  H   UNL     1       9.925  12.540   7.138  1.00  0.00     0.293 HD
ENDBRANCH   3   9
TORSDOF 2
ENDMDL
MODEL 4
REMARK VINA RESULT:    -3.465      1.600      2.232
REMARK INTER + INTRA:          -3.842
REMARK INTER:                  -3.776
REMARK INTRA:                  -0.066
REMARK UNBOUND:                -0.073
REMARK SMILES CCc1cccc(O)c1
REMARK SMILES IDX 3 1 9 2 7 3 6 4 5 5 4 6 2 7 1 8 8 9
REMARK H PARENT 8 10
REMARK Flexibility Score: inf
ROOT
ATOM      1  C   UNL     1       5.678  13.412   7.892  1.00  0.00    -0.045 A 
ATOM      2  C   UNL     1       7.082  13.407   7.859  1.00  0.00     0.049 A 
ATOM      3  C   UNL     1       7.783  12.196   7.765  1.00  0.00     0.115 A 
ATOM      4  C   UNL     1       7.080  10.990   7.695  1.00  0.00     0.046 A 
ATOM      5  C   UNL     1       5.683  10.990   7.714  1.00  0.00     0.004 A 
ATOM      6  C   UNL     1       4.982  12.195   7.806  1.00  0.00     0.004 A 
ENDROOT
BRANCH   1   7
ATOM      7  C   UNL     1       4.924  14.714   7.960  1.00  0.00     0.032 C 
ATOM      8  C   UNL     1       3.983  14.855   6.768  1.00  0.00     0.009 C 
ENDBRANCH   1   7
BRANCH   3   9
ATOM      9  O   UNL     1       9.176  12.183   7.738  1.00  0.00    -0.508 OA
ATOM     10  H   UNL     1       9.724  12.505   8.527  1.00  0.00     0.293 HD
ENDBRANCH   3   9
TORSDOF 2
ENDMDL
MODEL 5
REMARK VINA RESULT:    -3.423     10.341     11.477
REMARK INTER + INTRA:          -3.796
REMARK INTER:                  -3.721
REMARK INTRA:                  -0.075
REMARK UNBOUND:                -0.073
REMARK SMILES CCc1cccc(O)c1
REMARK SMILES IDX 3 1 9 2 7 3 6 4 5 5 4 6 2 7 1 8 8 9
REMARK H PARENT 8 10
REMARK Flexibility Score: inf
ROOT
ATOM      1  C   UNL     1      15.774   6.012  10.778  1.00  0.00    -0.045 A 
ATOM      2  C   UNL     1      16.273   5.581  12.019  1.00  0.00     0.049 A 
ATOM      3  C   UNL     1      16.077   6.359  13.169  1.00  0.00     0.115 A 
ATOM      4  C   UNL     1      15.374   7.564  13.082  1.00  0.00     0.046 A 
ATOM      5  C   UNL     1      14.863   7.991  11.852  1.00  0.00     0.004 A 
ATOM      6  C   UNL     1      15.056   7.218  10.705  1.00  0.00     0.004 A 
ENDROOT
BRANCH   1   7
ATOM      7  C   UNL     1      15.955   5.161   9.550  1.00  0.00     0.032 C 
ATOM      8  C   UNL     1      15.642   5.960   8.288  1.00  0.00     0.009 C 
ENDBRANCH   1   7
BRANCH   3   9
ATOM      9  O   UNL     1      16.575   5.941  14.401  1.00  0.00    -0.508 OA
ATOM     10  H   UNL     1      15.961   5.762  15.187  1.00  0.00     0.293 HD
ENDBRANCH   3   9
TORSDOF 2
ENDMDL
MODEL 6
REMARK VINA RESULT:    -3.414      2.333      4.043
REMARK INTER + INTRA:          -3.786
REMARK INTER:                  -3.736
REMARK INTRA:                  -0.050
REMARK UNBOUND:                -0.073
REMARK SMILES CCc1cccc(O)c1
REMARK SMILES IDX 3 1 9 2 7 3 6 4 5 5 4 6 2 7 1 8 8 9
REMARK H PARENT 8 10
REMARK Flexibility Score: inf
ROOT
ATOM      1  C   UNL     1       7.668  11.714   7.816  1.00  0.00    -0.045 A 
ATOM      2  C   UNL     1       6.514  10.920   7.711  1.00  0.00     0.049 A 
ATOM      3  C   UNL     1       5.246  11.519   7.661  1.00  0.00     0.115 A 
ATOM      4  C   UNL     1       5.133  12.911   7.707  1.00  0.00     0.046 A 
ATOM      5  C   UNL     1       6.279  13.706   7.797  1.00  0.00     0.004 A 
ATOM      6  C   UNL     1       7.543  13.113   7.846  1.00  0.00     0.004 A 
ENDROOT
BRANCH   1   7
ATOM      7  C   UNL     1       9.030  11.073   7.836  1.00  0.00     0.032 C 
ATOM      8  C   UNL     1       9.232  10.195   6.606  1.00  0.00     0.009 C 
ENDBRANCH   1   7
BRANCH   3   9
ATOM      9  O   UNL     1       4.096  10.738   7.564  1.00  0.00    -0.508 OA
ATOM     10  H   UNL     1       3.178  11.156   7.478  1.00  0.00     0.293 HD
ENDBRANCH   3   9
TORSDOF 2
ENDMDL
MODEL 7
REMARK VINA RESULT:    -3.372      2.162      2.914
REMARK INTER + INTRA:          -3.741
REMARK INTER:                  -3.687
REMARK INTRA:                  -0.054
REMARK UNBOUND:                -0.073
REMARK SMILES CCc1cccc(O)c1
REMARK SMILES IDX 3 1 9 2 7 3 6 4 5 5 4 6 2 7 1 8 8 9
REMARK H PARENT 8 10
REMARK Flexibility Score: inf
ROOT
ATOM      1  C   UNL     1       8.102  11.198   7.648  1.00  0.00    -0.045 A 
ATOM      2  C   UNL     1       9.251  11.133   6.843  1.00  0.00     0.049 A 
ATOM      3  C   UNL     1       9.514   9.988   6.076  1.00  0.00     0.115 A 
ATOM      4  C   UNL     1       8.623   8.911   6.108  1.00  0.00     0.046 A 
ATOM      5  C   UNL     1       7.471   8.976   6.896  1.00  0.00     0.004 A 
ATOM      6  C   UNL     1       7.206  10.116   7.660  1.00  0.00     0.004 A 
ENDROOT
BRANCH   1   7
ATOM      7  C   UNL     1       7.803  12.440   8.445  1.00  0.00     0.032 C 
ATOM      8  C   UNL     1       6.921  13.395   7.646  1.00  0.00     0.009 C 
ENDBRANCH   1   7
BRANCH   3   9
ATOM      9  O   UNL     1      10.655   9.913   5.281  1.00  0.00    -0.508 OA
ATOM     10  H   UNL     1      11.100  10.746   4.913  1.00  0.00     0.293 HD
ENDBRANCH   3   9
TORSDOF 2
ENDMDL
MODEL 8
REMARK VINA RESULT:    -3.343      1.570      3.393
REMARK INTER + INTRA:          -3.709
REMARK INTER:                  -3.656
REMARK INTRA:                  -0.053
REMARK UNBOUND:                -0.073
REMARK SMILES CCc1cccc(O)c1
REMARK SMILES IDX 3 1 9 2 7 3 6 4 5 5 4 6 2 7 1 8 8 9
REMARK H PARENT 8 10
REMARK Flexibility Score: inf
ROOT
ATOM      1  C   UNL     1       7.810  10.960   7.636  1.00  0.00    -0.045 A 
ATOM      2  C   UNL     1       7.695  12.341   7.870  1.00  0.00     0.049 A 
ATOM      3  C   UNL     1       6.430  12.935   7.992  1.00  0.00     0.115 A 
ATOM      4  C   UNL     1       5.280  12.147   7.889  1.00  0.00     0.046 A 
ATOM      5  C   UNL     1       5.388  10.771   7.671  1.00  0.00     0.004 A 
ATOM      6  C   UNL     1       6.647  10.177   7.550  1.00  0.00     0.004 A 
ENDROOT
BRANCH   1   7
ATOM      7  C   UNL     1       9.167  10.317   7.539  1.00  0.00     0.032 C 
ATOM      8  C   UNL     1       9.530  10.039   6.083  1.00  0.00     0.009 C 
ENDBRANCH   1   7
BRANCH   3   9
ATOM      9  O   UNL     1       6.308  14.304   8.216  1.00  0.00    -0.508 OA
ATOM     10  H   UNL     1       5.992  14.669   9.107  1.00  0.00     0.293 HD
ENDBRANCH   3   9
TORSDOF 2
ENDMDL
MODEL 9
REMARK VINA RESULT:    -3.294      3.109      4.207
REMARK INTER + INTRA:          -3.656
REMARK INTER:                  -3.588
REMARK INTRA:                  -0.067
REMARK UNBOUND:                -0.073
REMARK SMILES CCc1cccc(O)c1
REMARK SMILES IDX 3 1 9 2 7 3 6 4 5 5 4 6 2 7 1 8 8 9
REMARK H PARENT 8 10
REMARK Flexibility Score: inf
ROOT
ATOM      1  C   UNL     1       9.198   9.965   7.123  1.00  0.00    -0.045 A 
ATOM      2  C   UNL     1       9.929  10.058   5.927  1.00  0.00     0.049 A 
ATOM      3  C   UNL     1      10.857   9.063   5.586  1.00  0.00     0.115 A 
ATOM      4  C   UNL     1      11.047   7.969   6.436  1.00  0.00     0.046 A 
ATOM      5  C   UNL     1      10.312   7.865   7.620  1.00  0.00     0.004 A 
ATOM      6  C   UNL     1       9.387   8.854   7.961  1.00  0.00     0.004 A 
ENDROOT
BRANCH   1   7
ATOM      7  C   UNL     1       8.178  11.016   7.473  1.00  0.00     0.032 C 
ATOM      8  C   UNL     1       8.306  11.426   8.936  1.00  0.00     0.009 C 
ENDBRANCH   1   7
BRANCH   3   9
ATOM      9  O   UNL     1      11.591   9.152   4.405  1.00  0.00    -0.508 OA
ATOM     10  H   UNL     1      11.340   9.807   3.674  1.00  0.00     0.293 HD
ENDBRANCH   3   9
TORSDOF 2
ENDMDL
