MODEL 1
REMARK VINA RESULT:    -5.603      0.000      0.000
REMARK INTER + INTRA:          -5.603
REMARK INTER:                  -5.603
REMARK INTRA:                   0.000
REMARK UNBOUND:                 0.000
REMARK SMILES Cc1cc2cc3c(C)cc(=O)oc3c(C)c2o1
REMARK SMILES IDX 8 1 7 2 9 3 10 4 11 5 12 6 13 7 6 8 5 9 4 10 3 11 2 12 17 13
REMARK SMILES IDX 16 14 14 15 15 16 1 17
REMARK H PARENT
REMARK Flexibility Score: inf
ROOT
ATOM      1  C   UNL     1      22.154  -1.086  21.626  1.00  0.00     0.045 C 
ATOM      2  C   UNL     1      23.163  -0.927  20.516  1.00  0.00    -0.033 A 
ATOM      3  C   UNL     1      24.177   0.030  20.646  1.00  0.00     0.098 A 
ATOM      4  C   UNL     1      25.116   0.183  19.625  1.00  0.00     0.336 A 
ATOM      5  O   UNL     1      26.030   1.041  19.737  1.00  0.00    -0.246 OA
ATOM      6  O   UNL     1      25.054  -0.569  18.533  1.00  0.00    -0.422 OA
ATOM      7  C   UNL     1      24.118  -1.495  18.344  1.00  0.00     0.145 A 
ATOM      8  C   UNL     1      23.118  -1.717  19.346  1.00  0.00     0.022 A 
ATOM      9  C   UNL     1      22.131  -2.711  19.140  1.00  0.00     0.024 A 
ATOM     10  C   UNL     1      22.175  -3.443  17.960  1.00  0.00     0.022 A 
ATOM     11  C   UNL     1      21.367  -4.461  17.510  1.00  0.00     0.054 A 
ATOM     12  C   UNL     1      21.904  -4.802  16.274  1.00  0.00     0.102 A 
ATOM     13  O   UNL     1      22.956  -4.056  15.996  1.00  0.00    -0.461 OA
ATOM     14  C   UNL     1      23.131  -3.231  17.003  1.00  0.00     0.140 A 
ATOM     15  C   UNL     1      24.119  -2.254  17.149  1.00  0.00     0.036 A 
ATOM     16  C   UNL     1      25.176  -2.056  16.101  1.00  0.00     0.052 C 
ATOM     17  C   UNL     1      21.389  -5.878  15.379  1.00  0.00     0.087 C 
ENDROOT
TORSDOF 0
ENDMDL
MODEL 2
REMARK VINA RESULT:    -5.571     11.941     14.847
REMARK INTER + INTRA:          -5.571
REMARK INTER:                  -5.571
REMARK INTRA:                   0.000
REMARK UNBOUND:                 0.000
REMARK SMILES Cc1cc2cc3c(C)cc(=O)oc3c(C)c2o1
REMARK SMILES IDX 8 1 7 2 9 3 10 4 11 5 12 6 13 7 6 8 5 9 4 10 3 11 2 12 17 13
REMARK SMILES IDX 16 14 14 15 15 16 1 17
REMARK H PARENT
REMARK Flexibility Score: inf
ROOT
ATOM      1  C   UNL     1      27.490  -1.089   8.572  1.00  0.00     0.045 C 
ATOM      2  C   UNL     1      27.846  -0.897   7.120  1.00  0.00    -0.033 A 
ATOM      3  C   UNL     1      26.828  -0.911   6.158  1.00  0.00     0.098 A 
ATOM      4  C   UNL     1      27.148  -0.731   4.812  1.00  0.00     0.336 A 
ATOM      5  O   UNL     1      26.236  -0.743   3.944  1.00  0.00    -0.246 OA
ATOM      6  O   UNL     1      28.408  -0.550   4.436  1.00  0.00    -0.422 OA
ATOM      7  C   UNL     1      29.423  -0.526   5.295  1.00  0.00     0.145 A 
ATOM      8  C   UNL     1      29.179  -0.699   6.696  1.00  0.00     0.022 A 
ATOM      9  C   UNL     1      30.265  -0.663   7.604  1.00  0.00     0.024 A 
ATOM     10  C   UNL     1      31.540  -0.455   7.092  1.00  0.00     0.022 A 
ATOM     11  C   UNL     1      32.755  -0.361   7.731  1.00  0.00     0.054 A 
ATOM     12  C   UNL     1      33.665  -0.142   6.703  1.00  0.00     0.102 A 
ATOM     13  O   UNL     1      33.053  -0.100   5.535  1.00  0.00    -0.461 OA
ATOM     14  C   UNL     1      31.773  -0.289   5.753  1.00  0.00     0.140 A 
ATOM     15  C   UNL     1      30.739  -0.329   4.813  1.00  0.00     0.036 A 
ATOM     16  C   UNL     1      31.011  -0.117   3.352  1.00  0.00     0.052 C 
ATOM     17  C   UNL     1      35.133   0.047   6.880  1.00  0.00     0.087 C 
ENDROOT
TORSDOF 0
ENDMDL
MODEL 3
REMARK VINA RESULT:    -5.487      0.973      1.149
REMARK INTER + INTRA:          -5.487
REMARK INTER:                  -5.487
REMARK INTRA:                   0.000
REMARK UNBOUND:                 0.000
REMARK SMILES Cc1cc2cc3c(C)cc(=O)oc3c(C)c2o1
REMARK SMILES IDX 8 1 7 2 9 3 10 4 11 5 12 6 13 7 6 8 5 9 4 10 3 11 2 12 17 13
REMARK SMILES IDX 16 14 14 15 15 16 1 17
REMARK H PARENT
REMARK Flexibility Score: inf
ROOT
ATOM      1  C   UNL     1      20.813  -2.250  21.383  1.00  0.00     0.045 C 
ATOM      2  C   UNL     1      21.974  -1.866  20.500  1.00  0.00    -0.033 A 
ATOM      3  C   UNL     1      22.841  -0.847  20.915  1.00  0.00     0.098 A 
ATOM      4  C   UNL     1      23.919  -0.486  20.105  1.00  0.00     0.336 A 
ATOM      5  O   UNL     1      24.701   0.429  20.474  1.00  0.00    -0.246 OA
ATOM      6  O   UNL     1      24.127  -1.100  18.947  1.00  0.00    -0.422 OA
ATOM      7  C   UNL     1      23.344  -2.074  18.493  1.00  0.00     0.145 A 
ATOM      8  C   UNL     1      22.218  -2.506  19.265  1.00  0.00     0.022 A 
ATOM      9  C   UNL     1      21.395  -3.550  18.777  1.00  0.00     0.024 A 
ATOM     10  C   UNL     1      21.721  -4.123  17.554  1.00  0.00     0.022 A 
ATOM     11  C   UNL     1      21.118  -5.145  16.858  1.00  0.00     0.054 A 
ATOM     12  C   UNL     1      21.894  -5.281  15.712  1.00  0.00     0.102 A 
ATOM     13  O   UNL     1      22.890  -4.416  15.713  1.00  0.00    -0.461 OA
ATOM     14  C   UNL     1      22.798  -3.711  16.816  1.00  0.00     0.140 A 
ATOM     15  C   UNL     1      23.634  -2.676  17.244  1.00  0.00     0.036 A 
ATOM     16  C   UNL     1      24.827  -2.256  16.435  1.00  0.00     0.052 C 
ATOM     17  C   UNL     1      21.660  -6.279  14.628  1.00  0.00     0.087 C 
ENDROOT
TORSDOF 0
ENDMDL
MODEL 4
REMARK VINA RESULT:    -5.429      1.371      2.951
REMARK INTER + INTRA:          -5.429
REMARK INTER:                  -5.429
REMARK INTRA:                   0.000
REMARK UNBOUND:                 0.000
REMARK SMILES Cc1cc2cc3c(C)cc(=O)oc3c(C)c2o1
REMARK SMILES IDX 8 1 7 2 9 3 10 4 11 5 12 6 13 7 6 8 5 9 4 10 3 11 2 12 17 13
REMARK SMILES IDX 16 14 14 15 15 16 1 17
REMARK H PARENT
REMARK Flexibility Score: inf
ROOT
ATOM      1  C   UNL     1      25.987  -1.184  15.941  1.00  0.00     0.045 C 
ATOM      2  C   UNL     1      25.135  -1.162  17.185  1.00  0.00    -0.033 A 
ATOM      3  C   UNL     1      25.406  -0.217  18.183  1.00  0.00     0.098 A 
ATOM      4  C   UNL     1      24.621  -0.188  19.337  1.00  0.00     0.336 A 
ATOM      5  O   UNL     1      24.860   0.660  20.236  1.00  0.00    -0.246 OA
ATOM      6  O   UNL     1      23.624  -1.049  19.497  1.00  0.00    -0.422 OA
ATOM      7  C   UNL     1      23.313  -1.972  18.591  1.00  0.00     0.145 A 
ATOM      8  C   UNL     1      24.067  -2.066  17.377  1.00  0.00     0.022 A 
ATOM      9  C   UNL     1      23.722  -3.046  16.414  1.00  0.00     0.024 A 
ATOM     10  C   UNL     1      22.649  -3.885  16.689  1.00  0.00     0.022 A 
ATOM     11  C   UNL     1      22.094  -4.899  15.943  1.00  0.00     0.054 A 
ATOM     12  C   UNL     1      21.047  -5.366  16.729  1.00  0.00     0.102 A 
ATOM     13  O   UNL     1      20.968  -4.689  17.859  1.00  0.00    -0.461 OA
ATOM     14  C   UNL     1      21.928  -3.794  17.849  1.00  0.00     0.140 A 
ATOM     15  C   UNL     1      22.234  -2.855  18.838  1.00  0.00     0.036 A 
ATOM     16  C   UNL     1      21.414  -2.752  20.092  1.00  0.00     0.052 C 
ATOM     17  C   UNL     1      20.114  -6.467  16.353  1.00  0.00     0.087 C 
ENDROOT
TORSDOF 0
ENDMDL
MODEL 5
REMARK VINA RESULT:    -5.414      1.892      3.486
REMARK INTER + INTRA:          -5.414
REMARK INTER:                  -5.414
REMARK INTRA:                   0.000
REMARK UNBOUND:                 0.000
REMARK SMILES Cc1cc2cc3c(C)cc(=O)oc3c(C)c2o1
REMARK SMILES IDX 8 1 7 2 9 3 10 4 11 5 12 6 13 7 6 8 5 9 4 10 3 11 2 12 17 13
REMARK SMILES IDX 16 14 14 15 15 16 1 17
REMARK H PARENT
REMARK Flexibility Score: inf
ROOT
ATOM      1  C   UNL     1      25.601   0.360  19.345  1.00  0.00     0.045 C 
ATOM      2  C   UNL     1      25.235  -0.632  18.270  1.00  0.00    -0.033 A 
ATOM      3  C   UNL     1      26.023  -0.711  17.115  1.00  0.00     0.098 A 
ATOM      4  C   UNL     1      25.692  -1.628  16.116  1.00  0.00     0.336 A 
ATOM      5  O   UNL     1      26.398  -1.703  15.076  1.00  0.00    -0.246 OA
ATOM      6  O   UNL     1      24.638  -2.423  16.251  1.00  0.00    -0.422 OA
ATOM      7  C   UNL     1      23.847  -2.400  17.320  1.00  0.00     0.145 A 
ATOM      8  C   UNL     1      24.119  -1.490  18.392  1.00  0.00     0.022 A 
ATOM      9  C   UNL     1      23.277  -1.480  19.531  1.00  0.00     0.024 A 
ATOM     10  C   UNL     1      22.209  -2.368  19.563  1.00  0.00     0.022 A 
ATOM     11  C   UNL     1      21.254  -2.582  20.530  1.00  0.00     0.054 A 
ATOM     12  C   UNL     1      20.458  -3.594  20.006  1.00  0.00     0.102 A 
ATOM     13  O   UNL     1      20.896  -3.969  18.819  1.00  0.00    -0.461 OA
ATOM     14  C   UNL     1      21.949  -3.238  18.538  1.00  0.00     0.140 A 
ATOM     15  C   UNL     1      22.740  -3.280  17.387  1.00  0.00     0.036 A 
ATOM     16  C   UNL     1      22.456  -4.261  16.286  1.00  0.00     0.052 C 
ATOM     17  C   UNL     1      19.280  -4.203  20.688  1.00  0.00     0.087 C 
ENDROOT
TORSDOF 0
ENDMDL
MODEL 6
REMARK VINA RESULT:    -5.350      2.007      4.128
REMARK INTER + INTRA:          -5.350
REMARK INTER:                  -5.350
REMARK INTRA:                   0.000
REMARK UNBOUND:                 0.000
REMARK SMILES Cc1cc2cc3c(C)cc(=O)oc3c(C)c2o1
REMARK SMILES IDX 8 1 7 2 9 3 10 4 11 5 12 6 13 7 6 8 5 9 4 10 3 11 2 12 17 13
REMARK SMILES IDX 16 14 14 15 15 16 1 17
REMARK H PARENT
REMARK Flexibility Score: inf
ROOT
ATOM      1  C   UNL     1      22.796  -0.441  21.684  1.00  0.00     0.045 C 
ATOM      2  C   UNL     1      22.324  -1.506  20.727  1.00  0.00    -0.033 A 
ATOM      3  C   UNL     1      21.232  -2.309  21.081  1.00  0.00     0.098 A 
ATOM      4  C   UNL     1      20.788  -3.297  20.201  1.00  0.00     0.336 A 
ATOM      5  O   UNL     1      19.807  -4.020  20.514  1.00  0.00    -0.246 OA
ATOM      6  O   UNL     1      21.392  -3.482  19.033  1.00  0.00    -0.422 OA
ATOM      7  C   UNL     1      22.433  -2.757  18.635  1.00  0.00     0.145 A 
ATOM      8  C   UNL     1      22.949  -1.721  19.479  1.00  0.00     0.022 A 
ATOM      9  C   UNL     1      24.053  -0.947  19.041  1.00  0.00     0.024 A 
ATOM     10  C   UNL     1      24.594  -1.228  17.793  1.00  0.00     0.022 A 
ATOM     11  C   UNL     1      25.641  -0.639  17.121  1.00  0.00     0.054 A 
ATOM     12  C   UNL     1      25.711  -1.337  15.920  1.00  0.00     0.102 A 
ATOM     13  O   UNL     1      24.780  -2.271  15.865  1.00  0.00    -0.461 OA
ATOM     14  C   UNL     1      24.101  -2.218  16.986  1.00  0.00     0.140 A 
ATOM     15  C   UNL     1      23.023  -3.018  17.374  1.00  0.00     0.036 A 
ATOM     16  C   UNL     1      22.478  -4.081  16.464  1.00  0.00     0.052 C 
ATOM     17  C   UNL     1      26.684  -1.066  14.823  1.00  0.00     0.087 C 
ENDROOT
TORSDOF 0
ENDMDL
MODEL 7
REMARK VINA RESULT:    -5.329      2.145      3.853
REMARK INTER + INTRA:          -5.329
REMARK INTER:                  -5.329
REMARK INTRA:                   0.000
REMARK UNBOUND:                 0.000
REMARK SMILES Cc1cc2cc3c(C)cc(=O)oc3c(C)c2o1
REMARK SMILES IDX 8 1 7 2 9 3 10 4 11 5 12 6 13 7 6 8 5 9 4 10 3 11 2 12 17 13
REMARK SMILES IDX 16 14 14 15 15 16 1 17
REMARK H PARENT
REMARK Flexibility Score: inf
ROOT
ATOM      1  C   UNL     1      20.737  -3.623  19.343  1.00  0.00     0.045 C 
ATOM      2  C   UNL     1      21.676  -2.603  19.934  1.00  0.00    -0.033 A 
ATOM      3  C   UNL     1      21.477  -2.171  21.252  1.00  0.00     0.098 A 
ATOM      4  C   UNL     1      22.343  -1.228  21.807  1.00  0.00     0.336 A 
ATOM      5  O   UNL     1      22.167  -0.837  22.991  1.00  0.00    -0.246 OA
ATOM      6  O   UNL     1      23.351  -0.737  21.098  1.00  0.00    -0.422 OA
ATOM      7  C   UNL     1      23.598  -1.102  19.843  1.00  0.00     0.145 A 
ATOM      8  C   UNL     1      22.758  -2.068  19.200  1.00  0.00     0.022 A 
ATOM      9  C   UNL     1      23.035  -2.457  17.866  1.00  0.00     0.024 A 
ATOM     10  C   UNL     1      24.127  -1.881  17.230  1.00  0.00     0.022 A 
ATOM     11  C   UNL     1      24.629  -2.078  15.964  1.00  0.00     0.054 A 
ATOM     12  C   UNL     1      25.732  -1.234  15.899  1.00  0.00     0.102 A 
ATOM     13  O   UNL     1      25.890  -0.580  17.034  1.00  0.00    -0.461 OA
ATOM     14  C   UNL     1      24.930  -0.959  17.845  1.00  0.00     0.140 A 
ATOM     15  C   UNL     1      24.694  -0.530  19.154  1.00  0.00     0.036 A 
ATOM     16  C   UNL     1      25.603   0.462  19.821  1.00  0.00     0.052 C 
ATOM     17  C   UNL     1      26.638  -1.091  14.723  1.00  0.00     0.087 C 
ENDROOT
TORSDOF 0
ENDMDL
MODEL 8
REMARK VINA RESULT:    -5.106     12.601     15.197
REMARK INTER + INTRA:          -5.106
REMARK INTER:                  -5.106
REMARK INTRA:                   0.000
REMARK UNBOUND:                 0.000
REMARK SMILES Cc1cc2cc3c(C)cc(=O)oc3c(C)c2o1
REMARK SMILES IDX 8 1 7 2 9 3 10 4 11 5 12 6 13 7 6 8 5 9 4 10 3 11 2 12 17 13
REMARK SMILES IDX 16 14 14 15 15 16 1 17
REMARK H PARENT
REMARK Flexibility Score: inf
ROOT
ATOM      1  C   UNL     1      34.259  -0.308   4.019  1.00  0.00     0.045 C 
ATOM      2  C   UNL     1      33.502  -0.297   5.323  1.00  0.00    -0.033 A 
ATOM      3  C   UNL     1      34.215  -0.260   6.528  1.00  0.00     0.098 A 
ATOM      4  C   UNL     1      33.522  -0.248   7.739  1.00  0.00     0.336 A 
ATOM      5  O   UNL     1      34.159  -0.214   8.825  1.00  0.00    -0.246 OA
ATOM      6  O   UNL     1      32.195  -0.272   7.758  1.00  0.00    -0.422 OA
ATOM      7  C   UNL     1      31.456  -0.308   6.653  1.00  0.00     0.145 A 
ATOM      8  C   UNL     1      32.090  -0.320   5.369  1.00  0.00     0.022 A 
ATOM      9  C   UNL     1      31.294  -0.348   4.197  1.00  0.00     0.024 A 
ATOM     10  C   UNL     1      29.913  -0.361   4.344  1.00  0.00     0.022 A 
ATOM     11  C   UNL     1      28.914  -0.374   3.398  1.00  0.00     0.054 A 
ATOM     12  C   UNL     1      27.740  -0.373   4.142  1.00  0.00     0.102 A 
ATOM     13  O   UNL     1      28.002  -0.355   5.435  1.00  0.00    -0.461 OA
ATOM     14  C   UNL     1      29.307  -0.349   5.572  1.00  0.00     0.140 A 
ATOM     15  C   UNL     1      30.045  -0.334   6.759  1.00  0.00     0.036 A 
ATOM     16  C   UNL     1      29.362  -0.293   8.096  1.00  0.00     0.052 C 
ATOM     17  C   UNL     1      26.361  -0.369   3.573  1.00  0.00     0.087 C 
ENDROOT
TORSDOF 0
ENDMDL
MODEL 9
REMARK VINA RESULT:    -5.100      1.400      5.403
REMARK INTER + INTRA:          -5.100
REMARK INTER:                  -5.100
REMARK INTRA:                   0.000
REMARK UNBOUND:                 0.000
REMARK SMILES Cc1cc2cc3c(C)cc(=O)oc3c(C)c2o1
REMARK SMILES IDX 8 1 7 2 9 3 10 4 11 5 12 6 13 7 6 8 5 9 4 10 3 11 2 12 17 13
REMARK SMILES IDX 16 14 14 15 15 16 1 17
REMARK H PARENT
REMARK Flexibility Score: inf
ROOT
ATOM      1  C   UNL     1      19.735  -6.111  18.737  1.00  0.00     0.045 C 
ATOM      2  C   UNL     1      20.836  -5.589  17.849  1.00  0.00    -0.033 A 
ATOM      3  C   UNL     1      21.207  -6.324  16.715  1.00  0.00     0.098 A 
ATOM      4  C   UNL     1      22.224  -5.847  15.887  1.00  0.00     0.336 A 
ATOM      5  O   UNL     1      22.561  -6.504  14.867  1.00  0.00    -0.246 OA
ATOM      6  O   UNL     1      22.841  -4.706  16.164  1.00  0.00    -0.422 OA
ATOM      7  C   UNL     1      22.540  -3.959  17.223  1.00  0.00     0.145 A 
ATOM      8  C   UNL     1      21.506  -4.376  18.122  1.00  0.00     0.022 A 
ATOM      9  C   UNL     1      21.186  -3.569  19.241  1.00  0.00     0.024 A 
ATOM     10  C   UNL     1      21.896  -2.389  19.422  1.00  0.00     0.022 A 
ATOM     11  C   UNL     1      21.789  -1.423  20.395  1.00  0.00     0.054 A 
ATOM     12  C   UNL     1      22.751  -0.481  20.048  1.00  0.00     0.102 A 
ATOM     13  O   UNL     1      23.387  -0.842  18.950  1.00  0.00    -0.461 OA
ATOM     14  C   UNL     1      22.884  -1.990  18.562  1.00  0.00     0.140 A 
ATOM     15  C   UNL     1      23.248  -2.754  17.450  1.00  0.00     0.036 A 
ATOM     16  C   UNL     1      24.315  -2.286  16.503  1.00  0.00     0.052 C 
ATOM     17  C   UNL     1      23.025   0.784  20.790  1.00  0.00     0.087 C 
ENDROOT
TORSDOF 0
ENDMDL
