MODEL 1
REMARK VINA RESULT:     0.091      0.000      0.000
REMARK INTER + INTRA:          -0.110
REMARK INTER:                   0.101
REMARK INTRA:                  -0.211
REMARK UNBOUND:                -0.211
REMARK SMILES CC(C)c1ccc(C(=O)[O-])cc1
REMARK SMILES IDX 7 1 6 2 11 3 5 4 12 5 4 6 8 7 9 8 10 9 2 10 1 11 3 12
REMARK H PARENT
REMARK Flexibility Score: inf
ROOT
ATOM      1  C   UNL     1     140.296 128.093 130.398  1.00  0.00    -0.003 A 
ATOM      2  C   UNL     1     139.702 128.124 131.671  1.00  0.00     0.010 A 
ATOM      3  C   UNL     1     139.482 127.886 129.271  1.00  0.00     0.010 A 
ATOM      4  C   UNL     1     138.322 127.952 131.813  1.00  0.00     0.004 A 
ATOM      5  C   UNL     1     138.103 127.713 129.414  1.00  0.00     0.004 A 
ATOM      6  C   UNL     1     137.507 127.745 130.685  1.00  0.00    -0.045 A 
ENDROOT
BRANCH   1   7
ATOM      7  C   UNL     1     141.757 128.277 130.252  1.00  0.00     0.071 C 
ATOM      8  O   UNL     1     142.523 128.134 131.244  1.00  0.00    -0.545 OA
ATOM      9  O   UNL     1     142.307 128.610 129.020  1.00  0.00    -0.545 OA
ENDBRANCH   1   7
BRANCH   6  10
ATOM     10  C   UNL     1     136.007 127.555 130.826  1.00  0.00     0.013 C 
ATOM     11  C   UNL     1     135.249 128.298 129.721  1.00  0.00     0.012 C 
ATOM     12  C   UNL     1     135.639 126.067 130.845  1.00  0.00     0.012 C 
ENDBRANCH   6  10
TORSDOF 2
ENDMDL
MODEL 2
REMARK VINA RESULT:     0.140      0.046      1.398
REMARK INTER + INTRA:          -0.055
REMARK INTER:                   0.154
REMARK INTRA:                  -0.210
REMARK UNBOUND:                -0.211
REMARK SMILES CC(C)c1ccc(C(=O)[O-])cc1
REMARK SMILES IDX 7 1 6 2 11 3 5 4 12 5 4 6 8 7 9 8 10 9 2 10 1 11 3 12
REMARK H PARENT
REMARK Flexibility Score: inf
ROOT
ATOM      1  C   UNL     1     140.302 128.100 130.395  1.00  0.00    -0.003 A 
ATOM      2  C   UNL     1     139.497 127.885 129.264  1.00  0.00     0.010 A 
ATOM      3  C   UNL     1     139.701 128.120 131.665  1.00  0.00     0.010 A 
ATOM      4  C   UNL     1     138.119 127.693 129.401  1.00  0.00     0.004 A 
ATOM      5  C   UNL     1     138.324 127.928 131.801  1.00  0.00     0.004 A 
ATOM      6  C   UNL     1     137.517 127.712 130.673  1.00  0.00    -0.045 A 
ENDROOT
BRANCH   1   7
ATOM      7  C   UNL     1     141.760 128.303 130.245  1.00  0.00     0.071 C 
ATOM      8  O   UNL     1     142.525 128.214 131.243  1.00  0.00    -0.545 OA
ATOM      9  O   UNL     1     142.308 128.595 129.001  1.00  0.00    -0.545 OA
ENDBRANCH   1   7
BRANCH   6  10
ATOM     10  C   UNL     1     136.022 127.506 130.835  1.00  0.00     0.013 C 
ATOM     11  C   UNL     1     135.241 128.222 129.728  1.00  0.00     0.012 C 
ATOM     12  C   UNL     1     135.673 126.013 130.881  1.00  0.00     0.012 C 
ENDBRANCH   6  10
TORSDOF 2
ENDMDL
MODEL 3
REMARK VINA RESULT:     0.315      0.941      1.239
REMARK INTER + INTRA:           0.141
REMARK INTER:                   0.358
REMARK INTRA:                  -0.217
REMARK UNBOUND:                -0.211
REMARK SMILES CC(C)c1ccc(C(=O)[O-])cc1
REMARK SMILES IDX 7 1 6 2 11 3 5 4 12 5 4 6 8 7 9 8 10 9 2 10 1 11 3 12
REMARK H PARENT
REMARK Flexibility Score: inf
ROOT
ATOM      1  C   UNL     1     139.448 128.057 130.374  1.00  0.00    -0.003 A 
ATOM      2  C   UNL     1     138.636 128.078 131.519  1.00  0.00     0.010 A 
ATOM      3  C   UNL     1     138.848 127.876 129.116  1.00  0.00     0.010 A 
ATOM      4  C   UNL     1     137.251 127.921 131.410  1.00  0.00     0.004 A 
ATOM      5  C   UNL     1     137.464 127.719 129.007  1.00  0.00     0.004 A 
ATOM      6  C   UNL     1     136.650 127.740 130.151  1.00  0.00    -0.045 A 
ENDROOT
BRANCH   1   7
ATOM      7  C   UNL     1     140.914 128.224 130.495  1.00  0.00     0.071 C 
ATOM      8  O   UNL     1     141.483 128.098 131.613  1.00  0.00    -0.545 OA
ATOM      9  O   UNL     1     141.685 128.524 129.377  1.00  0.00    -0.545 OA
ENDBRANCH   1   7
BRANCH   6  10
ATOM     10  C   UNL     1     135.147 127.567 130.018  1.00  0.00     0.013 C 
ATOM     11  C   UNL     1     134.399 128.774 130.594  1.00  0.00     0.012 C 
ATOM     12  C   UNL     1     134.748 127.313 128.560  1.00  0.00     0.012 C 
ENDBRANCH   6  10
TORSDOF 2
ENDMDL
MODEL 4
REMARK VINA RESULT:     0.464      3.017      5.036
REMARK INTER + INTRA:           0.307
REMARK INTER:                   0.520
REMARK INTRA:                  -0.213
REMARK UNBOUND:                -0.211
REMARK SMILES CC(C)c1ccc(C(=O)[O-])cc1
REMARK SMILES IDX 7 1 6 2 11 3 5 4 12 5 4 6 8 7 9 8 10 9 2 10 1 11 3 12
REMARK H PARENT
REMARK Flexibility Score: inf
ROOT
ATOM      1  C   UNL     1     137.475 127.644 130.512  1.00  0.00    -0.003 A 
ATOM      2  C   UNL     1     138.238 127.878 131.668  1.00  0.00     0.010 A 
ATOM      3  C   UNL     1     138.095 127.747 129.255  1.00  0.00     0.010 A 
ATOM      4  C   UNL     1     139.592 128.207 131.570  1.00  0.00     0.004 A 
ATOM      5  C   UNL     1     139.449 128.077 129.157  1.00  0.00     0.004 A 
ATOM      6  C   UNL     1     140.213 128.310 130.311  1.00  0.00    -0.045 A 
ENDROOT
BRANCH   1   7
ATOM      7  C   UNL     1     136.041 127.295 130.621  1.00  0.00     0.071 C 
ATOM      8  O   UNL     1     135.686 126.188 131.109  1.00  0.00    -0.545 OA
ATOM      9  O   UNL     1     135.063 128.184 130.187  1.00  0.00    -0.545 OA
ENDBRANCH   1   7
BRANCH   6  10
ATOM     10  C   UNL     1     141.684 128.668 130.191  1.00  0.00     0.013 C 
ATOM     11  C   UNL     1     142.530 127.876 131.192  1.00  0.00     0.012 C 
ATOM     12  C   UNL     1     142.186 128.461 128.757  1.00  0.00     0.012 C 
ENDBRANCH   6  10
TORSDOF 2
ENDMDL
MODEL 5
REMARK VINA RESULT:     1.536      3.756      5.278
REMARK INTER + INTRA:           1.504
REMARK INTER:                   1.717
REMARK INTRA:                  -0.213
REMARK UNBOUND:                -0.211
REMARK SMILES CC(C)c1ccc(C(=O)[O-])cc1
REMARK SMILES IDX 7 1 6 2 11 3 5 4 12 5 4 6 8 7 9 8 10 9 2 10 1 11 3 12
REMARK H PARENT
REMARK Flexibility Score: inf
ROOT
ATOM      1  C   UNL     1     135.588 128.137 129.299  1.00  0.00    -0.003 A 
ATOM      2  C   UNL     1     135.731 128.016 130.691  1.00  0.00     0.010 A 
ATOM      3  C   UNL     1     136.729 128.026 128.485  1.00  0.00     0.010 A 
ATOM      4  C   UNL     1     136.989 127.788 131.257  1.00  0.00     0.004 A 
ATOM      5  C   UNL     1     137.985 127.798 129.052  1.00  0.00     0.004 A 
ATOM      6  C   UNL     1     138.130 127.676 130.443  1.00  0.00    -0.045 A 
ENDROOT
BRANCH   1   7
ATOM      7  C   UNL     1     134.255 128.378 128.704  1.00  0.00     0.071 C 
ATOM      8  O   UNL     1     133.409 127.446 128.628  1.00  0.00    -0.545 OA
ATOM      9  O   UNL     1     133.916 129.636 128.218  1.00  0.00    -0.545 OA
ENDBRANCH   1   7
BRANCH   6  10
ATOM     10  C   UNL     1     139.502 127.429 131.046  1.00  0.00     0.013 C 
ATOM     11  C   UNL     1     140.591 128.171 130.264  1.00  0.00     0.012 C 
ATOM     12  C   UNL     1     139.528 127.812 132.530  1.00  0.00     0.012 C 
ENDBRANCH   6  10
TORSDOF 2
ENDMDL
