MODEL 1
REMARK VINA RESULT:    -3.928      0.000      0.000
REMARK INTER + INTRA:          -5.277
REMARK INTER:                  -5.076
REMARK INTRA:                  -0.201
REMARK UNBOUND:                -0.201
REMARK SMILES CCCCCCC(C)=O
REMARK SMILES IDX 4 1 3 2 2 3 1 4 5 5 6 6 7 7 9 8 8 9
REMARK H PARENT
REMARK Flexibility Score: inf
ROOT
ATOM      1  C   UNL     1      25.277  58.466  -8.284  1.00  0.00     0.000 C 
ENDROOT
BRANCH   1   2
ATOM      2  C   UNL     1      25.781  57.041  -8.562  1.00  0.00    -0.000 C 
BRANCH   2   3
ATOM      3  C   UNL     1      25.490  56.073  -7.404  1.00  0.00    -0.003 C 
ATOM      4  C   UNL     1      24.011  56.096  -7.029  1.00  0.00     0.004 C 
ENDBRANCH   2   3
ENDBRANCH   1   2
BRANCH   1   5
ATOM      5  C   UNL     1      26.278  59.545  -8.732  1.00  0.00     0.008 C 
BRANCH   5   6
ATOM      6  C   UNL     1      27.213  59.053  -9.846  1.00  0.00     0.075 C 
BRANCH   6   7
ATOM      7  C   UNL     1      28.428  59.929  -9.997  1.00  0.00     0.129 C 
ATOM      8  O   UNL     1      29.400  59.522 -10.613  1.00  0.00    -0.300 OA
ATOM      9  C   UNL     1      28.434  61.318  -9.434  1.00  0.00     0.087 C 
ENDBRANCH   6   7
ENDBRANCH   5   6
ENDBRANCH   1   5
TORSDOF 5
ENDMDL
MODEL 2
REMARK VINA RESULT:    -3.870      2.170      5.195
REMARK INTER + INTRA:          -5.202
REMARK INTER:                  -5.060
REMARK INTRA:                  -0.143
REMARK UNBOUND:                -0.201
REMARK SMILES CCCCCCC(C)=O
REMARK SMILES IDX 4 1 3 2 2 3 1 4 5 5 6 6 7 7 9 8 8 9
REMARK H PARENT
REMARK Flexibility Score: inf
ROOT
ATOM      1  C   UNL     1      26.940  59.073  -9.291  1.00  0.00     0.000 C 
ENDROOT
BRANCH   1   2
ATOM      2  C   UNL     1      27.210  60.552  -8.976  1.00  0.00    -0.000 C 
BRANCH   2   3
ATOM      3  C   UNL     1      28.439  61.101  -9.717  1.00  0.00    -0.003 C 
ATOM      4  C   UNL     1      29.190  59.984 -10.435  1.00  0.00     0.004 C 
ENDBRANCH   2   3
ENDBRANCH   1   2
BRANCH   1   5
ATOM      5  C   UNL     1      25.870  58.458  -8.372  1.00  0.00     0.008 C 
BRANCH   5   6
ATOM      6  C   UNL     1      25.476  57.036  -8.797  1.00  0.00     0.075 C 
BRANCH   6   7
ATOM      7  C   UNL     1      25.295  56.119  -7.617  1.00  0.00     0.129 C 
ATOM      8  O   UNL     1      26.205  55.382  -7.272  1.00  0.00    -0.300 OA
ATOM      9  C   UNL     1      24.017  56.137  -6.833  1.00  0.00     0.087 C 
ENDBRANCH   6   7
ENDBRANCH   5   6
ENDBRANCH   1   5
TORSDOF 5
ENDMDL
MODEL 3
REMARK VINA RESULT:    -3.636     18.012     19.337
REMARK INTER + INTRA:          -4.899
REMARK INTER:                  -4.500
REMARK INTRA:                  -0.399
REMARK UNBOUND:                -0.201
REMARK SMILES CCCCCCC(C)=O
REMARK SMILES IDX 4 1 3 2 2 3 1 4 5 5 6 6 7 7 9 8 8 9
REMARK H PARENT
REMARK Flexibility Score: inf
ROOT
ATOM      1  C   UNL     1      17.459  46.063   0.220  1.00  0.00     0.000 C 
ENDROOT
BRANCH   1   2
ATOM      2  C   UNL     1      16.572  44.835   0.479  1.00  0.00    -0.000 C 
BRANCH   2   3
ATOM      3  C   UNL     1      15.808  44.926   1.810  1.00  0.00    -0.003 C 
ATOM      4  C   UNL     1      14.779  46.052   1.775  1.00  0.00     0.004 C 
ENDBRANCH   2   3
ENDBRANCH   1   2
BRANCH   1   5
ATOM      5  C   UNL     1      18.960  45.737   0.306  1.00  0.00     0.008 C 
BRANCH   5   6
ATOM      6  C   UNL     1      19.224  44.247   0.564  1.00  0.00     0.075 C 
BRANCH   6   7
ATOM      7  C   UNL     1      19.885  44.008   1.896  1.00  0.00     0.129 C 
ATOM      8  O   UNL     1      20.840  43.252   1.976  1.00  0.00    -0.300 OA
ATOM      9  C   UNL     1      19.405  44.730   3.119  1.00  0.00     0.087 C 
ENDBRANCH   6   7
ENDBRANCH   5   6
ENDBRANCH   1   5
TORSDOF 5
ENDMDL
MODEL 4
REMARK VINA RESULT:    -3.586     18.735     19.745
REMARK INTER + INTRA:          -4.834
REMARK INTER:                  -4.204
REMARK INTRA:                  -0.630
REMARK UNBOUND:                -0.201
REMARK SMILES CCCCCCC(C)=O
REMARK SMILES IDX 4 1 3 2 2 3 1 4 5 5 6 6 7 7 9 8 8 9
REMARK H PARENT
REMARK Flexibility Score: inf
ROOT
ATOM      1  C   UNL     1      16.593  43.318   0.631  1.00  0.00     0.000 C 
ENDROOT
BRANCH   1   2
ATOM      2  C   UNL     1      15.758  43.977   1.740  1.00  0.00    -0.000 C 
BRANCH   2   3
ATOM      3  C   UNL     1      15.802  45.511   1.682  1.00  0.00    -0.003 C 
ATOM      4  C   UNL     1      16.064  45.999   0.260  1.00  0.00     0.004 C 
ENDBRANCH   2   3
ENDBRANCH   1   2
BRANCH   1   5
ATOM      5  C   UNL     1      17.827  42.580   1.180  1.00  0.00     0.008 C 
BRANCH   5   6
ATOM      6  C   UNL     1      19.144  43.147   0.629  1.00  0.00     0.075 C 
BRANCH   6   7
ATOM      7  C   UNL     1      19.427  44.533   1.147  1.00  0.00     0.129 C 
ATOM      8  O   UNL     1      19.553  45.462   0.364  1.00  0.00    -0.300 OA
ATOM      9  C   UNL     1      19.509  44.788   2.621  1.00  0.00     0.087 C 
ENDBRANCH   6   7
ENDBRANCH   5   6
ENDBRANCH   1   5
TORSDOF 5
ENDMDL
MODEL 5
REMARK VINA RESULT:    -3.531     17.804     19.595
REMARK INTER + INTRA:          -4.765
REMARK INTER:                  -4.294
REMARK INTRA:                  -0.471
REMARK UNBOUND:                -0.201
REMARK SMILES CCCCCCC(C)=O
REMARK SMILES IDX 4 1 3 2 2 3 1 4 5 5 6 6 7 7 9 8 8 9
REMARK H PARENT
REMARK Flexibility Score: inf
ROOT
ATOM      1  C   UNL     1      15.584  44.053   1.700  1.00  0.00     0.000 C 
ENDROOT
BRANCH   1   2
ATOM      2  C   UNL     1      15.586  45.585   1.821  1.00  0.00    -0.000 C 
BRANCH   2   3
ATOM      3  C   UNL     1      14.889  46.274   0.639  1.00  0.00    -0.003 C 
ATOM      4  C   UNL     1      15.807  46.336  -0.579  1.00  0.00     0.004 C 
ENDBRANCH   2   3
ENDBRANCH   1   2
BRANCH   1   5
ATOM      5  C   UNL     1      16.998  43.471   1.533  1.00  0.00     0.008 C 
BRANCH   5   6
ATOM      6  C   UNL     1      18.081  44.374   2.140  1.00  0.00     0.075 C 
BRANCH   6   7
ATOM      7  C   UNL     1      19.258  44.550   1.217  1.00  0.00     0.129 C 
ATOM      8  O   UNL     1      20.118  43.686   1.155  1.00  0.00    -0.300 OA
ATOM      9  C   UNL     1      19.357  45.760   0.339  1.00  0.00     0.087 C 
ENDBRANCH   6   7
ENDBRANCH   5   6
ENDBRANCH   1   5
TORSDOF 5
ENDMDL
MODEL 6
REMARK VINA RESULT:    -3.516     14.759     16.709
REMARK INTER + INTRA:          -4.744
REMARK INTER:                  -4.583
REMARK INTRA:                  -0.161
REMARK UNBOUND:                -0.201
REMARK SMILES CCCCCCC(C)=O
REMARK SMILES IDX 4 1 3 2 2 3 1 4 5 5 6 6 7 7 9 8 8 9
REMARK H PARENT
REMARK Flexibility Score: inf
ROOT
ATOM      1  C   UNL     1      30.137  45.706   0.987  1.00  0.00     0.000 C 
ENDROOT
BRANCH   1   2
ATOM      2  C   UNL     1      29.131  45.657  -0.174  1.00  0.00    -0.000 C 
BRANCH   2   3
ATOM      3  C   UNL     1      27.994  46.679  -0.016  1.00  0.00    -0.003 C 
ATOM      4  C   UNL     1      27.505  47.169  -1.376  1.00  0.00     0.004 C 
ENDBRANCH   2   3
ENDBRANCH   1   2
BRANCH   1   5
ATOM      5  C   UNL     1      31.506  45.114   0.608  1.00  0.00     0.008 C 
BRANCH   5   6
ATOM      6  C   UNL     1      32.447  44.989   1.815  1.00  0.00     0.075 C 
BRANCH   6   7
ATOM      7  C   UNL     1      33.121  46.294   2.148  1.00  0.00     0.129 C 
ATOM      8  O   UNL     1      32.928  46.821   3.232  1.00  0.00    -0.300 OA
ATOM      9  C   UNL     1      34.065  46.929   1.172  1.00  0.00     0.087 C 
ENDBRANCH   6   7
ENDBRANCH   5   6
ENDBRANCH   1   5
TORSDOF 5
ENDMDL
MODEL 7
REMARK VINA RESULT:    -3.496      4.966      7.046
REMARK INTER + INTRA:          -4.719
REMARK INTER:                  -4.341
REMARK INTRA:                  -0.377
REMARK UNBOUND:                -0.201
REMARK SMILES CCCCCCC(C)=O
REMARK SMILES IDX 4 1 3 2 2 3 1 4 5 5 6 6 7 7 9 8 8 9
REMARK H PARENT
REMARK Flexibility Score: inf
ROOT
ATOM      1  C   UNL     1      31.409  57.093 -13.220  1.00  0.00     0.000 C 
ENDROOT
BRANCH   1   2
ATOM      2  C   UNL     1      32.590  57.299 -12.258  1.00  0.00    -0.000 C 
BRANCH   2   3
ATOM      3  C   UNL     1      33.928  57.475 -12.992  1.00  0.00    -0.003 C 
ATOM      4  C   UNL     1      33.888  58.685 -13.922  1.00  0.00     0.004 C 
ENDBRANCH   2   3
ENDBRANCH   1   2
BRANCH   1   5
ATOM      5  C   UNL     1      30.180  57.936 -12.837  1.00  0.00     0.008 C 
BRANCH   5   6
ATOM      6  C   UNL     1      30.555  59.364 -12.415  1.00  0.00     0.075 C 
BRANCH   6   7
ATOM      7  C   UNL     1      30.178  59.652 -10.986  1.00  0.00     0.129 C 
ATOM      8  O   UNL     1      29.010  59.585 -10.638  1.00  0.00    -0.300 OA
ATOM      9  C   UNL     1      31.236  59.977  -9.975  1.00  0.00     0.087 C 
ENDBRANCH   6   7
ENDBRANCH   5   6
ENDBRANCH   1   5
TORSDOF 5
ENDMDL
MODEL 8
REMARK VINA RESULT:    -3.474     18.496     20.015
REMARK INTER + INTRA:          -4.691
REMARK INTER:                  -4.120
REMARK INTRA:                  -0.571
REMARK UNBOUND:                -0.201
REMARK SMILES CCCCCCC(C)=O
REMARK SMILES IDX 4 1 3 2 2 3 1 4 5 5 6 6 7 7 9 8 8 9
REMARK H PARENT
REMARK Flexibility Score: inf
ROOT
ATOM      1  C   UNL     1      19.089  45.316   0.588  1.00  0.00     0.000 C 
ENDROOT
BRANCH   1   2
ATOM      2  C   UNL     1      19.476  44.914   2.020  1.00  0.00    -0.000 C 
BRANCH   2   3
ATOM      3  C   UNL     1      20.182  43.551   2.082  1.00  0.00    -0.003 C 
ATOM      4  C   UNL     1      20.332  42.947   0.689  1.00  0.00     0.004 C 
ENDBRANCH   2   3
ENDBRANCH   1   2
BRANCH   1   5
ATOM      5  C   UNL     1      17.589  45.631   0.447  1.00  0.00     0.008 C 
BRANCH   5   6
ATOM      6  C   UNL     1      16.716  44.748   1.350  1.00  0.00     0.075 C 
BRANCH   6   7
ATOM      7  C   UNL     1      16.523  43.367   0.780  1.00  0.00     0.129 C 
ATOM      8  O   UNL     1      16.244  43.228  -0.400  1.00  0.00    -0.300 OA
ATOM      9  C   UNL     1      16.715  42.158   1.645  1.00  0.00     0.087 C 
ENDBRANCH   6   7
ENDBRANCH   5   6
ENDBRANCH   1   5
TORSDOF 5
ENDMDL
MODEL 9
REMARK VINA RESULT:    -3.432     17.899     20.176
REMARK INTER + INTRA:          -4.637
REMARK INTER:                  -4.069
REMARK INTRA:                  -0.567
REMARK UNBOUND:                -0.201
REMARK SMILES CCCCCCC(C)=O
REMARK SMILES IDX 4 1 3 2 2 3 1 4 5 5 6 6 7 7 9 8 8 9
REMARK H PARENT
REMARK Flexibility Score: inf
ROOT
ATOM      1  C   UNL     1      18.660  42.652   0.607  1.00  0.00     0.000 C 
ENDROOT
BRANCH   1   2
ATOM      2  C   UNL     1      19.900  43.454   1.034  1.00  0.00    -0.000 C 
BRANCH   2   3
ATOM      3  C   UNL     1      19.552  44.869   1.520  1.00  0.00    -0.003 C 
ATOM      4  C   UNL     1      19.326  45.813   0.341  1.00  0.00     0.004 C 
ENDBRANCH   2   3
ENDBRANCH   1   2
BRANCH   1   5
ATOM      5  C   UNL     1      17.618  42.531   1.733  1.00  0.00     0.008 C 
BRANCH   5   6
ATOM      6  C   UNL     1      16.189  42.806   1.243  1.00  0.00     0.075 C 
BRANCH   6   7
ATOM      7  C   UNL     1      15.986  44.249   0.862  1.00  0.00     0.129 C 
ATOM      8  O   UNL     1      15.879  44.560  -0.314  1.00  0.00    -0.300 OA
ATOM      9  C   UNL     1      15.870  45.302   1.922  1.00  0.00     0.087 C 
ENDBRANCH   6   7
ENDBRANCH   5   6
ENDBRANCH   1   5
TORSDOF 5
ENDMDL
