MODEL 1
REMARK VINA RESULT:    -0.054      0.000      0.000
REMARK INTER + INTRA:          -1.615
REMARK INTER:                  -0.072
REMARK INTRA:                  -1.542
REMARK UNBOUND:                -1.542
REMARK SMILES CC(=O)CCC=C(C)CCC=C(C)C
REMARK SMILES IDX 7 1 6 2 8 3 9 4 10 5 11 6 13 7 12 8 14 9 5 10 4 11 2 12 3 13
REMARK SMILES IDX 1 14
REMARK H PARENT
REMARK Flexibility Score: inf
ROOT
ATOM      1  C   UNL     1     123.422 136.351 124.160  1.00  0.00    -0.077 C 
ATOM      2  C   UNL     1     122.438 136.045 123.283  1.00  0.00    -0.028 C 
ATOM      3  C   UNL     1     124.099 137.700 124.163  1.00  0.00     0.039 C 
ENDROOT
BRANCH   1   4
ATOM      4  C   UNL     1     123.913 135.289 125.122  1.00  0.00     0.034 C 
BRANCH   4   5
ATOM      5  C   UNL     1     122.796 134.817 126.065  1.00  0.00     0.032 C 
BRANCH   5   6
ATOM      6  C   UNL     1     122.314 135.925 126.969  1.00  0.00    -0.028 C 
ATOM      7  C   UNL     1     120.703 137.466 128.004  1.00  0.00     0.039 C 
ATOM      8  C   UNL     1     121.044 136.386 127.009  1.00  0.00    -0.080 C 
ATOM      9  C   UNL     1     119.973 135.865 126.080  1.00  0.00     0.039 C 
ENDBRANCH   5   6
ENDBRANCH   4   5
ENDBRANCH   1   4
BRANCH   2  10
ATOM     10  C   UNL     1     121.857 137.011 122.280  1.00  0.00     0.035 C 
BRANCH  10  11
ATOM     11  C   UNL     1     120.523 137.575 122.777  1.00  0.00     0.079 C 
BRANCH  11  12
ATOM     12  C   UNL     1     120.690 138.993 123.255  1.00  0.00     0.130 C 
ATOM     13  O   UNL     1     120.783 139.896 122.437  1.00  0.00    -0.300 OA
ATOM     14  C   UNL     1     120.756 139.323 124.717  1.00  0.00     0.087 C 
ENDBRANCH  11  12
ENDBRANCH  10  11
ENDBRANCH   2  10
TORSDOF 6
ENDMDL
MODEL 2
REMARK VINA RESULT:    -0.035      2.234      4.571
REMARK INTER + INTRA:          -1.590
REMARK INTER:                  -0.046
REMARK INTRA:                  -1.544
REMARK UNBOUND:                -1.542
REMARK SMILES CC(=O)CCC=C(C)CCC=C(C)C
REMARK SMILES IDX 7 1 6 2 8 3 9 4 10 5 11 6 13 7 12 8 14 9 5 10 4 11 2 12 3 13
REMARK SMILES IDX 1 14
REMARK H PARENT
REMARK Flexibility Score: inf
ROOT
ATOM      1  C   UNL     1     120.328 137.269 125.523  1.00  0.00    -0.077 C 
ATOM      2  C   UNL     1     120.773 136.778 126.702  1.00  0.00    -0.028 C 
ATOM      3  C   UNL     1     120.198 138.752 125.273  1.00  0.00     0.039 C 
ENDROOT
BRANCH   1   4
ATOM      4  C   UNL     1     119.875 136.307 124.444  1.00  0.00     0.034 C 
BRANCH   4   5
ATOM      5  C   UNL     1     121.019 135.395 123.979  1.00  0.00     0.032 C 
BRANCH   5   6
ATOM      6  C   UNL     1     122.132 136.175 123.320  1.00  0.00    -0.028 C 
ATOM      7  C   UNL     1     124.420 136.992 122.960  1.00  0.00     0.039 C 
ATOM      8  C   UNL     1     123.410 136.206 123.756  1.00  0.00    -0.080 C 
ATOM      9  C   UNL     1     123.845 135.498 125.017  1.00  0.00     0.039 C 
ENDBRANCH   5   6
ENDBRANCH   4   5
ENDBRANCH   1   4
BRANCH   2  10
ATOM     10  C   UNL     1     121.257 137.626 127.852  1.00  0.00     0.035 C 
BRANCH  10  11
ATOM     11  C   UNL     1     122.788 137.670 127.889  1.00  0.00     0.079 C 
BRANCH  11  12
ATOM     12  C   UNL     1     123.294 138.999 127.394  1.00  0.00     0.130 C 
ATOM     13  O   UNL     1     123.242 139.973 128.129  1.00  0.00    -0.300 OA
ATOM     14  C   UNL     1     123.852 139.157 126.010  1.00  0.00     0.087 C 
ENDBRANCH  11  12
ENDBRANCH  10  11
ENDBRANCH   2  10
TORSDOF 6
ENDMDL
MODEL 3
REMARK VINA RESULT:    -0.032      2.586      4.173
REMARK INTER + INTRA:          -1.585
REMARK INTER:                  -0.040
REMARK INTRA:                  -1.545
REMARK UNBOUND:                -1.542
REMARK SMILES CC(=O)CCC=C(C)CCC=C(C)C
REMARK SMILES IDX 7 1 6 2 8 3 9 4 10 5 11 6 13 7 12 8 14 9 5 10 4 11 2 12 3 13
REMARK SMILES IDX 1 14
REMARK H PARENT
REMARK Flexibility Score: inf
ROOT
ATOM      1  C   UNL     1     122.437 134.885 126.999  1.00  0.00    -0.077 C 
ATOM      2  C   UNL     1     123.476 134.975 126.138  1.00  0.00    -0.028 C 
ATOM      3  C   UNL     1     122.526 135.398 128.416  1.00  0.00     0.039 C 
ENDROOT
BRANCH   1   4
ATOM      4  C   UNL     1     121.168 134.185 126.558  1.00  0.00     0.034 C 
BRANCH   4   5
ATOM      5  C   UNL     1     120.510 134.898 125.368  1.00  0.00     0.032 C 
BRANCH   5   6
ATOM      6  C   UNL     1     120.045 136.289 125.729  1.00  0.00    -0.028 C 
ATOM      7  C   UNL     1     119.880 138.735 125.571  1.00  0.00     0.039 C 
ATOM      8  C   UNL     1     120.477 137.422 125.134  1.00  0.00    -0.080 C 
ATOM      9  C   UNL     1     121.545 137.409 124.066  1.00  0.00     0.039 C 
ENDBRANCH   5   6
ENDBRANCH   4   5
ENDBRANCH   1   4
BRANCH   2  10
ATOM     10  C   UNL     1     124.788 135.650 126.451  1.00  0.00     0.035 C 
BRANCH  10  11
ATOM     11  C   UNL     1     124.838 137.054 125.841  1.00  0.00     0.079 C 
BRANCH  11  12
ATOM     12  C   UNL     1     124.656 138.103 126.906  1.00  0.00     0.130 C 
ATOM     13  O   UNL     1     125.593 138.386 127.636  1.00  0.00    -0.300 OA
ATOM     14  C   UNL     1     123.343 138.803 127.098  1.00  0.00     0.087 C 
ENDBRANCH  11  12
ENDBRANCH  10  11
ENDBRANCH   2  10
TORSDOF 6
ENDMDL
MODEL 4
REMARK VINA RESULT:    -0.030     19.292     21.427
REMARK INTER + INTRA:          -1.583
REMARK INTER:                  -0.039
REMARK INTRA:                  -1.543
REMARK UNBOUND:                -1.542
REMARK SMILES CC(=O)CCC=C(C)CCC=C(C)C
REMARK SMILES IDX 7 1 6 2 8 3 9 4 10 5 11 6 13 7 12 8 14 9 5 10 4 11 2 12 3 13
REMARK SMILES IDX 1 14
REMARK H PARENT
REMARK Flexibility Score: inf
ROOT
ATOM      1  C   UNL     1     135.757 122.689 128.354  1.00  0.00    -0.077 C 
ATOM      2  C   UNL     1     135.963 121.377 128.611  1.00  0.00    -0.028 C 
ATOM      3  C   UNL     1     136.895 123.631 128.042  1.00  0.00     0.039 C 
ENDROOT
BRANCH   1   4
ATOM      4  C   UNL     1     134.353 123.251 128.452  1.00  0.00     0.034 C 
BRANCH   4   5
ATOM      5  C   UNL     1     133.403 122.586 127.447  1.00  0.00     0.032 C 
BRANCH   5   6
ATOM      6  C   UNL     1     133.807 122.863 126.019  1.00  0.00    -0.028 C 
ATOM      7  C   UNL     1     134.460 122.344 123.708  1.00  0.00     0.039 C 
ATOM      8  C   UNL     1     134.125 121.913 125.113  1.00  0.00    -0.080 C 
ATOM      9  C   UNL     1     134.172 120.446 125.471  1.00  0.00     0.039 C 
ENDBRANCH   5   6
ENDBRANCH   4   5
ENDBRANCH   1   4
BRANCH   2  10
ATOM     10  C   UNL     1     137.306 120.694 128.542  1.00  0.00     0.035 C 
BRANCH  10  11
ATOM     11  C   UNL     1     137.455 119.916 127.231  1.00  0.00     0.079 C 
BRANCH  11  12
ATOM     12  C   UNL     1     138.373 120.641 126.282  1.00  0.00     0.130 C 
ATOM     13  O   UNL     1     139.581 120.576 126.449  1.00  0.00    -0.300 OA
ATOM     14  C   UNL     1     137.836 121.453 125.141  1.00  0.00     0.087 C 
ENDBRANCH  11  12
ENDBRANCH  10  11
ENDBRANCH   2  10
TORSDOF 6
ENDMDL
MODEL 5
REMARK VINA RESULT:    -0.018     17.580     19.309
REMARK INTER + INTRA:          -1.566
REMARK INTER:                  -0.025
REMARK INTRA:                  -1.541
REMARK UNBOUND:                -1.542
REMARK SMILES CC(=O)CCC=C(C)CCC=C(C)C
REMARK SMILES IDX 7 1 6 2 8 3 9 4 10 5 11 6 13 7 12 8 14 9 5 10 4 11 2 12 3 13
REMARK SMILES IDX 1 14
REMARK H PARENT
REMARK Flexibility Score: inf
ROOT
ATOM      1  C   UNL     1     134.233 135.807 137.631  1.00  0.00    -0.077 C 
ATOM      2  C   UNL     1     133.447 136.903 137.738  1.00  0.00    -0.028 C 
ATOM      3  C   UNL     1     133.697 134.414 137.861  1.00  0.00     0.039 C 
ENDROOT
BRANCH   1   4
ATOM      4  C   UNL     1     135.710 135.980 137.342  1.00  0.00     0.034 C 
BRANCH   4   5
ATOM      5  C   UNL     1     136.398 136.848 138.405  1.00  0.00     0.032 C 
BRANCH   5   6
ATOM      6  C   UNL     1     136.452 136.160 139.748  1.00  0.00    -0.028 C 
ATOM      7  C   UNL     1     135.952 135.789 142.125  1.00  0.00     0.039 C 
ATOM      8  C   UNL     1     135.849 136.615 140.869  1.00  0.00    -0.080 C 
ATOM      9  C   UNL     1     135.099 137.925 140.899  1.00  0.00     0.039 C 
ENDBRANCH   5   6
ENDBRANCH   4   5
ENDBRANCH   1   4
BRANCH   2  10
ATOM     10  C   UNL     1     131.964 136.866 138.015  1.00  0.00     0.035 C 
BRANCH  10  11
ATOM     11  C   UNL     1     131.671 137.261 139.466  1.00  0.00     0.079 C 
BRANCH  11  12
ATOM     12  C   UNL     1     131.310 136.050 140.284  1.00  0.00     0.130 C 
ATOM     13  O   UNL     1     130.177 135.598 140.221  1.00  0.00    -0.300 OA
ATOM     14  C   UNL     1     132.310 135.389 141.187  1.00  0.00     0.087 C 
ENDBRANCH  11  12
ENDBRANCH  10  11
ENDBRANCH   2  10
TORSDOF 6
ENDMDL
MODEL 6
REMARK VINA RESULT:    -0.013      3.193      5.432
REMARK INTER + INTRA:          -1.560
REMARK INTER:                  -0.017
REMARK INTRA:                  -1.543
REMARK UNBOUND:                -1.542
REMARK SMILES CC(=O)CCC=C(C)CCC=C(C)C
REMARK SMILES IDX 7 1 6 2 8 3 9 4 10 5 11 6 13 7 12 8 14 9 5 10 4 11 2 12 3 13
REMARK SMILES IDX 1 14
REMARK H PARENT
REMARK Flexibility Score: inf
ROOT
ATOM      1  C   UNL     1     124.094 136.596 129.215  1.00  0.00    -0.077 C 
ATOM      2  C   UNL     1     123.889 137.834 129.720  1.00  0.00    -0.028 C 
ATOM      3  C   UNL     1     122.952 135.721 128.757  1.00  0.00     0.039 C 
ENDROOT
BRANCH   1   4
ATOM      4  C   UNL     1     125.501 136.038 129.171  1.00  0.00     0.034 C 
BRANCH   4   5
ATOM      5  C   UNL     1     126.427 136.896 128.297  1.00  0.00     0.032 C 
BRANCH   5   6
ATOM      6  C   UNL     1     125.998 136.893 126.849  1.00  0.00    -0.028 C 
ATOM      7  C   UNL     1     125.298 137.838 124.692  1.00  0.00     0.039 C 
ATOM      8  C   UNL     1     125.656 137.996 126.148  1.00  0.00    -0.080 C 
ATOM      9  C   UNL     1     125.604 139.366 126.782  1.00  0.00     0.039 C 
ENDBRANCH   5   6
ENDBRANCH   4   5
ENDBRANCH   1   4
BRANCH   2  10
ATOM     10  C   UNL     1     122.542 138.506 129.813  1.00  0.00     0.035 C 
BRANCH  10  11
ATOM     11  C   UNL     1     122.357 139.517 128.677  1.00  0.00     0.079 C 
BRANCH  11  12
ATOM     12  C   UNL     1     121.424 138.972 127.628  1.00  0.00     0.130 C 
ATOM     13  O   UNL     1     120.219 138.986 127.830  1.00  0.00    -0.300 OA
ATOM     14  C   UNL     1     121.941 138.402 126.340  1.00  0.00     0.087 C 
ENDBRANCH  11  12
ENDBRANCH  10  11
ENDBRANCH   2  10
TORSDOF 6
ENDMDL
MODEL 7
REMARK VINA RESULT:    -0.006     17.484     19.847
REMARK INTER + INTRA:          -1.550
REMARK INTER:                  -0.007
REMARK INTRA:                  -1.543
REMARK UNBOUND:                -1.542
REMARK SMILES CC(=O)CCC=C(C)CCC=C(C)C
REMARK SMILES IDX 7 1 6 2 8 3 9 4 10 5 11 6 13 7 12 8 14 9 5 10 4 11 2 12 3 13
REMARK SMILES IDX 1 14
REMARK H PARENT
REMARK Flexibility Score: inf
ROOT
ATOM      1  C   UNL     1     136.121 124.142 124.718  1.00  0.00    -0.077 C 
ATOM      2  C   UNL     1     135.194 124.139 125.703  1.00  0.00    -0.028 C 
ATOM      3  C   UNL     1     136.550 125.415 124.028  1.00  0.00     0.039 C 
ENDROOT
BRANCH   1   4
ATOM      4  C   UNL     1     136.696 122.825 124.239  1.00  0.00     0.034 C 
BRANCH   4   5
ATOM      5  C   UNL     1     137.441 122.089 125.361  1.00  0.00     0.032 C 
BRANCH   5   6
ATOM      6  C   UNL     1     138.652 122.856 125.835  1.00  0.00    -0.028 C 
ATOM      7  C   UNL     1     140.125 124.004 127.432  1.00  0.00     0.039 C 
ATOM      8  C   UNL     1     138.838 123.294 127.100  1.00  0.00    -0.080 C 
ATOM      9  C   UNL     1     137.792 123.107 128.174  1.00  0.00     0.039 C 
ENDBRANCH   5   6
ENDBRANCH   4   5
ENDBRANCH   1   4
BRANCH   2  10
ATOM     10  C   UNL     1     134.550 125.379 126.273  1.00  0.00     0.035 C 
BRANCH  10  11
ATOM     11  C   UNL     1     135.196 125.764 127.607  1.00  0.00     0.079 C 
BRANCH  11  12
ATOM     12  C   UNL     1     136.098 126.957 127.436  1.00  0.00     0.130 C 
ATOM     13  O   UNL     1     135.609 128.074 127.355  1.00  0.00    -0.300 OA
ATOM     14  C   UNL     1     137.588 126.806 127.352  1.00  0.00     0.087 C 
ENDBRANCH  11  12
ENDBRANCH  10  11
ENDBRANCH   2  10
TORSDOF 6
ENDMDL
MODEL 8
REMARK VINA RESULT:    -0.004     17.784     19.710
REMARK INTER + INTRA:          -1.548
REMARK INTER:                  -0.004
REMARK INTRA:                  -1.544
REMARK UNBOUND:                -1.542
REMARK SMILES CC(=O)CCC=C(C)CCC=C(C)C
REMARK SMILES IDX 7 1 6 2 8 3 9 4 10 5 11 6 13 7 12 8 14 9 5 10 4 11 2 12 3 13
REMARK SMILES IDX 1 14
REMARK H PARENT
REMARK Flexibility Score: inf
ROOT
ATOM      1  C   UNL     1     132.007 136.524 139.239  1.00  0.00    -0.077 C 
ATOM      2  C   UNL     1     132.166 137.055 140.473  1.00  0.00    -0.028 C 
ATOM      3  C   UNL     1     132.893 136.914 138.080  1.00  0.00     0.039 C 
ENDROOT
BRANCH   1   4
ATOM      4  C   UNL     1     130.863 135.564 138.988  1.00  0.00     0.034 C 
BRANCH   4   5
ATOM      5  C   UNL     1     130.985 134.297 139.848  1.00  0.00     0.032 C 
BRANCH   5   6
ATOM      6  C   UNL     1     132.213 133.492 139.497  1.00  0.00    -0.028 C 
ATOM      7  C   UNL     1     134.351 132.341 139.873  1.00  0.00     0.039 C 
ATOM      8  C   UNL     1     133.212 133.200 140.359  1.00  0.00    -0.080 C 
ATOM      9  C   UNL     1     133.226 133.723 141.776  1.00  0.00     0.039 C 
ENDBRANCH   5   6
ENDBRANCH   4   5
ENDBRANCH   1   4
BRANCH   2  10
ATOM     10  C   UNL     1     133.266 138.015 140.853  1.00  0.00     0.035 C 
BRANCH  10  11
ATOM     11  C   UNL     1     134.393 137.287 141.592  1.00  0.00     0.079 C 
BRANCH  11  12
ATOM     12  C   UNL     1     135.589 137.109 140.695  1.00  0.00     0.130 C 
ATOM     13  O   UNL     1     136.330 138.058 140.486  1.00  0.00    -0.300 OA
ATOM     14  C   UNL     1     135.888 135.792 140.042  1.00  0.00     0.087 C 
ENDBRANCH  11  12
ENDBRANCH  10  11
ENDBRANCH   2  10
TORSDOF 6
ENDMDL
MODEL 9
REMARK VINA RESULT:     1.900      2.911      4.999
REMARK INTER + INTRA:           1.024
REMARK INTER:                   2.567
REMARK INTRA:                  -1.543
REMARK UNBOUND:                -1.542
REMARK SMILES CC(=O)CCC=C(C)CCC=C(C)C
REMARK SMILES IDX 7 1 6 2 8 3 9 4 10 5 11 6 13 7 12 8 14 9 5 10 4 11 2 12 3 13
REMARK SMILES IDX 1 14
REMARK H PARENT
REMARK Flexibility Score: inf
ROOT
ATOM      1  C   UNL     1     121.528 134.128 126.586  1.00  0.00    -0.077 C 
ATOM      2  C   UNL     1     121.864 133.223 125.638  1.00  0.00    -0.028 C 
ATOM      3  C   UNL     1     122.472 134.505 127.702  1.00  0.00     0.039 C 
ENDROOT
BRANCH   1   4
ATOM      4  C   UNL     1     120.138 134.730 126.575  1.00  0.00     0.034 C 
BRANCH   4   5
ATOM      5  C   UNL     1     119.875 135.530 125.292  1.00  0.00     0.032 C 
BRANCH   5   6
ATOM      6  C   UNL     1     120.781 136.732 125.180  1.00  0.00    -0.028 C 
ATOM      7  C   UNL     1     122.458 138.219 124.173  1.00  0.00     0.039 C 
ATOM      8  C   UNL     1     121.656 136.943 124.172  1.00  0.00    -0.080 C 
ATOM      9  C   UNL     1     121.862 135.936 123.065  1.00  0.00     0.039 C 
ENDBRANCH   5   6
ENDBRANCH   4   5
ENDBRANCH   1   4
BRANCH   2  10
ATOM     10  C   UNL     1     123.214 132.557 125.535  1.00  0.00     0.035 C 
BRANCH  10  11
ATOM     11  C   UNL     1     124.081 133.245 124.476  1.00  0.00     0.079 C 
BRANCH  11  12
ATOM     12  C   UNL     1     125.128 134.112 125.126  1.00  0.00     0.130 C 
ATOM     13  O   UNL     1     126.095 133.588 125.658  1.00  0.00    -0.300 OA
ATOM     14  C   UNL     1     125.004 135.607 125.144  1.00  0.00     0.087 C 
ENDBRANCH  11  12
ENDBRANCH  10  11
ENDBRANCH   2  10
TORSDOF 6
ENDMDL
