MODEL 1
REMARK VINA RESULT:    -3.446      0.000      0.000
REMARK INTER + INTRA:          -6.157
REMARK INTER:                  -4.957
REMARK INTRA:                  -1.199
REMARK UNBOUND:                -1.199
REMARK SMILES O=C(CO)[C@H](O)[C@@H](O)[C@H](O)CO
REMARK SMILES IDX 7 1 9 2 11 3 12 4 10 6 5 8 2 9 1 10 3 11 4 12 6 14 8 16
REMARK H PARENT 12 5 10 7 4 13 6 15 8 17
REMARK Flexibility Score: inf
ROOT
ATOM      1  C   UNL     1      26.775  37.023  23.319  1.00  0.00     0.181 C 
ENDROOT
BRANCH   1   2
ATOM      2  C   UNL     1      25.630  37.875  23.936  1.00  0.00     0.171 C 
BRANCH   2   3
ATOM      3  C   UNL     1      25.923  38.345  25.370  1.00  0.00     0.190 C 
BRANCH   3   4
ATOM      4  O   UNL     1      27.284  38.648  25.514  1.00  0.00    -0.394 OA
ATOM      5  H   UNL     1      27.374  39.159  26.361  1.00  0.00     0.210 HD
ENDBRANCH   3   4
ENDBRANCH   2   3
BRANCH   2   6
ATOM      6  O   UNL     1      25.362  38.994  23.131  1.00  0.00    -0.388 OA
ATOM      7  H   UNL     1      25.337  39.784  23.733  1.00  0.00     0.211 HD
ENDBRANCH   2   6
ENDBRANCH   1   2
BRANCH   1   8
ATOM      8  C   UNL     1      26.285  35.976  22.288  1.00  0.00     0.214 C 
BRANCH   8   9
ATOM      9  C   UNL     1      27.276  35.858  21.147  1.00  0.00     0.189 C 
ATOM     10  O   UNL     1      28.352  35.314  21.349  1.00  0.00    -0.294 OA
BRANCH   9  11
ATOM     11  C   UNL     1      26.974  36.385  19.767  1.00  0.00     0.234 C 
BRANCH  11  12
ATOM     12  O   UNL     1      26.903  37.785  19.783  1.00  0.00    -0.388 OA
ATOM     13  H   UNL     1      27.082  38.087  18.854  1.00  0.00     0.211 HD
ENDBRANCH  11  12
ENDBRANCH   9  11
ENDBRANCH   8   9
BRANCH   8  14
ATOM     14  O   UNL     1      25.016  36.339  21.801  1.00  0.00    -0.382 OA
ATOM     15  H   UNL     1      25.119  37.222  21.357  1.00  0.00     0.211 HD
ENDBRANCH   8  14
ENDBRANCH   1   8
BRANCH   1  16
ATOM     16  O   UNL     1      27.739  37.856  22.725  1.00  0.00    -0.387 OA
ATOM     17  H   UNL     1      27.362  38.165  21.859  1.00  0.00     0.211 HD
ENDBRANCH   1  16
TORSDOF 10
ENDMDL
MODEL 2
REMARK VINA RESULT:    -3.400      1.508      2.239
REMARK INTER + INTRA:          -6.090
REMARK INTER:                  -4.669
REMARK INTRA:                  -1.421
REMARK UNBOUND:                -1.199
REMARK SMILES O=C(CO)[C@H](O)[C@@H](O)[C@H](O)CO
REMARK SMILES IDX 7 1 9 2 11 3 12 4 10 6 5 8 2 9 1 10 3 11 4 12 6 14 8 16
REMARK H PARENT 12 5 10 7 4 13 6 15 8 17
REMARK Flexibility Score: inf
ROOT
ATOM      1  C   UNL     1      27.265  37.294  22.342  1.00  0.00     0.181 C 
ENDROOT
BRANCH   1   2
ATOM      2  C   UNL     1      25.948  36.788  22.993  1.00  0.00     0.171 C 
BRANCH   2   3
ATOM      3  C   UNL     1      25.202  37.872  23.788  1.00  0.00     0.190 C 
BRANCH   3   4
ATOM      4  O   UNL     1      25.322  39.113  23.146  1.00  0.00    -0.394 OA
ATOM      5  H   UNL     1      24.457  39.586  23.276  1.00  0.00     0.210 HD
ENDBRANCH   3   4
ENDBRANCH   2   3
BRANCH   2   6
ATOM      6  O   UNL     1      25.088  36.261  22.016  1.00  0.00    -0.388 OA
ATOM      7  H   UNL     1      24.266  35.960  22.486  1.00  0.00     0.211 HD
ENDBRANCH   2   6
ENDBRANCH   1   2
BRANCH   1   8
ATOM      8  C   UNL     1      28.316  36.179  22.115  1.00  0.00     0.214 C 
BRANCH   8   9
ATOM      9  C   UNL     1      28.706  36.113  20.651  1.00  0.00     0.189 C 
ATOM     10  O   UNL     1      29.514  36.920  20.216  1.00  0.00    -0.294 OA
BRANCH   9  11
ATOM     11  C   UNL     1      28.133  35.079  19.716  1.00  0.00     0.234 C 
BRANCH  11  12
ATOM     12  O   UNL     1      26.735  35.181  19.673  1.00  0.00    -0.388 OA
ATOM     13  H   UNL     1      26.384  34.252  19.699  1.00  0.00     0.211 HD
ENDBRANCH  11  12
ENDBRANCH   9  11
ENDBRANCH   8   9
BRANCH   8  14
ATOM     14  O   UNL     1      27.802  34.941  22.542  1.00  0.00    -0.382 OA
ATOM     15  H   UNL     1      27.659  35.011  23.523  1.00  0.00     0.211 HD
ENDBRANCH   8  14
ENDBRANCH   1   8
BRANCH   1  16
ATOM     16  O   UNL     1      26.992  37.941  21.124  1.00  0.00    -0.387 OA
ATOM     17  H   UNL     1      27.861  38.265  20.768  1.00  0.00     0.211 HD
ENDBRANCH   1  16
TORSDOF 10
ENDMDL
MODEL 3
REMARK VINA RESULT:    -3.384      1.948      3.338
REMARK INTER + INTRA:          -6.067
REMARK INTER:                  -5.352
REMARK INTRA:                  -0.715
REMARK UNBOUND:                -1.199
REMARK SMILES O=C(CO)[C@H](O)[C@@H](O)[C@H](O)CO
REMARK SMILES IDX 7 1 9 2 11 3 12 4 10 6 5 8 2 9 1 10 3 11 4 12 6 14 8 16
REMARK H PARENT 12 5 10 7 4 13 6 15 8 17
REMARK Flexibility Score: inf
ROOT
ATOM      1  C   UNL     1      27.113  36.026  22.679  1.00  0.00     0.181 C 
ENDROOT
BRANCH   1   2
ATOM      2  C   UNL     1      27.498  37.355  21.970  1.00  0.00     0.171 C 
BRANCH   2   3
ATOM      3  C   UNL     1      27.736  37.196  20.460  1.00  0.00     0.190 C 
BRANCH   3   4
ATOM      4  O   UNL     1      26.892  38.056  19.742  1.00  0.00    -0.394 OA
ATOM      5  H   UNL     1      27.459  38.803  19.415  1.00  0.00     0.210 HD
ENDBRANCH   3   4
ENDBRANCH   2   3
BRANCH   2   6
ATOM      6  O   UNL     1      26.507  38.328  22.180  1.00  0.00    -0.388 OA
ATOM      7  H   UNL     1      25.833  38.213  21.459  1.00  0.00     0.211 HD
ENDBRANCH   2   6
ENDBRANCH   1   2
BRANCH   1   8
ATOM      8  C   UNL     1      25.657  35.574  22.407  1.00  0.00     0.214 C 
BRANCH   8   9
ATOM      9  C   UNL     1      25.588  34.065  22.281  1.00  0.00     0.189 C 
ATOM     10  O   UNL     1      25.665  33.381  23.291  1.00  0.00    -0.294 OA
BRANCH   9  11
ATOM     11  C   UNL     1      25.423  33.381  20.949  1.00  0.00     0.234 C 
BRANCH  11  12
ATOM     12  O   UNL     1      26.288  33.943  20.000  1.00  0.00    -0.388 OA
ATOM     13  H   UNL     1      27.033  34.359  20.508  1.00  0.00     0.211 HD
ENDBRANCH  11  12
ENDBRANCH   9  11
ENDBRANCH   8   9
BRANCH   8  14
ATOM     14  O   UNL     1      25.175  36.188  21.237  1.00  0.00    -0.382 OA
ATOM     15  H   UNL     1      25.853  36.860  20.963  1.00  0.00     0.211 HD
ENDBRANCH   8  14
ENDBRANCH   1   8
BRANCH   1  16
ATOM     16  O   UNL     1      28.002  35.001  22.312  1.00  0.00    -0.387 OA
ATOM     17  H   UNL     1      28.382  34.632  23.153  1.00  0.00     0.211 HD
ENDBRANCH   1  16
TORSDOF 10
ENDMDL
MODEL 4
REMARK VINA RESULT:    -3.376      2.858      4.442
REMARK INTER + INTRA:          -6.056
REMARK INTER:                  -4.640
REMARK INTRA:                  -1.416
REMARK UNBOUND:                -1.199
REMARK SMILES O=C(CO)[C@H](O)[C@@H](O)[C@H](O)CO
REMARK SMILES IDX 7 1 9 2 11 3 12 4 10 6 5 8 2 9 1 10 3 11 4 12 6 14 8 16
REMARK H PARENT 12 5 10 7 4 13 6 15 8 17
REMARK Flexibility Score: inf
ROOT
ATOM      1  C   UNL     1      26.030  35.546  20.738  1.00  0.00     0.181 C 
ENDROOT
BRANCH   1   2
ATOM      2  C   UNL     1      27.574  35.664  20.598  1.00  0.00     0.171 C 
BRANCH   2   3
ATOM      3  C   UNL     1      28.045  37.070  20.194  1.00  0.00     0.190 C 
BRANCH   3   4
ATOM      4  O   UNL     1      26.964  37.828  19.722  1.00  0.00    -0.394 OA
ATOM      5  H   UNL     1      27.211  38.140  18.812  1.00  0.00     0.210 HD
ENDBRANCH   3   4
ENDBRANCH   2   3
BRANCH   2   6
ATOM      6  O   UNL     1      28.205  35.294  21.797  1.00  0.00    -0.388 OA
ATOM      7  H   UNL     1      28.796  36.049  22.056  1.00  0.00     0.211 HD
ENDBRANCH   2   6
ENDBRANCH   1   2
BRANCH   1   8
ATOM      8  C   UNL     1      25.532  34.092  20.932  1.00  0.00     0.214 C 
BRANCH   8   9
ATOM      9  C   UNL     1      24.862  33.941  22.284  1.00  0.00     0.189 C 
ATOM     10  O   UNL     1      23.715  34.339  22.426  1.00  0.00    -0.294 OA
BRANCH   9  11
ATOM     11  C   UNL     1      25.565  33.309  23.458  1.00  0.00     0.234 C 
BRANCH  11  12
ATOM     12  O   UNL     1      26.699  34.055  23.808  1.00  0.00    -0.388 OA
ATOM     13  H   UNL     1      27.333  33.420  24.235  1.00  0.00     0.211 HD
ENDBRANCH  11  12
ENDBRANCH   9  11
ENDBRANCH   8   9
BRANCH   8  14
ATOM     14  O   UNL     1      26.610  33.196  20.815  1.00  0.00    -0.382 OA
ATOM     15  H   UNL     1      27.442  33.734  20.887  1.00  0.00     0.211 HD
ENDBRANCH   8  14
ENDBRANCH   1   8
BRANCH   1  16
ATOM     16  O   UNL     1      25.572  36.347  21.799  1.00  0.00    -0.387 OA
ATOM     17  H   UNL     1      26.370  36.612  22.328  1.00  0.00     0.211 HD
ENDBRANCH   1  16
TORSDOF 10
ENDMDL
MODEL 5
REMARK VINA RESULT:    -3.368      1.715      2.640
REMARK INTER + INTRA:          -6.043
REMARK INTER:                  -5.384
REMARK INTRA:                  -0.659
REMARK UNBOUND:                -1.199
REMARK SMILES O=C(CO)[C@H](O)[C@@H](O)[C@H](O)CO
REMARK SMILES IDX 7 1 9 2 11 3 12 4 10 6 5 8 2 9 1 10 3 11 4 12 6 14 8 16
REMARK H PARENT 12 5 10 7 4 13 6 15 8 17
REMARK Flexibility Score: inf
ROOT
ATOM      1  C   UNL     1      26.756  36.492  21.508  1.00  0.00     0.181 C 
ENDROOT
BRANCH   1   2
ATOM      2  C   UNL     1      25.968  36.483  22.847  1.00  0.00     0.171 C 
BRANCH   2   3
ATOM      3  C   UNL     1      26.212  37.732  23.709  1.00  0.00     0.190 C 
BRANCH   3   4
ATOM      4  O   UNL     1      25.424  38.799  23.254  1.00  0.00    -0.394 OA
ATOM      5  H   UNL     1      24.477  38.538  23.405  1.00  0.00     0.210 HD
ENDBRANCH   3   4
ENDBRANCH   2   3
BRANCH   2   6
ATOM      6  O   UNL     1      24.590  36.354  22.605  1.00  0.00    -0.388 OA
ATOM      7  H   UNL     1      24.209  37.271  22.612  1.00  0.00     0.211 HD
ENDBRANCH   2   6
ENDBRANCH   1   2
BRANCH   1   8
ATOM      8  C   UNL     1      26.087  35.661  20.385  1.00  0.00     0.214 C 
BRANCH   8   9
ATOM      9  C   UNL     1      26.448  34.196  20.528  1.00  0.00     0.189 C 
ATOM     10  O   UNL     1      25.560  33.384  20.742  1.00  0.00    -0.294 OA
BRANCH   9  11
ATOM     11  C   UNL     1      27.868  33.707  20.408  1.00  0.00     0.234 C 
BRANCH  11  12
ATOM     12  O   UNL     1      28.399  34.049  19.157  1.00  0.00    -0.388 OA
ATOM     13  H   UNL     1      29.321  34.381  19.323  1.00  0.00     0.211 HD
ENDBRANCH  11  12
ENDBRANCH   9  11
ENDBRANCH   8   9
BRANCH   8  14
ATOM     14  O   UNL     1      26.486  36.146  19.127  1.00  0.00    -0.382 OA
ATOM     15  H   UNL     1      27.147  35.498  18.764  1.00  0.00     0.211 HD
ENDBRANCH   8  14
ENDBRANCH   1   8
BRANCH   1  16
ATOM     16  O   UNL     1      26.954  37.811  21.064  1.00  0.00    -0.387 OA
ATOM     17  H   UNL     1      27.797  37.817  20.540  1.00  0.00     0.211 HD
ENDBRANCH   1  16
TORSDOF 10
ENDMDL
MODEL 6
REMARK VINA RESULT:    -3.336      3.086      3.585
REMARK INTER + INTRA:          -5.997
REMARK INTER:                  -4.564
REMARK INTRA:                  -1.433
REMARK UNBOUND:                -1.199
REMARK SMILES O=C(CO)[C@H](O)[C@@H](O)[C@H](O)CO
REMARK SMILES IDX 7 1 9 2 11 3 12 4 10 6 5 8 2 9 1 10 3 11 4 12 6 14 8 16
REMARK H PARENT 12 5 10 7 4 13 6 15 8 17
REMARK Flexibility Score: inf
ROOT
ATOM      1  C   UNL     1      26.831  34.397  21.724  1.00  0.00     0.181 C 
ENDROOT
BRANCH   1   2
ATOM      2  C   UNL     1      25.470  34.686  21.033  1.00  0.00     0.171 C 
BRANCH   2   3
ATOM      3  C   UNL     1      24.259  34.492  21.960  1.00  0.00     0.190 C 
BRANCH   3   4
ATOM      4  O   UNL     1      24.646  33.821  23.129  1.00  0.00    -0.394 OA
ATOM      5  H   UNL     1      25.138  33.008  22.842  1.00  0.00     0.210 HD
ENDBRANCH   3   4
ENDBRANCH   2   3
BRANCH   2   6
ATOM      6  O   UNL     1      25.448  35.992  20.517  1.00  0.00    -0.388 OA
ATOM      7  H   UNL     1      25.302  36.604  21.285  1.00  0.00     0.211 HD
ENDBRANCH   2   6
ENDBRANCH   1   2
BRANCH   1   8
ATOM      8  C   UNL     1      27.990  34.134  20.730  1.00  0.00     0.214 C 
BRANCH   8   9
ATOM      9  C   UNL     1      29.093  35.155  20.925  1.00  0.00     0.189 C 
ATOM     10  O   UNL     1      29.875  35.015  21.853  1.00  0.00    -0.294 OA
BRANCH   9  11
ATOM     11  C   UNL     1      29.259  36.338  20.006  1.00  0.00     0.234 C 
BRANCH  11  12
ATOM     12  O   UNL     1      28.056  37.050  19.904  1.00  0.00    -0.388 OA
ATOM     13  H   UNL     1      28.287  38.011  20.005  1.00  0.00     0.211 HD
ENDBRANCH  11  12
ENDBRANCH   9  11
ENDBRANCH   8   9
BRANCH   8  14
ATOM     14  O   UNL     1      27.509  34.176  19.410  1.00  0.00    -0.382 OA
ATOM     15  H   UNL     1      26.863  33.427  19.314  1.00  0.00     0.211 HD
ENDBRANCH   8  14
ENDBRANCH   1   8
BRANCH   1  16
ATOM     16  O   UNL     1      27.178  35.453  22.584  1.00  0.00    -0.387 OA
ATOM     17  H   UNL     1      26.447  36.123  22.529  1.00  0.00     0.211 HD
ENDBRANCH   1  16
TORSDOF 10
ENDMDL
MODEL 7
REMARK VINA RESULT:    -3.315     16.075     17.249
REMARK INTER + INTRA:          -5.967
REMARK INTER:                  -4.737
REMARK INTRA:                  -1.230
REMARK UNBOUND:                -1.199
REMARK SMILES O=C(CO)[C@H](O)[C@@H](O)[C@H](O)CO
REMARK SMILES IDX 7 1 9 2 11 3 12 4 10 6 5 8 2 9 1 10 3 11 4 12 6 14 8 16
REMARK H PARENT 12 5 10 7 4 13 6 15 8 17
REMARK Flexibility Score: inf
ROOT
ATOM      1  C   UNL     1      16.450  25.797  27.591  1.00  0.00     0.181 C 
ENDROOT
BRANCH   1   2
ATOM      2  C   UNL     1      15.280  25.730  26.571  1.00  0.00     0.171 C 
BRANCH   2   3
ATOM      3  C   UNL     1      15.608  24.906  25.316  1.00  0.00     0.190 C 
BRANCH   3   4
ATOM      4  O   UNL     1      16.995  24.744  25.190  1.00  0.00    -0.394 OA
ATOM      5  H   UNL     1      17.255  25.174  24.333  1.00  0.00     0.210 HD
ENDBRANCH   3   4
ENDBRANCH   2   3
BRANCH   2   6
ATOM      6  O   UNL     1      14.128  25.203  27.179  1.00  0.00    -0.388 OA
ATOM      7  H   UNL     1      13.946  24.329  26.742  1.00  0.00     0.211 HD
ENDBRANCH   2   6
ENDBRANCH   1   2
BRANCH   1   8
ATOM      8  C   UNL     1      16.185  26.749  28.783  1.00  0.00     0.214 C 
BRANCH   8   9
ATOM      9  C   UNL     1      15.960  25.953  30.053  1.00  0.00     0.189 C 
ATOM     10  O   UNL     1      14.927  25.312  30.177  1.00  0.00    -0.294 OA
BRANCH   9  11
ATOM     11  C   UNL     1      16.975  25.921  31.167  1.00  0.00     0.234 C 
BRANCH  11  12
ATOM     12  O   UNL     1      18.093  25.165  30.789  1.00  0.00    -0.388 OA
ATOM     13  H   UNL     1      18.341  24.615  31.578  1.00  0.00     0.211 HD
ENDBRANCH  11  12
ENDBRANCH   9  11
ENDBRANCH   8   9
BRANCH   8  14
ATOM     14  O   UNL     1      15.070  27.562  28.508  1.00  0.00    -0.382 OA
ATOM     15  H   UNL     1      14.314  27.206  29.045  1.00  0.00     0.211 HD
ENDBRANCH   8  14
ENDBRANCH   1   8
BRANCH   1  16
ATOM     16  O   UNL     1      16.754  24.511  28.072  1.00  0.00    -0.387 OA
ATOM     17  H   UNL     1      16.103  24.311  28.795  1.00  0.00     0.211 HD
ENDBRANCH   1  16
TORSDOF 10
ENDMDL
MODEL 8
REMARK VINA RESULT:    -3.310      1.767      4.720
REMARK INTER + INTRA:          -5.960
REMARK INTER:                  -5.143
REMARK INTRA:                  -0.817
REMARK UNBOUND:                -1.199
REMARK SMILES O=C(CO)[C@H](O)[C@@H](O)[C@H](O)CO
REMARK SMILES IDX 7 1 9 2 11 3 12 4 10 6 5 8 2 9 1 10 3 11 4 12 6 14 8 16
REMARK H PARENT 12 5 10 7 4 13 6 15 8 17
REMARK Flexibility Score: inf
ROOT
ATOM      1  C   UNL     1      26.030  35.400  20.459  1.00  0.00     0.181 C 
ENDROOT
BRANCH   1   2
ATOM      2  C   UNL     1      26.517  33.924  20.484  1.00  0.00     0.171 C 
BRANCH   2   3
ATOM      3  C   UNL     1      28.046  33.784  20.413  1.00  0.00     0.190 C 
BRANCH   3   4
ATOM      4  O   UNL     1      28.500  34.051  19.114  1.00  0.00    -0.394 OA
ATOM      5  H   UNL     1      27.814  34.628  18.686  1.00  0.00     0.210 HD
ENDBRANCH   3   4
ENDBRANCH   2   3
BRANCH   2   6
ATOM      6  O   UNL     1      26.048  33.271  21.635  1.00  0.00    -0.388 OA
ATOM      7  H   UNL     1      25.071  33.139  21.514  1.00  0.00     0.211 HD
ENDBRANCH   2   6
ENDBRANCH   1   2
BRANCH   1   8
ATOM      8  C   UNL     1      26.622  36.271  21.594  1.00  0.00     0.214 C 
BRANCH   8   9
ATOM      9  C   UNL     1      25.594  36.483  22.687  1.00  0.00     0.189 C 
ATOM     10  O   UNL     1      24.634  35.729  22.753  1.00  0.00    -0.294 OA
BRANCH   9  11
ATOM     11  C   UNL     1      25.720  37.591  23.700  1.00  0.00     0.234 C 
BRANCH  11  12
ATOM     12  O   UNL     1      25.475  38.833  23.099  1.00  0.00    -0.388 OA
ATOM     13  H   UNL     1      26.095  38.899  22.325  1.00  0.00     0.211 HD
ENDBRANCH  11  12
ENDBRANCH   9  11
ENDBRANCH   8   9
BRANCH   8  14
ATOM     14  O   UNL     1      27.051  37.506  21.076  1.00  0.00    -0.382 OA
ATOM     15  H   UNL     1      27.079  37.411  20.088  1.00  0.00     0.211 HD
ENDBRANCH   8  14
ENDBRANCH   1   8
BRANCH   1  16
ATOM     16  O   UNL     1      26.315  35.989  19.214  1.00  0.00    -0.387 OA
ATOM     17  H   UNL     1      27.027  36.663  19.369  1.00  0.00     0.211 HD
ENDBRANCH   1  16
TORSDOF 10
ENDMDL
MODEL 9
REMARK VINA RESULT:    -3.256      2.871      4.435
REMARK INTER + INTRA:          -5.882
REMARK INTER:                  -4.492
REMARK INTRA:                  -1.391
REMARK UNBOUND:                -1.199
REMARK SMILES O=C(CO)[C@H](O)[C@@H](O)[C@H](O)CO
REMARK SMILES IDX 7 1 9 2 11 3 12 4 10 6 5 8 2 9 1 10 3 11 4 12 6 14 8 16
REMARK H PARENT 12 5 10 7 4 13 6 15 8 17
REMARK Flexibility Score: inf
ROOT
ATOM      1  C   UNL     1      28.194  34.861  20.714  1.00  0.00     0.181 C 
ENDROOT
BRANCH   1   2
ATOM      2  C   UNL     1      28.648  36.336  20.533  1.00  0.00     0.171 C 
BRANCH   2   3
ATOM      3  C   UNL     1      29.974  36.479  19.769  1.00  0.00     0.190 C 
BRANCH   3   4
ATOM      4  O   UNL     1      30.215  35.334  18.996  1.00  0.00    -0.394 OA
ATOM      5  H   UNL     1      29.872  35.528  18.084  1.00  0.00     0.210 HD
ENDBRANCH   3   4
ENDBRANCH   2   3
BRANCH   2   6
ATOM      6  O   UNL     1      27.655  37.079  19.874  1.00  0.00    -0.388 OA
ATOM      7  H   UNL     1      26.922  36.447  19.652  1.00  0.00     0.211 HD
ENDBRANCH   2   6
ENDBRANCH   1   2
BRANCH   1   8
ATOM      8  C   UNL     1      27.360  34.618  21.996  1.00  0.00     0.214 C 
BRANCH   8   9
ATOM      9  C   UNL     1      26.023  33.995  21.645  1.00  0.00     0.189 C 
ATOM     10  O   UNL     1      25.970  32.798  21.408  1.00  0.00    -0.294 OA
BRANCH   9  11
ATOM     11  C   UNL     1      24.754  34.807  21.583  1.00  0.00     0.234 C 
BRANCH  11  12
ATOM     12  O   UNL     1      24.951  35.966  20.820  1.00  0.00    -0.388 OA
ATOM     13  H   UNL     1      25.754  35.801  20.259  1.00  0.00     0.211 HD
ENDBRANCH  11  12
ENDBRANCH   9  11
ENDBRANCH   8   9
BRANCH   8  14
ATOM     14  O   UNL     1      27.172  35.831  22.682  1.00  0.00    -0.382 OA
ATOM     15  H   UNL     1      27.759  35.804  23.483  1.00  0.00     0.211 HD
ENDBRANCH   8  14
ENDBRANCH   1   8
BRANCH   1  16
ATOM     16  O   UNL     1      27.467  34.432  19.589  1.00  0.00    -0.387 OA
ATOM     17  H   UNL     1      26.504  34.520  19.816  1.00  0.00     0.211 HD
ENDBRANCH   1  16
TORSDOF 10
ENDMDL
