MODEL 1
REMARK VINA RESULT:    -5.678      0.000      0.000
REMARK INTER + INTRA:          -9.079
REMARK INTER:                  -7.835
REMARK INTRA:                  -1.243
REMARK UNBOUND:                -1.243
REMARK SMILES O=C([O-])[C@H]1O[C@@H](Oc2cc3oc(-c4ccccc4)cc(=O)c3c(O)c2O)[C@H](O)[C@@H](O)[C@@H]1O
REMARK SMILES IDX 7 1 6 2 4 3 31 4 5 5 29 6 27 7 2 8 1 9 3 10 32 11 30 13
REMARK SMILES IDX 28 15 8 17 25 18 9 19 23 20 10 21 22 22 11 23 20 24 12 25
REMARK SMILES IDX 19 26 21 27 26 28 24 30 13 32 14 33 18 34 15 35 17 36 16 37
REMARK H PARENT 32 12 30 14 28 16 26 29 24 31
REMARK Flexibility Score: inf
ROOT
ATOM      1  O   UNL     1      21.840  -4.687  -6.078  1.00  0.00    -0.458 OA
ENDROOT
BRANCH   1   2
ATOM      2  C   UNL     1      21.285  -4.336  -4.803  1.00  0.00     0.339 C 
ATOM      3  C   UNL     1      19.221  -3.515  -5.674  1.00  0.00     0.199 C 
ATOM      4  C   UNL     1      19.574  -2.045  -5.308  1.00  0.00     0.180 C 
ATOM      5  O   UNL     1      19.867  -4.459  -4.828  1.00  0.00    -0.328 OA
ATOM      6  C   UNL     1      21.092  -1.837  -5.219  1.00  0.00     0.181 C 
ATOM      7  C   UNL     1      21.736  -2.927  -4.345  1.00  0.00     0.214 C 
BRANCH   3   8
ATOM      8  C   UNL     1      19.379  -3.855  -7.140  1.00  0.00     0.073 C 
ATOM      9  O   UNL     1      19.789  -2.996  -7.963  1.00  0.00    -0.547 OA
ATOM     10  O   UNL     1      18.960  -5.093  -7.609  1.00  0.00    -0.547 OA
ENDBRANCH   3   8
BRANCH   4  11
ATOM     11  O   UNL     1      18.993  -1.715  -4.071  1.00  0.00    -0.387 OA
ATOM     12  H   UNL     1      18.740  -2.571  -3.633  1.00  0.00     0.211 HD
ENDBRANCH   4  11
BRANCH   6  13
ATOM     13  O   UNL     1      21.646  -1.848  -6.511  1.00  0.00    -0.387 OA
ATOM     14  H   UNL     1      21.918  -0.917  -6.717  1.00  0.00     0.211 HD
ENDBRANCH   6  13
BRANCH   7  15
ATOM     15  O   UNL     1      21.372  -2.725  -3.002  1.00  0.00    -0.384 OA
ATOM     16  H   UNL     1      21.599  -3.560  -2.512  1.00  0.00     0.211 HD
ENDBRANCH   7  15
ENDBRANCH   1   2
BRANCH   1  17
ATOM     17  C   UNL     1      22.356  -5.935  -6.477  1.00  0.00     0.172 A 
ATOM     18  C   UNL     1      22.090  -6.540  -7.729  1.00  0.00     0.201 A 
ATOM     19  C   UNL     1      23.193  -6.576  -5.567  1.00  0.00     0.098 A 
ATOM     20  C   UNL     1      22.620  -7.827  -8.015  1.00  0.00     0.176 A 
ATOM     21  C   UNL     1      23.737  -7.826  -5.846  1.00  0.00     0.146 A 
ATOM     22  C   UNL     1      23.453  -8.470  -7.069  1.00  0.00     0.111 A 
ATOM     23  O   UNL     1      24.519  -8.404  -4.939  1.00  0.00    -0.456 OA
ATOM     24  C   UNL     1      24.022  -9.745  -7.278  1.00  0.00     0.197 A 
ATOM     25  C   UNL     1      25.077  -9.599  -5.108  1.00  0.00     0.138 A 
ATOM     26  C   UNL     1      24.836 -10.309  -6.296  1.00  0.00     0.100 A 
ATOM     27  O   UNL     1      23.805 -10.399  -8.335  1.00  0.00    -0.289 OA
BRANCH  18  28
ATOM     28  O   UNL     1      21.338  -5.840  -8.673  1.00  0.00    -0.502 OA
ATOM     29  H   UNL     1      21.217  -6.116  -9.637  1.00  0.00     0.293 HD
ENDBRANCH  18  28
BRANCH  20  30
ATOM     30  O   UNL     1      22.334  -8.483  -9.214  1.00  0.00    -0.504 OA
ATOM     31  H   UNL     1      23.018  -8.724  -9.916  1.00  0.00     0.293 HD
ENDBRANCH  20  30
BRANCH  25  32
ATOM     32  C   UNL     1      25.918 -10.156  -4.017  1.00  0.00     0.017 A 
ATOM     33  C   UNL     1      26.354 -11.493  -4.095  1.00  0.00     0.012 A 
ATOM     34  C   UNL     1      26.280  -9.387  -2.891  1.00  0.00     0.012 A 
ATOM     35  C   UNL     1      27.154 -12.040  -3.085  1.00  0.00     0.001 A 
ATOM     36  C   UNL     1      27.080  -9.941  -1.883  1.00  0.00     0.001 A 
ATOM     37  C   UNL     1      27.520 -11.263  -1.983  1.00  0.00     0.000 A 
ENDBRANCH  25  32
ENDBRANCH   1  17
TORSDOF 9
ENDMDL
MODEL 2
REMARK VINA RESULT:    -4.006      1.030      2.400
REMARK INTER + INTRA:          -6.772
REMARK INTER:                  -6.014
REMARK INTRA:                  -0.758
REMARK UNBOUND:                -1.243
REMARK SMILES O=C([O-])[C@H]1O[C@@H](Oc2cc3oc(-c4ccccc4)cc(=O)c3c(O)c2O)[C@H](O)[C@@H](O)[C@@H]1O
REMARK SMILES IDX 7 1 6 2 4 3 31 4 5 5 29 6 27 7 2 8 1 9 3 10 32 11 30 13
REMARK SMILES IDX 28 15 8 17 25 18 9 19 23 20 10 21 22 22 11 23 20 24 12 25
REMARK SMILES IDX 19 26 21 27 26 28 24 30 13 32 14 33 18 34 15 35 17 36 16 37
REMARK H PARENT 32 12 30 14 28 16 26 29 24 31
REMARK Flexibility Score: inf
ROOT
ATOM      1  O   UNL     1      21.100  -4.352  -6.620  1.00  0.00    -0.458 OA
ENDROOT
BRANCH   1   2
ATOM      2  C   UNL     1      19.878  -3.882  -7.207  1.00  0.00     0.339 C 
ATOM      3  C   UNL     1      19.666  -1.975  -5.789  1.00  0.00     0.199 C 
ATOM      4  C   UNL     1      18.437  -2.576  -5.052  1.00  0.00     0.180 C 
ATOM      5  O   UNL     1      19.799  -2.464  -7.120  1.00  0.00    -0.328 OA
ATOM      6  C   UNL     1      18.425  -4.109  -5.136  1.00  0.00     0.181 C 
ATOM      7  C   UNL     1      18.638  -4.571  -6.587  1.00  0.00     0.214 C 
BRANCH   3   8
ATOM      8  C   UNL     1      20.965  -2.053  -5.018  1.00  0.00     0.073 C 
ATOM      9  O   UNL     1      20.979  -2.395  -3.806  1.00  0.00    -0.547 OA
ATOM     10  O   UNL     1      22.147  -1.633  -5.612  1.00  0.00    -0.547 OA
ENDBRANCH   3   8
BRANCH   4  11
ATOM     11  O   UNL     1      17.253  -2.077  -5.623  1.00  0.00    -0.387 OA
ATOM     12  H   UNL     1      17.155  -2.514  -6.511  1.00  0.00     0.211 HD
ENDBRANCH   4  11
BRANCH   6  13
ATOM     13  O   UNL     1      19.424  -4.635  -4.298  1.00  0.00    -0.387 OA
ATOM     14  H   UNL     1      19.911  -5.320  -4.824  1.00  0.00     0.211 HD
ENDBRANCH   6  13
BRANCH   7  15
ATOM     15  O   UNL     1      17.495  -4.266  -7.348  1.00  0.00    -0.384 OA
ATOM     16  H   UNL     1      17.535  -4.828  -8.168  1.00  0.00     0.211 HD
ENDBRANCH   7  15
ENDBRANCH   1   2
BRANCH   1  17
ATOM     17  C   UNL     1      21.777  -5.556  -6.893  1.00  0.00     0.172 A 
ATOM     18  C   UNL     1      21.613  -6.308  -8.081  1.00  0.00     0.201 A 
ATOM     19  C   UNL     1      22.674  -5.993  -5.920  1.00  0.00     0.098 A 
ATOM     20  C   UNL     1      22.308  -7.537  -8.237  1.00  0.00     0.176 A 
ATOM     21  C   UNL     1      23.378  -7.185  -6.073  1.00  0.00     0.146 A 
ATOM     22  C   UNL     1      23.200  -7.974  -7.229  1.00  0.00     0.111 A 
ATOM     23  O   UNL     1      24.210  -7.567  -5.110  1.00  0.00    -0.456 OA
ATOM     24  C   UNL     1      23.929  -9.179  -7.310  1.00  0.00     0.197 A 
ATOM     25  C   UNL     1      24.919  -8.691  -5.159  1.00  0.00     0.138 A 
ATOM     26  C   UNL     1      24.792  -9.537  -6.273  1.00  0.00     0.100 A 
ATOM     27  O   UNL     1      23.816  -9.955  -8.299  1.00  0.00    -0.289 OA
BRANCH  18  28
ATOM     28  O   UNL     1      20.794  -5.804  -9.092  1.00  0.00    -0.502 OA
ATOM     29  H   UNL     1      21.113  -5.520 -10.007  1.00  0.00     0.293 HD
ENDBRANCH  18  28
BRANCH  20  30
ATOM     30  O   UNL     1      22.128  -8.338  -9.368  1.00  0.00    -0.504 OA
ATOM     31  H   UNL     1      21.239  -8.517  -9.811  1.00  0.00     0.293 HD
ENDBRANCH  20  30
BRANCH  25  32
ATOM     32  C   UNL     1      25.805  -9.027  -4.015  1.00  0.00     0.017 A 
ATOM     33  C   UNL     1      26.449 -10.280  -3.984  1.00  0.00     0.012 A 
ATOM     34  C   UNL     1      26.008  -8.133  -2.943  1.00  0.00     0.012 A 
ATOM     35  C   UNL     1      27.296 -10.619  -2.922  1.00  0.00     0.001 A 
ATOM     36  C   UNL     1      26.855  -8.479  -1.882  1.00  0.00     0.001 A 
ATOM     37  C   UNL     1      27.502  -9.718  -1.875  1.00  0.00     0.000 A 
ENDBRANCH  25  32
ENDBRANCH   1  17
TORSDOF 9
ENDMDL
MODEL 3
REMARK VINA RESULT:    -3.627      2.256      8.377
REMARK INTER + INTRA:          -6.249
REMARK INTER:                  -5.008
REMARK INTRA:                  -1.241
REMARK UNBOUND:                -1.243
REMARK SMILES O=C([O-])[C@H]1O[C@@H](Oc2cc3oc(-c4ccccc4)cc(=O)c3c(O)c2O)[C@H](O)[C@@H](O)[C@@H]1O
REMARK SMILES IDX 7 1 6 2 4 3 31 4 5 5 29 6 27 7 2 8 1 9 3 10 32 11 30 13
REMARK SMILES IDX 28 15 8 17 25 18 9 19 23 20 10 21 22 22 11 23 20 24 12 25
REMARK SMILES IDX 19 26 21 27 26 28 24 30 13 32 14 33 18 34 15 35 17 36 16 37
REMARK H PARENT 32 12 30 14 28 16 26 29 24 31
REMARK Flexibility Score: inf
ROOT
ATOM      1  O   UNL     1      25.857  -9.085  -4.546  1.00  0.00    -0.458 OA
ENDROOT
BRANCH   1   2
ATOM      2  C   UNL     1      27.114  -8.497  -4.183  1.00  0.00     0.339 C 
ATOM      3  C   UNL     1      28.286 -10.567  -3.996  1.00  0.00     0.199 C 
ATOM      4  C   UNL     1      28.404 -10.436  -2.451  1.00  0.00     0.180 C 
ATOM      5  O   UNL     1      28.191  -9.304  -4.645  1.00  0.00    -0.328 OA
ATOM      6  C   UNL     1      27.298  -9.542  -1.875  1.00  0.00     0.181 C 
ATOM      7  C   UNL     1      27.206  -8.223  -2.662  1.00  0.00     0.214 C 
BRANCH   3   8
ATOM      8  C   UNL     1      27.223 -11.535  -4.467  1.00  0.00     0.073 C 
ATOM      9  O   UNL     1      26.473 -12.124  -3.645  1.00  0.00    -0.547 OA
ATOM     10  O   UNL     1      27.143 -11.870  -5.812  1.00  0.00    -0.547 OA
ENDBRANCH   3   8
BRANCH   4  11
ATOM     11  O   UNL     1      29.656  -9.888  -2.119  1.00  0.00    -0.387 OA
ATOM     12  H   UNL     1      29.480  -9.024  -1.659  1.00  0.00     0.211 HD
ENDBRANCH   4  11
BRANCH   6  13
ATOM     13  O   UNL     1      26.071 -10.227  -1.913  1.00  0.00    -0.387 OA
ATOM     14  H   UNL     1      26.272 -11.167  -2.157  1.00  0.00     0.211 HD
ENDBRANCH   6  13
BRANCH   7  15
ATOM     15  O   UNL     1      28.338  -7.435  -2.388  1.00  0.00    -0.384 OA
ATOM     16  H   UNL     1      28.879  -7.407  -3.222  1.00  0.00     0.211 HD
ENDBRANCH   7  15
ENDBRANCH   1   2
BRANCH   1  17
ATOM     17  C   UNL     1      24.908  -8.589  -5.460  1.00  0.00     0.172 A 
ATOM     18  C   UNL     1      24.656  -9.158  -6.731  1.00  0.00     0.201 A 
ATOM     19  C   UNL     1      24.172  -7.481  -5.045  1.00  0.00     0.098 A 
ATOM     20  C   UNL     1      23.711  -8.551  -7.600  1.00  0.00     0.176 A 
ATOM     21  C   UNL     1      23.226  -6.891  -5.878  1.00  0.00     0.146 A 
ATOM     22  C   UNL     1      22.987  -7.414  -7.167  1.00  0.00     0.111 A 
ATOM     23  O   UNL     1      22.561  -5.826  -5.442  1.00  0.00    -0.456 OA
ATOM     24  C   UNL     1      22.029  -6.755  -7.966  1.00  0.00     0.197 A 
ATOM     25  C   UNL     1      21.645  -5.188  -6.167  1.00  0.00     0.138 A 
ATOM     26  C   UNL     1      21.356  -5.641  -7.464  1.00  0.00     0.100 A 
ATOM     27  O   UNL     1      21.767  -7.144  -9.138  1.00  0.00    -0.289 OA
BRANCH  18  28
ATOM     28  O   UNL     1      25.322 -10.330  -7.091  1.00  0.00    -0.502 OA
ATOM     29  H   UNL     1      26.324 -10.457  -7.068  1.00  0.00     0.293 HD
ENDBRANCH  18  28
BRANCH  20  30
ATOM     30  O   UNL     1      23.476  -9.047  -8.884  1.00  0.00    -0.504 OA
ATOM     31  H   UNL     1      23.976  -9.816  -9.304  1.00  0.00     0.293 HD
ENDBRANCH  20  30
BRANCH  25  32
ATOM     32  C   UNL     1      20.978  -3.996  -5.583  1.00  0.00     0.017 A 
ATOM     33  C   UNL     1      19.620  -3.754  -5.872  1.00  0.00     0.012 A 
ATOM     34  C   UNL     1      21.670  -3.083  -4.760  1.00  0.00     0.012 A 
ATOM     35  C   UNL     1      18.964  -2.643  -5.329  1.00  0.00     0.001 A 
ATOM     36  C   UNL     1      21.008  -1.972  -4.221  1.00  0.00     0.001 A 
ATOM     37  C   UNL     1      19.656  -1.756  -4.501  1.00  0.00     0.000 A 
ENDBRANCH  25  32
ENDBRANCH   1  17
TORSDOF 9
ENDMDL
MODEL 4
REMARK VINA RESULT:    -3.291      2.355      8.505
REMARK INTER + INTRA:          -5.785
REMARK INTER:                  -5.258
REMARK INTRA:                  -0.526
REMARK UNBOUND:                -1.243
REMARK SMILES O=C([O-])[C@H]1O[C@@H](Oc2cc3oc(-c4ccccc4)cc(=O)c3c(O)c2O)[C@H](O)[C@@H](O)[C@@H]1O
REMARK SMILES IDX 7 1 6 2 4 3 31 4 5 5 29 6 27 7 2 8 1 9 3 10 32 11 30 13
REMARK SMILES IDX 28 15 8 17 25 18 9 19 23 20 10 21 22 22 11 23 20 24 12 25
REMARK SMILES IDX 19 26 21 27 26 28 24 30 13 32 14 33 18 34 15 35 17 36 16 37
REMARK H PARENT 32 12 30 14 28 16 26 29 24 31
REMARK Flexibility Score: inf
ROOT
ATOM      1  O   UNL     1      25.868  -8.532  -3.909  1.00  0.00    -0.458 OA
ENDROOT
BRANCH   1   2
ATOM      2  C   UNL     1      25.932  -9.770  -3.188  1.00  0.00     0.339 C 
ATOM      3  C   UNL     1      27.834  -9.168  -1.878  1.00  0.00     0.199 C 
ATOM      4  C   UNL     1      28.749 -10.185  -2.617  1.00  0.00     0.180 C 
ATOM      5  O   UNL     1      26.465  -9.558  -1.885  1.00  0.00    -0.328 OA
ATOM      6  C   UNL     1      28.218 -10.502  -4.022  1.00  0.00     0.181 C 
ATOM      7  C   UNL     1      26.721 -10.852  -3.967  1.00  0.00     0.214 C 
BRANCH   3   8
ATOM      8  C   UNL     1      28.021  -7.728  -2.301  1.00  0.00     0.073 C 
ATOM      9  O   UNL     1      29.066  -7.360  -2.901  1.00  0.00    -0.547 OA
ATOM     10  O   UNL     1      27.088  -6.772  -1.926  1.00  0.00    -0.547 OA
ENDBRANCH   3   8
BRANCH   4  11
ATOM     11  O   UNL     1      28.822 -11.378  -1.875  1.00  0.00    -0.387 OA
ATOM     12  H   UNL     1      29.787 -11.601  -1.782  1.00  0.00     0.211 HD
ENDBRANCH   4  11
BRANCH   6  13
ATOM     13  O   UNL     1      28.438  -9.401  -4.868  1.00  0.00    -0.387 OA
ATOM     14  H   UNL     1      27.554  -9.133  -5.229  1.00  0.00     0.211 HD
ENDBRANCH   6  13
BRANCH   7  15
ATOM     15  O   UNL     1      26.555 -12.101  -3.345  1.00  0.00    -0.384 OA
ATOM     16  H   UNL     1      27.211 -12.722  -3.763  1.00  0.00     0.211 HD
ENDBRANCH   7  15
ENDBRANCH   1   2
BRANCH   1  17
ATOM     17  C   UNL     1      24.945  -8.167  -4.908  1.00  0.00     0.172 A 
ATOM     18  C   UNL     1      24.806  -8.841  -6.145  1.00  0.00     0.201 A 
ATOM     19  C   UNL     1      24.119  -7.083  -4.619  1.00  0.00     0.098 A 
ATOM     20  C   UNL     1      23.878  -8.361  -7.108  1.00  0.00     0.176 A 
ATOM     21  C   UNL     1      23.189  -6.618  -5.545  1.00  0.00     0.146 A 
ATOM     22  C   UNL     1      23.061  -7.246  -6.802  1.00  0.00     0.111 A 
ATOM     23  O   UNL     1      22.434  -5.571  -5.228  1.00  0.00    -0.456 OA
ATOM     24  C   UNL     1      22.113  -6.711  -7.700  1.00  0.00     0.197 A 
ATOM     25  C   UNL     1      21.526  -5.048  -6.047  1.00  0.00     0.138 A 
ATOM     26  C   UNL     1      21.343  -5.611  -7.321  1.00  0.00     0.100 A 
ATOM     27  O   UNL     1      21.946  -7.199  -8.852  1.00  0.00    -0.289 OA
BRANCH  18  28
ATOM     28  O   UNL     1      25.564  -9.989  -6.379  1.00  0.00    -0.502 OA
ATOM     29  H   UNL     1      25.217 -10.935  -6.311  1.00  0.00     0.293 HD
ENDBRANCH  18  28
BRANCH  20  30
ATOM     30  O   UNL     1      23.752  -8.962  -8.363  1.00  0.00    -0.504 OA
ATOM     31  H   UNL     1      23.028  -9.618  -8.616  1.00  0.00     0.293 HD
ENDBRANCH  20  30
BRANCH  25  32
ATOM     32  C   UNL     1      20.752  -3.864  -5.592  1.00  0.00     0.017 A 
ATOM     33  C   UNL     1      19.403  -3.733  -5.976  1.00  0.00     0.012 A 
ATOM     34  C   UNL     1      21.335  -2.853  -4.800  1.00  0.00     0.012 A 
ATOM     35  C   UNL     1      18.648  -2.632  -5.554  1.00  0.00     0.001 A 
ATOM     36  C   UNL     1      20.575  -1.753  -4.384  1.00  0.00     0.001 A 
ATOM     37  C   UNL     1      19.232  -1.645  -4.756  1.00  0.00     0.000 A 
ENDBRANCH  25  32
ENDBRANCH   1  17
TORSDOF 9
ENDMDL
