MODEL 1
REMARK VINA RESULT:    -4.184      0.000      0.000
REMARK INTER + INTRA:          -6.542
REMARK INTER:                  -6.140
REMARK INTRA:                  -0.402
REMARK UNBOUND:                -0.402
REMARK SMILES O=C([O-])CCCCCCCC(=O)[O-]
REMARK SMILES IDX 7 1 6 2 5 3 4 4 2 5 1 6 3 7 8 8 9 9 10 10 11 11 12 12 13 13
REMARK H PARENT
REMARK Flexibility Score: inf
ROOT
ATOM      1  C   UNL     1       1.808  50.350  21.239  1.00  0.00     0.000 C 
ENDROOT
BRANCH   1   2
ATOM      2  C   UNL     1       2.112  49.000  21.914  1.00  0.00     0.000 C 
BRANCH   2   3
ATOM      3  C   UNL     1       0.938  48.010  21.821  1.00  0.00     0.006 C 
BRANCH   3   4
ATOM      4  C   UNL     1       0.067  48.024  23.085  1.00  0.00     0.053 C 
BRANCH   4   5
ATOM      5  C   UNL     1      -0.377  46.646  23.472  1.00  0.00     0.041 C 
ATOM      6  O   UNL     1      -0.908  45.889  22.618  1.00  0.00    -0.550 OA
ATOM      7  O   UNL     1      -0.175  46.188  24.769  1.00  0.00    -0.550 OA
ENDBRANCH   4   5
ENDBRANCH   3   4
ENDBRANCH   2   3
ENDBRANCH   1   2
BRANCH   1   8
ATOM      8  C   UNL     1       1.400  51.486  22.200  1.00  0.00     0.000 C 
BRANCH   8   9
ATOM      9  C   UNL     1       2.230  51.580  23.491  1.00  0.00     0.006 C 
BRANCH   9  10
ATOM     10  C   UNL     1       3.408  52.555  23.373  1.00  0.00     0.053 C 
BRANCH  10  11
ATOM     11  C   UNL     1       3.064  53.868  24.003  1.00  0.00     0.041 C 
ATOM     12  O   UNL     1       3.343  54.082  25.213  1.00  0.00    -0.550 OA
ATOM     13  O   UNL     1       2.481  54.872  23.242  1.00  0.00    -0.550 OA
ENDBRANCH  10  11
ENDBRANCH   9  10
ENDBRANCH   8   9
ENDBRANCH   1   8
TORSDOF 8
ENDMDL
MODEL 2
REMARK VINA RESULT:    -4.136      1.730      2.632
REMARK INTER + INTRA:          -6.471
REMARK INTER:                  -6.147
REMARK INTRA:                  -0.324
REMARK UNBOUND:                -0.402
REMARK SMILES O=C([O-])CCCCCCCC(=O)[O-]
REMARK SMILES IDX 7 1 6 2 5 3 4 4 2 5 1 6 3 7 8 8 9 9 10 10 11 11 12 12 13 13
REMARK H PARENT
REMARK Flexibility Score: inf
ROOT
ATOM      1  C   UNL     1       0.991  48.164  21.712  1.00  0.00     0.000 C 
ENDROOT
BRANCH   1   2
ATOM      2  C   UNL     1       0.148  48.005  22.990  1.00  0.00     0.000 C 
BRANCH   2   3
ATOM      3  C   UNL     1      -0.560  46.641  23.072  1.00  0.00     0.006 C 
BRANCH   3   4
ATOM      4  C   UNL     1      -0.775  46.187  24.521  1.00  0.00     0.053 C 
BRANCH   4   5
ATOM      5  C   UNL     1      -2.212  45.861  24.796  1.00  0.00     0.041 C 
ATOM      6  O   UNL     1      -2.789  44.948  24.150  1.00  0.00    -0.550 OA
ATOM      7  O   UNL     1      -2.904  46.546  25.788  1.00  0.00    -0.550 OA
ENDBRANCH   4   5
ENDBRANCH   3   4
ENDBRANCH   2   3
ENDBRANCH   1   2
BRANCH   1   8
ATOM      8  C   UNL     1       2.135  49.194  21.805  1.00  0.00     0.000 C 
BRANCH   8   9
ATOM      9  C   UNL     1       1.778  50.612  21.326  1.00  0.00     0.006 C 
BRANCH   9  10
ATOM     10  C   UNL     1       1.319  51.528  22.467  1.00  0.00     0.053 C 
BRANCH  10  11
ATOM     11  C   UNL     1       2.442  51.774  23.425  1.00  0.00     0.041 C 
ATOM     12  O   UNL     1       3.425  52.481  23.079  1.00  0.00    -0.550 OA
ATOM     13  O   UNL     1       2.381  51.262  24.714  1.00  0.00    -0.550 OA
ENDBRANCH  10  11
ENDBRANCH   9  10
ENDBRANCH   8   9
ENDBRANCH   1   8
TORSDOF 8
ENDMDL
MODEL 3
REMARK VINA RESULT:    -4.085      1.284      6.820
REMARK INTER + INTRA:          -6.398
REMARK INTER:                  -6.126
REMARK INTRA:                  -0.272
REMARK UNBOUND:                -0.402
REMARK SMILES O=C([O-])CCCCCCCC(=O)[O-]
REMARK SMILES IDX 7 1 6 2 5 3 4 4 2 5 1 6 3 7 8 8 9 9 10 10 11 11 12 12 13 13
REMARK H PARENT
REMARK Flexibility Score: inf
ROOT
ATOM      1  C   UNL     1       2.177  49.272  21.646  1.00  0.00     0.000 C 
ENDROOT
BRANCH   1   2
ATOM      2  C   UNL     1       1.609  50.700  21.565  1.00  0.00     0.000 C 
BRANCH   2   3
ATOM      3  C   UNL     1       1.700  51.455  22.902  1.00  0.00     0.006 C 
BRANCH   3   4
ATOM      4  C   UNL     1       2.959  52.328  22.990  1.00  0.00     0.053 C 
BRANCH   4   5
ATOM      5  C   UNL     1       2.702  53.726  22.516  1.00  0.00     0.041 C 
ATOM      6  O   UNL     1       1.522  54.136  22.363  1.00  0.00    -0.550 OA
ATOM      7  O   UNL     1       3.767  54.586  22.274  1.00  0.00    -0.550 OA
ENDBRANCH   4   5
ENDBRANCH   3   4
ENDBRANCH   2   3
ENDBRANCH   1   2
BRANCH   1   8
ATOM      8  C   UNL     1       1.130  48.143  21.550  1.00  0.00     0.000 C 
BRANCH   8   9
ATOM      9  C   UNL     1       0.276  47.935  22.813  1.00  0.00     0.006 C 
BRANCH   9  10
ATOM     10  C   UNL     1      -0.480  46.601  22.808  1.00  0.00     0.053 C 
BRANCH  10  11
ATOM     11  C   UNL     1      -0.819  46.188  24.206  1.00  0.00     0.041 C 
ATOM     12  O   UNL     1      -0.056  46.495  25.160  1.00  0.00    -0.550 OA
ATOM     13  O   UNL     1      -2.001  45.507  24.461  1.00  0.00    -0.550 OA
ENDBRANCH  10  11
ENDBRANCH   9  10
ENDBRANCH   8   9
ENDBRANCH   1   8
TORSDOF 8
ENDMDL
MODEL 4
REMARK VINA RESULT:    -4.081      2.173      7.099
REMARK INTER + INTRA:          -6.392
REMARK INTER:                  -6.130
REMARK INTRA:                  -0.261
REMARK UNBOUND:                -0.402
REMARK SMILES O=C([O-])CCCCCCCC(=O)[O-]
REMARK SMILES IDX 7 1 6 2 5 3 4 4 2 5 1 6 3 7 8 8 9 9 10 10 11 11 12 12 13 13
REMARK H PARENT
REMARK Flexibility Score: inf
ROOT
ATOM      1  C   UNL     1       0.258  47.989  22.894  1.00  0.00     0.000 C 
ENDROOT
BRANCH   1   2
ATOM      2  C   UNL     1       1.128  48.096  21.629  1.00  0.00     0.000 C 
BRANCH   2   3
ATOM      3  C   UNL     1       2.069  49.313  21.653  1.00  0.00     0.006 C 
BRANCH   3   4
ATOM      4  C   UNL     1       1.822  50.212  22.872  1.00  0.00     0.053 C 
BRANCH   4   5
ATOM      5  C   UNL     1       2.121  51.650  22.574  1.00  0.00     0.041 C 
ATOM      6  O   UNL     1       2.977  52.273  23.255  1.00  0.00    -0.550 OA
ATOM      7  O   UNL     1       1.475  52.294  21.525  1.00  0.00    -0.550 OA
ENDBRANCH   4   5
ENDBRANCH   3   4
ENDBRANCH   2   3
ENDBRANCH   1   2
BRANCH   1   8
ATOM      8  C   UNL     1      -0.514  46.662  23.049  1.00  0.00     0.000 C 
BRANCH   8   9
ATOM      9  C   UNL     1      -0.692  46.176  24.497  1.00  0.00     0.006 C 
BRANCH   9  10
ATOM     10  C   UNL     1      -2.005  46.652  25.129  1.00  0.00     0.053 C 
BRANCH  10  11
ATOM     11  C   UNL     1      -3.156  45.844  24.616  1.00  0.00     0.041 C 
ATOM     12  O   UNL     1      -4.301  46.360  24.526  1.00  0.00    -0.550 OA
ATOM     13  O   UNL     1      -2.952  44.538  24.191  1.00  0.00    -0.550 OA
ENDBRANCH  10  11
ENDBRANCH   9  10
ENDBRANCH   8   9
ENDBRANCH   1   8
TORSDOF 8
ENDMDL
MODEL 5
REMARK VINA RESULT:    -4.074     17.637     19.295
REMARK INTER + INTRA:          -6.382
REMARK INTER:                  -5.863
REMARK INTRA:                  -0.518
REMARK UNBOUND:                -0.402
REMARK SMILES O=C([O-])CCCCCCCC(=O)[O-]
REMARK SMILES IDX 7 1 6 2 5 3 4 4 2 5 1 6 3 7 8 8 9 9 10 10 11 11 12 12 13 13
REMARK H PARENT
REMARK Flexibility Score: inf
ROOT
ATOM      1  C   UNL     1      -9.072  51.943  39.361  1.00  0.00     0.000 C 
ENDROOT
BRANCH   1   2
ATOM      2  C   UNL     1      -9.866  52.311  38.095  1.00  0.00     0.000 C 
BRANCH   2   3
ATOM      3  C   UNL     1     -10.283  51.078  37.274  1.00  0.00     0.006 C 
BRANCH   3   4
ATOM      4  C   UNL     1     -11.353  51.415  36.227  1.00  0.00     0.053 C 
BRANCH   4   5
ATOM      5  C   UNL     1     -10.748  51.739  34.895  1.00  0.00     0.041 C 
ATOM      6  O   UNL     1     -11.074  52.794  34.291  1.00  0.00    -0.550 OA
ATOM      7  O   UNL     1      -9.801  50.890  34.334  1.00  0.00    -0.550 OA
ENDBRANCH   4   5
ENDBRANCH   3   4
ENDBRANCH   2   3
ENDBRANCH   1   2
BRANCH   1   8
ATOM      8  C   UNL     1      -9.852  51.121  40.409  1.00  0.00     0.000 C 
BRANCH   8   9
ATOM      9  C   UNL     1      -9.113  49.885  40.950  1.00  0.00     0.006 C 
BRANCH   9  10
ATOM     10  C   UNL     1      -8.020  49.381  40.000  1.00  0.00     0.053 C 
BRANCH  10  11
ATOM     11  C   UNL     1      -8.368  48.022  39.477  1.00  0.00     0.041 C 
ATOM     12  O   UNL     1      -8.011  46.991  40.106  1.00  0.00    -0.550 OA
ATOM     13  O   UNL     1      -9.130  47.897  38.323  1.00  0.00    -0.550 OA
ENDBRANCH  10  11
ENDBRANCH   9  10
ENDBRANCH   8   9
ENDBRANCH   1   8
TORSDOF 8
ENDMDL
MODEL 6
REMARK VINA RESULT:    -4.046      1.151      6.662
REMARK INTER + INTRA:          -6.340
REMARK INTER:                  -5.808
REMARK INTRA:                  -0.531
REMARK UNBOUND:                -0.402
REMARK SMILES O=C([O-])CCCCCCCC(=O)[O-]
REMARK SMILES IDX 7 1 6 2 5 3 4 4 2 5 1 6 3 7 8 8 9 9 10 10 11 11 12 12 13 13
REMARK H PARENT
REMARK Flexibility Score: inf
ROOT
ATOM      1  C   UNL     1       1.489  51.733  22.079  1.00  0.00     0.000 C 
ENDROOT
BRANCH   1   2
ATOM      2  C   UNL     1       2.130  51.741  23.478  1.00  0.00     0.000 C 
BRANCH   2   3
ATOM      3  C   UNL     1       3.395  52.614  23.550  1.00  0.00     0.006 C 
BRANCH   3   4
ATOM      4  C   UNL     1       3.278  53.875  22.684  1.00  0.00     0.053 C 
BRANCH   4   5
ATOM      5  C   UNL     1       2.731  55.035  23.460  1.00  0.00     0.041 C 
ATOM      6  O   UNL     1       1.497  55.286  23.437  1.00  0.00    -0.550 OA
ATOM      7  O   UNL     1       3.579  55.820  24.231  1.00  0.00    -0.550 OA
ENDBRANCH   4   5
ENDBRANCH   3   4
ENDBRANCH   2   3
ENDBRANCH   1   2
BRANCH   1   8
ATOM      8  C   UNL     1       1.809  50.494  21.217  1.00  0.00     0.000 C 
BRANCH   8   9
ATOM      9  C   UNL     1       2.020  49.189  22.004  1.00  0.00     0.006 C 
BRANCH   9  10
ATOM     10  C   UNL     1       1.017  48.094  21.621  1.00  0.00     0.053 C 
BRANCH  10  11
ATOM     11  C   UNL     1       0.064  47.841  22.746  1.00  0.00     0.041 C 
ATOM     12  O   UNL     1      -0.257  48.776  23.527  1.00  0.00    -0.550 OA
ATOM     13  O   UNL     1      -0.508  46.585  22.903  1.00  0.00    -0.550 OA
ENDBRANCH  10  11
ENDBRANCH   9  10
ENDBRANCH   8   9
ENDBRANCH   1   8
TORSDOF 8
ENDMDL
MODEL 7
REMARK VINA RESULT:    -4.031      1.153      1.919
REMARK INTER + INTRA:          -6.318
REMARK INTER:                  -5.828
REMARK INTRA:                  -0.489
REMARK UNBOUND:                -0.402
REMARK SMILES O=C([O-])CCCCCCCC(=O)[O-]
REMARK SMILES IDX 7 1 6 2 5 3 4 4 2 5 1 6 3 7 8 8 9 9 10 10 11 11 12 12 13 13
REMARK H PARENT
REMARK Flexibility Score: inf
ROOT
ATOM      1  C   UNL     1       1.536  51.769  22.118  1.00  0.00     0.000 C 
ENDROOT
BRANCH   1   2
ATOM      2  C   UNL     1       1.728  50.552  21.196  1.00  0.00     0.000 C 
BRANCH   2   3
ATOM      3  C   UNL     1       2.048  49.262  21.971  1.00  0.00     0.006 C 
BRANCH   3   4
ATOM      4  C   UNL     1       1.032  48.148  21.685  1.00  0.00     0.053 C 
BRANCH   4   5
ATOM      5  C   UNL     1       0.147  47.883  22.865  1.00  0.00     0.041 C 
ATOM      6  O   UNL     1       0.061  48.729  23.794  1.00  0.00    -0.550 OA
ATOM      7  O   UNL     1      -0.606  46.717  22.924  1.00  0.00    -0.550 OA
ENDBRANCH   4   5
ENDBRANCH   3   4
ENDBRANCH   2   3
ENDBRANCH   1   2
BRANCH   1   8
ATOM      8  C   UNL     1       2.172  51.638  23.518  1.00  0.00     0.000 C 
BRANCH   8   9
ATOM      9  C   UNL     1       3.364  52.573  23.783  1.00  0.00     0.006 C 
BRANCH   9  10
ATOM     10  C   UNL     1       2.937  53.954  24.294  1.00  0.00     0.053 C 
BRANCH  10  11
ATOM     11  C   UNL     1       3.329  55.018  23.317  1.00  0.00     0.041 C 
ATOM     12  O   UNL     1       3.306  56.230  23.658  1.00  0.00    -0.550 OA
ATOM     13  O   UNL     1       3.767  54.667  22.047  1.00  0.00    -0.550 OA
ENDBRANCH  10  11
ENDBRANCH   9  10
ENDBRANCH   8   9
ENDBRANCH   1   8
TORSDOF 8
ENDMDL
MODEL 8
REMARK VINA RESULT:    -4.024      1.856      6.404
REMARK INTER + INTRA:          -6.307
REMARK INTER:                  -5.893
REMARK INTRA:                  -0.414
REMARK UNBOUND:                -0.402
REMARK SMILES O=C([O-])CCCCCCCC(=O)[O-]
REMARK SMILES IDX 7 1 6 2 5 3 4 4 2 5 1 6 3 7 8 8 9 9 10 10 11 11 12 12 13 13
REMARK H PARENT
REMARK Flexibility Score: inf
ROOT
ATOM      1  C   UNL     1       1.842  49.237  22.168  1.00  0.00     0.000 C 
ENDROOT
BRANCH   1   2
ATOM      2  C   UNL     1       1.730  50.465  21.248  1.00  0.00     0.000 C 
BRANCH   2   3
ATOM      3  C   UNL     1       1.705  51.793  22.025  1.00  0.00     0.006 C 
BRANCH   3   4
ATOM      4  C   UNL     1       1.316  52.979  21.133  1.00  0.00     0.053 C 
BRANCH   4   5
ATOM      5  C   UNL     1       0.181  53.766  21.715  1.00  0.00     0.041 C 
ATOM      6  O   UNL     1       0.028  53.828  22.963  1.00  0.00    -0.550 OA
ATOM      7  O   UNL     1      -0.688  54.457  20.879  1.00  0.00    -0.550 OA
ENDBRANCH   4   5
ENDBRANCH   3   4
ENDBRANCH   2   3
ENDBRANCH   1   2
BRANCH   1   8
ATOM      8  C   UNL     1       1.757  49.539  23.679  1.00  0.00     0.000 C 
BRANCH   8   9
ATOM      9  C   UNL     1       0.560  48.902  24.405  1.00  0.00     0.006 C 
BRANCH   9  10
ATOM     10  C   UNL     1      -0.371  48.134  23.460  1.00  0.00     0.053 C 
BRANCH  10  11
ATOM     11  C   UNL     1      -0.456  46.696  23.865  1.00  0.00     0.041 C 
ATOM     12  O   UNL     1      -0.055  46.333  25.002  1.00  0.00    -0.550 OA
ATOM     13  O   UNL     1      -1.024  45.765  23.005  1.00  0.00    -0.550 OA
ENDBRANCH  10  11
ENDBRANCH   9  10
ENDBRANCH   8   9
ENDBRANCH   1   8
TORSDOF 8
ENDMDL
MODEL 9
REMARK VINA RESULT:    -4.001      2.051      2.562
REMARK INTER + INTRA:          -6.274
REMARK INTER:                  -6.041
REMARK INTRA:                  -0.233
REMARK UNBOUND:                -0.402
REMARK SMILES O=C([O-])CCCCCCCC(=O)[O-]
REMARK SMILES IDX 7 1 6 2 5 3 4 4 2 5 1 6 3 7 8 8 9 9 10 10 11 11 12 12 13 13
REMARK H PARENT
REMARK Flexibility Score: inf
ROOT
ATOM      1  C   UNL     1       2.033  49.221  22.049  1.00  0.00     0.000 C 
ENDROOT
BRANCH   1   2
ATOM      2  C   UNL     1       0.950  48.146  21.848  1.00  0.00     0.000 C 
BRANCH   2   3
ATOM      3  C   UNL     1      -0.015  48.041  23.042  1.00  0.00     0.006 C 
BRANCH   3   4
ATOM      4  C   UNL     1      -0.592  46.627  23.197  1.00  0.00     0.053 C 
BRANCH   4   5
ATOM      5  C   UNL     1      -1.801  46.612  24.083  1.00  0.00     0.041 C 
ATOM      6  O   UNL     1      -2.206  45.530  24.583  1.00  0.00    -0.550 OA
ATOM      7  O   UNL     1      -2.462  47.798  24.380  1.00  0.00    -0.550 OA
ENDBRANCH   4   5
ENDBRANCH   3   4
ENDBRANCH   2   3
ENDBRANCH   1   2
BRANCH   1   8
ATOM      8  C   UNL     1       1.867  50.488  21.186  1.00  0.00     0.000 C 
BRANCH   8   9
ATOM      9  C   UNL     1       1.082  51.632  21.850  1.00  0.00     0.006 C 
BRANCH   9  10
ATOM     10  C   UNL     1       1.235  52.967  21.111  1.00  0.00     0.053 C 
BRANCH  10  11
ATOM     11  C   UNL     1       0.274  53.978  21.654  1.00  0.00     0.041 C 
ATOM     12  O   UNL     1       0.452  54.469  22.801  1.00  0.00    -0.550 OA
ATOM     13  O   UNL     1      -0.789  54.415  20.875  1.00  0.00    -0.550 OA
ENDBRANCH  10  11
ENDBRANCH   9  10
ENDBRANCH   8   9
ENDBRANCH   1   8
TORSDOF 8
ENDMDL
