MODEL 1
REMARK VINA RESULT:    -4.880      0.000      0.000
REMARK INTER + INTRA:          -8.344
REMARK INTER:                  -7.448
REMARK INTRA:                  -0.896
REMARK UNBOUND:                -0.896
REMARK SMILES CCCCCCCCCC=CC(=O)[O-]
REMARK SMILES IDX 7 1 8 2 9 3 10 4 11 5 12 6 13 7 14 8 6 9 5 10 4 11 3 12 2 13
REMARK SMILES IDX 1 14
REMARK H PARENT
REMARK Flexibility Score: inf
ROOT
ATOM      1  C   UNL     1      40.682  52.083  35.082  1.00  0.00     0.000 C 
ENDROOT
BRANCH   1   2
ATOM      2  C   UNL     1      42.062  51.435  35.331  1.00  0.00     0.004 C 
BRANCH   2   3
ATOM      3  C   UNL     1      43.174  52.477  35.531  1.00  0.00     0.027 C 
BRANCH   3   4
ATOM      4  C   UNL     1      43.644  53.030  34.214  1.00  0.00    -0.025 C 
ATOM      5  C   UNL     1      43.513  54.300  33.796  1.00  0.00     0.020 C 
BRANCH   5   6
ATOM      6  C   UNL     1      42.916  55.421  34.553  1.00  0.00     0.064 C 
ATOM      7  O   UNL     1      43.650  56.095  35.321  1.00  0.00    -0.545 OA
ATOM      8  O   UNL     1      41.567  55.741  34.465  1.00  0.00    -0.545 OA
ENDBRANCH   5   6
ENDBRANCH   3   4
ENDBRANCH   2   3
ENDBRANCH   1   2
BRANCH   1   9
ATOM      9  C   UNL     1      39.909  51.466  33.900  1.00  0.00     0.000 C 
BRANCH   9  10
ATOM     10  C   UNL     1      40.779  51.030  32.706  1.00  0.00     0.000 C 
BRANCH  10  11
ATOM     11  C   UNL     1      40.100  50.054  31.727  1.00  0.00    -0.000 C 
BRANCH  11  12
ATOM     12  C   UNL     1      40.003  48.625  32.280  1.00  0.00    -0.000 C 
BRANCH  12  13
ATOM     13  C   UNL     1      38.550  48.136  32.285  1.00  0.00    -0.003 C 
ATOM     14  C   UNL     1      37.707  48.897  31.267  1.00  0.00     0.004 C 
ENDBRANCH  12  13
ENDBRANCH  11  12
ENDBRANCH  10  11
ENDBRANCH   9  10
ENDBRANCH   1   9
TORSDOF 9
ENDMDL
MODEL 2
REMARK VINA RESULT:    -4.805      7.215      8.161
REMARK INTER + INTRA:          -8.230
REMARK INTER:                  -7.528
REMARK INTRA:                  -0.702
REMARK UNBOUND:                -0.896
REMARK SMILES CCCCCCCCCC=CC(=O)[O-]
REMARK SMILES IDX 7 1 8 2 9 3 10 4 11 5 12 6 13 7 14 8 6 9 5 10 4 11 3 12 2 13
REMARK SMILES IDX 1 14
REMARK H PARENT
REMARK Flexibility Score: inf
ROOT
ATOM      1  C   UNL     1      46.737  48.215  35.786  1.00  0.00     0.000 C 
ENDROOT
BRANCH   1   2
ATOM      2  C   UNL     1      46.916  49.557  35.043  1.00  0.00     0.004 C 
BRANCH   2   3
ATOM      3  C   UNL     1      48.316  49.707  34.428  1.00  0.00     0.027 C 
BRANCH   3   4
ATOM      4  C   UNL     1      49.117  50.756  35.149  1.00  0.00    -0.025 C 
ATOM      5  C   UNL     1      50.027  50.535  36.111  1.00  0.00     0.020 C 
BRANCH   5   6
ATOM      6  C   UNL     1      50.457  49.220  36.634  1.00  0.00     0.064 C 
ATOM      7  O   UNL     1      49.905  48.768  37.670  1.00  0.00    -0.545 OA
ATOM      8  O   UNL     1      51.468  48.478  36.036  1.00  0.00    -0.545 OA
ENDBRANCH   5   6
ENDBRANCH   3   4
ENDBRANCH   2   3
ENDBRANCH   1   2
BRANCH   1   9
ATOM      9  C   UNL     1      45.287  47.694  35.790  1.00  0.00     0.000 C 
BRANCH   9  10
ATOM     10  C   UNL     1      45.070  46.358  35.056  1.00  0.00     0.000 C 
BRANCH  10  11
ATOM     11  C   UNL     1      46.360  45.642  34.613  1.00  0.00    -0.000 C 
BRANCH  11  12
ATOM     12  C   UNL     1      46.259  45.052  33.199  1.00  0.00    -0.000 C 
BRANCH  12  13
ATOM     13  C   UNL     1      44.987  44.210  33.046  1.00  0.00    -0.003 C 
ATOM     14  C   UNL     1      45.227  42.763  33.468  1.00  0.00     0.004 C 
ENDBRANCH  12  13
ENDBRANCH  11  12
ENDBRANCH  10  11
ENDBRANCH   9  10
ENDBRANCH   1   9
TORSDOF 9
ENDMDL
MODEL 3
REMARK VINA RESULT:    -4.802      3.551      6.548
REMARK INTER + INTRA:          -8.225
REMARK INTER:                  -7.246
REMARK INTRA:                  -0.978
REMARK UNBOUND:                -0.896
REMARK SMILES CCCCCCCCCC=CC(=O)[O-]
REMARK SMILES IDX 7 1 8 2 9 3 10 4 11 5 12 6 13 7 14 8 6 9 5 10 4 11 3 12 2 13
REMARK SMILES IDX 1 14
REMARK H PARENT
REMARK Flexibility Score: inf
ROOT
ATOM      1  C   UNL     1      40.007  52.503  35.441  1.00  0.00     0.000 C 
ENDROOT
BRANCH   1   2
ATOM      2  C   UNL     1      39.275  51.562  34.459  1.00  0.00     0.004 C 
BRANCH   2   3
ATOM      3  C   UNL     1      39.608  51.869  32.991  1.00  0.00     0.027 C 
BRANCH   3   4
ATOM      4  C   UNL     1      40.502  50.812  32.404  1.00  0.00    -0.025 C 
ATOM      5  C   UNL     1      40.104  49.656  31.848  1.00  0.00     0.020 C 
BRANCH   5   6
ATOM      6  C   UNL     1      38.709  49.200  31.666  1.00  0.00     0.064 C 
ATOM      7  O   UNL     1      38.150  49.382  30.553  1.00  0.00    -0.545 OA
ATOM      8  O   UNL     1      37.985  48.598  32.688  1.00  0.00    -0.545 OA
ENDBRANCH   5   6
ENDBRANCH   3   4
ENDBRANCH   2   3
ENDBRANCH   1   2
BRANCH   1   9
ATOM      9  C   UNL     1      41.070  51.796  36.304  1.00  0.00     0.000 C 
BRANCH   9  10
ATOM     10  C   UNL     1      42.398  51.493  35.586  1.00  0.00     0.000 C 
BRANCH  10  11
ATOM     11  C   UNL     1      42.896  52.602  34.640  1.00  0.00    -0.000 C 
BRANCH  11  12
ATOM     12  C   UNL     1      44.001  53.467  35.262  1.00  0.00    -0.000 C 
BRANCH  12  13
ATOM     13  C   UNL     1      43.402  54.608  36.093  1.00  0.00    -0.003 C 
ATOM     14  C   UNL     1      44.356  55.045  37.201  1.00  0.00     0.004 C 
ENDBRANCH  12  13
ENDBRANCH  11  12
ENDBRANCH  10  11
ENDBRANCH   9  10
ENDBRANCH   1   9
TORSDOF 9
ENDMDL
MODEL 4
REMARK VINA RESULT:    -4.753      3.508      6.084
REMARK INTER + INTRA:          -8.150
REMARK INTER:                  -6.863
REMARK INTRA:                  -1.287
REMARK UNBOUND:                -0.896
REMARK SMILES CCCCCCCCCC=CC(=O)[O-]
REMARK SMILES IDX 7 1 8 2 9 3 10 4 11 5 12 6 13 7 14 8 6 9 5 10 4 11 3 12 2 13
REMARK SMILES IDX 1 14
REMARK H PARENT
REMARK Flexibility Score: inf
ROOT
ATOM      1  C   UNL     1      39.797  52.505  35.416  1.00  0.00     0.000 C 
ENDROOT
BRANCH   1   2
ATOM      2  C   UNL     1      39.243  51.458  34.426  1.00  0.00     0.004 C 
BRANCH   2   3
ATOM      3  C   UNL     1      39.537  51.818  32.961  1.00  0.00     0.027 C 
BRANCH   3   4
ATOM      4  C   UNL     1      40.529  50.864  32.355  1.00  0.00    -0.025 C 
ATOM      5  C   UNL     1      40.246  49.675  31.799  1.00  0.00     0.020 C 
BRANCH   5   6
ATOM      6  C   UNL     1      38.904  49.075  31.633  1.00  0.00     0.064 C 
ATOM      7  O   UNL     1      38.521  48.206  32.459  1.00  0.00    -0.545 OA
ATOM      8  O   UNL     1      38.062  49.418  30.583  1.00  0.00    -0.545 OA
ENDBRANCH   5   6
ENDBRANCH   3   4
ENDBRANCH   2   3
ENDBRANCH   1   2
BRANCH   1   9
ATOM      9  C   UNL     1      40.951  51.983  36.294  1.00  0.00     0.000 C 
BRANCH   9  10
ATOM     10  C   UNL     1      42.128  51.358  35.522  1.00  0.00     0.000 C 
BRANCH  10  11
ATOM     11  C   UNL     1      43.392  52.235  35.439  1.00  0.00    -0.000 C 
BRANCH  11  12
ATOM     12  C   UNL     1      43.491  53.015  34.120  1.00  0.00    -0.000 C 
BRANCH  12  13
ATOM     13  C   UNL     1      43.134  54.492  34.329  1.00  0.00    -0.003 C 
ATOM     14  C   UNL     1      41.908  54.886  33.511  1.00  0.00     0.004 C 
ENDBRANCH  12  13
ENDBRANCH  11  12
ENDBRANCH  10  11
ENDBRANCH   9  10
ENDBRANCH   1   9
TORSDOF 9
ENDMDL
MODEL 5
REMARK VINA RESULT:    -4.688      7.539      8.485
REMARK INTER + INTRA:          -8.050
REMARK INTER:                  -7.093
REMARK INTRA:                  -0.957
REMARK UNBOUND:                -0.896
REMARK SMILES CCCCCCCCCC=CC(=O)[O-]
REMARK SMILES IDX 7 1 8 2 9 3 10 4 11 5 12 6 13 7 14 8 6 9 5 10 4 11 3 12 2 13
REMARK SMILES IDX 1 14
REMARK H PARENT
REMARK Flexibility Score: inf
ROOT
ATOM      1  C   UNL     1      46.906  48.200  35.780  1.00  0.00     0.000 C 
ENDROOT
BRANCH   1   2
ATOM      2  C   UNL     1      47.342  49.540  35.149  1.00  0.00     0.004 C 
BRANCH   2   3
ATOM      3  C   UNL     1      48.515  49.376  34.170  1.00  0.00     0.027 C 
BRANCH   3   4
ATOM      4  C   UNL     1      48.444  48.056  33.453  1.00  0.00    -0.025 C 
ATOM      5  C   UNL     1      49.312  47.608  32.531  1.00  0.00     0.020 C 
BRANCH   5   6
ATOM      6  C   UNL     1      50.532  48.298  32.058  1.00  0.00     0.064 C 
ATOM      7  O   UNL     1      50.475  48.976  30.999  1.00  0.00    -0.545 OA
ATOM      8  O   UNL     1      51.745  48.204  32.728  1.00  0.00    -0.545 OA
ENDBRANCH   5   6
ENDBRANCH   3   4
ENDBRANCH   2   3
ENDBRANCH   1   2
BRANCH   1   9
ATOM      9  C   UNL     1      45.386  47.952  35.727  1.00  0.00     0.000 C 
BRANCH   9  10
ATOM     10  C   UNL     1      44.965  46.589  35.149  1.00  0.00     0.000 C 
BRANCH  10  11
ATOM     11  C   UNL     1      46.123  45.604  34.894  1.00  0.00    -0.000 C 
BRANCH  11  12
ATOM     12  C   UNL     1      46.198  45.137  33.433  1.00  0.00    -0.000 C 
BRANCH  12  13
ATOM     13  C   UNL     1      44.956  44.321  33.055  1.00  0.00    -0.003 C 
ATOM     14  C   UNL     1      45.139  42.845  33.396  1.00  0.00     0.004 C 
ENDBRANCH  12  13
ENDBRANCH  11  12
ENDBRANCH  10  11
ENDBRANCH   9  10
ENDBRANCH   1   9
TORSDOF 9
ENDMDL
MODEL 6
REMARK VINA RESULT:    -4.678      8.167     10.483
REMARK INTER + INTRA:          -8.035
REMARK INTER:                  -7.441
REMARK INTRA:                  -0.594
REMARK UNBOUND:                -0.896
REMARK SMILES CCCCCCCCCC=CC(=O)[O-]
REMARK SMILES IDX 7 1 8 2 9 3 10 4 11 5 12 6 13 7 14 8 6 9 5 10 4 11 3 12 2 13
REMARK SMILES IDX 1 14
REMARK H PARENT
REMARK Flexibility Score: inf
ROOT
ATOM      1  C   UNL     1      45.221  47.601  35.725  1.00  0.00     0.000 C 
ENDROOT
BRANCH   1   2
ATOM      2  C   UNL     1      44.568  46.416  34.980  1.00  0.00     0.004 C 
BRANCH   2   3
ATOM      3  C   UNL     1      45.605  45.463  34.366  1.00  0.00     0.027 C 
BRANCH   3   4
ATOM      4  C   UNL     1      44.987  44.600  33.300  1.00  0.00    -0.025 C 
ATOM      5  C   UNL     1      45.224  43.293  33.104  1.00  0.00     0.020 C 
BRANCH   5   6
ATOM      6  C   UNL     1      46.107  42.424  33.913  1.00  0.00     0.064 C 
ATOM      7  O   UNL     1      47.306  42.280  33.561  1.00  0.00    -0.545 OA
ATOM      8  O   UNL     1      45.652  41.742  35.035  1.00  0.00    -0.545 OA
ENDBRANCH   5   6
ENDBRANCH   3   4
ENDBRANCH   2   3
ENDBRANCH   1   2
BRANCH   1   9
ATOM      9  C   UNL     1      46.595  47.269  36.338  1.00  0.00     0.000 C 
BRANCH   9  10
ATOM     10  C   UNL     1      47.692  48.321  36.091  1.00  0.00     0.000 C 
BRANCH  10  11
ATOM     11  C   UNL     1      47.286  49.480  35.160  1.00  0.00    -0.000 C 
BRANCH  11  12
ATOM     12  C   UNL     1      48.406  50.512  34.969  1.00  0.00    -0.000 C 
BRANCH  12  13
ATOM     13  C   UNL     1      49.767  49.923  35.359  1.00  0.00    -0.003 C 
ATOM     14  C   UNL     1      50.463  50.787  36.406  1.00  0.00     0.004 C 
ENDBRANCH  12  13
ENDBRANCH  11  12
ENDBRANCH  10  11
ENDBRANCH   9  10
ENDBRANCH   1   9
TORSDOF 9
ENDMDL
MODEL 7
REMARK VINA RESULT:    -4.675      7.828      9.261
REMARK INTER + INTRA:          -8.032
REMARK INTER:                  -7.571
REMARK INTRA:                  -0.461
REMARK UNBOUND:                -0.896
REMARK SMILES CCCCCCCCCC=CC(=O)[O-]
REMARK SMILES IDX 7 1 8 2 9 3 10 4 11 5 12 6 13 7 14 8 6 9 5 10 4 11 3 12 2 13
REMARK SMILES IDX 1 14
REMARK H PARENT
REMARK Flexibility Score: inf
ROOT
ATOM      1  C   UNL     1      49.080  51.002  35.388  1.00  0.00     0.000 C 
ENDROOT
BRANCH   1   2
ATOM      2  C   UNL     1      50.367  50.490  36.071  1.00  0.00     0.004 C 
BRANCH   2   3
ATOM      3  C   UNL     1      50.818  51.393  37.230  1.00  0.00     0.027 C 
BRANCH   3   4
ATOM      4  C   UNL     1      52.154  50.961  37.768  1.00  0.00    -0.025 C 
ATOM      5  C   UNL     1      52.482  50.833  39.064  1.00  0.00     0.020 C 
BRANCH   5   6
ATOM      6  C   UNL     1      51.593  51.052  40.226  1.00  0.00     0.064 C 
ATOM      7  O   UNL     1      51.595  52.177  40.790  1.00  0.00    -0.545 OA
ATOM      8  O   UNL     1      50.772  50.052  40.731  1.00  0.00    -0.545 OA
ENDBRANCH   5   6
ENDBRANCH   3   4
ENDBRANCH   2   3
ENDBRANCH   1   2
BRANCH   1   9
ATOM      9  C   UNL     1      48.444  49.986  34.419  1.00  0.00     0.000 C 
BRANCH   9  10
ATOM     10  C   UNL     1      47.261  49.186  34.996  1.00  0.00     0.000 C 
BRANCH  10  11
ATOM     11  C   UNL     1      47.603  48.302  36.211  1.00  0.00    -0.000 C 
BRANCH  11  12
ATOM     12  C   UNL     1      46.496  47.291  36.543  1.00  0.00    -0.000 C 
BRANCH  12  13
ATOM     13  C   UNL     1      45.245  47.550  35.696  1.00  0.00    -0.003 C 
ATOM     14  C   UNL     1      44.838  46.303  34.916  1.00  0.00     0.004 C 
ENDBRANCH  12  13
ENDBRANCH  11  12
ENDBRANCH  10  11
ENDBRANCH   9  10
ENDBRANCH   1   9
TORSDOF 9
ENDMDL
MODEL 8
REMARK VINA RESULT:    -4.626      7.482      8.637
REMARK INTER + INTRA:          -7.956
REMARK INTER:                  -6.696
REMARK INTRA:                  -1.260
REMARK UNBOUND:                -0.896
REMARK SMILES CCCCCCCCCC=CC(=O)[O-]
REMARK SMILES IDX 7 1 8 2 9 3 10 4 11 5 12 6 13 7 14 8 6 9 5 10 4 11 3 12 2 13
REMARK SMILES IDX 1 14
REMARK H PARENT
REMARK Flexibility Score: inf
ROOT
ATOM      1  C   UNL     1      46.865  48.464  35.727  1.00  0.00     0.000 C 
ENDROOT
BRANCH   1   2
ATOM      2  C   UNL     1      47.002  49.804  34.970  1.00  0.00     0.004 C 
BRANCH   2   3
ATOM      3  C   UNL     1      48.425  50.036  34.438  1.00  0.00     0.027 C 
BRANCH   3   4
ATOM      4  C   UNL     1      49.235  50.867  35.395  1.00  0.00    -0.025 C 
ATOM      5  C   UNL     1      50.218  50.421  36.194  1.00  0.00     0.020 C 
BRANCH   5   6
ATOM      6  C   UNL     1      50.732  49.036  36.272  1.00  0.00     0.064 C 
ATOM      7  O   UNL     1      51.700  48.704  35.539  1.00  0.00    -0.545 OA
ATOM      8  O   UNL     1      50.169  48.081  37.109  1.00  0.00    -0.545 OA
ENDBRANCH   5   6
ENDBRANCH   3   4
ENDBRANCH   2   3
ENDBRANCH   1   2
BRANCH   1   9
ATOM      9  C   UNL     1      45.446  47.864  35.678  1.00  0.00     0.000 C 
BRANCH   9  10
ATOM     10  C   UNL     1      45.349  46.467  35.038  1.00  0.00     0.000 C 
BRANCH  10  11
ATOM     11  C   UNL     1      46.701  45.777  34.771  1.00  0.00    -0.000 C 
BRANCH  11  12
ATOM     12  C   UNL     1      47.014  45.635  33.275  1.00  0.00    -0.000 C 
BRANCH  12  13
ATOM     13  C   UNL     1      48.065  46.661  32.835  1.00  0.00    -0.003 C 
ATOM     14  C   UNL     1      49.340  46.537  33.664  1.00  0.00     0.004 C 
ENDBRANCH  12  13
ENDBRANCH  11  12
ENDBRANCH  10  11
ENDBRANCH   9  10
ENDBRANCH   1   9
TORSDOF 9
ENDMDL
MODEL 9
REMARK VINA RESULT:    -4.586      7.918     10.311
REMARK INTER + INTRA:          -7.895
REMARK INTER:                  -7.204
REMARK INTRA:                  -0.691
REMARK UNBOUND:                -0.896
REMARK SMILES CCCCCCCCCC=CC(=O)[O-]
REMARK SMILES IDX 7 1 8 2 9 3 10 4 11 5 12 6 13 7 14 8 6 9 5 10 4 11 3 12 2 13
REMARK SMILES IDX 1 14
REMARK H PARENT
REMARK Flexibility Score: inf
ROOT
ATOM      1  C   UNL     1      47.130  48.633  35.659  1.00  0.00     0.000 C 
ENDROOT
BRANCH   1   2
ATOM      2  C   UNL     1      45.677  48.113  35.717  1.00  0.00     0.004 C 
BRANCH   2   3
ATOM      3  C   UNL     1      45.541  46.683  35.172  1.00  0.00     0.027 C 
BRANCH   3   4
ATOM      4  C   UNL     1      46.601  46.388  34.147  1.00  0.00    -0.025 C 
ATOM      5  C   UNL     1      46.645  45.316  33.340  1.00  0.00     0.020 C 
BRANCH   5   6
ATOM      6  C   UNL     1      45.649  44.226  33.264  1.00  0.00     0.064 C 
ATOM      7  O   UNL     1      44.791  44.248  32.343  1.00  0.00    -0.545 OA
ATOM      8  O   UNL     1      45.609  43.191  34.190  1.00  0.00    -0.545 OA
ENDBRANCH   5   6
ENDBRANCH   3   4
ENDBRANCH   2   3
ENDBRANCH   1   2
BRANCH   1   9
ATOM      9  C   UNL     1      47.279  49.982  34.928  1.00  0.00     0.000 C 
BRANCH   9  10
ATOM     10  C   UNL     1      48.682  50.613  35.003  1.00  0.00     0.000 C 
BRANCH  10  11
ATOM     11  C   UNL     1      49.739  49.767  35.738  1.00  0.00    -0.000 C 
BRANCH  11  12
ATOM     12  C   UNL     1      50.715  50.617  36.564  1.00  0.00    -0.000 C 
BRANCH  12  13
ATOM     13  C   UNL     1      51.096  49.903  37.866  1.00  0.00    -0.003 C 
ATOM     14  C   UNL     1      50.338  48.587  38.018  1.00  0.00     0.004 C 
ENDBRANCH  12  13
ENDBRANCH  11  12
ENDBRANCH  10  11
ENDBRANCH   9  10
ENDBRANCH   1   9
TORSDOF 9
ENDMDL
