MODEL 1
REMARK VINA RESULT:    -5.431      0.000      0.000
REMARK INTER + INTRA:          -5.589
REMARK INTER:                  -5.589
REMARK INTRA:                   0.000
REMARK UNBOUND:                 0.000
REMARK SMILES Cc1cccc(O)c1C
REMARK SMILES IDX 1 1 2 2 8 3 6 4 5 5 4 6 3 7 9 8 7 9
REMARK H PARENT 7 10
REMARK Flexibility Score: inf
ROOT
ATOM      1  C   UNL     1     -11.748  -7.636  40.013  1.00  0.00     0.045 C 
ATOM      2  C   UNL     1     -12.783  -7.005  39.119  1.00  0.00    -0.045 A 
ATOM      3  C   UNL     1     -12.870  -7.309  37.732  1.00  0.00    -0.006 A 
ATOM      4  C   UNL     1     -13.871  -6.677  36.951  1.00  0.00     0.118 A 
ATOM      5  C   UNL     1     -14.754  -5.769  37.543  1.00  0.00     0.046 A 
ATOM      6  C   UNL     1     -14.663  -5.477  38.900  1.00  0.00     0.004 A 
ATOM      7  C   UNL     1     -13.686  -6.088  39.684  1.00  0.00     0.004 A 
ATOM      8  C   UNL     1     -11.925  -8.287  37.070  1.00  0.00     0.048 C 
ENDROOT
BRANCH   4   9
ATOM      9  O   UNL     1     -14.015  -6.927  35.583  1.00  0.00    -0.508 OA
ATOM     10  H   UNL     1     -13.262  -7.256  34.993  1.00  0.00     0.293 HD
ENDBRANCH   4   9
TORSDOF 1
ENDMDL
MODEL 2
REMARK VINA RESULT:    -5.331      1.035      1.805
REMARK INTER + INTRA:          -5.487
REMARK INTER:                  -5.487
REMARK INTRA:                   0.000
REMARK UNBOUND:                 0.000
REMARK SMILES Cc1cccc(O)c1C
REMARK SMILES IDX 1 1 2 2 8 3 6 4 5 5 4 6 3 7 9 8 7 9
REMARK H PARENT 7 10
REMARK Flexibility Score: inf
ROOT
ATOM      1  C   UNL     1     -13.525  -6.046  40.813  1.00  0.00     0.045 C 
ATOM      2  C   UNL     1     -13.645  -6.309  39.334  1.00  0.00    -0.045 A 
ATOM      3  C   UNL     1     -12.756  -7.180  38.646  1.00  0.00    -0.006 A 
ATOM      4  C   UNL     1     -12.929  -7.380  37.253  1.00  0.00     0.118 A 
ATOM      5  C   UNL     1     -13.961  -6.727  36.574  1.00  0.00     0.046 A 
ATOM      6  C   UNL     1     -14.828  -5.876  37.253  1.00  0.00     0.004 A 
ATOM      7  C   UNL     1     -14.674  -5.667  38.622  1.00  0.00     0.004 A 
ATOM      8  C   UNL     1     -11.631  -7.896  39.361  1.00  0.00     0.048 C 
ENDROOT
BRANCH   4   9
ATOM      9  O   UNL     1     -12.093  -8.221  36.513  1.00  0.00    -0.508 OA
ATOM     10  H   UNL     1     -12.415  -8.786  35.738  1.00  0.00     0.293 HD
ENDBRANCH   4   9
TORSDOF 1
ENDMDL
MODEL 3
REMARK VINA RESULT:    -5.193      0.799      2.632
REMARK INTER + INTRA:          -5.345
REMARK INTER:                  -5.345
REMARK INTRA:                   0.000
REMARK UNBOUND:                 0.000
REMARK SMILES Cc1cccc(O)c1C
REMARK SMILES IDX 1 1 2 2 8 3 6 4 5 5 4 6 3 7 9 8 7 9
REMARK H PARENT 7 10
REMARK Flexibility Score: inf
ROOT
ATOM      1  C   UNL     1     -13.211  -6.132  40.686  1.00  0.00     0.045 C 
ATOM      2  C   UNL     1     -12.870  -6.847  39.404  1.00  0.00    -0.045 A 
ATOM      3  C   UNL     1     -13.592  -6.623  38.198  1.00  0.00    -0.006 A 
ATOM      4  C   UNL     1     -13.214  -7.331  37.029  1.00  0.00     0.118 A 
ATOM      5  C   UNL     1     -12.147  -8.234  37.070  1.00  0.00     0.046 A 
ATOM      6  C   UNL     1     -11.445  -8.447  38.252  1.00  0.00     0.004 A 
ATOM      7  C   UNL     1     -11.801  -7.760  39.411  1.00  0.00     0.004 A 
ATOM      8  C   UNL     1     -14.750  -5.653  38.132  1.00  0.00     0.048 C 
ENDROOT
BRANCH   4   9
ATOM      9  O   UNL     1     -13.878  -7.163  35.811  1.00  0.00    -0.508 OA
ATOM     10  H   UNL     1     -13.426  -7.262  34.911  1.00  0.00     0.293 HD
ENDBRANCH   4   9
TORSDOF 1
ENDMDL
MODEL 4
REMARK VINA RESULT:    -5.142      1.790      2.799
REMARK INTER + INTRA:          -5.292
REMARK INTER:                  -5.292
REMARK INTRA:                   0.000
REMARK UNBOUND:                 0.000
REMARK SMILES Cc1cccc(O)c1C
REMARK SMILES IDX 1 1 2 2 8 3 6 4 5 5 4 6 3 7 9 8 7 9
REMARK H PARENT 7 10
REMARK Flexibility Score: inf
ROOT
ATOM      1  C   UNL     1     -11.826  -8.393  37.070  1.00  0.00     0.045 C 
ATOM      2  C   UNL     1     -12.830  -7.407  37.607  1.00  0.00    -0.045 A 
ATOM      3  C   UNL     1     -12.847  -7.014  38.974  1.00  0.00    -0.006 A 
ATOM      4  C   UNL     1     -13.822  -6.080  39.409  1.00  0.00     0.118 A 
ATOM      5  C   UNL     1     -14.748  -5.559  38.501  1.00  0.00     0.046 A 
ATOM      6  C   UNL     1     -14.725  -5.947  37.165  1.00  0.00     0.004 A 
ATOM      7  C   UNL     1     -13.775  -6.864  36.719  1.00  0.00     0.004 A 
ATOM      8  C   UNL     1     -11.856  -7.566  39.974  1.00  0.00     0.048 C 
ENDROOT
BRANCH   4   9
ATOM      9  O   UNL     1     -13.898  -5.649  40.737  1.00  0.00    -0.508 OA
ATOM     10  H   UNL     1     -14.713  -5.196  41.130  1.00  0.00     0.293 HD
ENDBRANCH   4   9
TORSDOF 1
ENDMDL
MODEL 5
REMARK VINA RESULT:    -4.899      1.032      2.990
REMARK INTER + INTRA:          -5.042
REMARK INTER:                  -5.042
REMARK INTRA:                   0.000
REMARK UNBOUND:                 0.000
REMARK SMILES Cc1cccc(O)c1C
REMARK SMILES IDX 1 1 2 2 8 3 6 4 5 5 4 6 3 7 9 8 7 9
REMARK H PARENT 7 10
REMARK Flexibility Score: inf
ROOT
ATOM      1  C   UNL     1     -11.794  -7.373  41.127  1.00  0.00     0.045 C 
ATOM      2  C   UNL     1     -11.835  -7.783  39.678  1.00  0.00    -0.045 A 
ATOM      3  C   UNL     1     -12.721  -7.177  38.745  1.00  0.00    -0.006 A 
ATOM      4  C   UNL     1     -12.705  -7.613  37.396  1.00  0.00     0.118 A 
ATOM      5  C   UNL     1     -11.826  -8.625  36.997  1.00  0.00     0.046 A 
ATOM      6  C   UNL     1     -10.961  -9.214  37.915  1.00  0.00     0.004 A 
ATOM      7  C   UNL     1     -10.963  -8.798  39.245  1.00  0.00     0.004 A 
ATOM      8  C   UNL     1     -13.681  -6.082  39.154  1.00  0.00     0.048 C 
ENDROOT
BRANCH   4   9
ATOM      9  O   UNL     1     -13.547  -7.064  36.425  1.00  0.00    -0.508 OA
ATOM     10  H   UNL     1     -14.334  -6.467  36.643  1.00  0.00     0.293 HD
ENDBRANCH   4   9
TORSDOF 1
ENDMDL
MODEL 6
REMARK VINA RESULT:    -4.853      2.389      4.330
REMARK INTER + INTRA:          -4.995
REMARK INTER:                  -4.995
REMARK INTRA:                   0.000
REMARK UNBOUND:                 0.000
REMARK SMILES Cc1cccc(O)c1C
REMARK SMILES IDX 1 1 2 2 8 3 6 4 5 5 4 6 3 7 9 8 7 9
REMARK H PARENT 7 10
REMARK Flexibility Score: inf
ROOT
ATOM      1  C   UNL     1     -13.546  -6.853  37.061  1.00  0.00     0.045 C 
ATOM      2  C   UNL     1     -12.561  -7.642  37.883  1.00  0.00    -0.045 A 
ATOM      3  C   UNL     1     -12.349  -7.380  39.266  1.00  0.00    -0.006 A 
ATOM      4  C   UNL     1     -11.405  -8.163  39.977  1.00  0.00     0.118 A 
ATOM      5  C   UNL     1     -10.697  -9.175  39.322  1.00  0.00     0.046 A 
ATOM      6  C   UNL     1     -10.910  -9.426  37.970  1.00  0.00     0.004 A 
ATOM      7  C   UNL     1     -11.833  -8.667  37.254  1.00  0.00     0.004 A 
ATOM      8  C   UNL     1     -13.102  -6.290  39.994  1.00  0.00     0.048 C 
ENDROOT
BRANCH   4   9
ATOM      9  O   UNL     1     -11.145  -7.962  41.336  1.00  0.00    -0.508 OA
ATOM     10  H   UNL     1     -10.213  -7.857  41.716  1.00  0.00     0.293 HD
ENDBRANCH   4   9
TORSDOF 1
ENDMDL
MODEL 7
REMARK VINA RESULT:    -4.850      1.569      2.764
REMARK INTER + INTRA:          -4.992
REMARK INTER:                  -4.992
REMARK INTRA:                   0.000
REMARK UNBOUND:                 0.000
REMARK SMILES Cc1cccc(O)c1C
REMARK SMILES IDX 1 1 2 2 8 3 6 4 5 5 4 6 3 7 9 8 7 9
REMARK H PARENT 7 10
REMARK Flexibility Score: inf
ROOT
ATOM      1  C   UNL     1     -11.715  -7.581  39.858  1.00  0.00     0.045 C 
ATOM      2  C   UNL     1     -12.821  -7.051  38.982  1.00  0.00    -0.045 A 
ATOM      3  C   UNL     1     -13.885  -6.263  39.502  1.00  0.00    -0.006 A 
ATOM      4  C   UNL     1     -14.892  -5.797  38.619  1.00  0.00     0.118 A 
ATOM      5  C   UNL     1     -14.831  -6.112  37.258  1.00  0.00     0.046 A 
ATOM      6  C   UNL     1     -13.787  -6.883  36.756  1.00  0.00     0.004 A 
ATOM      7  C   UNL     1     -12.788  -7.350  37.609  1.00  0.00     0.004 A 
ATOM      8  C   UNL     1     -13.972  -5.911  40.971  1.00  0.00     0.048 C 
ENDROOT
BRANCH   4   9
ATOM      9  O   UNL     1     -15.967  -5.020  39.059  1.00  0.00    -0.508 OA
ATOM     10  H   UNL     1     -16.267  -4.978  40.024  1.00  0.00     0.293 HD
ENDBRANCH   4   9
TORSDOF 1
ENDMDL
MODEL 8
REMARK VINA RESULT:    -4.840      1.493      2.581
REMARK INTER + INTRA:          -4.981
REMARK INTER:                  -4.981
REMARK INTRA:                   0.000
REMARK UNBOUND:                 0.000
REMARK SMILES Cc1cccc(O)c1C
REMARK SMILES IDX 1 1 2 2 8 3 6 4 5 5 4 6 3 7 9 8 7 9
REMARK H PARENT 7 10
REMARK Flexibility Score: inf
ROOT
ATOM      1  C   UNL     1     -11.664  -8.557  37.314  1.00  0.00     0.045 C 
ATOM      2  C   UNL     1     -12.325  -7.646  38.316  1.00  0.00    -0.045 A 
ATOM      3  C   UNL     1     -13.415  -6.801  37.965  1.00  0.00    -0.006 A 
ATOM      4  C   UNL     1     -13.989  -5.970  38.960  1.00  0.00     0.118 A 
ATOM      5  C   UNL     1     -13.485  -5.988  40.265  1.00  0.00     0.046 A 
ATOM      6  C   UNL     1     -12.420  -6.818  40.601  1.00  0.00     0.004 A 
ATOM      7  C   UNL     1     -11.843  -7.642  39.637  1.00  0.00     0.004 A 
ATOM      8  C   UNL     1     -13.974  -6.764  36.561  1.00  0.00     0.048 C 
ENDROOT
BRANCH   4   9
ATOM      9  O   UNL     1     -15.059  -5.114  38.688  1.00  0.00    -0.508 OA
ATOM     10  H   UNL     1     -14.994  -4.318  38.067  1.00  0.00     0.293 HD
ENDBRANCH   4   9
TORSDOF 1
ENDMDL
MODEL 9
REMARK VINA RESULT:    -4.816      2.087      3.843
REMARK INTER + INTRA:          -4.957
REMARK INTER:                  -4.957
REMARK INTRA:                   0.000
REMARK UNBOUND:                 0.000
REMARK SMILES Cc1cccc(O)c1C
REMARK SMILES IDX 1 1 2 2 8 3 6 4 5 5 4 6 3 7 9 8 7 9
REMARK H PARENT 7 10
REMARK Flexibility Score: inf
ROOT
ATOM      1  C   UNL     1     -14.359  -6.500  36.328  1.00  0.00     0.045 C 
ATOM      2  C   UNL     1     -13.574  -6.777  37.584  1.00  0.00    -0.045 A 
ATOM      3  C   UNL     1     -13.880  -6.145  38.822  1.00  0.00    -0.006 A 
ATOM      4  C   UNL     1     -13.098  -6.454  39.964  1.00  0.00     0.118 A 
ATOM      5  C   UNL     1     -12.046  -7.369  39.866  1.00  0.00     0.046 A 
ATOM      6  C   UNL     1     -11.753  -7.985  38.653  1.00  0.00     0.004 A 
ATOM      7  C   UNL     1     -12.510  -7.693  37.520  1.00  0.00     0.004 A 
ATOM      8  C   UNL     1     -15.013  -5.151  38.950  1.00  0.00     0.048 C 
ENDROOT
BRANCH   4   9
ATOM      9  O   UNL     1     -13.340  -5.871  41.211  1.00  0.00    -0.508 OA
ATOM     10  H   UNL     1     -12.810  -6.094  42.043  1.00  0.00     0.293 HD
ENDBRANCH   4   9
TORSDOF 1
ENDMDL
