MODEL 1
REMARK VINA RESULT:    -4.881      0.000      0.000
REMARK INTER + INTRA:          -5.262
REMARK INTER:                  -5.167
REMARK INTRA:                  -0.096
REMARK UNBOUND:                -0.096
REMARK SMILES C=C(C)[C@@H]1CC=C(C)C(=O)C1
REMARK SMILES IDX 8 1 7 2 6 3 5 4 4 5 11 6 9 7 10 8 2 9 1 10 3 11
REMARK H PARENT
REMARK Flexibility Score: inf
ROOT
ATOM      1  C   UNL     1       4.724 -27.655  22.628  1.00  0.00     0.048 C 
ATOM      2  C   UNL     1       3.574 -26.727  22.911  1.00  0.00    -0.012 C 
ATOM      3  C   UNL     1       2.346 -27.229  23.129  1.00  0.00    -0.019 C 
ATOM      4  C   UNL     1       1.166 -26.346  23.433  1.00  0.00     0.036 C 
ATOM      5  C   UNL     1       1.287 -24.989  22.712  1.00  0.00     0.025 C 
ATOM      6  C   UNL     1       2.625 -24.315  23.065  1.00  0.00     0.089 C 
ATOM      7  C   UNL     1       3.772 -25.258  22.824  1.00  0.00     0.158 C 
ATOM      8  O   UNL     1       4.915 -24.785  22.584  1.00  0.00    -0.295 OA
ENDROOT
BRANCH   5   9
ATOM      9  C   UNL     1       0.103 -24.082  23.020  1.00  0.00    -0.077 C 
ATOM     10  C   UNL     1      -1.091 -24.587  23.379  1.00  0.00     0.008 C 
ATOM     11  C   UNL     1       0.253 -22.586  22.926  1.00  0.00     0.039 C 
ENDBRANCH   5   9
TORSDOF 1
ENDMDL
MODEL 2
REMARK VINA RESULT:    -4.826     10.369     11.968
REMARK INTER + INTRA:          -5.204
REMARK INTER:                  -5.107
REMARK INTRA:                  -0.096
REMARK UNBOUND:                -0.096
REMARK SMILES C=C(C)[C@@H]1CC=C(C)C(=O)C1
REMARK SMILES IDX 8 1 7 2 6 3 5 4 4 5 11 6 9 7 10 8 2 9 1 10 3 11
REMARK H PARENT
REMARK Flexibility Score: inf
ROOT
ATOM      1  C   UNL     1       2.687 -18.415  29.572  1.00  0.00     0.048 C 
ATOM      2  C   UNL     1       3.615 -17.249  29.363  1.00  0.00    -0.012 C 
ATOM      3  C   UNL     1       3.488 -16.149  30.125  1.00  0.00    -0.019 C 
ATOM      4  C   UNL     1       4.401 -14.961  29.970  1.00  0.00     0.036 C 
ATOM      5  C   UNL     1       4.847 -14.793  28.504  1.00  0.00     0.025 C 
ATOM      6  C   UNL     1       5.491 -16.094  27.989  1.00  0.00     0.089 C 
ATOM      7  C   UNL     1       4.582 -17.266  28.237  1.00  0.00     0.158 C 
ATOM      8  O   UNL     1       4.677 -18.283  27.499  1.00  0.00    -0.295 OA
ENDROOT
BRANCH   5   9
ATOM      9  C   UNL     1       5.779 -13.600  28.335  1.00  0.00    -0.077 C 
ATOM     10  C   UNL     1       7.051 -13.759  27.926  1.00  0.00     0.008 C 
ATOM     11  C   UNL     1       5.285 -12.208  28.626  1.00  0.00     0.039 C 
ENDBRANCH   5   9
TORSDOF 1
ENDMDL
MODEL 3
REMARK VINA RESULT:    -4.709     10.609     12.210
REMARK INTER + INTRA:          -5.080
REMARK INTER:                  -4.983
REMARK INTRA:                  -0.096
REMARK UNBOUND:                -0.096
REMARK SMILES C=C(C)[C@@H]1CC=C(C)C(=O)C1
REMARK SMILES IDX 8 1 7 2 6 3 5 4 4 5 11 6 9 7 10 8 2 9 1 10 3 11
REMARK H PARENT
REMARK Flexibility Score: inf
ROOT
ATOM      1  C   UNL     1       3.863 -15.886  30.109  1.00  0.00     0.048 C 
ATOM      2  C   UNL     1       4.843 -15.607  29.002  1.00  0.00    -0.012 C 
ATOM      3  C   UNL     1       5.525 -14.449  28.987  1.00  0.00    -0.019 C 
ATOM      4  C   UNL     1       6.530 -14.128  27.913  1.00  0.00     0.036 C 
ATOM      5  C   UNL     1       6.123 -14.758  26.567  1.00  0.00     0.025 C 
ATOM      6  C   UNL     1       5.909 -16.275  26.731  1.00  0.00     0.089 C 
ATOM      7  C   UNL     1       4.963 -16.555  27.866  1.00  0.00     0.158 C 
ATOM      8  O   UNL     1       4.298 -17.625  27.861  1.00  0.00    -0.295 OA
ENDROOT
BRANCH   5   9
ATOM      9  C   UNL     1       7.137 -14.450  25.473  1.00  0.00    -0.077 C 
ATOM     10  C   UNL     1       8.259 -13.756  25.735  1.00  0.00     0.008 C 
ATOM     11  C   UNL     1       6.895 -14.923  24.064  1.00  0.00     0.039 C 
ENDBRANCH   5   9
TORSDOF 1
ENDMDL
MODEL 4
REMARK VINA RESULT:    -4.699     10.683     12.078
REMARK INTER + INTRA:          -5.070
REMARK INTER:                  -4.976
REMARK INTRA:                  -0.094
REMARK UNBOUND:                -0.096
REMARK SMILES C=C(C)[C@@H]1CC=C(C)C(=O)C1
REMARK SMILES IDX 8 1 7 2 6 3 5 4 4 5 11 6 9 7 10 8 2 9 1 10 3 11
REMARK H PARENT
REMARK Flexibility Score: inf
ROOT
ATOM      1  C   UNL     1       6.501 -15.250  29.683  1.00  0.00     0.048 C 
ATOM      2  C   UNL     1       6.594 -15.140  28.185  1.00  0.00    -0.012 C 
ATOM      3  C   UNL     1       7.081 -14.020  27.625  1.00  0.00    -0.019 C 
ATOM      4  C   UNL     1       7.211 -13.866  26.133  1.00  0.00     0.036 C 
ATOM      5  C   UNL     1       6.093 -14.628  25.397  1.00  0.00     0.025 C 
ATOM      6  C   UNL     1       6.079 -16.106  25.831  1.00  0.00     0.089 C 
ATOM      7  C   UNL     1       6.031 -16.216  27.329  1.00  0.00     0.158 C 
ATOM      8  O   UNL     1       5.541 -17.251  27.854  1.00  0.00    -0.295 OA
ENDROOT
BRANCH   5   9
ATOM      9  C   UNL     1       6.218 -14.488  23.885  1.00  0.00    -0.077 C 
ATOM     10  C   UNL     1       7.049 -15.273  23.177  1.00  0.00     0.008 C 
ATOM     11  C   UNL     1       5.403 -13.455  23.152  1.00  0.00     0.039 C 
ENDBRANCH   5   9
TORSDOF 1
ENDMDL
MODEL 5
REMARK VINA RESULT:    -4.640      2.064      2.670
REMARK INTER + INTRA:          -5.006
REMARK INTER:                  -4.912
REMARK INTRA:                  -0.094
REMARK UNBOUND:                -0.096
REMARK SMILES C=C(C)[C@@H]1CC=C(C)C(=O)C1
REMARK SMILES IDX 8 1 7 2 6 3 5 4 4 5 11 6 9 7 10 8 2 9 1 10 3 11
REMARK H PARENT
REMARK Flexibility Score: inf
ROOT
ATOM      1  C   UNL     1       6.454 -24.690  24.877  1.00  0.00     0.048 C 
ATOM      2  C   UNL     1       5.023 -24.710  24.414  1.00  0.00    -0.012 C 
ATOM      3  C   UNL     1       4.742 -24.915  23.116  1.00  0.00    -0.019 C 
ATOM      4  C   UNL     1       3.328 -24.961  22.602  1.00  0.00     0.036 C 
ATOM      5  C   UNL     1       2.413 -24.023  23.412  1.00  0.00     0.025 C 
ATOM      6  C   UNL     1       2.499 -24.356  24.913  1.00  0.00     0.089 C 
ATOM      7  C   UNL     1       3.933 -24.380  25.367  1.00  0.00     0.158 C 
ATOM      8  O   UNL     1       4.197 -24.152  26.578  1.00  0.00    -0.295 OA
ENDROOT
BRANCH   5   9
ATOM      9  C   UNL     1       0.976 -24.067  22.909  1.00  0.00    -0.077 C 
ATOM     10  C   UNL     1       0.446 -25.196  22.405  1.00  0.00     0.008 C 
ATOM     11  C   UNL     1       0.115 -22.832  22.970  1.00  0.00     0.039 C 
ENDBRANCH   5   9
TORSDOF 1
ENDMDL
MODEL 6
REMARK VINA RESULT:    -4.565      9.840     11.729
REMARK INTER + INTRA:          -4.928
REMARK INTER:                  -4.837
REMARK INTRA:                  -0.091
REMARK UNBOUND:                -0.096
REMARK SMILES C=C(C)[C@@H]1CC=C(C)C(=O)C1
REMARK SMILES IDX 8 1 7 2 6 3 5 4 4 5 11 6 9 7 10 8 2 9 1 10 3 11
REMARK H PARENT
REMARK Flexibility Score: inf
ROOT
ATOM      1  C   UNL     1       7.266 -17.692  17.084  1.00  0.00     0.048 C 
ATOM      2  C   UNL     1       8.405 -18.041  18.002  1.00  0.00    -0.012 C 
ATOM      3  C   UNL     1       9.544 -17.328  17.958  1.00  0.00    -0.019 C 
ATOM      4  C   UNL     1      10.707 -17.624  18.866  1.00  0.00     0.036 C 
ATOM      5  C   UNL     1      10.796 -19.130  19.182  1.00  0.00     0.025 C 
ATOM      6  C   UNL     1       9.460 -19.633  19.761  1.00  0.00     0.089 C 
ATOM      7  C   UNL     1       8.316 -19.246  18.865  1.00  0.00     0.158 C 
ATOM      8  O   UNL     1       7.263 -19.937  18.882  1.00  0.00    -0.295 OA
ENDROOT
BRANCH   5   9
ATOM      9  C   UNL     1      11.963 -19.442  20.108  1.00  0.00    -0.077 C 
ATOM     10  C   UNL     1      13.233 -19.413  19.668  1.00  0.00     0.008 C 
ATOM     11  C   UNL     1      11.709 -19.792  21.551  1.00  0.00     0.039 C 
ENDBRANCH   5   9
TORSDOF 1
ENDMDL
MODEL 7
REMARK VINA RESULT:    -4.556     10.923     12.158
REMARK INTER + INTRA:          -4.918
REMARK INTER:                  -4.823
REMARK INTRA:                  -0.094
REMARK UNBOUND:                -0.096
REMARK SMILES C=C(C)[C@@H]1CC=C(C)C(=O)C1
REMARK SMILES IDX 8 1 7 2 6 3 5 4 4 5 11 6 9 7 10 8 2 9 1 10 3 11
REMARK H PARENT
REMARK Flexibility Score: inf
ROOT
ATOM      1  C   UNL     1       8.178 -14.545  24.849  1.00  0.00     0.048 C 
ATOM      2  C   UNL     1       7.099 -14.564  25.897  1.00  0.00    -0.012 C 
ATOM      3  C   UNL     1       7.148 -13.698  26.924  1.00  0.00    -0.019 C 
ATOM      4  C   UNL     1       6.085 -13.663  27.989  1.00  0.00     0.036 C 
ATOM      5  C   UNL     1       5.505 -15.068  28.241  1.00  0.00     0.025 C 
ATOM      6  C   UNL     1       4.990 -15.677  26.923  1.00  0.00     0.089 C 
ATOM      7  C   UNL     1       6.054 -15.618  25.862  1.00  0.00     0.158 C 
ATOM      8  O   UNL     1       6.028 -16.453  24.919  1.00  0.00    -0.295 OA
ENDROOT
BRANCH   5   9
ATOM      9  C   UNL     1       4.422 -15.046  29.310  1.00  0.00    -0.077 C 
ATOM     10  C   UNL     1       3.956 -16.182  29.858  1.00  0.00     0.008 C 
ATOM     11  C   UNL     1       3.848 -13.734  29.777  1.00  0.00     0.039 C 
ENDBRANCH   5   9
TORSDOF 1
ENDMDL
MODEL 8
REMARK VINA RESULT:    -4.539      2.444      4.656
REMARK INTER + INTRA:          -4.900
REMARK INTER:                  -4.804
REMARK INTRA:                  -0.097
REMARK UNBOUND:                -0.096
REMARK SMILES C=C(C)[C@@H]1CC=C(C)C(=O)C1
REMARK SMILES IDX 8 1 7 2 6 3 5 4 4 5 11 6 9 7 10 8 2 9 1 10 3 11
REMARK H PARENT
REMARK Flexibility Score: inf
ROOT
ATOM      1  C   UNL     1      -1.384 -23.998  23.600  1.00  0.00     0.048 C 
ATOM      2  C   UNL     1       0.120 -24.051  23.629  1.00  0.00    -0.012 C 
ATOM      3  C   UNL     1       0.793 -24.554  22.580  1.00  0.00    -0.019 C 
ATOM      4  C   UNL     1       2.297 -24.614  22.551  1.00  0.00     0.036 C 
ATOM      5  C   UNL     1       2.870 -24.831  23.965  1.00  0.00     0.025 C 
ATOM      6  C   UNL     1       2.348 -23.747  24.925  1.00  0.00     0.089 C 
ATOM      7  C   UNL     1       0.848 -23.664  24.864  1.00  0.00     0.158 C 
ATOM      8  O   UNL     1       0.216 -23.225  25.862  1.00  0.00    -0.295 OA
ENDROOT
BRANCH   5   9
ATOM      9  C   UNL     1       4.392 -24.884  23.951  1.00  0.00    -0.077 C 
ATOM     10  C   UNL     1       5.085 -24.801  22.801  1.00  0.00     0.008 C 
ATOM     11  C   UNL     1       5.155 -25.031  25.242  1.00  0.00     0.039 C 
ENDBRANCH   5   9
TORSDOF 1
ENDMDL
MODEL 9
REMARK VINA RESULT:    -4.389      2.215      4.479
REMARK INTER + INTRA:          -4.741
REMARK INTER:                  -4.646
REMARK INTRA:                  -0.095
REMARK UNBOUND:                -0.096
REMARK SMILES C=C(C)[C@@H]1CC=C(C)C(=O)C1
REMARK SMILES IDX 8 1 7 2 6 3 5 4 4 5 11 6 9 7 10 8 2 9 1 10 3 11
REMARK H PARENT
REMARK Flexibility Score: inf
ROOT
ATOM      1  C   UNL     1      -0.683 -23.700  23.502  1.00  0.00     0.048 C 
ATOM      2  C   UNL     1       0.682 -24.247  23.820  1.00  0.00    -0.012 C 
ATOM      3  C   UNL     1       1.064 -24.392  25.100  1.00  0.00    -0.019 C 
ATOM      4  C   UNL     1       2.411 -24.951  25.473  1.00  0.00     0.036 C 
ATOM      5  C   UNL     1       3.477 -24.570  24.428  1.00  0.00     0.025 C 
ATOM      6  C   UNL     1       3.030 -25.015  23.022  1.00  0.00     0.089 C 
ATOM      7  C   UNL     1       1.648 -24.505  22.722  1.00  0.00     0.158 C 
ATOM      8  O   UNL     1       1.304 -24.335  21.522  1.00  0.00    -0.295 OA
ENDROOT
BRANCH   5   9
ATOM      9  C   UNL     1       4.844 -25.137  24.787  1.00  0.00    -0.077 C 
ATOM     10  C   UNL     1       4.968 -26.214  25.583  1.00  0.00     0.008 C 
ATOM     11  C   UNL     1       6.095 -24.492  24.250  1.00  0.00     0.039 C 
ENDBRANCH   5   9
TORSDOF 1
ENDMDL
