MODEL 1
REMARK VINA RESULT:    -3.897      0.000      0.000
REMARK INTER + INTRA:          -7.853
REMARK INTER:                  -6.630
REMARK INTRA:                  -1.222
REMARK UNBOUND:                -1.222
REMARK SMILES CCCCCCCCCCCCCC(=O)[O-]
REMARK SMILES IDX 8 1 9 2 10 3 11 4 12 5 13 6 14 7 15 8 16 9 7 10 6 11 5 12
REMARK SMILES IDX 4 13 3 14 2 15 1 16
REMARK H PARENT
REMARK Flexibility Score: inf
ROOT
ATOM      1  C   UNL     1     -42.959 -48.876  37.946  1.00  0.00     0.000 C 
ENDROOT
BRANCH   1   2
ATOM      2  C   UNL     1     -42.385 -47.736  38.801  1.00  0.00     0.000 C 
BRANCH   2   3
ATOM      3  C   UNL     1     -43.324 -47.399  39.966  1.00  0.00     0.000 C 
BRANCH   3   4
ATOM      4  C   UNL     1     -43.452 -45.882  40.148  1.00  0.00     0.000 C 
BRANCH   4   5
ATOM      5  C   UNL     1     -42.632 -45.400  41.354  1.00  0.00     0.006 C 
BRANCH   5   6
ATOM      6  C   UNL     1     -41.690 -44.244  40.991  1.00  0.00     0.053 C 
BRANCH   6   7
ATOM      7  C   UNL     1     -40.278 -44.714  40.816  1.00  0.00     0.041 C 
ATOM      8  O   UNL     1     -40.017 -45.946  40.801  1.00  0.00    -0.550 OA
ATOM      9  O   UNL     1     -39.246 -43.791  40.702  1.00  0.00    -0.550 OA
ENDBRANCH   6   7
ENDBRANCH   5   6
ENDBRANCH   4   5
ENDBRANCH   3   4
ENDBRANCH   2   3
ENDBRANCH   1   2
BRANCH   1  10
ATOM     10  C   UNL     1     -44.398 -48.601  37.480  1.00  0.00     0.000 C 
BRANCH  10  11
ATOM     11  C   UNL     1     -44.705 -49.222  36.110  1.00  0.00    -0.000 C 
BRANCH  11  12
ATOM     12  C   UNL     1     -43.440 -49.833  35.489  1.00  0.00    -0.000 C 
BRANCH  12  13
ATOM     13  C   UNL     1     -43.054 -49.167  34.158  1.00  0.00    -0.000 C 
BRANCH  13  14
ATOM     14  C   UNL     1     -42.291 -47.846  34.358  1.00  0.00    -0.000 C 
BRANCH  14  15
ATOM     15  C   UNL     1     -40.769 -48.049  34.417  1.00  0.00    -0.003 C 
ATOM     16  C   UNL     1     -40.186 -47.750  35.798  1.00  0.00     0.004 C 
ENDBRANCH  14  15
ENDBRANCH  13  14
ENDBRANCH  12  13
ENDBRANCH  11  12
ENDBRANCH  10  11
ENDBRANCH   1  10
TORSDOF 12
ENDMDL
MODEL 2
REMARK VINA RESULT:    -3.886      4.284      5.769
REMARK INTER + INTRA:          -7.833
REMARK INTER:                  -5.950
REMARK INTRA:                  -1.884
REMARK UNBOUND:                -1.222
REMARK SMILES CCCCCCCCCCCCCC(=O)[O-]
REMARK SMILES IDX 8 1 9 2 10 3 11 4 12 5 13 6 14 7 15 8 16 9 7 10 6 11 5 12
REMARK SMILES IDX 4 13 3 14 2 15 1 16
REMARK H PARENT
REMARK Flexibility Score: inf
ROOT
ATOM      1  C   UNL     1     -41.812 -49.297  37.688  1.00  0.00     0.000 C 
ENDROOT
BRANCH   1   2
ATOM      2  C   UNL     1     -43.247 -49.587  38.149  1.00  0.00     0.000 C 
BRANCH   2   3
ATOM      3  C   UNL     1     -44.238 -48.608  37.508  1.00  0.00     0.000 C 
BRANCH   3   4
ATOM      4  C   UNL     1     -45.123 -49.316  36.475  1.00  0.00     0.000 C 
BRANCH   4   5
ATOM      5  C   UNL     1     -46.536 -49.553  37.030  1.00  0.00     0.006 C 
BRANCH   5   6
ATOM      6  C   UNL     1     -46.819 -51.040  37.282  1.00  0.00     0.053 C 
BRANCH   6   7
ATOM      7  C   UNL     1     -46.478 -51.439  38.685  1.00  0.00     0.041 C 
ATOM      8  O   UNL     1     -46.796 -50.696  39.651  1.00  0.00    -0.550 OA
ATOM      9  O   UNL     1     -45.779 -52.616  38.924  1.00  0.00    -0.550 OA
ENDBRANCH   6   7
ENDBRANCH   5   6
ENDBRANCH   4   5
ENDBRANCH   3   4
ENDBRANCH   2   3
ENDBRANCH   1   2
BRANCH   1  10
ATOM     10  C   UNL     1     -41.694 -47.976  36.910  1.00  0.00     0.000 C 
BRANCH  10  11
ATOM     11  C   UNL     1     -40.457 -47.931  36.002  1.00  0.00    -0.000 C 
BRANCH  11  12
ATOM     12  C   UNL     1     -40.865 -47.960  34.521  1.00  0.00    -0.000 C 
BRANCH  12  13
ATOM     13  C   UNL     1     -42.389 -47.908  34.326  1.00  0.00    -0.000 C 
BRANCH  13  14
ATOM     14  C   UNL     1     -42.921 -49.103  33.513  1.00  0.00    -0.000 C 
BRANCH  14  15
ATOM     15  C   UNL     1     -42.041 -50.354  33.663  1.00  0.00    -0.003 C 
ATOM     16  C   UNL     1     -42.579 -51.332  34.707  1.00  0.00     0.004 C 
ENDBRANCH  14  15
ENDBRANCH  13  14
ENDBRANCH  12  13
ENDBRANCH  11  12
ENDBRANCH  10  11
ENDBRANCH   1  10
TORSDOF 12
ENDMDL
MODEL 3
REMARK VINA RESULT:    -3.858      4.302      6.234
REMARK INTER + INTRA:          -7.787
REMARK INTER:                  -6.407
REMARK INTRA:                  -1.380
REMARK UNBOUND:                -1.222
REMARK SMILES CCCCCCCCCCCCCC(=O)[O-]
REMARK SMILES IDX 8 1 9 2 10 3 11 4 12 5 13 6 14 7 15 8 16 9 7 10 6 11 5 12
REMARK SMILES IDX 4 13 3 14 2 15 1 16
REMARK H PARENT
REMARK Flexibility Score: inf
ROOT
ATOM      1  C   UNL     1     -43.783 -49.591  35.387  1.00  0.00     0.000 C 
ENDROOT
BRANCH   1   2
ATOM      2  C   UNL     1     -43.982 -48.456  36.403  1.00  0.00     0.000 C 
BRANCH   2   3
ATOM      3  C   UNL     1     -45.026 -48.842  37.459  1.00  0.00     0.000 C 
BRANCH   3   4
ATOM      4  C   UNL     1     -46.343 -49.270  36.801  1.00  0.00     0.000 C 
BRANCH   4   5
ATOM      5  C   UNL     1     -46.802 -50.638  37.328  1.00  0.00     0.006 C 
BRANCH   5   6
ATOM      6  C   UNL     1     -46.499 -50.818  38.821  1.00  0.00     0.053 C 
BRANCH   6   7
ATOM      7  C   UNL     1     -47.096 -52.082  39.360  1.00  0.00     0.041 C 
ATOM      8  O   UNL     1     -47.745 -52.850  38.601  1.00  0.00    -0.550 OA
ATOM      9  O   UNL     1     -46.965 -52.395  40.707  1.00  0.00    -0.550 OA
ENDBRANCH   6   7
ENDBRANCH   5   6
ENDBRANCH   4   5
ENDBRANCH   3   4
ENDBRANCH   2   3
ENDBRANCH   1   2
BRANCH   1  10
ATOM     10  C   UNL     1     -43.072 -49.123  34.107  1.00  0.00     0.000 C 
BRANCH  10  11
ATOM     11  C   UNL     1     -42.322 -47.797  34.297  1.00  0.00    -0.000 C 
BRANCH  11  12
ATOM     12  C   UNL     1     -40.813 -48.038  34.452  1.00  0.00    -0.000 C 
BRANCH  12  13
ATOM     13  C   UNL     1     -40.327 -47.833  35.896  1.00  0.00    -0.000 C 
BRANCH  13  14
ATOM     14  C   UNL     1     -40.237 -49.154  36.681  1.00  0.00    -0.000 C 
BRANCH  14  15
ATOM     15  C   UNL     1     -40.696 -49.002  38.140  1.00  0.00    -0.003 C 
ATOM     16  C   UNL     1     -41.189 -47.592  38.459  1.00  0.00     0.004 C 
ENDBRANCH  14  15
ENDBRANCH  13  14
ENDBRANCH  12  13
ENDBRANCH  11  12
ENDBRANCH  10  11
ENDBRANCH   1  10
TORSDOF 12
ENDMDL
MODEL 4
REMARK VINA RESULT:    -3.851      3.708      5.113
REMARK INTER + INTRA:          -7.775
REMARK INTER:                  -5.813
REMARK INTRA:                  -1.962
REMARK UNBOUND:                -1.222
REMARK SMILES CCCCCCCCCCCCCC(=O)[O-]
REMARK SMILES IDX 8 1 9 2 10 3 11 4 12 5 13 6 14 7 15 8 16 9 7 10 6 11 5 12
REMARK SMILES IDX 4 13 3 14 2 15 1 16
REMARK H PARENT
REMARK Flexibility Score: inf
ROOT
ATOM      1  C   UNL     1     -40.367 -47.738  35.874  1.00  0.00     0.000 C 
ENDROOT
BRANCH   1   2
ATOM      2  C   UNL     1     -41.022 -48.633  36.935  1.00  0.00     0.000 C 
BRANCH   2   3
ATOM      3  C   UNL     1     -41.710 -47.791  38.016  1.00  0.00     0.000 C 
BRANCH   3   4
ATOM      4  C   UNL     1     -42.839 -48.577  38.692  1.00  0.00     0.000 C 
BRANCH   4   5
ATOM      5  C   UNL     1     -44.185 -47.851  38.539  1.00  0.00     0.006 C 
BRANCH   5   6
ATOM      6  C   UNL     1     -44.932 -48.277  37.268  1.00  0.00     0.053 C 
BRANCH   6   7
ATOM      7  C   UNL     1     -46.067 -49.204  37.577  1.00  0.00     0.041 C 
ATOM      8  O   UNL     1     -45.959 -50.052  38.502  1.00  0.00    -0.550 OA
ATOM      9  O   UNL     1     -47.232 -49.154  36.822  1.00  0.00    -0.550 OA
ENDBRANCH   6   7
ENDBRANCH   5   6
ENDBRANCH   4   5
ENDBRANCH   3   4
ENDBRANCH   2   3
ENDBRANCH   1   2
BRANCH   1  10
ATOM     10  C   UNL     1     -40.860 -48.045  34.451  1.00  0.00     0.000 C 
BRANCH  10  11
ATOM     11  C   UNL     1     -42.367 -47.804  34.282  1.00  0.00    -0.000 C 
BRANCH  11  12
ATOM     12  C   UNL     1     -43.108 -49.126  34.028  1.00  0.00    -0.000 C 
BRANCH  12  13
ATOM     13  C   UNL     1     -42.150 -50.294  33.739  1.00  0.00    -0.000 C 
BRANCH  13  14
ATOM     14  C   UNL     1     -42.378 -51.490  34.680  1.00  0.00    -0.000 C 
BRANCH  14  15
ATOM     15  C   UNL     1     -43.448 -51.204  35.745  1.00  0.00    -0.003 C 
ATOM     16  C   UNL     1     -43.135 -51.864  37.088  1.00  0.00     0.004 C 
ENDBRANCH  14  15
ENDBRANCH  13  14
ENDBRANCH  12  13
ENDBRANCH  11  12
ENDBRANCH  10  11
ENDBRANCH   1  10
TORSDOF 12
ENDMDL
MODEL 5
REMARK VINA RESULT:    -3.833      0.986      2.652
REMARK INTER + INTRA:          -7.744
REMARK INTER:                  -6.133
REMARK INTRA:                  -1.612
REMARK UNBOUND:                -1.222
REMARK SMILES CCCCCCCCCCCCCC(=O)[O-]
REMARK SMILES IDX 8 1 9 2 10 3 11 4 12 5 13 6 14 7 15 8 16 9 7 10 6 11 5 12
REMARK SMILES IDX 4 13 3 14 2 15 1 16
REMARK H PARENT
REMARK Flexibility Score: inf
ROOT
ATOM      1  C   UNL     1     -40.872 -47.702  37.120  1.00  0.00     0.000 C 
ENDROOT
BRANCH   1   2
ATOM      2  C   UNL     1     -41.640 -48.439  38.227  1.00  0.00     0.000 C 
BRANCH   2   3
ATOM      3  C   UNL     1     -43.049 -47.858  38.398  1.00  0.00     0.000 C 
BRANCH   3   4
ATOM      4  C   UNL     1     -43.330 -47.516  39.866  1.00  0.00     0.000 C 
BRANCH   4   5
ATOM      5  C   UNL     1     -43.436 -45.997  40.067  1.00  0.00     0.006 C 
BRANCH   5   6
ATOM      6  C   UNL     1     -42.576 -45.504  41.238  1.00  0.00     0.053 C 
BRANCH   6   7
ATOM      7  C   UNL     1     -41.271 -44.938  40.768  1.00  0.00     0.041 C 
ATOM      8  O   UNL     1     -40.365 -45.703  40.343  1.00  0.00    -0.550 OA
ATOM      9  O   UNL     1     -41.044 -43.569  40.829  1.00  0.00    -0.550 OA
ENDBRANCH   6   7
ENDBRANCH   5   6
ENDBRANCH   4   5
ENDBRANCH   3   4
ENDBRANCH   2   3
ENDBRANCH   1   2
BRANCH   1  10
ATOM     10  C   UNL     1     -40.489 -48.623  35.950  1.00  0.00     0.000 C 
BRANCH  10  11
ATOM     11  C   UNL     1     -40.816 -48.009  34.581  1.00  0.00    -0.000 C 
BRANCH  11  12
ATOM     12  C   UNL     1     -42.333 -47.851  34.400  1.00  0.00    -0.000 C 
BRANCH  12  13
ATOM     13  C   UNL     1     -43.043 -49.194  34.160  1.00  0.00    -0.000 C 
BRANCH  13  14
ATOM     14  C   UNL     1     -44.013 -49.561  35.297  1.00  0.00    -0.000 C 
BRANCH  14  15
ATOM     15  C   UNL     1     -43.589 -50.836  36.043  1.00  0.00    -0.003 C 
ATOM     16  C   UNL     1     -42.579 -51.671  35.257  1.00  0.00     0.004 C 
ENDBRANCH  14  15
ENDBRANCH  13  14
ENDBRANCH  12  13
ENDBRANCH  11  12
ENDBRANCH  10  11
ENDBRANCH   1  10
TORSDOF 12
ENDMDL
MODEL 6
REMARK VINA RESULT:    -3.776      5.129      6.719
REMARK INTER + INTRA:          -7.647
REMARK INTER:                  -6.669
REMARK INTRA:                  -0.978
REMARK UNBOUND:                -1.222
REMARK SMILES CCCCCCCCCCCCCC(=O)[O-]
REMARK SMILES IDX 8 1 9 2 10 3 11 4 12 5 13 6 14 7 15 8 16 9 7 10 6 11 5 12
REMARK SMILES IDX 4 13 3 14 2 15 1 16
REMARK H PARENT
REMARK Flexibility Score: inf
ROOT
ATOM      1  C   UNL     1     -44.825 -48.678  37.540  1.00  0.00     0.000 C 
ENDROOT
BRANCH   1   2
ATOM      2  C   UNL     1     -46.307 -48.688  37.140  1.00  0.00     0.000 C 
BRANCH   2   3
ATOM      3  C   UNL     1     -46.896 -50.100  37.248  1.00  0.00     0.000 C 
BRANCH   3   4
ATOM      4  C   UNL     1     -46.439 -50.790  38.538  1.00  0.00     0.000 C 
BRANCH   4   5
ATOM      5  C   UNL     1     -46.387 -52.315  38.359  1.00  0.00     0.006 C 
BRANCH   5   6
ATOM      6  C   UNL     1     -47.755 -52.973  38.583  1.00  0.00     0.053 C 
BRANCH   6   7
ATOM      7  C   UNL     1     -47.987 -53.292  40.028  1.00  0.00     0.041 C 
ATOM      8  O   UNL     1     -48.829 -52.635  40.695  1.00  0.00    -0.550 OA
ATOM      9  O   UNL     1     -47.249 -54.293  40.647  1.00  0.00    -0.550 OA
ENDBRANCH   6   7
ENDBRANCH   5   6
ENDBRANCH   4   5
ENDBRANCH   3   4
ENDBRANCH   2   3
ENDBRANCH   1   2
BRANCH   1  10
ATOM     10  C   UNL     1     -43.895 -48.344  36.364  1.00  0.00     0.000 C 
BRANCH  10  11
ATOM     11  C   UNL     1     -43.728 -49.518  35.388  1.00  0.00    -0.000 C 
BRANCH  11  12
ATOM     12  C   UNL     1     -43.100 -49.047  34.067  1.00  0.00    -0.000 C 
BRANCH  12  13
ATOM     13  C   UNL     1     -42.076 -47.918  34.269  1.00  0.00    -0.000 C 
BRANCH  13  14
ATOM     14  C   UNL     1     -40.696 -48.444  34.704  1.00  0.00    -0.000 C 
BRANCH  14  15
ATOM     15  C   UNL     1     -40.113 -47.654  35.886  1.00  0.00    -0.003 C 
ATOM     16  C   UNL     1     -40.302 -48.368  37.223  1.00  0.00     0.004 C 
ENDBRANCH  14  15
ENDBRANCH  13  14
ENDBRANCH  12  13
ENDBRANCH  11  12
ENDBRANCH  10  11
ENDBRANCH   1  10
TORSDOF 12
ENDMDL
MODEL 7
REMARK VINA RESULT:    -3.761      1.754      3.433
REMARK INTER + INTRA:          -7.621
REMARK INTER:                  -5.896
REMARK INTRA:                  -1.725
REMARK UNBOUND:                -1.222
REMARK SMILES CCCCCCCCCCCCCC(=O)[O-]
REMARK SMILES IDX 8 1 9 2 10 3 11 4 12 5 13 6 14 7 15 8 16 9 7 10 6 11 5 12
REMARK SMILES IDX 4 13 3 14 2 15 1 16
REMARK H PARENT
REMARK Flexibility Score: inf
ROOT
ATOM      1  C   UNL     1     -43.476 -49.896  35.072  1.00  0.00     0.000 C 
ENDROOT
BRANCH   1   2
ATOM      2  C   UNL     1     -44.348 -49.136  36.082  1.00  0.00     0.000 C 
BRANCH   2   3
ATOM      3  C   UNL     1     -43.765 -49.239  37.497  1.00  0.00     0.000 C 
BRANCH   3   4
ATOM      4  C   UNL     1     -43.025 -47.953  37.883  1.00  0.00     0.000 C 
BRANCH   4   5
ATOM      5  C   UNL     1     -43.410 -47.501  39.300  1.00  0.00     0.006 C 
BRANCH   5   6
ATOM      6  C   UNL     1     -42.332 -46.616  39.940  1.00  0.00     0.053 C 
BRANCH   6   7
ATOM      7  C   UNL     1     -42.894 -45.308  40.407  1.00  0.00     0.041 C 
ATOM      8  O   UNL     1     -42.192 -44.529  41.103  1.00  0.00    -0.550 OA
ATOM      9  O   UNL     1     -44.204 -44.964  40.099  1.00  0.00    -0.550 OA
ENDBRANCH   6   7
ENDBRANCH   5   6
ENDBRANCH   4   5
ENDBRANCH   3   4
ENDBRANCH   2   3
ENDBRANCH   1   2
BRANCH   1  10
ATOM     10  C   UNL     1     -43.044 -49.020  33.885  1.00  0.00     0.000 C 
BRANCH  10  11
ATOM     11  C   UNL     1     -42.074 -47.902  34.295  1.00  0.00    -0.000 C 
BRANCH  11  12
ATOM     12  C   UNL     1     -40.709 -48.481  34.696  1.00  0.00    -0.000 C 
BRANCH  12  13
ATOM     13  C   UNL     1     -40.013 -47.653  35.789  1.00  0.00    -0.000 C 
BRANCH  13  14
ATOM     14  C   UNL     1     -39.632 -48.499  37.017  1.00  0.00    -0.000 C 
BRANCH  14  15
ATOM     15  C   UNL     1     -39.905 -49.997  36.807  1.00  0.00    -0.003 C 
ATOM     16  C   UNL     1     -40.424 -50.684  38.069  1.00  0.00     0.004 C 
ENDBRANCH  14  15
ENDBRANCH  13  14
ENDBRANCH  12  13
ENDBRANCH  11  12
ENDBRANCH  10  11
ENDBRANCH   1  10
TORSDOF 12
ENDMDL
MODEL 8
REMARK VINA RESULT:    -3.716      3.736      5.274
REMARK INTER + INTRA:          -7.546
REMARK INTER:                  -5.796
REMARK INTRA:                  -1.750
REMARK UNBOUND:                -1.222
REMARK SMILES CCCCCCCCCCCCCC(=O)[O-]
REMARK SMILES IDX 8 1 9 2 10 3 11 4 12 5 13 6 14 7 15 8 16 9 7 10 6 11 5 12
REMARK SMILES IDX 4 13 3 14 2 15 1 16
REMARK H PARENT
REMARK Flexibility Score: inf
ROOT
ATOM      1  C   UNL     1     -41.038 -49.080  37.829  1.00  0.00     0.000 C 
ENDROOT
BRANCH   1   2
ATOM      2  C   UNL     1     -41.458 -47.627  38.091  1.00  0.00     0.000 C 
BRANCH   2   3
ATOM      3  C   UNL     1     -42.515 -47.552  39.199  1.00  0.00     0.000 C 
BRANCH   3   4
ATOM      4  C   UNL     1     -43.869 -48.077  38.706  1.00  0.00     0.000 C 
BRANCH   4   5
ATOM      5  C   UNL     1     -44.437 -49.129  39.670  1.00  0.00     0.006 C 
BRANCH   5   6
ATOM      6  C   UNL     1     -44.766 -50.449  38.962  1.00  0.00     0.053 C 
BRANCH   6   7
ATOM      7  C   UNL     1     -46.201 -50.837  39.151  1.00  0.00     0.041 C 
ATOM      8  O   UNL     1     -46.774 -50.627  40.252  1.00  0.00    -0.550 OA
ATOM      9  O   UNL     1     -46.894 -51.461  38.121  1.00  0.00    -0.550 OA
ENDBRANCH   6   7
ENDBRANCH   5   6
ENDBRANCH   4   5
ENDBRANCH   3   4
ENDBRANCH   2   3
ENDBRANCH   1   2
BRANCH   1  10
ATOM     10  C   UNL     1     -40.224 -49.239  36.534  1.00  0.00     0.000 C 
BRANCH  10  11
ATOM     11  C   UNL     1     -40.100 -47.925  35.748  1.00  0.00    -0.000 C 
BRANCH  11  12
ATOM     12  C   UNL     1     -40.777 -48.043  34.375  1.00  0.00    -0.000 C 
BRANCH  12  13
ATOM     13  C   UNL     1     -42.297 -47.820  34.443  1.00  0.00    -0.000 C 
BRANCH  13  14
ATOM     14  C   UNL     1     -43.096 -49.086  34.086  1.00  0.00    -0.000 C 
BRANCH  14  15
ATOM     15  C   UNL     1     -43.862 -49.656  35.290  1.00  0.00    -0.003 C 
ATOM     16  C   UNL     1     -43.401 -51.063  35.669  1.00  0.00     0.004 C 
ENDBRANCH  14  15
ENDBRANCH  13  14
ENDBRANCH  12  13
ENDBRANCH  11  12
ENDBRANCH  10  11
ENDBRANCH   1  10
TORSDOF 12
ENDMDL
MODEL 9
REMARK VINA RESULT:    -3.704      1.706      3.574
REMARK INTER + INTRA:          -7.524
REMARK INTER:                  -5.933
REMARK INTRA:                  -1.592
REMARK UNBOUND:                -1.222
REMARK SMILES CCCCCCCCCCCCCC(=O)[O-]
REMARK SMILES IDX 8 1 9 2 10 3 11 4 12 5 13 6 14 7 15 8 16 9 7 10 6 11 5 12
REMARK SMILES IDX 4 13 3 14 2 15 1 16
REMARK H PARENT
REMARK Flexibility Score: inf
ROOT
ATOM      1  C   UNL     1     -39.919 -49.143  36.763  1.00  0.00     0.000 C 
ENDROOT
BRANCH   1   2
ATOM      2  C   UNL     1     -39.254 -48.328  37.881  1.00  0.00     0.000 C 
BRANCH   2   3
ATOM      3  C   UNL     1     -40.304 -47.591  38.722  1.00  0.00     0.000 C 
BRANCH   3   4
ATOM      4  C   UNL     1     -41.694 -47.700  38.087  1.00  0.00     0.000 C 
BRANCH   4   5
ATOM      5  C   UNL     1     -42.798 -47.531  39.143  1.00  0.00     0.006 C 
BRANCH   5   6
ATOM      6  C   UNL     1     -42.317 -46.734  40.362  1.00  0.00     0.053 C 
BRANCH   6   7
ATOM      7  C   UNL     1     -42.860 -45.338  40.360  1.00  0.00     0.041 C 
ATOM      8  O   UNL     1     -42.094 -44.359  40.567  1.00  0.00    -0.550 OA
ATOM      9  O   UNL     1     -44.218 -45.119  40.162  1.00  0.00    -0.550 OA
ENDBRANCH   6   7
ENDBRANCH   5   6
ENDBRANCH   4   5
ENDBRANCH   3   4
ENDBRANCH   2   3
ENDBRANCH   1   2
BRANCH   1  10
ATOM     10  C   UNL     1     -39.203 -48.992  35.411  1.00  0.00     0.000 C 
BRANCH  10  11
ATOM     11  C   UNL     1     -40.180 -48.848  34.235  1.00  0.00    -0.000 C 
BRANCH  11  12
ATOM     12  C   UNL     1     -41.094 -47.629  34.429  1.00  0.00    -0.000 C 
BRANCH  12  13
ATOM     13  C   UNL     1     -42.585 -47.980  34.297  1.00  0.00    -0.000 C 
BRANCH  13  14
ATOM     14  C   UNL     1     -42.821 -49.489  34.109  1.00  0.00    -0.000 C 
BRANCH  14  15
ATOM     15  C   UNL     1     -43.438 -50.147  35.353  1.00  0.00    -0.003 C 
ATOM     16  C   UNL     1     -44.383 -49.212  36.108  1.00  0.00     0.004 C 
ENDBRANCH  14  15
ENDBRANCH  13  14
ENDBRANCH  12  13
ENDBRANCH  11  12
ENDBRANCH  10  11
ENDBRANCH   1  10
TORSDOF 12
ENDMDL
