MODEL 1
REMARK VINA RESULT:    -4.598      0.000      0.000
REMARK INTER + INTRA:         -13.287
REMARK INTER:                 -10.511
REMARK INTRA:                  -2.775
REMARK UNBOUND:                -2.775
REMARK SMILES CCCCCCCCCCCCCCCCCCCCCCCC(=O)[O-]
REMARK SMILES IDX 13 1 14 2 15 3 16 4 17 5 18 6 19 7 20 8 21 9 22 10 23 11
REMARK SMILES IDX 24 12 25 13 26 14 12 15 11 16 10 17 9 18 8 19 7 20 6 21 5 22
REMARK SMILES IDX 4 23 3 24 2 25 1 26
REMARK H PARENT
REMARK Flexibility Score: inf
ROOT
ATOM      1  C   UNL     1       3.819  -2.801   6.503  1.00  0.00     0.000 C 
ENDROOT
BRANCH   1   2
ATOM      2  C   UNL     1       3.275  -2.018   5.297  1.00  0.00     0.000 C 
BRANCH   2   3
ATOM      3  C   UNL     1       1.737  -1.996   5.245  1.00  0.00     0.000 C 
BRANCH   3   4
ATOM      4  C   UNL     1       1.157  -0.638   5.671  1.00  0.00     0.000 C 
BRANCH   4   5
ATOM      5  C   UNL     1       2.098   0.143   6.602  1.00  0.00     0.000 C 
BRANCH   5   6
ATOM      6  C   UNL     1       1.308   0.835   7.723  1.00  0.00     0.000 C 
BRANCH   6   7
ATOM      7  C   UNL     1       1.213   2.361   7.541  1.00  0.00     0.000 C 
BRANCH   7   8
ATOM      8  C   UNL     1       0.723   3.136   8.778  1.00  0.00     0.000 C 
BRANCH   8   9
ATOM      9  C   UNL     1       0.020   4.455   8.421  1.00  0.00     0.000 C 
BRANCH   9  10
ATOM     10  C   UNL     1       0.270   4.834   6.957  1.00  0.00     0.006 C 
BRANCH  10  11
ATOM     11  C   UNL     1      -0.603   6.024   6.541  1.00  0.00     0.053 C 
BRANCH  11  12
ATOM     12  C   UNL     1      -0.649   6.157   5.050  1.00  0.00     0.041 C 
ATOM     13  O   UNL     1      -1.227   7.143   4.519  1.00  0.00    -0.550 OA
ATOM     14  O   UNL     1      -0.033   5.206   4.246  1.00  0.00    -0.550 OA
ENDBRANCH  11  12
ENDBRANCH  10  11
ENDBRANCH   9  10
ENDBRANCH   8   9
ENDBRANCH   7   8
ENDBRANCH   6   7
ENDBRANCH   5   6
ENDBRANCH   4   5
ENDBRANCH   3   4
ENDBRANCH   2   3
ENDBRANCH   1   2
BRANCH   1  15
ATOM     15  C   UNL     1       2.772  -3.741   7.124  1.00  0.00     0.000 C 
BRANCH  15  16
ATOM     16  C   UNL     1       2.637  -3.564   8.648  1.00  0.00     0.000 C 
BRANCH  16  17
ATOM     17  C   UNL     1       1.360  -2.833   9.117  1.00  0.00     0.000 C 
BRANCH  17  18
ATOM     18  C   UNL     1       0.043  -3.376   8.532  1.00  0.00    -0.000 C 
BRANCH  18  19
ATOM     19  C   UNL     1      -0.948  -2.296   8.054  1.00  0.00    -0.000 C 
BRANCH  19  20
ATOM     20  C   UNL     1      -2.338  -2.852   7.682  1.00  0.00    -0.000 C 
BRANCH  20  21
ATOM     21  C   UNL     1      -2.272  -3.908   6.569  1.00  0.00    -0.000 C 
BRANCH  21  22
ATOM     22  C   UNL     1      -1.577  -3.346   5.319  1.00  0.00    -0.000 C 
BRANCH  22  23
ATOM     23  C   UNL     1      -2.556  -3.070   4.165  1.00  0.00    -0.000 C 
BRANCH  23  24
ATOM     24  C   UNL     1      -2.811  -1.579   3.870  1.00  0.00    -0.000 C 
BRANCH  24  25
ATOM     25  C   UNL     1      -4.284  -1.152   4.035  1.00  0.00    -0.003 C 
ATOM     26  C   UNL     1      -4.697  -1.028   5.501  1.00  0.00     0.004 C 
ENDBRANCH  24  25
ENDBRANCH  23  24
ENDBRANCH  22  23
ENDBRANCH  21  22
ENDBRANCH  20  21
ENDBRANCH  19  20
ENDBRANCH  18  19
ENDBRANCH  17  18
ENDBRANCH  16  17
ENDBRANCH  15  16
ENDBRANCH   1  15
TORSDOF 22
ENDMDL
MODEL 2
REMARK VINA RESULT:    -4.439      1.595      3.332
REMARK INTER + INTRA:         -12.923
REMARK INTER:                  -9.990
REMARK INTRA:                  -2.933
REMARK UNBOUND:                -2.775
REMARK SMILES CCCCCCCCCCCCCCCCCCCCCCCC(=O)[O-]
REMARK SMILES IDX 13 1 14 2 15 3 16 4 17 5 18 6 19 7 20 8 21 9 22 10 23 11
REMARK SMILES IDX 24 12 25 13 26 14 12 15 11 16 10 17 9 18 8 19 7 20 6 21 5 22
REMARK SMILES IDX 4 23 3 24 2 25 1 26
REMARK H PARENT
REMARK Flexibility Score: inf
ROOT
ATOM      1  C   UNL     1      -0.390  -3.517   6.787  1.00  0.00     0.000 C 
ENDROOT
BRANCH   1   2
ATOM      2  C   UNL     1       0.816  -2.736   6.242  1.00  0.00     0.000 C 
BRANCH   2   3
ATOM      3  C   UNL     1       0.406  -1.520   5.394  1.00  0.00     0.000 C 
BRANCH   3   4
ATOM      4  C   UNL     1       1.245  -0.272   5.716  1.00  0.00     0.000 C 
BRANCH   4   5
ATOM      5  C   UNL     1       1.558  -0.139   7.215  1.00  0.00     0.000 C 
BRANCH   5   6
ATOM      6  C   UNL     1       2.127   1.252   7.533  1.00  0.00     0.000 C 
BRANCH   6   7
ATOM      7  C   UNL     1       1.177   2.111   8.388  1.00  0.00     0.000 C 
BRANCH   7   8
ATOM      8  C   UNL     1       0.756   3.449   7.751  1.00  0.00     0.000 C 
BRANCH   8   9
ATOM      9  C   UNL     1       1.230   3.596   6.296  1.00  0.00     0.000 C 
BRANCH   9  10
ATOM     10  C   UNL     1       0.632   4.850   5.646  1.00  0.00     0.006 C 
BRANCH  10  11
ATOM     11  C   UNL     1      -0.371   5.530   6.584  1.00  0.00     0.053 C 
BRANCH  11  12
ATOM     12  C   UNL     1      -0.867   6.814   5.995  1.00  0.00     0.041 C 
ATOM     13  O   UNL     1      -1.202   7.770   6.747  1.00  0.00    -0.550 OA
ATOM     14  O   UNL     1      -0.937   6.968   4.616  1.00  0.00    -0.550 OA
ENDBRANCH  11  12
ENDBRANCH  10  11
ENDBRANCH   9  10
ENDBRANCH   8   9
ENDBRANCH   7   8
ENDBRANCH   6   7
ENDBRANCH   5   6
ENDBRANCH   4   5
ENDBRANCH   3   4
ENDBRANCH   2   3
ENDBRANCH   1   2
BRANCH   1  15
ATOM     15  C   UNL     1      -1.575  -2.605   7.150  1.00  0.00     0.000 C 
BRANCH  15  16
ATOM     16  C   UNL     1      -2.790  -3.386   7.684  1.00  0.00     0.000 C 
BRANCH  16  17
ATOM     17  C   UNL     1      -3.660  -4.070   6.607  1.00  0.00     0.000 C 
BRANCH  17  18
ATOM     18  C   UNL     1      -5.177  -3.842   6.748  1.00  0.00    -0.000 C 
BRANCH  18  19
ATOM     19  C   UNL     1      -5.803  -2.954   5.656  1.00  0.00    -0.000 C 
BRANCH  19  20
ATOM     20  C   UNL     1      -5.788  -1.448   5.997  1.00  0.00    -0.000 C 
BRANCH  20  21
ATOM     21  C   UNL     1      -4.612  -0.709   5.343  1.00  0.00    -0.000 C 
BRANCH  21  22
ATOM     22  C   UNL     1      -4.260  -1.330   3.982  1.00  0.00    -0.000 C 
BRANCH  22  23
ATOM     23  C   UNL     1      -2.752  -1.584   3.814  1.00  0.00    -0.000 C 
BRANCH  23  24
ATOM     24  C   UNL     1      -2.371  -3.035   3.461  1.00  0.00    -0.000 C 
BRANCH  24  25
ATOM     25  C   UNL     1      -3.463  -3.797   2.683  1.00  0.00    -0.003 C 
ATOM     26  C   UNL     1      -2.882  -4.743   1.633  1.00  0.00     0.004 C 
ENDBRANCH  24  25
ENDBRANCH  23  24
ENDBRANCH  22  23
ENDBRANCH  21  22
ENDBRANCH  20  21
ENDBRANCH  19  20
ENDBRANCH  18  19
ENDBRANCH  17  18
ENDBRANCH  16  17
ENDBRANCH  15  16
ENDBRANCH   1  15
TORSDOF 22
ENDMDL
MODEL 3
REMARK VINA RESULT:    -4.404      1.373      2.542
REMARK INTER + INTRA:         -12.844
REMARK INTER:                  -9.670
REMARK INTRA:                  -3.173
REMARK UNBOUND:                -2.775
REMARK SMILES CCCCCCCCCCCCCCCCCCCCCCCC(=O)[O-]
REMARK SMILES IDX 13 1 14 2 15 3 16 4 17 5 18 6 19 7 20 8 21 9 22 10 23 11
REMARK SMILES IDX 24 12 25 13 26 14 12 15 11 16 10 17 9 18 8 19 7 20 6 21 5 22
REMARK SMILES IDX 4 23 3 24 2 25 1 26
REMARK H PARENT
REMARK Flexibility Score: inf
ROOT
ATOM      1  C   UNL     1       2.480  -2.263   5.211  1.00  0.00     0.000 C 
ENDROOT
BRANCH   1   2
ATOM      2  C   UNL     1       3.122  -2.514   6.585  1.00  0.00     0.000 C 
BRANCH   2   3
ATOM      3  C   UNL     1       4.149  -1.435   6.969  1.00  0.00     0.000 C 
BRANCH   3   4
ATOM      4  C   UNL     1       3.568  -0.393   7.940  1.00  0.00     0.000 C 
BRANCH   4   5
ATOM      5  C   UNL     1       2.404  -0.947   8.777  1.00  0.00     0.000 C 
BRANCH   5   6
ATOM      6  C   UNL     1       1.166  -0.047   8.655  1.00  0.00     0.000 C 
BRANCH   6   7
ATOM      7  C   UNL     1       1.499   1.373   8.159  1.00  0.00     0.000 C 
BRANCH   7   8
ATOM      8  C   UNL     1       0.745   2.508   8.878  1.00  0.00     0.000 C 
BRANCH   8   9
ATOM      9  C   UNL     1       0.537   3.745   7.992  1.00  0.00     0.000 C 
BRANCH   9  10
ATOM     10  C   UNL     1       0.848   3.431   6.523  1.00  0.00     0.006 C 
BRANCH  10  11
ATOM     11  C   UNL     1       1.398   4.667   5.802  1.00  0.00     0.053 C 
BRANCH  11  12
ATOM     12  C   UNL     1       0.428   5.159   4.772  1.00  0.00     0.041 C 
ATOM     13  O   UNL     1       0.739   5.145   3.550  1.00  0.00    -0.550 OA
ATOM     14  O   UNL     1      -0.829   5.610   5.157  1.00  0.00    -0.550 OA
ENDBRANCH  11  12
ENDBRANCH  10  11
ENDBRANCH   9  10
ENDBRANCH   8   9
ENDBRANCH   7   8
ENDBRANCH   6   7
ENDBRANCH   5   6
ENDBRANCH   4   5
ENDBRANCH   3   4
ENDBRANCH   2   3
ENDBRANCH   1   2
BRANCH   1  15
ATOM     15  C   UNL     1       1.211  -1.397   5.296  1.00  0.00     0.000 C 
BRANCH  15  16
ATOM     16  C   UNL     1      -0.083  -2.232   5.330  1.00  0.00     0.000 C 
BRANCH  16  17
ATOM     17  C   UNL     1      -0.397  -2.905   6.684  1.00  0.00     0.000 C 
BRANCH  17  18
ATOM     18  C   UNL     1      -1.827  -2.682   7.210  1.00  0.00    -0.000 C 
BRANCH  18  19
ATOM     19  C   UNL     1      -2.733  -3.928   7.175  1.00  0.00    -0.000 C 
BRANCH  19  20
ATOM     20  C   UNL     1      -4.237  -3.598   7.059  1.00  0.00    -0.000 C 
BRANCH  20  21
ATOM     21  C   UNL     1      -4.494  -2.104   6.815  1.00  0.00    -0.000 C 
BRANCH  21  22
ATOM     22  C   UNL     1      -5.084  -1.869   5.416  1.00  0.00    -0.000 C 
BRANCH  22  23
ATOM     23  C   UNL     1      -4.210  -0.948   4.547  1.00  0.00    -0.000 C 
BRANCH  23  24
ATOM     24  C   UNL     1      -3.170  -1.673   3.670  1.00  0.00    -0.000 C 
BRANCH  24  25
ATOM     25  C   UNL     1      -3.655  -3.028   3.116  1.00  0.00    -0.003 C 
ATOM     26  C   UNL     1      -2.732  -4.183   3.503  1.00  0.00     0.004 C 
ENDBRANCH  24  25
ENDBRANCH  23  24
ENDBRANCH  22  23
ENDBRANCH  21  22
ENDBRANCH  20  21
ENDBRANCH  19  20
ENDBRANCH  18  19
ENDBRANCH  17  18
ENDBRANCH  16  17
ENDBRANCH  15  16
ENDBRANCH   1  15
TORSDOF 22
ENDMDL
MODEL 4
REMARK VINA RESULT:    -4.346      1.776      3.556
REMARK INTER + INTRA:         -12.710
REMARK INTER:                  -9.828
REMARK INTRA:                  -2.882
REMARK UNBOUND:                -2.775
REMARK SMILES CCCCCCCCCCCCCCCCCCCCCCCC(=O)[O-]
REMARK SMILES IDX 13 1 14 2 15 3 16 4 17 5 18 6 19 7 20 8 21 9 22 10 23 11
REMARK SMILES IDX 24 12 25 13 26 14 12 15 11 16 10 17 9 18 8 19 7 20 6 21 5 22
REMARK SMILES IDX 4 23 3 24 2 25 1 26
REMARK H PARENT
REMARK Flexibility Score: inf
ROOT
ATOM      1  C   UNL     1      -0.426  -3.006   5.918  1.00  0.00     0.000 C 
ENDROOT
BRANCH   1   2
ATOM      2  C   UNL     1       0.278  -1.810   5.258  1.00  0.00     0.000 C 
BRANCH   2   3
ATOM      3  C   UNL     1       1.812  -1.922   5.302  1.00  0.00     0.000 C 
BRANCH   3   4
ATOM      4  C   UNL     1       2.458  -0.791   6.119  1.00  0.00     0.000 C 
BRANCH   4   5
ATOM      5  C   UNL     1       1.445   0.281   6.553  1.00  0.00     0.000 C 
BRANCH   5   6
ATOM      6  C   UNL     1       1.818   0.861   7.926  1.00  0.00     0.000 C 
BRANCH   6   7
ATOM      7  C   UNL     1       1.145   2.217   8.210  1.00  0.00     0.000 C 
BRANCH   7   8
ATOM      8  C   UNL     1       1.203   3.229   7.050  1.00  0.00     0.000 C 
BRANCH   8   9
ATOM      9  C   UNL     1       0.398   4.508   7.329  1.00  0.00     0.000 C 
BRANCH   9  10
ATOM     10  C   UNL     1       0.179   5.313   6.042  1.00  0.00     0.006 C 
BRANCH  10  11
ATOM     11  C   UNL     1       0.853   4.632   4.847  1.00  0.00     0.053 C 
BRANCH  11  12
ATOM     12  C   UNL     1       1.798   5.569   4.160  1.00  0.00     0.041 C 
ATOM     13  O   UNL     1       2.366   6.487   4.812  1.00  0.00    -0.550 OA
ATOM     14  O   UNL     1       2.073   5.415   2.807  1.00  0.00    -0.550 OA
ENDBRANCH  11  12
ENDBRANCH  10  11
ENDBRANCH   9  10
ENDBRANCH   8   9
ENDBRANCH   7   8
ENDBRANCH   6   7
ENDBRANCH   5   6
ENDBRANCH   4   5
ENDBRANCH   3   4
ENDBRANCH   2   3
ENDBRANCH   1   2
BRANCH   1  15
ATOM     15  C   UNL     1      -1.374  -2.587   7.055  1.00  0.00     0.000 C 
BRANCH  15  16
ATOM     16  C   UNL     1      -2.744  -3.287   6.981  1.00  0.00     0.000 C 
BRANCH  16  17
ATOM     17  C   UNL     1      -3.949  -2.425   7.416  1.00  0.00     0.000 C 
BRANCH  17  18
ATOM     18  C   UNL     1      -4.986  -2.144   6.312  1.00  0.00    -0.000 C 
BRANCH  18  19
ATOM     19  C   UNL     1      -4.731  -0.865   5.492  1.00  0.00    -0.000 C 
BRANCH  19  20
ATOM     20  C   UNL     1      -4.429  -1.133   4.003  1.00  0.00    -0.000 C 
BRANCH  20  21
ATOM     21  C   UNL     1      -2.962  -1.512   3.758  1.00  0.00    -0.000 C 
BRANCH  21  22
ATOM     22  C   UNL     1      -2.852  -2.922   3.157  1.00  0.00    -0.000 C 
BRANCH  22  23
ATOM     23  C   UNL     1      -4.219  -3.602   2.977  1.00  0.00    -0.000 C 
BRANCH  23  24
ATOM     24  C   UNL     1      -4.345  -4.994   3.629  1.00  0.00    -0.000 C 
BRANCH  24  25
ATOM     25  C   UNL     1      -3.021  -5.538   4.204  1.00  0.00    -0.003 C 
ATOM     26  C   UNL     1      -2.422  -6.650   3.344  1.00  0.00     0.004 C 
ENDBRANCH  24  25
ENDBRANCH  23  24
ENDBRANCH  22  23
ENDBRANCH  21  22
ENDBRANCH  20  21
ENDBRANCH  19  20
ENDBRANCH  18  19
ENDBRANCH  17  18
ENDBRANCH  16  17
ENDBRANCH  15  16
ENDBRANCH   1  15
TORSDOF 22
ENDMDL
MODEL 5
REMARK VINA RESULT:    -4.343      5.061      9.109
REMARK INTER + INTRA:         -12.705
REMARK INTER:                  -9.856
REMARK INTRA:                  -2.849
REMARK UNBOUND:                -2.775
REMARK SMILES CCCCCCCCCCCCCCCCCCCCCCCC(=O)[O-]
REMARK SMILES IDX 13 1 14 2 15 3 16 4 17 5 18 6 19 7 20 8 21 9 22 10 23 11
REMARK SMILES IDX 24 12 25 13 26 14 12 15 11 16 10 17 9 18 8 19 7 20 6 21 5 22
REMARK SMILES IDX 4 23 3 24 2 25 1 26
REMARK H PARENT
REMARK Flexibility Score: inf
ROOT
ATOM      1  C   UNL     1      -4.130  -1.107   4.089  1.00  0.00     0.000 C 
ENDROOT
BRANCH   1   2
ATOM      2  C   UNL     1      -2.679  -1.592   4.236  1.00  0.00     0.000 C 
BRANCH   2   3
ATOM      3  C   UNL     1      -2.378  -2.841   3.388  1.00  0.00     0.000 C 
BRANCH   3   4
ATOM      4  C   UNL     1      -2.685  -4.146   4.141  1.00  0.00     0.000 C 
BRANCH   4   5
ATOM      5  C   UNL     1      -3.885  -4.903   3.550  1.00  0.00     0.000 C 
BRANCH   5   6
ATOM      6  C   UNL     1      -4.384  -4.221   2.267  1.00  0.00     0.000 C 
BRANCH   6   7
ATOM      7  C   UNL     1      -4.100  -5.045   0.997  1.00  0.00     0.000 C 
BRANCH   7   8
ATOM      8  C   UNL     1      -2.616  -5.140   0.599  1.00  0.00     0.000 C 
BRANCH   8   9
ATOM      9  C   UNL     1      -2.404  -5.188  -0.922  1.00  0.00     0.000 C 
BRANCH   9  10
ATOM     10  C   UNL     1      -1.323  -4.192  -1.360  1.00  0.00     0.006 C 
BRANCH  10  11
ATOM     11  C   UNL     1      -0.569  -4.706  -2.591  1.00  0.00     0.053 C 
BRANCH  11  12
ATOM     12  C   UNL     1       0.522  -5.651  -2.193  1.00  0.00     0.041 C 
ATOM     13  O   UNL     1       1.657  -5.208  -1.866  1.00  0.00    -0.550 OA
ATOM     14  O   UNL     1       0.282  -7.019  -2.159  1.00  0.00    -0.550 OA
ENDBRANCH  11  12
ENDBRANCH  10  11
ENDBRANCH   9  10
ENDBRANCH   8   9
ENDBRANCH   7   8
ENDBRANCH   6   7
ENDBRANCH   5   6
ENDBRANCH   4   5
ENDBRANCH   3   4
ENDBRANCH   2   3
ENDBRANCH   1   2
BRANCH   1  15
ATOM     15  C   UNL     1      -4.877  -1.047   5.433  1.00  0.00     0.000 C 
BRANCH  15  16
ATOM     16  C   UNL     1      -5.606  -2.360   5.772  1.00  0.00     0.000 C 
BRANCH  16  17
ATOM     17  C   UNL     1      -4.981  -3.185   6.917  1.00  0.00     0.000 C 
BRANCH  17  18
ATOM     18  C   UNL     1      -3.735  -2.559   7.571  1.00  0.00    -0.000 C 
BRANCH  18  19
ATOM     19  C   UNL     1      -2.573  -3.540   7.822  1.00  0.00    -0.000 C 
BRANCH  19  20
ATOM     20  C   UNL     1      -1.200  -2.849   7.966  1.00  0.00    -0.000 C 
BRANCH  20  21
ATOM     21  C   UNL     1      -0.286  -3.100   6.759  1.00  0.00    -0.000 C 
BRANCH  21  22
ATOM     22  C   UNL     1       0.203  -1.775   6.155  1.00  0.00    -0.000 C 
BRANCH  22  23
ATOM     23  C   UNL     1       1.456  -1.945   5.279  1.00  0.00    -0.000 C 
BRANCH  23  24
ATOM     24  C   UNL     1       2.702  -1.181   5.768  1.00  0.00    -0.000 C 
BRANCH  24  25
ATOM     25  C   UNL     1       4.017  -1.976   5.634  1.00  0.00    -0.003 C 
ATOM     26  C   UNL     1       4.948  -1.775   6.829  1.00  0.00     0.004 C 
ENDBRANCH  24  25
ENDBRANCH  23  24
ENDBRANCH  22  23
ENDBRANCH  21  22
ENDBRANCH  20  21
ENDBRANCH  19  20
ENDBRANCH  18  19
ENDBRANCH  17  18
ENDBRANCH  16  17
ENDBRANCH  15  16
ENDBRANCH   1  15
TORSDOF 22
ENDMDL
MODEL 6
REMARK VINA RESULT:    -4.244      1.344      2.754
REMARK INTER + INTRA:         -12.477
REMARK INTER:                  -9.374
REMARK INTRA:                  -3.103
REMARK UNBOUND:                -2.775
REMARK SMILES CCCCCCCCCCCCCCCCCCCCCCCC(=O)[O-]
REMARK SMILES IDX 13 1 14 2 15 3 16 4 17 5 18 6 19 7 20 8 21 9 22 10 23 11
REMARK SMILES IDX 24 12 25 13 26 14 12 15 11 16 10 17 9 18 8 19 7 20 6 21 5 22
REMARK SMILES IDX 4 23 3 24 2 25 1 26
REMARK H PARENT
REMARK Flexibility Score: inf
ROOT
ATOM      1  C   UNL     1       2.200  -1.660   5.390  1.00  0.00     0.000 C 
ENDROOT
BRANCH   1   2
ATOM      2  C   UNL     1       1.761  -0.512   6.313  1.00  0.00     0.000 C 
BRANCH   2   3
ATOM      3  C   UNL     1       0.787  -0.969   7.412  1.00  0.00     0.000 C 
BRANCH   3   4
ATOM      4  C   UNL     1       1.191  -0.453   8.803  1.00  0.00     0.000 C 
BRANCH   4   5
ATOM      5  C   UNL     1       1.827   0.945   8.756  1.00  0.00     0.000 C 
BRANCH   5   6
ATOM      6  C   UNL     1       0.797   2.026   9.116  1.00  0.00     0.000 C 
BRANCH   6   7
ATOM      7  C   UNL     1       0.784   3.202   8.121  1.00  0.00     0.000 C 
BRANCH   7   8
ATOM      8  C   UNL     1       1.558   2.956   6.812  1.00  0.00     0.000 C 
BRANCH   8   9
ATOM      9  C   UNL     1       1.374   4.084   5.785  1.00  0.00     0.000 C 
BRANCH   9  10
ATOM     10  C   UNL     1       0.207   5.000   6.174  1.00  0.00     0.006 C 
BRANCH  10  11
ATOM     11  C   UNL     1      -0.489   5.561   4.929  1.00  0.00     0.053 C 
BRANCH  11  12
ATOM     12  C   UNL     1      -0.887   6.989   5.139  1.00  0.00     0.041 C 
ATOM     13  O   UNL     1      -0.951   7.781   4.159  1.00  0.00    -0.550 OA
ATOM     14  O   UNL     1      -1.212   7.443   6.412  1.00  0.00    -0.550 OA
ENDBRANCH  11  12
ENDBRANCH  10  11
ENDBRANCH   9  10
ENDBRANCH   8   9
ENDBRANCH   7   8
ENDBRANCH   6   7
ENDBRANCH   5   6
ENDBRANCH   4   5
ENDBRANCH   3   4
ENDBRANCH   2   3
ENDBRANCH   1   2
BRANCH   1  15
ATOM     15  C   UNL     1       3.704  -1.969   5.498  1.00  0.00     0.000 C 
BRANCH  15  16
ATOM     16  C   UNL     1       4.270  -1.708   6.905  1.00  0.00     0.000 C 
BRANCH  16  17
ATOM     17  C   UNL     1       4.479  -2.965   7.776  1.00  0.00     0.000 C 
BRANCH  17  18
ATOM     18  C   UNL     1       3.187  -3.686   8.206  1.00  0.00    -0.000 C 
BRANCH  18  19
ATOM     19  C   UNL     1       2.739  -4.826   7.271  1.00  0.00    -0.000 C 
BRANCH  19  20
ATOM     20  C   UNL     1       1.219  -5.090   7.301  1.00  0.00    -0.000 C 
BRANCH  20  21
ATOM     21  C   UNL     1       0.515  -4.347   8.444  1.00  0.00    -0.000 C 
BRANCH  21  22
ATOM     22  C   UNL     1      -0.974  -4.136   8.129  1.00  0.00    -0.000 C 
BRANCH  22  23
ATOM     23  C   UNL     1      -1.267  -4.120   6.619  1.00  0.00    -0.000 C 
BRANCH  23  24
ATOM     24  C   UNL     1      -1.685  -2.749   6.051  1.00  0.00    -0.000 C 
BRANCH  24  25
ATOM     25  C   UNL     1      -1.480  -2.614   4.528  1.00  0.00    -0.003 C 
ATOM     26  C   UNL     1      -2.631  -1.876   3.845  1.00  0.00     0.004 C 
ENDBRANCH  24  25
ENDBRANCH  23  24
ENDBRANCH  22  23
ENDBRANCH  21  22
ENDBRANCH  20  21
ENDBRANCH  19  20
ENDBRANCH  18  19
ENDBRANCH  17  18
ENDBRANCH  16  17
ENDBRANCH  15  16
ENDBRANCH   1  15
TORSDOF 22
ENDMDL
MODEL 7
REMARK VINA RESULT:    -4.232      4.617      7.922
REMARK INTER + INTRA:         -12.451
REMARK INTER:                  -9.403
REMARK INTRA:                  -3.048
REMARK UNBOUND:                -2.775
REMARK SMILES CCCCCCCCCCCCCCCCCCCCCCCC(=O)[O-]
REMARK SMILES IDX 13 1 14 2 15 3 16 4 17 5 18 6 19 7 20 8 21 9 22 10 23 11
REMARK SMILES IDX 24 12 25 13 26 14 12 15 11 16 10 17 9 18 8 19 7 20 6 21 5 22
REMARK SMILES IDX 4 23 3 24 2 25 1 26
REMARK H PARENT
REMARK Flexibility Score: inf
ROOT
ATOM      1  C   UNL     1      -3.989  -1.427   3.827  1.00  0.00     0.000 C 
ENDROOT
BRANCH   1   2
ATOM      2  C   UNL     1      -4.492  -1.090   5.239  1.00  0.00     0.000 C 
BRANCH   2   3
ATOM      3  C   UNL     1      -5.269  -2.249   5.888  1.00  0.00     0.000 C 
BRANCH   3   4
ATOM      4  C   UNL     1      -4.441  -2.982   6.957  1.00  0.00     0.000 C 
BRANCH   4   5
ATOM      5  C   UNL     1      -3.819  -4.286   6.434  1.00  0.00     0.000 C 
BRANCH   5   6
ATOM      6  C   UNL     1      -2.292  -4.268   6.601  1.00  0.00     0.000 C 
BRANCH   6   7
ATOM      7  C   UNL     1      -1.813  -3.259   7.662  1.00  0.00     0.000 C 
BRANCH   7   8
ATOM      8  C   UNL     1      -0.748  -2.259   7.176  1.00  0.00     0.000 C 
BRANCH   8   9
ATOM      9  C   UNL     1       0.234  -2.872   6.165  1.00  0.00     0.000 C 
BRANCH   9  10
ATOM     10  C   UNL     1       0.824  -1.794   5.246  1.00  0.00     0.006 C 
BRANCH  10  11
ATOM     11  C   UNL     1       2.077  -1.168   5.868  1.00  0.00     0.053 C 
BRANCH  11  12
ATOM     12  C   UNL     1       3.302  -1.948   5.502  1.00  0.00     0.041 C 
ATOM     13  O   UNL     1       3.490  -2.309   4.309  1.00  0.00    -0.550 OA
ATOM     14  O   UNL     1       4.248  -2.255   6.471  1.00  0.00    -0.550 OA
ENDBRANCH  11  12
ENDBRANCH  10  11
ENDBRANCH   9  10
ENDBRANCH   8   9
ENDBRANCH   7   8
ENDBRANCH   6   7
ENDBRANCH   5   6
ENDBRANCH   4   5
ENDBRANCH   3   4
ENDBRANCH   2   3
ENDBRANCH   1   2
BRANCH   1  15
ATOM     15  C   UNL     1      -2.499  -1.811   3.801  1.00  0.00     0.000 C 
BRANCH  15  16
ATOM     16  C   UNL     1      -2.246  -3.184   3.151  1.00  0.00     0.000 C 
BRANCH  16  17
ATOM     17  C   UNL     1      -3.511  -3.936   2.685  1.00  0.00     0.000 C 
BRANCH  17  18
ATOM     18  C   UNL     1      -3.422  -5.472   2.756  1.00  0.00    -0.000 C 
BRANCH  18  19
ATOM     19  C   UNL     1      -3.013  -6.160   1.439  1.00  0.00    -0.000 C 
BRANCH  19  20
ATOM     20  C   UNL     1      -3.019  -5.215   0.219  1.00  0.00    -0.000 C 
BRANCH  20  21
ATOM     21  C   UNL     1      -1.836  -5.466  -0.726  1.00  0.00    -0.000 C 
BRANCH  21  22
ATOM     22  C   UNL     1      -1.299  -4.146  -1.298  1.00  0.00    -0.000 C 
BRANCH  22  23
ATOM     23  C   UNL     1      -0.230  -4.357  -2.385  1.00  0.00    -0.000 C 
BRANCH  23  24
ATOM     24  C   UNL     1       0.456  -5.737  -2.364  1.00  0.00    -0.000 C 
BRANCH  24  25
ATOM     25  C   UNL     1       0.352  -6.507  -3.697  1.00  0.00    -0.003 C 
ATOM     26  C   UNL     1      -0.897  -7.386  -3.770  1.00  0.00     0.004 C 
ENDBRANCH  24  25
ENDBRANCH  23  24
ENDBRANCH  22  23
ENDBRANCH  21  22
ENDBRANCH  20  21
ENDBRANCH  19  20
ENDBRANCH  18  19
ENDBRANCH  17  18
ENDBRANCH  16  17
ENDBRANCH  15  16
ENDBRANCH   1  15
TORSDOF 22
ENDMDL
MODEL 8
REMARK VINA RESULT:    -4.165      4.492      7.192
REMARK INTER + INTRA:         -12.298
REMARK INTER:                  -8.824
REMARK INTRA:                  -3.473
REMARK UNBOUND:                -2.775
REMARK SMILES CCCCCCCCCCCCCCCCCCCCCCCC(=O)[O-]
REMARK SMILES IDX 13 1 14 2 15 3 16 4 17 5 18 6 19 7 20 8 21 9 22 10 23 11
REMARK SMILES IDX 24 12 25 13 26 14 12 15 11 16 10 17 9 18 8 19 7 20 6 21 5 22
REMARK SMILES IDX 4 23 3 24 2 25 1 26
REMARK H PARENT
REMARK Flexibility Score: inf
ROOT
ATOM      1  C   UNL     1      -1.569  -4.755   6.078  1.00  0.00     0.000 C 
ENDROOT
BRANCH   1   2
ATOM      2  C   UNL     1      -2.851  -4.924   5.248  1.00  0.00     0.000 C 
BRANCH   2   3
ATOM      3  C   UNL     1      -2.569  -5.128   3.749  1.00  0.00     0.000 C 
BRANCH   3   4
ATOM      4  C   UNL     1      -2.562  -3.803   2.970  1.00  0.00     0.000 C 
BRANCH   4   5
ATOM      5  C   UNL     1      -3.772  -2.915   3.300  1.00  0.00     0.000 C 
BRANCH   5   6
ATOM      6  C   UNL     1      -3.317  -1.536   3.803  1.00  0.00     0.000 C 
BRANCH   6   7
ATOM      7  C   UNL     1      -4.291  -0.914   4.820  1.00  0.00     0.000 C 
BRANCH   7   8
ATOM      8  C   UNL     1      -4.721  -1.849   5.966  1.00  0.00     0.000 C 
BRANCH   8   9
ATOM      9  C   UNL     1      -5.245  -1.090   7.196  1.00  0.00     0.000 C 
BRANCH   9  10
ATOM     10  C   UNL     1      -5.950   0.208   6.784  1.00  0.00     0.006 C 
BRANCH  10  11
ATOM     11  C   UNL     1      -6.913   0.681   7.878  1.00  0.00     0.053 C 
BRANCH  11  12
ATOM     12  C   UNL     1      -8.239  -0.005   7.754  1.00  0.00     0.041 C 
ATOM     13  O   UNL     1      -8.974   0.211   6.752  1.00  0.00    -0.550 OA
ATOM     14  O   UNL     1      -8.655  -0.901   8.731  1.00  0.00    -0.550 OA
ENDBRANCH  11  12
ENDBRANCH  10  11
ENDBRANCH   9  10
ENDBRANCH   8   9
ENDBRANCH   7   8
ENDBRANCH   6   7
ENDBRANCH   5   6
ENDBRANCH   4   5
ENDBRANCH   3   4
ENDBRANCH   2   3
ENDBRANCH   1   2
BRANCH   1  15
ATOM     15  C   UNL     1      -1.683  -3.636   7.129  1.00  0.00     0.000 C 
BRANCH  15  16
ATOM     16  C   UNL     1      -0.678  -2.493   6.898  1.00  0.00     0.000 C 
BRANCH  16  17
ATOM     17  C   UNL     1      -0.162  -2.351   5.450  1.00  0.00     0.000 C 
BRANCH  17  18
ATOM     18  C   UNL     1       1.081  -1.456   5.282  1.00  0.00    -0.000 C 
BRANCH  18  19
ATOM     19  C   UNL     1       2.419  -2.215   5.191  1.00  0.00    -0.000 C 
BRANCH  19  20
ATOM     20  C   UNL     1       3.574  -1.526   5.948  1.00  0.00    -0.000 C 
BRANCH  20  21
ATOM     21  C   UNL     1       4.022  -2.317   7.185  1.00  0.00    -0.000 C 
BRANCH  21  22
ATOM     22  C   UNL     1       3.007  -2.173   8.328  1.00  0.00    -0.000 C 
BRANCH  22  23
ATOM     23  C   UNL     1       2.517  -3.528   8.866  1.00  0.00    -0.000 C 
BRANCH  23  24
ATOM     24  C   UNL     1       2.990  -4.757   8.064  1.00  0.00    -0.000 C 
BRANCH  24  25
ATOM     25  C   UNL     1       1.893  -5.393   7.187  1.00  0.00    -0.003 C 
ATOM     26  C   UNL     1       2.197  -6.848   6.832  1.00  0.00     0.004 C 
ENDBRANCH  24  25
ENDBRANCH  23  24
ENDBRANCH  22  23
ENDBRANCH  21  22
ENDBRANCH  20  21
ENDBRANCH  19  20
ENDBRANCH  18  19
ENDBRANCH  17  18
ENDBRANCH  16  17
ENDBRANCH  15  16
ENDBRANCH   1  15
TORSDOF 22
ENDMDL
MODEL 9
REMARK VINA RESULT:    -4.135      3.341      6.835
REMARK INTER + INTRA:         -12.229
REMARK INTER:                  -8.697
REMARK INTRA:                  -3.532
REMARK UNBOUND:                -2.775
REMARK SMILES CCCCCCCCCCCCCCCCCCCCCCCC(=O)[O-]
REMARK SMILES IDX 13 1 14 2 15 3 16 4 17 5 18 6 19 7 20 8 21 9 22 10 23 11
REMARK SMILES IDX 24 12 25 13 26 14 12 15 11 16 10 17 9 18 8 19 7 20 6 21 5 22
REMARK SMILES IDX 4 23 3 24 2 25 1 26
REMARK H PARENT
REMARK Flexibility Score: inf
ROOT
ATOM      1  C   UNL     1       2.655  -2.257   5.087  1.00  0.00     0.000 C 
ENDROOT
BRANCH   1   2
ATOM      2  C   UNL     1       1.710  -1.068   5.320  1.00  0.00     0.000 C 
BRANCH   2   3
ATOM      3  C   UNL     1       0.233  -1.489   5.415  1.00  0.00     0.000 C 
BRANCH   3   4
ATOM      4  C   UNL     1       0.039  -2.748   6.277  1.00  0.00     0.000 C 
BRANCH   4   5
ATOM      5  C   UNL     1      -1.176  -2.644   7.213  1.00  0.00     0.000 C 
BRANCH   5   6
ATOM      6  C   UNL     1      -2.101  -3.859   7.044  1.00  0.00     0.000 C 
BRANCH   6   7
ATOM      7  C   UNL     1      -3.568  -3.468   6.788  1.00  0.00     0.000 C 
BRANCH   7   8
ATOM      8  C   UNL     1      -3.770  -2.101   6.108  1.00  0.00     0.000 C 
BRANCH   8   9
ATOM      9  C   UNL     1      -4.268  -2.219   4.659  1.00  0.00     0.000 C 
BRANCH   9  10
ATOM     10  C   UNL     1      -3.173  -1.811   3.665  1.00  0.00     0.006 C 
BRANCH  10  11
ATOM     11  C   UNL     1      -2.258  -2.997   3.339  1.00  0.00     0.053 C 
BRANCH  11  12
ATOM     12  C   UNL     1      -3.061  -4.215   3.006  1.00  0.00     0.041 C 
ATOM     13  O   UNL     1      -2.903  -5.279   3.664  1.00  0.00    -0.550 OA
ATOM     14  O   UNL     1      -4.004  -4.172   1.986  1.00  0.00    -0.550 OA
ENDBRANCH  11  12
ENDBRANCH  10  11
ENDBRANCH   9  10
ENDBRANCH   8   9
ENDBRANCH   7   8
ENDBRANCH   6   7
ENDBRANCH   5   6
ENDBRANCH   4   5
ENDBRANCH   3   4
ENDBRANCH   2   3
ENDBRANCH   1   2
BRANCH   1  15
ATOM     15  C   UNL     1       4.131  -1.903   5.341  1.00  0.00     0.000 C 
BRANCH  15  16
ATOM     16  C   UNL     1       4.500  -1.909   6.835  1.00  0.00     0.000 C 
BRANCH  16  17
ATOM     17  C   UNL     1       3.859  -3.040   7.668  1.00  0.00     0.000 C 
BRANCH  17  18
ATOM     18  C   UNL     1       2.836  -2.577   8.723  1.00  0.00    -0.000 C 
BRANCH  18  19
ATOM     19  C   UNL     1       2.711  -1.049   8.877  1.00  0.00    -0.000 C 
BRANCH  19  20
ATOM     20  C   UNL     1       1.274  -0.573   9.179  1.00  0.00    -0.000 C 
BRANCH  20  21
ATOM     21  C   UNL     1       1.072   0.919   8.875  1.00  0.00    -0.000 C 
BRANCH  21  22
ATOM     22  C   UNL     1       2.074   1.404   7.817  1.00  0.00    -0.000 C 
BRANCH  22  23
ATOM     23  C   UNL     1       1.531   2.569   6.971  1.00  0.00    -0.000 C 
BRANCH  23  24
ATOM     24  C   UNL     1       0.641   3.569   7.734  1.00  0.00    -0.000 C 
BRANCH  24  25
ATOM     25  C   UNL     1       0.252   4.815   6.913  1.00  0.00    -0.003 C 
ATOM     26  C   UNL     1       0.687   6.118   7.582  1.00  0.00     0.004 C 
ENDBRANCH  24  25
ENDBRANCH  23  24
ENDBRANCH  22  23
ENDBRANCH  21  22
ENDBRANCH  20  21
ENDBRANCH  19  20
ENDBRANCH  18  19
ENDBRANCH  17  18
ENDBRANCH  16  17
ENDBRANCH  15  16
ENDBRANCH   1  15
TORSDOF 22
ENDMDL
