MODEL 1
REMARK VINA RESULT:    -4.628      0.000      0.000
REMARK INTER + INTRA:          -7.352
REMARK INTER:                  -6.386
REMARK INTRA:                  -0.966
REMARK UNBOUND:                -0.966
REMARK SMILES OC[C@@H](O)[C@H](O)[C@@H](O)CO
REMARK SMILES IDX 5 1 7 2 9 3 10 4 8 6 3 8 2 9 1 10 4 12 6 14
REMARK H PARENT 10 5 8 7 1 11 4 13 6 15
REMARK Flexibility Score: inf
ROOT
ATOM      1  C   UNL     1     -43.578 -50.960  31.211  1.00  0.00     0.176 C 
ENDROOT
BRANCH   1   2
ATOM      2  C   UNL     1     -44.975 -51.613  31.394  1.00  0.00     0.171 C 
BRANCH   2   3
ATOM      3  C   UNL     1     -45.368 -51.800  32.872  1.00  0.00     0.190 C 
BRANCH   3   4
ATOM      4  O   UNL     1     -44.703 -50.862  33.675  1.00  0.00    -0.394 OA
ATOM      5  H   UNL     1     -44.426 -51.336  34.501  1.00  0.00     0.210 HD
ENDBRANCH   3   4
ENDBRANCH   2   3
BRANCH   2   6
ATOM      6  O   UNL     1     -45.027 -52.840  30.711  1.00  0.00    -0.388 OA
ATOM      7  H   UNL     1     -44.128 -53.257  30.787  1.00  0.00     0.211 HD
ENDBRANCH   2   6
ENDBRANCH   1   2
BRANCH   1   8
ATOM      8  C   UNL     1     -43.124 -50.733  29.744  1.00  0.00     0.171 C 
BRANCH   8   9
ATOM      9  C   UNL     1     -42.007 -51.695  29.292  1.00  0.00     0.190 C 
BRANCH   9  10
ATOM     10  O   UNL     1     -42.491 -53.009  29.223  1.00  0.00    -0.394 OA
ATOM     11  H   UNL     1     -43.283 -53.043  29.820  1.00  0.00     0.210 HD
ENDBRANCH   9  10
ENDBRANCH   8   9
BRANCH   8  12
ATOM     12  O   UNL     1     -44.241 -50.921  28.911  1.00  0.00    -0.388 OA
ATOM     13  H   UNL     1     -45.049 -50.857  29.485  1.00  0.00     0.211 HD
ENDBRANCH   8  12
ENDBRANCH   1   8
BRANCH   1  14
ATOM     14  O   UNL     1     -42.611 -51.752  31.856  1.00  0.00    -0.388 OA
ATOM     15  H   UNL     1     -41.885 -51.145  32.156  1.00  0.00     0.211 HD
ENDBRANCH   1  14
TORSDOF 9
ENDMDL
MODEL 2
REMARK VINA RESULT:    -4.567      1.050      3.840
REMARK INTER + INTRA:          -7.268
REMARK INTER:                  -6.380
REMARK INTRA:                  -0.888
REMARK UNBOUND:                -0.966
REMARK SMILES OC[C@@H](O)[C@H](O)[C@@H](O)CO
REMARK SMILES IDX 5 1 7 2 9 3 10 4 8 6 3 8 2 9 1 10 4 12 6 14
REMARK H PARENT 10 5 8 7 1 11 4 13 6 15
REMARK Flexibility Score: inf
ROOT
ATOM      1  C   UNL     1     -44.528 -51.337  30.615  1.00  0.00     0.176 C 
ENDROOT
BRANCH   1   2
ATOM      2  C   UNL     1     -43.015 -51.097  30.873  1.00  0.00     0.171 C 
BRANCH   2   3
ATOM      3  C   UNL     1     -42.134 -51.401  29.646  1.00  0.00     0.190 C 
BRANCH   3   4
ATOM      4  O   UNL     1     -42.214 -52.761  29.313  1.00  0.00    -0.394 OA
ATOM      5  H   UNL     1     -41.320 -53.153  29.491  1.00  0.00     0.210 HD
ENDBRANCH   3   4
ENDBRANCH   2   3
BRANCH   2   6
ATOM      6  O   UNL     1     -42.589 -51.848  31.982  1.00  0.00    -0.388 OA
ATOM      7  H   UNL     1     -43.272 -52.552  32.140  1.00  0.00     0.211 HD
ENDBRANCH   2   6
ENDBRANCH   1   2
BRANCH   1   8
ATOM      8  C   UNL     1     -45.484 -50.927  31.767  1.00  0.00     0.171 C 
BRANCH   8   9
ATOM      9  C   UNL     1     -46.218 -52.122  32.409  1.00  0.00     0.190 C 
BRANCH   9  10
ATOM     10  O   UNL     1     -45.308 -52.954  33.076  1.00  0.00    -0.394 OA
ATOM     11  H   UNL     1     -45.311 -53.816  32.585  1.00  0.00     0.210 HD
ENDBRANCH   9  10
ENDBRANCH   8   9
BRANCH   8  12
ATOM     12  O   UNL     1     -44.719 -50.287  32.758  1.00  0.00    -0.388 OA
ATOM     13  H   UNL     1     -44.402 -50.990  33.384  1.00  0.00     0.211 HD
ENDBRANCH   8  12
ENDBRANCH   1   8
BRANCH   1  14
ATOM     14  O   UNL     1     -44.735 -52.699  30.331  1.00  0.00    -0.388 OA
ATOM     15  H   UNL     1     -44.903 -53.158  31.196  1.00  0.00     0.211 HD
ENDBRANCH   1  14
TORSDOF 9
ENDMDL
MODEL 3
REMARK VINA RESULT:    -4.525     12.692     14.200
REMARK INTER + INTRA:          -7.210
REMARK INTER:                  -6.242
REMARK INTRA:                  -0.968
REMARK UNBOUND:                -0.966
REMARK SMILES OC[C@@H](O)[C@H](O)[C@@H](O)CO
REMARK SMILES IDX 5 1 7 2 9 3 10 4 8 6 3 8 2 9 1 10 4 12 6 14
REMARK H PARENT 10 5 8 7 1 11 4 13 6 15
REMARK Flexibility Score: inf
ROOT
ATOM      1  C   UNL     1     -50.079 -50.395  18.335  1.00  0.00     0.176 C 
ENDROOT
BRANCH   1   2
ATOM      2  C   UNL     1     -48.712 -51.133  18.318  1.00  0.00     0.171 C 
BRANCH   2   3
ATOM      3  C   UNL     1     -48.056 -51.162  16.924  1.00  0.00     0.190 C 
BRANCH   3   4
ATOM      4  O   UNL     1     -48.481 -52.292  16.209  1.00  0.00    -0.394 OA
ATOM      5  H   UNL     1     -49.472 -52.261  16.184  1.00  0.00     0.210 HD
ENDBRANCH   3   4
ENDBRANCH   2   3
BRANCH   2   6
ATOM      6  O   UNL     1     -48.860 -52.436  18.820  1.00  0.00    -0.388 OA
ATOM      7  H   UNL     1     -48.004 -52.913  18.657  1.00  0.00     0.211 HD
ENDBRANCH   2   6
ENDBRANCH   1   2
BRANCH   1   8
ATOM      8  C   UNL     1     -50.727 -50.204  19.732  1.00  0.00     0.171 C 
BRANCH   8   9
ATOM      9  C   UNL     1     -51.941 -51.122  19.975  1.00  0.00     0.190 C 
BRANCH   9  10
ATOM     10  O   UNL     1     -51.528 -52.455  20.106  1.00  0.00    -0.394 OA
ATOM     11  H   UNL     1     -52.343 -53.010  19.992  1.00  0.00     0.210 HD
ENDBRANCH   9  10
ENDBRANCH   8   9
BRANCH   8  12
ATOM     12  O   UNL     1     -49.751 -50.486  20.704  1.00  0.00    -0.388 OA
ATOM     13  H   UNL     1     -49.467 -49.617  21.095  1.00  0.00     0.211 HD
ENDBRANCH   8  12
ENDBRANCH   1   8
BRANCH   1  14
ATOM     14  O   UNL     1     -50.987 -51.091  17.516  1.00  0.00    -0.388 OA
ATOM     15  H   UNL     1     -50.610 -51.095  16.598  1.00  0.00     0.211 HD
ENDBRANCH   1  14
TORSDOF 9
ENDMDL
MODEL 4
REMARK VINA RESULT:    -4.517     13.316     14.166
REMARK INTER + INTRA:          -7.199
REMARK INTER:                  -6.284
REMARK INTRA:                  -0.915
REMARK UNBOUND:                -0.966
REMARK SMILES OC[C@@H](O)[C@H](O)[C@@H](O)CO
REMARK SMILES IDX 5 1 7 2 9 3 10 4 8 6 3 8 2 9 1 10 4 12 6 14
REMARK H PARENT 10 5 8 7 1 11 4 13 6 15
REMARK Flexibility Score: inf
ROOT
ATOM      1  C   UNL     1     -49.433 -50.798  18.839  1.00  0.00     0.176 C 
ENDROOT
BRANCH   1   2
ATOM      2  C   UNL     1     -50.942 -50.581  18.544  1.00  0.00     0.171 C 
BRANCH   2   3
ATOM      3  C   UNL     1     -51.854 -50.988  19.718  1.00  0.00     0.190 C 
BRANCH   3   4
ATOM      4  O   UNL     1     -51.732 -52.361  19.977  1.00  0.00    -0.394 OA
ATOM      5  H   UNL     1     -52.536 -52.799  19.595  1.00  0.00     0.210 HD
ENDBRANCH   3   4
ENDBRANCH   2   3
BRANCH   2   6
ATOM      6  O   UNL     1     -51.309 -51.267  17.374  1.00  0.00    -0.388 OA
ATOM      7  H   UNL     1     -51.594 -50.585  16.711  1.00  0.00     0.211 HD
ENDBRANCH   2   6
ENDBRANCH   1   2
BRANCH   1   8
ATOM      8  C   UNL     1     -48.451 -50.300  17.745  1.00  0.00     0.171 C 
BRANCH   8   9
ATOM      9  C   UNL     1     -47.719 -51.442  17.013  1.00  0.00     0.190 C 
BRANCH   9  10
ATOM     10  O   UNL     1     -48.626 -52.202  16.261  1.00  0.00    -0.394 OA
ATOM     11  H   UNL     1     -48.077 -52.794  15.684  1.00  0.00     0.210 HD
ENDBRANCH   9  10
ENDBRANCH   8   9
BRANCH   8  12
ATOM     12  O   UNL     1     -49.191 -49.565  16.801  1.00  0.00    -0.388 OA
ATOM     13  H   UNL     1     -50.150 -49.656  17.046  1.00  0.00     0.211 HD
ENDBRANCH   8  12
ENDBRANCH   1   8
BRANCH   1  14
ATOM     14  O   UNL     1     -49.198 -52.168  19.055  1.00  0.00    -0.388 OA
ATOM     15  H   UNL     1     -49.601 -52.658  18.291  1.00  0.00     0.211 HD
ENDBRANCH   1  14
TORSDOF 9
ENDMDL
MODEL 5
REMARK VINA RESULT:    -4.403     15.192     16.298
REMARK INTER + INTRA:          -7.042
REMARK INTER:                  -6.111
REMARK INTRA:                  -0.931
REMARK UNBOUND:                -0.966
REMARK SMILES OC[C@@H](O)[C@H](O)[C@@H](O)CO
REMARK SMILES IDX 5 1 7 2 9 3 10 4 8 6 3 8 2 9 1 10 4 12 6 14
REMARK H PARENT 10 5 8 7 1 11 4 13 6 15
REMARK Flexibility Score: inf
ROOT
ATOM      1  C   UNL     1     -48.347 -50.017  15.037  1.00  0.00     0.176 C 
ENDROOT
BRANCH   1   2
ATOM      2  C   UNL     1     -49.034 -51.390  15.275  1.00  0.00     0.171 C 
BRANCH   2   3
ATOM      3  C   UNL     1     -50.560 -51.349  15.066  1.00  0.00     0.190 C 
BRANCH   3   4
ATOM      4  O   UNL     1     -51.188 -50.760  16.174  1.00  0.00    -0.394 OA
ATOM      5  H   UNL     1     -52.151 -50.678  15.948  1.00  0.00     0.210 HD
ENDBRANCH   3   4
ENDBRANCH   2   3
BRANCH   2   6
ATOM      6  O   UNL     1     -48.725 -51.868  16.560  1.00  0.00    -0.388 OA
ATOM      7  H   UNL     1     -49.580 -51.932  17.063  1.00  0.00     0.211 HD
ENDBRANCH   2   6
ENDBRANCH   1   2
BRANCH   1   8
ATOM      8  C   UNL     1     -47.821 -49.295  16.306  1.00  0.00     0.171 C 
BRANCH   8   9
ATOM      9  C   UNL     1     -47.257 -47.888  16.021  1.00  0.00     0.190 C 
BRANCH   9  10
ATOM     10  O   UNL     1     -48.296 -46.950  15.948  1.00  0.00    -0.394 OA
ATOM     11  H   UNL     1     -48.035 -46.202  16.546  1.00  0.00     0.210 HD
ENDBRANCH   9  10
ENDBRANCH   8   9
BRANCH   8  12
ATOM     12  O   UNL     1     -48.892 -49.172  17.210  1.00  0.00    -0.388 OA
ATOM     13  H   UNL     1     -48.508 -48.889  18.081  1.00  0.00     0.211 HD
ENDBRANCH   8  12
ENDBRANCH   1   8
BRANCH   1  14
ATOM     14  O   UNL     1     -49.249 -49.160  14.381  1.00  0.00    -0.388 OA
ATOM     15  H   UNL     1     -50.164 -49.433  14.651  1.00  0.00     0.211 HD
ENDBRANCH   1  14
TORSDOF 9
ENDMDL
MODEL 6
REMARK VINA RESULT:    -4.384     12.934     13.647
REMARK INTER + INTRA:          -7.016
REMARK INTER:                  -6.212
REMARK INTRA:                  -0.804
REMARK UNBOUND:                -0.966
REMARK SMILES OC[C@@H](O)[C@H](O)[C@@H](O)CO
REMARK SMILES IDX 5 1 7 2 9 3 10 4 8 6 3 8 2 9 1 10 4 12 6 14
REMARK H PARENT 10 5 8 7 1 11 4 13 6 15
REMARK Flexibility Score: inf
ROOT
ATOM      1  C   UNL     1     -49.870 -50.326  18.868  1.00  0.00     0.176 C 
ENDROOT
BRANCH   1   2
ATOM      2  C   UNL     1     -51.402 -50.578  18.849  1.00  0.00     0.171 C 
BRANCH   2   3
ATOM      3  C   UNL     1     -51.909 -51.330  20.094  1.00  0.00     0.190 C 
BRANCH   3   4
ATOM      4  O   UNL     1     -51.472 -52.663  20.070  1.00  0.00    -0.394 OA
ATOM      5  H   UNL     1     -52.180 -53.206  20.505  1.00  0.00     0.210 HD
ENDBRANCH   3   4
ENDBRANCH   2   3
BRANCH   2   6
ATOM      6  O   UNL     1     -51.764 -51.264  17.677  1.00  0.00    -0.388 OA
ATOM      7  H   UNL     1     -52.094 -52.160  17.952  1.00  0.00     0.211 HD
ENDBRANCH   2   6
ENDBRANCH   1   2
BRANCH   1   8
ATOM      8  C   UNL     1     -49.026 -51.210  17.911  1.00  0.00     0.171 C 
BRANCH   8   9
ATOM      9  C   UNL     1     -47.701 -50.551  17.476  1.00  0.00     0.190 C 
BRANCH   9  10
ATOM     10  O   UNL     1     -47.275 -49.626  18.440  1.00  0.00    -0.394 OA
ATOM     11  H   UNL     1     -47.817 -48.807  18.295  1.00  0.00     0.210 HD
ENDBRANCH   9  10
ENDBRANCH   8   9
BRANCH   8  12
ATOM     12  O   UNL     1     -48.730 -52.412  18.579  1.00  0.00    -0.388 OA
ATOM     13  H   UNL     1     -48.308 -52.169  19.446  1.00  0.00     0.211 HD
ENDBRANCH   8  12
ENDBRANCH   1   8
BRANCH   1  14
ATOM     14  O   UNL     1     -49.390 -50.509  20.178  1.00  0.00    -0.388 OA
ATOM     15  H   UNL     1     -48.406 -50.381  20.152  1.00  0.00     0.211 HD
ENDBRANCH   1  14
TORSDOF 9
ENDMDL
MODEL 7
REMARK VINA RESULT:    -4.380     13.812     15.521
REMARK INTER + INTRA:          -7.010
REMARK INTER:                  -6.040
REMARK INTRA:                  -0.971
REMARK UNBOUND:                -0.966
REMARK SMILES OC[C@@H](O)[C@H](O)[C@@H](O)CO
REMARK SMILES IDX 5 1 7 2 9 3 10 4 8 6 3 8 2 9 1 10 4 12 6 14
REMARK H PARENT 10 5 8 7 1 11 4 13 6 15
REMARK Flexibility Score: inf
ROOT
ATOM      1  C   UNL     1     -48.534 -50.400  16.882  1.00  0.00     0.176 C 
ENDROOT
BRANCH   1   2
ATOM      2  C   UNL     1     -49.578 -51.200  16.056  1.00  0.00     0.171 C 
BRANCH   2   3
ATOM      3  C   UNL     1     -49.350 -51.105  14.535  1.00  0.00     0.190 C 
BRANCH   3   4
ATOM      4  O   UNL     1     -49.826 -49.879  14.047  1.00  0.00    -0.394 OA
ATOM      5  H   UNL     1     -49.827 -49.945  13.057  1.00  0.00     0.210 HD
ENDBRANCH   3   4
ENDBRANCH   2   3
BRANCH   2   6
ATOM      6  O   UNL     1     -50.878 -50.783  16.387  1.00  0.00    -0.388 OA
ATOM      7  H   UNL     1     -51.371 -50.653  15.534  1.00  0.00     0.211 HD
ENDBRANCH   2   6
ENDBRANCH   1   2
BRANCH   1   8
ATOM      8  C   UNL     1     -48.582 -50.610  18.419  1.00  0.00     0.171 C 
BRANCH   8   9
ATOM      9  C   UNL     1     -49.199 -49.421  19.182  1.00  0.00     0.190 C 
BRANCH   9  10
ATOM     10  O   UNL     1     -50.528 -49.219  18.782  1.00  0.00    -0.394 OA
ATOM     11  H   UNL     1     -50.717 -49.910  18.095  1.00  0.00     0.210 HD
ENDBRANCH   9  10
ENDBRANCH   8   9
BRANCH   8  12
ATOM     12  O   UNL     1     -49.356 -51.756  18.676  1.00  0.00    -0.388 OA
ATOM     13  H   UNL     1     -50.288 -51.451  18.835  1.00  0.00     0.211 HD
ENDBRANCH   8  12
ENDBRANCH   1   8
BRANCH   1  14
ATOM     14  O   UNL     1     -48.693 -49.027  16.618  1.00  0.00    -0.388 OA
ATOM     15  H   UNL     1     -49.334 -48.671  17.288  1.00  0.00     0.211 HD
ENDBRANCH   1  14
TORSDOF 9
ENDMDL
MODEL 8
REMARK VINA RESULT:    -4.170      2.707      3.520
REMARK INTER + INTRA:          -6.720
REMARK INTER:                  -5.768
REMARK INTRA:                  -0.953
REMARK UNBOUND:                -0.966
REMARK SMILES OC[C@@H](O)[C@H](O)[C@@H](O)CO
REMARK SMILES IDX 5 1 7 2 9 3 10 4 8 6 3 8 2 9 1 10 4 12 6 14
REMARK H PARENT 10 5 8 7 1 11 4 13 6 15
REMARK Flexibility Score: inf
ROOT
ATOM      1  C   UNL     1     -41.628 -49.520  29.443  1.00  0.00     0.176 C 
ENDROOT
BRANCH   1   2
ATOM      2  C   UNL     1     -42.432 -50.843  29.320  1.00  0.00     0.171 C 
BRANCH   2   3
ATOM      3  C   UNL     1     -43.152 -51.239  30.623  1.00  0.00     0.190 C 
BRANCH   3   4
ATOM      4  O   UNL     1     -42.232 -51.737  31.557  1.00  0.00    -0.394 OA
ATOM      5  H   UNL     1     -42.760 -52.117  32.306  1.00  0.00     0.210 HD
ENDBRANCH   3   4
ENDBRANCH   2   3
BRANCH   2   6
ATOM      6  O   UNL     1     -41.589 -51.881  28.887  1.00  0.00    -0.388 OA
ATOM      7  H   UNL     1     -42.094 -52.731  28.991  1.00  0.00     0.211 HD
ENDBRANCH   2   6
ENDBRANCH   1   2
BRANCH   1   8
ATOM      8  C   UNL     1     -41.118 -48.912  28.109  1.00  0.00     0.171 C 
BRANCH   8   9
ATOM      9  C   UNL     1     -39.611 -49.135  27.870  1.00  0.00     0.190 C 
BRANCH   9  10
ATOM     10  O   UNL     1     -39.370 -50.454  27.463  1.00  0.00    -0.394 OA
ATOM     11  H   UNL     1     -39.399 -50.447  26.471  1.00  0.00     0.210 HD
ENDBRANCH   9  10
ENDBRANCH   8   9
BRANCH   8  12
ATOM     12  O   UNL     1     -41.831 -49.513  27.057  1.00  0.00    -0.388 OA
ATOM     13  H   UNL     1     -41.363 -49.278  26.213  1.00  0.00     0.211 HD
ENDBRANCH   8  12
ENDBRANCH   1   8
BRANCH   1  14
ATOM     14  O   UNL     1     -40.521 -49.731  30.285  1.00  0.00    -0.388 OA
ATOM     15  H   UNL     1     -39.881 -48.990  30.121  1.00  0.00     0.211 HD
ENDBRANCH   1  14
TORSDOF 9
ENDMDL
MODEL 9
REMARK VINA RESULT:    -4.109     13.958     15.483
REMARK INTER + INTRA:          -6.637
REMARK INTER:                  -6.180
REMARK INTRA:                  -0.457
REMARK UNBOUND:                -0.966
REMARK SMILES OC[C@@H](O)[C@H](O)[C@@H](O)CO
REMARK SMILES IDX 5 1 7 2 9 3 10 4 8 6 3 8 2 9 1 10 4 12 6 14
REMARK H PARENT 10 5 8 7 1 11 4 13 6 15
REMARK Flexibility Score: inf
ROOT
ATOM      1  C   UNL     1     -48.148 -50.890  16.321  1.00  0.00     0.176 C 
ENDROOT
BRANCH   1   2
ATOM      2  C   UNL     1     -48.496 -50.002  17.548  1.00  0.00     0.171 C 
BRANCH   2   3
ATOM      3  C   UNL     1     -47.322 -49.119  18.010  1.00  0.00     0.190 C 
BRANCH   3   4
ATOM      4  O   UNL     1     -47.005 -48.174  17.023  1.00  0.00    -0.394 OA
ATOM      5  H   UNL     1     -46.492 -47.452  17.471  1.00  0.00     0.210 HD
ENDBRANCH   3   4
ENDBRANCH   2   3
BRANCH   2   6
ATOM      6  O   UNL     1     -48.959 -50.802  18.606  1.00  0.00    -0.388 OA
ATOM      7  H   UNL     1     -49.355 -51.620  18.206  1.00  0.00     0.211 HD
ENDBRANCH   2   6
ENDBRANCH   1   2
BRANCH   1   8
ATOM      8  C   UNL     1     -48.896 -50.550  15.005  1.00  0.00     0.171 C 
BRANCH   8   9
ATOM      9  C   UNL     1     -50.292 -51.197  14.909  1.00  0.00     0.190 C 
BRANCH   9  10
ATOM     10  O   UNL     1     -50.969 -51.084  16.131  1.00  0.00    -0.394 OA
ATOM     11  H   UNL     1     -51.154 -50.117  16.256  1.00  0.00     0.210 HD
ENDBRANCH   9  10
ENDBRANCH   8   9
BRANCH   8  12
ATOM     12  O   UNL     1     -49.045 -49.153  14.940  1.00  0.00    -0.388 OA
ATOM     13  H   UNL     1     -49.926 -48.933  15.344  1.00  0.00     0.211 HD
ENDBRANCH   8  12
ENDBRANCH   1   8
BRANCH   1  14
ATOM     14  O   UNL     1     -48.403 -52.236  16.641  1.00  0.00    -0.388 OA
ATOM     15  H   UNL     1     -49.375 -52.391  16.507  1.00  0.00     0.211 HD
ENDBRANCH   1  14
TORSDOF 9
ENDMDL
