MODEL 1
REMARK VINA RESULT:    -5.358      0.000      0.000
REMARK INTER + INTRA:         -11.656
REMARK INTER:                  -9.430
REMARK INTRA:                  -2.227
REMARK UNBOUND:                -2.227
REMARK SMILES CCCCCCCCCCCCCCC(=O)[O-]
REMARK SMILES IDX 9 1 10 2 11 3 12 4 13 5 14 6 15 7 16 8 17 9 8 10 7 11 6 12
REMARK SMILES IDX 5 13 4 14 3 15 2 16 1 17
REMARK H PARENT
REMARK Flexibility Score: inf
ROOT
ATOM      1  C   UNL     1       8.414   6.679  18.798  1.00  0.00     0.000 C 
ENDROOT
BRANCH   1   2
ATOM      2  C   UNL     1       7.997   5.573  19.775  1.00  0.00     0.000 C 
BRANCH   2   3
ATOM      3  C   UNL     1       8.861   5.600  21.041  1.00  0.00     0.000 C 
BRANCH   3   4
ATOM      4  C   UNL     1       9.366   7.020  21.331  1.00  0.00     0.000 C 
BRANCH   4   5
ATOM      5  C   UNL     1      10.888   7.078  21.537  1.00  0.00     0.006 C 
BRANCH   5   6
ATOM      6  C   UNL     1      11.439   8.509  21.473  1.00  0.00     0.053 C 
BRANCH   6   7
ATOM      7  C   UNL     1      12.935   8.490  21.445  1.00  0.00     0.041 C 
ATOM      8  O   UNL     1      13.588   8.405  22.518  1.00  0.00    -0.550 OA
ATOM      9  O   UNL     1      13.609   8.616  20.236  1.00  0.00    -0.550 OA
ENDBRANCH   6   7
ENDBRANCH   5   6
ENDBRANCH   4   5
ENDBRANCH   3   4
ENDBRANCH   2   3
ENDBRANCH   1   2
BRANCH   1  10
ATOM     10  C   UNL     1       8.916   6.088  17.476  1.00  0.00     0.000 C 
BRANCH  10  11
ATOM     11  C   UNL     1      10.199   6.793  17.010  1.00  0.00    -0.000 C 
BRANCH  11  12
ATOM     12  C   UNL     1      11.257   6.894  18.120  1.00  0.00    -0.000 C 
BRANCH  12  13
ATOM     13  C   UNL     1      12.231   5.703  18.117  1.00  0.00    -0.000 C 
BRANCH  13  14
ATOM     14  C   UNL     1      11.804   4.577  19.077  1.00  0.00    -0.000 C 
BRANCH  14  15
ATOM     15  C   UNL     1      11.045   3.411  18.421  1.00  0.00    -0.000 C 
BRANCH  15  16
ATOM     16  C   UNL     1      10.138   2.657  19.403  1.00  0.00    -0.003 C 
ATOM     17  C   UNL     1       8.930   2.057  18.688  1.00  0.00     0.004 C 
ENDBRANCH  15  16
ENDBRANCH  14  15
ENDBRANCH  13  14
ENDBRANCH  12  13
ENDBRANCH  11  12
ENDBRANCH  10  11
ENDBRANCH   1  10
TORSDOF 13
ENDMDL
MODEL 2
REMARK VINA RESULT:    -5.265      1.074      2.600
REMARK INTER + INTRA:         -11.493
REMARK INTER:                  -9.325
REMARK INTRA:                  -2.168
REMARK UNBOUND:                -2.227
REMARK SMILES CCCCCCCCCCCCCCC(=O)[O-]
REMARK SMILES IDX 9 1 10 2 11 3 12 4 13 5 14 6 15 7 16 8 17 9 8 10 7 11 6 12
REMARK SMILES IDX 5 13 4 14 3 15 2 16 1 17
REMARK H PARENT
REMARK Flexibility Score: inf
ROOT
ATOM      1  C   UNL     1       9.056   7.026  18.161  1.00  0.00     0.000 C 
ENDROOT
BRANCH   1   2
ATOM      2  C   UNL     1      10.258   6.743  17.253  1.00  0.00     0.000 C 
BRANCH   2   3
ATOM      3  C   UNL     1      11.492   6.352  18.075  1.00  0.00     0.000 C 
BRANCH   3   4
ATOM      4  C   UNL     1      11.908   7.492  19.016  1.00  0.00     0.000 C 
BRANCH   4   5
ATOM      5  C   UNL     1      11.899   7.072  20.495  1.00  0.00     0.006 C 
BRANCH   5   6
ATOM      6  C   UNL     1      11.351   8.171  21.416  1.00  0.00     0.053 C 
BRANCH   6   7
ATOM      7  C   UNL     1      12.472   8.990  21.973  1.00  0.00     0.041 C 
ATOM      8  O   UNL     1      12.229  10.068  22.578  1.00  0.00    -0.550 OA
ATOM      9  O   UNL     1      13.788   8.589  21.783  1.00  0.00    -0.550 OA
ENDBRANCH   6   7
ENDBRANCH   5   6
ENDBRANCH   4   5
ENDBRANCH   3   4
ENDBRANCH   2   3
ENDBRANCH   1   2
BRANCH   1  10
ATOM     10  C   UNL     1       7.956   5.976  17.964  1.00  0.00     0.000 C 
BRANCH  10  11
ATOM     11  C   UNL     1       7.756   5.144  19.239  1.00  0.00    -0.000 C 
BRANCH  11  12
ATOM     12  C   UNL     1       8.558   5.685  20.434  1.00  0.00    -0.000 C 
BRANCH  12  13
ATOM     13  C   UNL     1       9.294   4.573  21.203  1.00  0.00    -0.000 C 
BRANCH  13  14
ATOM     14  C   UNL     1      10.319   3.821  20.335  1.00  0.00    -0.000 C 
BRANCH  14  15
ATOM     15  C   UNL     1       9.965   2.356  20.027  1.00  0.00    -0.000 C 
BRANCH  15  16
ATOM     16  C   UNL     1       9.439   2.153  18.599  1.00  0.00    -0.003 C 
ATOM     17  C   UNL     1      10.288   2.915  17.586  1.00  0.00     0.004 C 
ENDBRANCH  15  16
ENDBRANCH  14  15
ENDBRANCH  13  14
ENDBRANCH  12  13
ENDBRANCH  11  12
ENDBRANCH  10  11
ENDBRANCH   1  10
TORSDOF 13
ENDMDL
MODEL 3
REMARK VINA RESULT:    -5.252     18.588     20.183
REMARK INTER + INTRA:         -11.471
REMARK INTER:                  -8.928
REMARK INTRA:                  -2.542
REMARK UNBOUND:                -2.227
REMARK SMILES CCCCCCCCCCCCCCC(=O)[O-]
REMARK SMILES IDX 9 1 10 2 11 3 12 4 13 5 14 6 15 7 16 8 17 9 8 10 7 11 6 12
REMARK SMILES IDX 5 13 4 14 3 15 2 16 1 17
REMARK H PARENT
REMARK Flexibility Score: inf
ROOT
ATOM      1  C   UNL     1      19.179  -6.445  35.016  1.00  0.00     0.000 C 
ENDROOT
BRANCH   1   2
ATOM      2  C   UNL     1      19.244  -6.356  33.487  1.00  0.00     0.000 C 
BRANCH   2   3
ATOM      3  C   UNL     1      19.117  -4.904  33.011  1.00  0.00     0.000 C 
BRANCH   3   4
ATOM      4  C   UNL     1      19.307  -3.926  34.179  1.00  0.00     0.000 C 
BRANCH   4   5
ATOM      5  C   UNL     1      18.167  -2.900  34.285  1.00  0.00     0.006 C 
BRANCH   5   6
ATOM      6  C   UNL     1      17.974  -2.377  35.714  1.00  0.00     0.053 C 
BRANCH   6   7
ATOM      7  C   UNL     1      18.484  -0.976  35.830  1.00  0.00     0.041 C 
ATOM      8  O   UNL     1      19.591  -0.748  36.387  1.00  0.00    -0.550 OA
ATOM      9  O   UNL     1      17.716   0.085  35.367  1.00  0.00    -0.550 OA
ENDBRANCH   6   7
ENDBRANCH   5   6
ENDBRANCH   4   5
ENDBRANCH   3   4
ENDBRANCH   2   3
ENDBRANCH   1   2
BRANCH   1  10
ATOM     10  C   UNL     1      18.502  -7.745  35.466  1.00  0.00     0.000 C 
BRANCH  10  11
ATOM     11  C   UNL     1      17.153  -7.458  36.142  1.00  0.00    -0.000 C 
BRANCH  11  12
ATOM     12  C   UNL     1      17.026  -6.002  36.618  1.00  0.00    -0.000 C 
BRANCH  12  13
ATOM     13  C   UNL     1      15.870  -5.255  35.930  1.00  0.00    -0.000 C 
BRANCH  13  14
ATOM     14  C   UNL     1      15.279  -6.032  34.739  1.00  0.00    -0.000 C 
BRANCH  14  15
ATOM     15  C   UNL     1      15.575  -5.429  33.355  1.00  0.00    -0.000 C 
BRANCH  15  16
ATOM     16  C   UNL     1      15.862  -6.493  32.286  1.00  0.00    -0.003 C 
ATOM     17  C   UNL     1      15.744  -7.901  32.864  1.00  0.00     0.004 C 
ENDBRANCH  15  16
ENDBRANCH  14  15
ENDBRANCH  13  14
ENDBRANCH  12  13
ENDBRANCH  11  12
ENDBRANCH  10  11
ENDBRANCH   1  10
TORSDOF 13
ENDMDL
MODEL 4
REMARK VINA RESULT:    -5.208     18.902     20.560
REMARK INTER + INTRA:         -11.393
REMARK INTER:                  -9.199
REMARK INTRA:                  -2.194
REMARK UNBOUND:                -2.227
REMARK SMILES CCCCCCCCCCCCCCC(=O)[O-]
REMARK SMILES IDX 9 1 10 2 11 3 12 4 13 5 14 6 15 7 16 8 17 9 8 10 7 11 6 12
REMARK SMILES IDX 5 13 4 14 3 15 2 16 1 17
REMARK H PARENT
REMARK Flexibility Score: inf
ROOT
ATOM      1  C   UNL     1      16.733  -5.381  36.646  1.00  0.00     0.000 C 
ENDROOT
BRANCH   1   2
ATOM      2  C   UNL     1      15.611  -4.881  35.728  1.00  0.00     0.000 C 
BRANCH   2   3
ATOM      3  C   UNL     1      15.220  -5.950  34.701  1.00  0.00     0.000 C 
BRANCH   3   4
ATOM      4  C   UNL     1      15.511  -5.472  33.272  1.00  0.00     0.000 C 
BRANCH   4   5
ATOM      5  C   UNL     1      15.897  -6.622  32.328  1.00  0.00     0.006 C 
BRANCH   5   6
ATOM      6  C   UNL     1      15.784  -7.998  32.999  1.00  0.00     0.053 C 
BRANCH   6   7
ATOM      7  C   UNL     1      15.740  -9.079  31.965  1.00  0.00     0.041 C 
ATOM      8  O   UNL     1      16.757  -9.328  31.265  1.00  0.00    -0.550 OA
ATOM      9  O   UNL     1      14.562  -9.780  31.741  1.00  0.00    -0.550 OA
ENDBRANCH   6   7
ENDBRANCH   5   6
ENDBRANCH   4   5
ENDBRANCH   3   4
ENDBRANCH   2   3
ENDBRANCH   1   2
BRANCH   1  10
ATOM     10  C   UNL     1      17.458  -6.582  36.029  1.00  0.00     0.000 C 
BRANCH  10  11
ATOM     11  C   UNL     1      18.881  -6.202  35.595  1.00  0.00    -0.000 C 
BRANCH  11  12
ATOM     12  C   UNL     1      19.084  -6.299  34.075  1.00  0.00    -0.000 C 
BRANCH  12  13
ATOM     13  C   UNL     1      19.066  -4.922  33.388  1.00  0.00    -0.000 C 
BRANCH  13  14
ATOM     14  C   UNL     1      19.292  -3.759  34.372  1.00  0.00    -0.000 C 
BRANCH  14  15
ATOM     15  C   UNL     1      18.166  -2.711  34.415  1.00  0.00    -0.000 C 
BRANCH  15  16
ATOM     16  C   UNL     1      18.093  -1.963  35.754  1.00  0.00    -0.003 C 
ATOM     17  C   UNL     1      18.137  -0.452  35.543  1.00  0.00     0.004 C 
ENDBRANCH  15  16
ENDBRANCH  14  15
ENDBRANCH  13  14
ENDBRANCH  12  13
ENDBRANCH  11  12
ENDBRANCH  10  11
ENDBRANCH   1  10
TORSDOF 13
ENDMDL
MODEL 5
REMARK VINA RESULT:    -5.171     18.496     19.952
REMARK INTER + INTRA:         -11.328
REMARK INTER:                  -8.980
REMARK INTRA:                  -2.348
REMARK UNBOUND:                -2.227
REMARK SMILES CCCCCCCCCCCCCCC(=O)[O-]
REMARK SMILES IDX 9 1 10 2 11 3 12 4 13 5 14 6 15 7 16 8 17 9 8 10 7 11 6 12
REMARK SMILES IDX 5 13 4 14 3 15 2 16 1 17
REMARK H PARENT
REMARK Flexibility Score: inf
ROOT
ATOM      1  C   UNL     1      18.503  -7.213  35.573  1.00  0.00     0.000 C 
ENDROOT
BRANCH   1   2
ATOM      2  C   UNL     1      18.387  -5.842  36.251  1.00  0.00     0.000 C 
BRANCH   2   3
ATOM      3  C   UNL     1      16.964  -5.602  36.770  1.00  0.00     0.000 C 
BRANCH   3   4
ATOM      4  C   UNL     1      16.492  -4.180  36.438  1.00  0.00     0.000 C 
BRANCH   4   5
ATOM      5  C   UNL     1      17.658  -3.218  36.157  1.00  0.00     0.006 C 
BRANCH   5   6
ATOM      6  C   UNL     1      17.432  -1.825  36.760  1.00  0.00     0.053 C 
BRANCH   6   7
ATOM      7  C   UNL     1      18.266  -0.808  36.046  1.00  0.00     0.041 C 
ATOM      8  O   UNL     1      17.847  -0.278  34.983  1.00  0.00    -0.550 OA
ATOM      9  O   UNL     1      19.526  -0.480  36.528  1.00  0.00    -0.550 OA
ENDBRANCH   6   7
ENDBRANCH   5   6
ENDBRANCH   4   5
ENDBRANCH   3   4
ENDBRANCH   2   3
ENDBRANCH   1   2
BRANCH   1  10
ATOM     10  C   UNL     1      18.968  -7.073  34.119  1.00  0.00     0.000 C 
BRANCH  10  11
ATOM     11  C   UNL     1      19.175  -5.597  33.748  1.00  0.00    -0.000 C 
BRANCH  11  12
ATOM     12  C   UNL     1      18.395  -5.185  32.489  1.00  0.00    -0.000 C 
BRANCH  12  13
ATOM     13  C   UNL     1      16.984  -4.663  32.814  1.00  0.00    -0.000 C 
BRANCH  13  14
ATOM     14  C   UNL     1      15.872  -5.647  32.407  1.00  0.00    -0.000 C 
BRANCH  14  15
ATOM     15  C   UNL     1      15.205  -6.398  33.572  1.00  0.00    -0.000 C 
BRANCH  15  16
ATOM     16  C   UNL     1      15.450  -7.913  33.529  1.00  0.00    -0.003 C 
ATOM     17  C   UNL     1      16.003  -8.343  32.173  1.00  0.00     0.004 C 
ENDBRANCH  15  16
ENDBRANCH  14  15
ENDBRANCH  13  14
ENDBRANCH  12  13
ENDBRANCH  11  12
ENDBRANCH  10  11
ENDBRANCH   1  10
TORSDOF 13
ENDMDL
MODEL 6
REMARK VINA RESULT:    -5.153     18.991     20.444
REMARK INTER + INTRA:         -11.295
REMARK INTER:                  -8.892
REMARK INTRA:                  -2.403
REMARK UNBOUND:                -2.227
REMARK SMILES CCCCCCCCCCCCCCC(=O)[O-]
REMARK SMILES IDX 9 1 10 2 11 3 12 4 13 5 14 6 15 7 16 8 17 9 8 10 7 11 6 12
REMARK SMILES IDX 5 13 4 14 3 15 2 16 1 17
REMARK H PARENT
REMARK Flexibility Score: inf
ROOT
ATOM      1  C   UNL     1      16.513  -5.034  36.598  1.00  0.00     0.000 C 
ENDROOT
BRANCH   1   2
ATOM      2  C   UNL     1      15.329  -4.883  35.636  1.00  0.00     0.000 C 
BRANCH   2   3
ATOM      3  C   UNL     1      15.253  -6.066  34.663  1.00  0.00     0.000 C 
BRANCH   3   4
ATOM      4  C   UNL     1      15.526  -5.610  33.223  1.00  0.00     0.000 C 
BRANCH   4   5
ATOM      5  C   UNL     1      15.825  -6.785  32.277  1.00  0.00     0.006 C 
BRANCH   5   6
ATOM      6  C   UNL     1      15.465  -8.144  32.892  1.00  0.00     0.053 C 
BRANCH   6   7
ATOM      7  C   UNL     1      15.671  -9.239  31.893  1.00  0.00     0.041 C 
ATOM      8  O   UNL     1      14.694  -9.928  31.498  1.00  0.00    -0.550 OA
ATOM      9  O   UNL     1      16.949  -9.531  31.435  1.00  0.00    -0.550 OA
ENDBRANCH   6   7
ENDBRANCH   5   6
ENDBRANCH   4   5
ENDBRANCH   3   4
ENDBRANCH   2   3
ENDBRANCH   1   2
BRANCH   1  10
ATOM     10  C   UNL     1      17.587  -3.974  36.324  1.00  0.00     0.000 C 
BRANCH  10  11
ATOM     11  C   UNL     1      17.134  -3.005  35.222  1.00  0.00    -0.000 C 
BRANCH  11  12
ATOM     12  C   UNL     1      18.039  -3.054  33.980  1.00  0.00    -0.000 C 
BRANCH  12  13
ATOM     13  C   UNL     1      19.175  -4.083  34.118  1.00  0.00    -0.000 C 
BRANCH  13  14
ATOM     14  C   UNL     1      19.249  -5.056  32.927  1.00  0.00    -0.000 C 
BRANCH  14  15
ATOM     15  C   UNL     1      19.123  -6.545  33.292  1.00  0.00    -0.000 C 
BRANCH  15  16
ATOM     16  C   UNL     1      19.120  -6.795  34.807  1.00  0.00    -0.003 C 
ATOM     17  C   UNL     1      18.348  -8.064  35.154  1.00  0.00     0.004 C 
ENDBRANCH  15  16
ENDBRANCH  14  15
ENDBRANCH  13  14
ENDBRANCH  12  13
ENDBRANCH  11  12
ENDBRANCH  10  11
ENDBRANCH   1  10
TORSDOF 13
ENDMDL
MODEL 7
REMARK VINA RESULT:    -5.152      3.555      6.000
REMARK INTER + INTRA:         -11.293
REMARK INTER:                  -8.989
REMARK INTRA:                  -2.305
REMARK UNBOUND:                -2.227
REMARK SMILES CCCCCCCCCCCCCCC(=O)[O-]
REMARK SMILES IDX 9 1 10 2 11 3 12 4 13 5 14 6 15 7 16 8 17 9 8 10 7 11 6 12
REMARK SMILES IDX 5 13 4 14 3 15 2 16 1 17
REMARK H PARENT
REMARK Flexibility Score: inf
ROOT
ATOM      1  C   UNL     1      10.973   6.470  17.735  1.00  0.00     0.000 C 
ENDROOT
BRANCH   1   2
ATOM      2  C   UNL     1      11.872   5.379  18.329  1.00  0.00     0.000 C 
BRANCH   2   3
ATOM      3  C   UNL     1      11.183   4.010  18.286  1.00  0.00     0.000 C 
BRANCH   3   4
ATOM      4  C   UNL     1      10.990   3.448  19.702  1.00  0.00     0.000 C 
BRANCH   4   5
ATOM      5  C   UNL     1       9.872   2.395  19.774  1.00  0.00     0.006 C 
BRANCH   5   6
ATOM      6  C   UNL     1       9.143   2.216  18.436  1.00  0.00     0.053 C 
BRANCH   6   7
ATOM      7  C   UNL     1       8.567   0.838  18.336  1.00  0.00     0.041 C 
ATOM      8  O   UNL     1       8.632   0.053  19.318  1.00  0.00    -0.550 OA
ATOM      9  O   UNL     1       8.004   0.405  17.143  1.00  0.00    -0.550 OA
ENDBRANCH   6   7
ENDBRANCH   5   6
ENDBRANCH   4   5
ENDBRANCH   3   4
ENDBRANCH   2   3
ENDBRANCH   1   2
BRANCH   1  10
ATOM     10  C   UNL     1       9.532   5.970  17.573  1.00  0.00     0.000 C 
BRANCH  10  11
ATOM     11  C   UNL     1       8.605   6.618  18.613  1.00  0.00    -0.000 C 
BRANCH  11  12
ATOM     12  C   UNL     1       8.009   5.597  19.595  1.00  0.00    -0.000 C 
BRANCH  12  13
ATOM     13  C   UNL     1       8.502   5.808  21.037  1.00  0.00    -0.000 C 
BRANCH  13  14
ATOM     14  C   UNL     1       9.521   6.955  21.160  1.00  0.00    -0.000 C 
BRANCH  14  15
ATOM     15  C   UNL     1      10.913   6.542  21.670  1.00  0.00    -0.000 C 
BRANCH  15  16
ATOM     16  C   UNL     1      12.022   7.512  21.242  1.00  0.00    -0.003 C 
ATOM     17  C   UNL     1      11.756   8.920  21.768  1.00  0.00     0.004 C 
ENDBRANCH  15  16
ENDBRANCH  14  15
ENDBRANCH  13  14
ENDBRANCH  12  13
ENDBRANCH  11  12
ENDBRANCH  10  11
ENDBRANCH   1  10
TORSDOF 13
ENDMDL
MODEL 8
REMARK VINA RESULT:    -5.023     18.909     20.691
REMARK INTER + INTRA:         -11.067
REMARK INTER:                  -9.089
REMARK INTRA:                  -1.979
REMARK UNBOUND:                -2.227
REMARK SMILES CCCCCCCCCCCCCCC(=O)[O-]
REMARK SMILES IDX 9 1 10 2 11 3 12 4 13 5 14 6 15 7 16 8 17 9 8 10 7 11 6 12
REMARK SMILES IDX 5 13 4 14 3 15 2 16 1 17
REMARK H PARENT
REMARK Flexibility Score: inf
ROOT
ATOM      1  C   UNL     1      16.973  -5.308  36.727  1.00  0.00     0.000 C 
ENDROOT
BRANCH   1   2
ATOM      2  C   UNL     1      17.928  -6.490  36.929  1.00  0.00     0.000 C 
BRANCH   2   3
ATOM      3  C   UNL     1      18.905  -6.618  35.754  1.00  0.00     0.000 C 
BRANCH   3   4
ATOM      4  C   UNL     1      18.517  -7.791  34.842  1.00  0.00     0.000 C 
BRANCH   4   5
ATOM      5  C   UNL     1      18.172  -7.342  33.413  1.00  0.00     0.006 C 
BRANCH   5   6
ATOM      6  C   UNL     1      17.703  -8.503  32.527  1.00  0.00     0.053 C 
BRANCH   6   7
ATOM      7  C   UNL     1      16.243  -8.373  32.226  1.00  0.00     0.041 C 
ATOM      8  O   UNL     1      15.468  -7.847  33.068  1.00  0.00    -0.550 OA
ATOM      9  O   UNL     1      15.730  -8.877  31.038  1.00  0.00    -0.550 OA
ENDBRANCH   6   7
ENDBRANCH   5   6
ENDBRANCH   4   5
ENDBRANCH   3   4
ENDBRANCH   2   3
ENDBRANCH   1   2
BRANCH   1  10
ATOM     10  C   UNL     1      15.792  -5.698  35.831  1.00  0.00     0.000 C 
BRANCH  10  11
ATOM     11  C   UNL     1      15.358  -4.519  34.948  1.00  0.00    -0.000 C 
BRANCH  11  12
ATOM     12  C   UNL     1      16.172  -4.420  33.648  1.00  0.00    -0.000 C 
BRANCH  12  13
ATOM     13  C   UNL     1      17.050  -3.158  33.595  1.00  0.00    -0.000 C 
BRANCH  13  14
ATOM     14  C   UNL     1      18.524  -3.439  33.941  1.00  0.00    -0.000 C 
BRANCH  14  15
ATOM     15  C   UNL     1      19.048  -2.725  35.199  1.00  0.00    -0.000 C 
BRANCH  15  16
ATOM     16  C   UNL     1      17.971  -1.892  35.909  1.00  0.00    -0.003 C 
ATOM     17  C   UNL     1      18.124  -0.407  35.589  1.00  0.00     0.004 C 
ENDBRANCH  15  16
ENDBRANCH  14  15
ENDBRANCH  13  14
ENDBRANCH  12  13
ENDBRANCH  11  12
ENDBRANCH  10  11
ENDBRANCH   1  10
TORSDOF 13
ENDMDL
MODEL 9
REMARK VINA RESULT:    -4.999      1.094      2.943
REMARK INTER + INTRA:         -11.025
REMARK INTER:                  -8.633
REMARK INTRA:                  -2.393
REMARK UNBOUND:                -2.227
REMARK SMILES CCCCCCCCCCCCCCC(=O)[O-]
REMARK SMILES IDX 9 1 10 2 11 3 12 4 13 5 14 6 15 7 16 8 17 9 8 10 7 11 6 12
REMARK SMILES IDX 5 13 4 14 3 15 2 16 1 17
REMARK H PARENT
REMARK Flexibility Score: inf
ROOT
ATOM      1  C   UNL     1       9.064   4.123  19.766  1.00  0.00     0.000 C 
ENDROOT
BRANCH   1   2
ATOM      2  C   UNL     1       8.175   5.261  20.283  1.00  0.00     0.000 C 
BRANCH   2   3
ATOM      3  C   UNL     1       8.898   6.084  21.356  1.00  0.00     0.000 C 
BRANCH   3   4
ATOM      4  C   UNL     1       9.367   7.432  20.790  1.00  0.00     0.000 C 
BRANCH   4   5
ATOM      5  C   UNL     1      10.448   8.096  21.660  1.00  0.00     0.006 C 
BRANCH   5   6
ATOM      6  C   UNL     1      11.811   7.402  21.538  1.00  0.00     0.053 C 
BRANCH   6   7
ATOM      7  C   UNL     1      12.911   8.415  21.516  1.00  0.00     0.041 C 
ATOM      8  O   UNL     1      13.185   9.076  22.553  1.00  0.00    -0.550 OA
ATOM      9  O   UNL     1      13.602   8.666  20.337  1.00  0.00    -0.550 OA
ENDBRANCH   6   7
ENDBRANCH   5   6
ENDBRANCH   4   5
ENDBRANCH   3   4
ENDBRANCH   2   3
ENDBRANCH   1   2
BRANCH   1  10
ATOM     10  C   UNL     1      10.270   3.903  20.687  1.00  0.00     0.000 C 
BRANCH  10  11
ATOM     11  C   UNL     1      11.587   4.169  19.943  1.00  0.00    -0.000 C 
BRANCH  11  12
ATOM     12  C   UNL     1      11.366   4.692  18.514  1.00  0.00    -0.000 C 
BRANCH  12  13
ATOM     13  C   UNL     1      11.929   6.109  18.310  1.00  0.00    -0.000 C 
BRANCH  13  14
ATOM     14  C   UNL     1      10.930   7.057  17.621  1.00  0.00    -0.000 C 
BRANCH  14  15
ATOM     15  C   UNL     1       9.709   6.370  16.986  1.00  0.00    -0.000 C 
BRANCH  15  16
ATOM     16  C   UNL     1       8.406   7.160  17.183  1.00  0.00    -0.003 C 
ATOM     17  C   UNL     1       8.685   8.653  17.328  1.00  0.00     0.004 C 
ENDBRANCH  15  16
ENDBRANCH  14  15
ENDBRANCH  13  14
ENDBRANCH  12  13
ENDBRANCH  11  12
ENDBRANCH  10  11
ENDBRANCH   1  10
TORSDOF 13
ENDMDL
