MODEL 1
REMARK VINA RESULT:    -4.953      0.000      0.000
REMARK INTER + INTRA:         -14.057
REMARK INTER:                 -10.743
REMARK INTRA:                  -3.314
REMARK UNBOUND:                -3.314
REMARK SMILES CCCCCCCCCCCCCCCCCCCCCC(=O)[O-]
REMARK SMILES IDX 12 1 11 2 10 3 9 4 8 5 7 6 6 7 5 8 4 9 3 10 2 11 1 12 13 13
REMARK SMILES IDX 14 14 15 15 16 16 17 17 18 18 19 19 20 20 21 21 22 22 23 23
REMARK SMILES IDX 24 24
REMARK H PARENT
REMARK Flexibility Score: inf
ROOT
ATOM      1  C   UNL     1      15.713  22.237  26.064  1.00  0.00     0.000 C 
ENDROOT
BRANCH   1   2
ATOM      2  C   UNL     1      14.386  21.515  26.354  1.00  0.00     0.000 C 
BRANCH   2   3
ATOM      3  C   UNL     1      14.411  20.746  27.687  1.00  0.00     0.000 C 
BRANCH   3   4
ATOM      4  C   UNL     1      13.131  20.881  28.540  1.00  0.00    -0.000 C 
BRANCH   4   5
ATOM      5  C   UNL     1      12.477  19.549  28.965  1.00  0.00    -0.000 C 
BRANCH   5   6
ATOM      6  C   UNL     1      12.379  19.327  30.485  1.00  0.00    -0.000 C 
BRANCH   6   7
ATOM      7  C   UNL     1      13.725  18.928  31.115  1.00  0.00    -0.000 C 
BRANCH   7   8
ATOM      8  C   UNL     1      14.341  20.048  31.976  1.00  0.00    -0.000 C 
BRANCH   8   9
ATOM      9  C   UNL     1      15.807  20.390  31.652  1.00  0.00    -0.000 C 
BRANCH   9  10
ATOM     10  C   UNL     1      16.345  19.632  30.428  1.00  0.00    -0.000 C 
BRANCH  10  11
ATOM     11  C   UNL     1      17.496  20.400  29.770  1.00  0.00    -0.003 C 
ATOM     12  C   UNL     1      18.121  21.396  30.743  1.00  0.00     0.004 C 
ENDBRANCH  10  11
ENDBRANCH   9  10
ENDBRANCH   8   9
ENDBRANCH   7   8
ENDBRANCH   6   7
ENDBRANCH   5   6
ENDBRANCH   4   5
ENDBRANCH   3   4
ENDBRANCH   2   3
ENDBRANCH   1   2
BRANCH   1  13
ATOM     13  C   UNL     1      15.774  23.632  26.717  1.00  0.00     0.000 C 
BRANCH  13  14
ATOM     14  C   UNL     1      16.686  23.691  27.959  1.00  0.00     0.000 C 
BRANCH  14  15
ATOM     15  C   UNL     1      15.908  23.687  29.289  1.00  0.00     0.000 C 
BRANCH  15  16
ATOM     16  C   UNL     1      14.447  24.145  29.113  1.00  0.00     0.000 C 
BRANCH  16  17
ATOM     17  C   UNL     1      13.615  23.965  30.399  1.00  0.00     0.000 C 
BRANCH  17  18
ATOM     18  C   UNL     1      12.102  24.184  30.205  1.00  0.00     0.000 C 
BRANCH  18  19
ATOM     19  C   UNL     1      11.378  24.500  31.524  1.00  0.00     0.000 C 
BRANCH  19  20
ATOM     20  C   UNL     1      10.109  23.646  31.672  1.00  0.00     0.006 C 
BRANCH  20  21
ATOM     21  C   UNL     1      10.346  22.182  31.271  1.00  0.00     0.053 C 
BRANCH  21  22
ATOM     22  C   UNL     1       9.082  21.516  30.823  1.00  0.00     0.041 C 
ATOM     23  O   UNL     1       7.973  21.871  31.302  1.00  0.00    -0.550 OA
ATOM     24  O   UNL     1       9.132  20.485  29.892  1.00  0.00    -0.550 OA
ENDBRANCH  21  22
ENDBRANCH  20  21
ENDBRANCH  19  20
ENDBRANCH  18  19
ENDBRANCH  17  18
ENDBRANCH  16  17
ENDBRANCH  15  16
ENDBRANCH  14  15
ENDBRANCH  13  14
ENDBRANCH   1  13
TORSDOF 20
ENDMDL
MODEL 2
REMARK VINA RESULT:    -4.852      1.414      3.863
REMARK INTER + INTRA:         -13.839
REMARK INTER:                 -10.892
REMARK INTRA:                  -2.947
REMARK UNBOUND:                -3.314
REMARK SMILES CCCCCCCCCCCCCCCCCCCCCC(=O)[O-]
REMARK SMILES IDX 12 1 11 2 10 3 9 4 8 5 7 6 6 7 5 8 4 9 3 10 2 11 1 12 13 13
REMARK SMILES IDX 14 14 15 15 16 16 17 17 18 18 19 19 20 20 21 21 22 22 23 23
REMARK SMILES IDX 24 24
REMARK H PARENT
REMARK Flexibility Score: inf
ROOT
ATOM      1  C   UNL     1      13.708  21.192  28.463  1.00  0.00     0.000 C 
ENDROOT
BRANCH   1   2
ATOM      2  C   UNL     1      13.833  19.687  28.749  1.00  0.00     0.000 C 
BRANCH   2   3
ATOM      3  C   UNL     1      14.335  19.396  30.175  1.00  0.00     0.000 C 
BRANCH   3   4
ATOM      4  C   UNL     1      15.844  19.092  30.285  1.00  0.00    -0.000 C 
BRANCH   4   5
ATOM      5  C   UNL     1      16.652  20.068  31.167  1.00  0.00    -0.000 C 
BRANCH   5   6
ATOM      6  C   UNL     1      17.676  20.933  30.409  1.00  0.00    -0.000 C 
BRANCH   6   7
ATOM      7  C   UNL     1      17.152  22.349  30.110  1.00  0.00    -0.000 C 
BRANCH   7   8
ATOM      8  C   UNL     1      17.267  22.731  28.623  1.00  0.00    -0.000 C 
BRANCH   8   9
ATOM      9  C   UNL     1      17.044  21.575  27.631  1.00  0.00    -0.000 C 
BRANCH   9  10
ATOM     10  C   UNL     1      16.608  22.054  26.237  1.00  0.00    -0.000 C 
BRANCH  10  11
ATOM     11  C   UNL     1      15.633  23.231  26.343  1.00  0.00    -0.003 C 
ATOM     12  C   UNL     1      16.166  24.456  25.604  1.00  0.00     0.004 C 
ENDBRANCH  10  11
ENDBRANCH   9  10
ENDBRANCH   8   9
ENDBRANCH   7   8
ENDBRANCH   6   7
ENDBRANCH   5   6
ENDBRANCH   4   5
ENDBRANCH   3   4
ENDBRANCH   2   3
ENDBRANCH   1   2
BRANCH   1  13
ATOM     13  C   UNL     1      13.050  21.956  29.629  1.00  0.00     0.000 C 
BRANCH  13  14
ATOM     14  C   UNL     1      13.847  23.197  30.080  1.00  0.00     0.000 C 
BRANCH  14  15
ATOM     15  C   UNL     1      12.993  24.231  30.837  1.00  0.00     0.000 C 
BRANCH  15  16
ATOM     16  C   UNL     1      11.683  24.563  30.096  1.00  0.00     0.000 C 
BRANCH  16  17
ATOM     17  C   UNL     1      10.457  24.542  31.031  1.00  0.00     0.000 C 
BRANCH  17  18
ATOM     18  C   UNL     1      10.451  23.372  32.034  1.00  0.00     0.000 C 
BRANCH  18  19
ATOM     19  C   UNL     1       9.107  22.626  32.062  1.00  0.00     0.000 C 
BRANCH  19  20
ATOM     20  C   UNL     1       8.634  22.291  30.639  1.00  0.00     0.006 C 
BRANCH  20  21
ATOM     21  C   UNL     1       8.549  20.776  30.398  1.00  0.00     0.053 C 
BRANCH  21  22
ATOM     22  C   UNL     1       9.890  20.185  30.093  1.00  0.00     0.041 C 
ATOM     23  O   UNL     1      10.613  19.741  31.023  1.00  0.00    -0.550 OA
ATOM     24  O   UNL     1      10.351  20.146  28.782  1.00  0.00    -0.550 OA
ENDBRANCH  21  22
ENDBRANCH  20  21
ENDBRANCH  19  20
ENDBRANCH  18  19
ENDBRANCH  17  18
ENDBRANCH  16  17
ENDBRANCH  15  16
ENDBRANCH  14  15
ENDBRANCH  13  14
ENDBRANCH   1  13
TORSDOF 20
ENDMDL
MODEL 3
REMARK VINA RESULT:    -4.842      1.856      4.978
REMARK INTER + INTRA:         -13.817
REMARK INTER:                 -11.230
REMARK INTRA:                  -2.587
REMARK UNBOUND:                -3.314
REMARK SMILES CCCCCCCCCCCCCCCCCCCCCC(=O)[O-]
REMARK SMILES IDX 12 1 11 2 10 3 9 4 8 5 7 6 6 7 5 8 4 9 3 10 2 11 1 12 13 13
REMARK SMILES IDX 14 14 15 15 16 16 17 17 18 18 19 19 20 20 21 21 22 22 23 23
REMARK SMILES IDX 24 24
REMARK H PARENT
REMARK Flexibility Score: inf
ROOT
ATOM      1  C   UNL     1      14.238  19.593  29.137  1.00  0.00     0.000 C 
ENDROOT
BRANCH   1   2
ATOM      2  C   UNL     1      14.755  18.899  30.408  1.00  0.00     0.000 C 
BRANCH   2   3
ATOM      3  C   UNL     1      16.255  19.146  30.647  1.00  0.00     0.000 C 
BRANCH   3   4
ATOM      4  C   UNL     1      16.952  20.011  29.575  1.00  0.00    -0.000 C 
BRANCH   4   5
ATOM      5  C   UNL     1      17.842  21.148  30.120  1.00  0.00    -0.000 C 
BRANCH   5   6
ATOM      6  C   UNL     1      17.077  22.350  30.704  1.00  0.00    -0.000 C 
BRANCH   6   7
ATOM      7  C   UNL     1      15.895  22.788  29.821  1.00  0.00    -0.000 C 
BRANCH   7   8
ATOM      8  C   UNL     1      16.333  23.613  28.597  1.00  0.00    -0.000 C 
BRANCH   8   9
ATOM      9  C   UNL     1      15.526  23.355  27.311  1.00  0.00    -0.000 C 
BRANCH   9  10
ATOM     10  C   UNL     1      15.672  21.918  26.788  1.00  0.00    -0.000 C 
BRANCH  10  11
ATOM     11  C   UNL     1      16.614  21.867  25.580  1.00  0.00    -0.003 C 
ATOM     12  C   UNL     1      15.881  22.241  24.295  1.00  0.00     0.004 C 
ENDBRANCH  10  11
ENDBRANCH   9  10
ENDBRANCH   8   9
ENDBRANCH   7   8
ENDBRANCH   6   7
ENDBRANCH   5   6
ENDBRANCH   4   5
ENDBRANCH   3   4
ENDBRANCH   2   3
ENDBRANCH   1   2
BRANCH   1  13
ATOM     13  C   UNL     1      12.725  19.878  29.200  1.00  0.00     0.000 C 
BRANCH  13  14
ATOM     14  C   UNL     1      11.979  19.014  30.238  1.00  0.00     0.000 C 
BRANCH  14  15
ATOM     15  C   UNL     1      10.750  19.715  30.847  1.00  0.00     0.000 C 
BRANCH  15  16
ATOM     16  C   UNL     1       9.963  20.529  29.801  1.00  0.00     0.000 C 
BRANCH  16  17
ATOM     17  C   UNL     1       8.641  21.087  30.363  1.00  0.00     0.000 C 
BRANCH  17  18
ATOM     18  C   UNL     1       8.680  22.595  30.682  1.00  0.00     0.000 C 
BRANCH  18  19
ATOM     19  C   UNL     1       9.155  22.884  32.115  1.00  0.00     0.000 C 
BRANCH  19  20
ATOM     20  C   UNL     1      10.243  23.969  32.125  1.00  0.00     0.006 C 
BRANCH  20  21
ATOM     21  C   UNL     1      10.867  24.177  30.736  1.00  0.00     0.053 C 
BRANCH  21  22
ATOM     22  C   UNL     1      12.334  23.877  30.734  1.00  0.00     0.041 C 
ATOM     23  O   UNL     1      12.747  22.726  31.033  1.00  0.00    -0.550 OA
ATOM     24  O   UNL     1      13.248  24.879  30.426  1.00  0.00    -0.550 OA
ENDBRANCH  21  22
ENDBRANCH  20  21
ENDBRANCH  19  20
ENDBRANCH  18  19
ENDBRANCH  17  18
ENDBRANCH  16  17
ENDBRANCH  15  16
ENDBRANCH  14  15
ENDBRANCH  13  14
ENDBRANCH   1  13
TORSDOF 20
ENDMDL
MODEL 4
REMARK VINA RESULT:    -4.819      3.109      5.801
REMARK INTER + INTRA:         -13.767
REMARK INTER:                 -10.493
REMARK INTRA:                  -3.274
REMARK UNBOUND:                -3.314
REMARK SMILES CCCCCCCCCCCCCCCCCCCCCC(=O)[O-]
REMARK SMILES IDX 12 1 11 2 10 3 9 4 8 5 7 6 6 7 5 8 4 9 3 10 2 11 1 12 13 13
REMARK SMILES IDX 14 14 15 15 16 16 17 17 18 18 19 19 20 20 21 21 22 22 23 23
REMARK SMILES IDX 24 24
REMARK H PARENT
REMARK Flexibility Score: inf
ROOT
ATOM      1  C   UNL     1      11.181  23.799  29.974  1.00  0.00     0.000 C 
ENDROOT
BRANCH   1   2
ATOM      2  C   UNL     1      10.920  23.652  31.483  1.00  0.00     0.000 C 
BRANCH   2   3
ATOM      3  C   UNL     1       9.507  23.125  31.789  1.00  0.00     0.000 C 
BRANCH   3   4
ATOM      4  C   UNL     1       8.754  22.539  30.576  1.00  0.00    -0.000 C 
BRANCH   4   5
ATOM      5  C   UNL     1       8.664  20.998  30.535  1.00  0.00    -0.000 C 
BRANCH   5   6
ATOM      6  C   UNL     1       9.912  20.289  29.976  1.00  0.00    -0.000 C 
BRANCH   6   7
ATOM      7  C   UNL     1      10.721  19.564  31.067  1.00  0.00    -0.000 C 
BRANCH   7   8
ATOM      8  C   UNL     1      12.116  20.180  31.288  1.00  0.00    -0.000 C 
BRANCH   8   9
ATOM      9  C   UNL     1      13.297  19.214  31.085  1.00  0.00    -0.000 C 
BRANCH   9  10
ATOM     10  C   UNL     1      14.160  19.569  29.863  1.00  0.00    -0.000 C 
BRANCH  10  11
ATOM     11  C   UNL     1      13.307  19.639  28.592  1.00  0.00    -0.003 C 
ATOM     12  C   UNL     1      13.307  21.049  28.007  1.00  0.00     0.004 C 
ENDBRANCH  10  11
ENDBRANCH   9  10
ENDBRANCH   8   9
ENDBRANCH   7   8
ENDBRANCH   6   7
ENDBRANCH   5   6
ENDBRANCH   4   5
ENDBRANCH   3   4
ENDBRANCH   2   3
ENDBRANCH   1   2
BRANCH   1  13
ATOM     13  C   UNL     1      12.509  24.524  29.679  1.00  0.00     0.000 C 
BRANCH  13  14
ATOM     14  C   UNL     1      13.622  24.210  30.699  1.00  0.00     0.000 C 
BRANCH  14  15
ATOM     15  C   UNL     1      14.877  23.583  30.061  1.00  0.00     0.000 C 
BRANCH  15  16
ATOM     16  C   UNL     1      15.450  22.431  30.908  1.00  0.00     0.000 C 
BRANCH  16  17
ATOM     17  C   UNL     1      16.962  22.231  30.681  1.00  0.00     0.000 C 
BRANCH  17  18
ATOM     18  C   UNL     1      17.414  22.451  29.224  1.00  0.00     0.000 C 
BRANCH  18  19
ATOM     19  C   UNL     1      17.139  21.231  28.330  1.00  0.00     0.000 C 
BRANCH  19  20
ATOM     20  C   UNL     1      16.749  21.667  26.909  1.00  0.00     0.006 C 
BRANCH  20  21
ATOM     21  C   UNL     1      16.198  23.101  26.874  1.00  0.00     0.053 C 
BRANCH  21  22
ATOM     22  C   UNL     1      16.124  23.635  25.478  1.00  0.00     0.041 C 
ATOM     23  O   UNL     1      16.100  24.877  25.274  1.00  0.00    -0.550 OA
ATOM     24  O   UNL     1      16.056  22.758  24.401  1.00  0.00    -0.550 OA
ENDBRANCH  21  22
ENDBRANCH  20  21
ENDBRANCH  19  20
ENDBRANCH  18  19
ENDBRANCH  17  18
ENDBRANCH  16  17
ENDBRANCH  15  16
ENDBRANCH  14  15
ENDBRANCH  13  14
ENDBRANCH   1  13
TORSDOF 20
ENDMDL
MODEL 5
REMARK VINA RESULT:    -4.808      1.195      4.258
REMARK INTER + INTRA:         -13.744
REMARK INTER:                 -10.940
REMARK INTRA:                  -2.804
REMARK UNBOUND:                -3.314
REMARK SMILES CCCCCCCCCCCCCCCCCCCCCC(=O)[O-]
REMARK SMILES IDX 12 1 11 2 10 3 9 4 8 5 7 6 6 7 5 8 4 9 3 10 2 11 1 12 13 13
REMARK SMILES IDX 14 14 15 15 16 16 17 17 18 18 19 19 20 20 21 21 22 22 23 23
REMARK SMILES IDX 24 24
REMARK H PARENT
REMARK Flexibility Score: inf
ROOT
ATOM      1  C   UNL     1      14.435  19.454  29.119  1.00  0.00     0.000 C 
ENDROOT
BRANCH   1   2
ATOM      2  C   UNL     1      15.110  18.887  30.379  1.00  0.00     0.000 C 
BRANCH   2   3
ATOM      3  C   UNL     1      16.446  19.583  30.696  1.00  0.00     0.000 C 
BRANCH   3   4
ATOM      4  C   UNL     1      17.119  20.279  29.494  1.00  0.00    -0.000 C 
BRANCH   4   5
ATOM      5  C   UNL     1      17.314  21.804  29.637  1.00  0.00    -0.000 C 
BRANCH   5   6
ATOM      6  C   UNL     1      16.097  22.565  30.196  1.00  0.00    -0.000 C 
BRANCH   6   7
ATOM      7  C   UNL     1      15.666  23.737  29.296  1.00  0.00    -0.000 C 
BRANCH   7   8
ATOM      8  C   UNL     1      16.582  23.923  28.072  1.00  0.00    -0.000 C 
BRANCH   8   9
ATOM      9  C   UNL     1      15.905  23.695  26.708  1.00  0.00    -0.000 C 
BRANCH   9  10
ATOM     10  C   UNL     1      15.686  22.208  26.387  1.00  0.00    -0.000 C 
BRANCH  10  11
ATOM     11  C   UNL     1      16.500  21.785  25.160  1.00  0.00    -0.003 C 
ATOM     12  C   UNL     1      15.752  22.099  23.868  1.00  0.00     0.004 C 
ENDBRANCH  10  11
ENDBRANCH   9  10
ENDBRANCH   8   9
ENDBRANCH   7   8
ENDBRANCH   6   7
ENDBRANCH   5   6
ENDBRANCH   4   5
ENDBRANCH   3   4
ENDBRANCH   2   3
ENDBRANCH   1   2
BRANCH   1  13
ATOM     13  C   UNL     1      12.928  19.708  29.327  1.00  0.00     0.000 C 
BRANCH  13  14
ATOM     14  C   UNL     1      12.569  20.130  30.766  1.00  0.00     0.000 C 
BRANCH  14  15
ATOM     15  C   UNL     1      12.677  21.649  31.002  1.00  0.00     0.000 C 
BRANCH  15  16
ATOM     16  C   UNL     1      12.429  22.460  29.716  1.00  0.00     0.000 C 
BRANCH  16  17
ATOM     17  C   UNL     1      12.015  23.916  30.010  1.00  0.00     0.000 C 
BRANCH  17  18
ATOM     18  C   UNL     1      11.778  24.213  31.504  1.00  0.00     0.000 C 
BRANCH  18  19
ATOM     19  C   UNL     1      10.294  24.436  31.834  1.00  0.00     0.000 C 
BRANCH  19  20
ATOM     20  C   UNL     1       9.520  23.109  31.815  1.00  0.00     0.006 C 
BRANCH  20  21
ATOM     21  C   UNL     1       8.769  22.895  30.492  1.00  0.00     0.053 C 
BRANCH  21  22
ATOM     22  C   UNL     1       8.235  21.502  30.373  1.00  0.00     0.041 C 
ATOM     23  O   UNL     1       6.993  21.296  30.370  1.00  0.00    -0.550 OA
ATOM     24  O   UNL     1       9.112  20.426  30.290  1.00  0.00    -0.550 OA
ENDBRANCH  21  22
ENDBRANCH  20  21
ENDBRANCH  19  20
ENDBRANCH  18  19
ENDBRANCH  17  18
ENDBRANCH  16  17
ENDBRANCH  15  16
ENDBRANCH  14  15
ENDBRANCH  13  14
ENDBRANCH   1  13
TORSDOF 20
ENDMDL
MODEL 6
REMARK VINA RESULT:    -4.788      2.850      5.389
REMARK INTER + INTRA:         -13.700
REMARK INTER:                 -10.332
REMARK INTRA:                  -3.367
REMARK UNBOUND:                -3.314
REMARK SMILES CCCCCCCCCCCCCCCCCCCCCC(=O)[O-]
REMARK SMILES IDX 12 1 11 2 10 3 9 4 8 5 7 6 6 7 5 8 4 9 3 10 2 11 1 12 13 13
REMARK SMILES IDX 14 14 15 15 16 16 17 17 18 18 19 19 20 20 21 21 22 22 23 23
REMARK SMILES IDX 24 24
REMARK H PARENT
REMARK Flexibility Score: inf
ROOT
ATOM      1  C   UNL     1      13.543  21.235  28.003  1.00  0.00     0.000 C 
ENDROOT
BRANCH   1   2
ATOM      2  C   UNL     1      14.041  19.941  28.670  1.00  0.00     0.000 C 
BRANCH   2   3
ATOM      3  C   UNL     1      12.889  19.072  29.204  1.00  0.00     0.000 C 
BRANCH   3   4
ATOM      4  C   UNL     1      12.528  19.309  30.686  1.00  0.00    -0.000 C 
BRANCH   4   5
ATOM      5  C   UNL     1      11.018  19.420  30.988  1.00  0.00    -0.000 C 
BRANCH   5   6
ATOM      6  C   UNL     1      10.161  19.965  29.830  1.00  0.00    -0.000 C 
BRANCH   6   7
ATOM      7  C   UNL     1       9.525  21.329  30.152  1.00  0.00    -0.000 C 
BRANCH   7   8
ATOM      8  C   UNL     1      10.227  22.502  29.442  1.00  0.00    -0.000 C 
BRANCH   8   9
ATOM      9  C   UNL     1      10.639  23.669  30.358  1.00  0.00    -0.000 C 
BRANCH   9  10
ATOM     10  C   UNL     1      11.713  23.278  31.384  1.00  0.00    -0.000 C 
BRANCH  10  11
ATOM     11  C   UNL     1      13.099  23.224  30.734  1.00  0.00    -0.003 C 
ATOM     12  C   UNL     1      13.383  24.494  29.937  1.00  0.00     0.004 C 
ENDBRANCH  10  11
ENDBRANCH   9  10
ENDBRANCH   8   9
ENDBRANCH   7   8
ENDBRANCH   6   7
ENDBRANCH   5   6
ENDBRANCH   4   5
ENDBRANCH   3   4
ENDBRANCH   2   3
ENDBRANCH   1   2
BRANCH   1  13
ATOM     13  C   UNL     1      14.070  21.390  26.563  1.00  0.00     0.000 C 
BRANCH  13  14
ATOM     14  C   UNL     1      15.584  21.681  26.490  1.00  0.00     0.000 C 
BRANCH  14  15
ATOM     15  C   UNL     1      15.939  22.828  25.524  1.00  0.00     0.000 C 
BRANCH  15  16
ATOM     16  C   UNL     1      16.226  24.149  26.264  1.00  0.00     0.000 C 
BRANCH  16  17
ATOM     17  C   UNL     1      16.291  23.963  27.793  1.00  0.00     0.000 C 
BRANCH  17  18
ATOM     18  C   UNL     1      17.721  23.992  28.370  1.00  0.00     0.000 C 
BRANCH  18  19
ATOM     19  C   UNL     1      17.896  23.037  29.561  1.00  0.00     0.000 C 
BRANCH  19  20
ATOM     20  C   UNL     1      16.559  22.384  29.944  1.00  0.00     0.006 C 
BRANCH  20  21
ATOM     21  C   UNL     1      16.643  21.636  31.284  1.00  0.00     0.053 C 
BRANCH  21  22
ATOM     22  C   UNL     1      17.277  20.289  31.130  1.00  0.00     0.041 C 
ATOM     23  O   UNL     1      17.792  19.712  32.124  1.00  0.00    -0.550 OA
ATOM     24  O   UNL     1      17.323  19.680  29.880  1.00  0.00    -0.550 OA
ENDBRANCH  21  22
ENDBRANCH  20  21
ENDBRANCH  19  20
ENDBRANCH  18  19
ENDBRANCH  17  18
ENDBRANCH  16  17
ENDBRANCH  15  16
ENDBRANCH  14  15
ENDBRANCH  13  14
ENDBRANCH   1  13
TORSDOF 20
ENDMDL
MODEL 7
REMARK VINA RESULT:    -4.720      2.572      6.237
REMARK INTER + INTRA:         -13.552
REMARK INTER:                 -10.190
REMARK INTRA:                  -3.362
REMARK UNBOUND:                -3.314
REMARK SMILES CCCCCCCCCCCCCCCCCCCCCC(=O)[O-]
REMARK SMILES IDX 12 1 11 2 10 3 9 4 8 5 7 6 6 7 5 8 4 9 3 10 2 11 1 12 13 13
REMARK SMILES IDX 14 14 15 15 16 16 17 17 18 18 19 19 20 20 21 21 22 22 23 23
REMARK SMILES IDX 24 24
REMARK H PARENT
REMARK Flexibility Score: inf
ROOT
ATOM      1  C   UNL     1      13.629  21.186  29.071  1.00  0.00     0.000 C 
ENDROOT
BRANCH   1   2
ATOM      2  C   UNL     1      13.359  21.770  30.467  1.00  0.00     0.000 C 
BRANCH   2   3
ATOM      3  C   UNL     1      14.015  23.148  30.667  1.00  0.00     0.000 C 
BRANCH   3   4
ATOM      4  C   UNL     1      13.464  24.269  29.760  1.00  0.00    -0.000 C 
BRANCH   4   5
ATOM      5  C   UNL     1      11.956  24.559  29.911  1.00  0.00    -0.000 C 
BRANCH   5   6
ATOM      6  C   UNL     1      11.423  24.498  31.354  1.00  0.00    -0.000 C 
BRANCH   6   7
ATOM      7  C   UNL     1       9.925  24.152  31.420  1.00  0.00    -0.000 C 
BRANCH   7   8
ATOM      8  C   UNL     1       9.659  22.635  31.441  1.00  0.00    -0.000 C 
BRANCH   8   9
ATOM      9  C   UNL     1       9.690  21.945  30.065  1.00  0.00    -0.000 C 
BRANCH   9  10
ATOM     10  C   UNL     1       9.275  20.467  30.124  1.00  0.00    -0.000 C 
BRANCH  10  11
ATOM     11  C   UNL     1      10.504  19.551  30.107  1.00  0.00    -0.003 C 
ATOM     12  C   UNL     1      10.936  19.182  31.523  1.00  0.00     0.004 C 
ENDBRANCH  10  11
ENDBRANCH   9  10
ENDBRANCH   8   9
ENDBRANCH   7   8
ENDBRANCH   6   7
ENDBRANCH   5   6
ENDBRANCH   4   5
ENDBRANCH   3   4
ENDBRANCH   2   3
ENDBRANCH   1   2
BRANCH   1  13
ATOM     13  C   UNL     1      14.586  19.978  29.117  1.00  0.00     0.000 C 
BRANCH  13  14
ATOM     14  C   UNL     1      14.919  19.511  30.549  1.00  0.00     0.000 C 
BRANCH  14  15
ATOM     15  C   UNL     1      16.417  19.612  30.892  1.00  0.00     0.000 C 
BRANCH  15  16
ATOM     16  C   UNL     1      16.760  20.913  31.644  1.00  0.00     0.000 C 
BRANCH  16  17
ATOM     17  C   UNL     1      17.916  21.688  30.982  1.00  0.00     0.000 C 
BRANCH  17  18
ATOM     18  C   UNL     1      17.786  21.825  29.452  1.00  0.00     0.000 C 
BRANCH  18  19
ATOM     19  C   UNL     1      16.970  23.059  29.036  1.00  0.00     0.000 C 
BRANCH  19  20
ATOM     20  C   UNL     1      16.958  23.222  27.509  1.00  0.00     0.006 C 
BRANCH  20  21
ATOM     21  C   UNL     1      16.705  21.890  26.786  1.00  0.00     0.053 C 
BRANCH  21  22
ATOM     22  C   UNL     1      15.767  22.052  25.631  1.00  0.00     0.041 C 
ATOM     23  O   UNL     1      16.134  22.667  24.596  1.00  0.00    -0.550 OA
ATOM     24  O   UNL     1      14.475  21.544  25.709  1.00  0.00    -0.550 OA
ENDBRANCH  21  22
ENDBRANCH  20  21
ENDBRANCH  19  20
ENDBRANCH  18  19
ENDBRANCH  17  18
ENDBRANCH  16  17
ENDBRANCH  15  16
ENDBRANCH  14  15
ENDBRANCH  13  14
ENDBRANCH   1  13
TORSDOF 20
ENDMDL
MODEL 8
REMARK VINA RESULT:    -4.434      2.375      5.548
REMARK INTER + INTRA:         -12.932
REMARK INTER:                 -10.243
REMARK INTRA:                  -2.690
REMARK UNBOUND:                -3.314
REMARK SMILES CCCCCCCCCCCCCCCCCCCCCC(=O)[O-]
REMARK SMILES IDX 12 1 11 2 10 3 9 4 8 5 7 6 6 7 5 8 4 9 3 10 2 11 1 12 13 13
REMARK SMILES IDX 14 14 15 15 16 16 17 17 18 18 19 19 20 20 21 21 22 22 23 23
REMARK SMILES IDX 24 24
REMARK H PARENT
REMARK Flexibility Score: inf
ROOT
ATOM      1  C   UNL     1       9.263  22.939  30.590  1.00  0.00     0.000 C 
ENDROOT
BRANCH   1   2
ATOM      2  C   UNL     1       9.381  21.438  30.906  1.00  0.00     0.000 C 
BRANCH   2   3
ATOM      3  C   UNL     1      10.739  21.072  31.533  1.00  0.00     0.000 C 
BRANCH   3   4
ATOM      4  C   UNL     1      11.659  20.215  30.638  1.00  0.00    -0.000 C 
BRANCH   4   5
ATOM      5  C   UNL     1      11.343  20.263  29.128  1.00  0.00    -0.000 C 
BRANCH   5   6
ATOM      6  C   UNL     1      12.247  21.198  28.303  1.00  0.00    -0.000 C 
BRANCH   6   7
ATOM      7  C   UNL     1      13.684  20.665  28.164  1.00  0.00    -0.000 C 
BRANCH   7   8
ATOM      8  C   UNL     1      14.564  21.540  27.251  1.00  0.00    -0.000 C 
BRANCH   8   9
ATOM      9  C   UNL     1      16.068  21.212  27.283  1.00  0.00    -0.000 C 
BRANCH   9  10
ATOM     10  C   UNL     1      16.874  21.987  26.229  1.00  0.00    -0.000 C 
BRANCH  10  11
ATOM     11  C   UNL     1      15.944  22.719  25.256  1.00  0.00    -0.003 C 
ATOM     12  C   UNL     1      15.881  22.003  23.910  1.00  0.00     0.004 C 
ENDBRANCH  10  11
ENDBRANCH   9  10
ENDBRANCH   8   9
ENDBRANCH   7   8
ENDBRANCH   6   7
ENDBRANCH   5   6
ENDBRANCH   4   5
ENDBRANCH   3   4
ENDBRANCH   2   3
ENDBRANCH   1   2
BRANCH   1  13
ATOM     13  C   UNL     1      10.380  23.766  31.257  1.00  0.00     0.000 C 
BRANCH  13  14
ATOM     14  C   UNL     1      11.500  24.187  30.283  1.00  0.00     0.000 C 
BRANCH  14  15
ATOM     15  C   UNL     1      12.881  24.303  30.956  1.00  0.00     0.000 C 
BRANCH  15  16
ATOM     16  C   UNL     1      14.029  23.906  30.008  1.00  0.00     0.000 C 
BRANCH  16  17
ATOM     17  C   UNL     1      15.063  22.988  30.689  1.00  0.00     0.000 C 
BRANCH  17  18
ATOM     18  C   UNL     1      16.403  22.881  29.934  1.00  0.00     0.000 C 
BRANCH  18  19
ATOM     19  C   UNL     1      17.500  22.205  30.772  1.00  0.00     0.000 C 
BRANCH  19  20
ATOM     20  C   UNL     1      16.899  21.488  31.991  1.00  0.00     0.006 C 
BRANCH  20  21
ATOM     21  C   UNL     1      17.126  19.969  31.939  1.00  0.00     0.053 C 
BRANCH  21  22
ATOM     22  C   UNL     1      15.973  19.255  31.305  1.00  0.00     0.041 C 
ATOM     23  O   UNL     1      14.958  18.957  31.988  1.00  0.00    -0.550 OA
ATOM     24  O   UNL     1      16.030  18.897  29.963  1.00  0.00    -0.550 OA
ENDBRANCH  21  22
ENDBRANCH  20  21
ENDBRANCH  19  20
ENDBRANCH  18  19
ENDBRANCH  17  18
ENDBRANCH  16  17
ENDBRANCH  15  16
ENDBRANCH  14  15
ENDBRANCH  13  14
ENDBRANCH   1  13
TORSDOF 20
ENDMDL
