MODEL 1
REMARK VINA RESULT:    -2.866      0.000      0.000
REMARK INTER + INTRA:          -3.399
REMARK INTER:                  -3.369
REMARK INTRA:                  -0.030
REMARK UNBOUND:                -0.030
REMARK SMILES O=C([O-])CCC(=O)[O-]
REMARK SMILES IDX 4 1 2 2 1 3 3 4 5 5 6 6 7 7 8 8
REMARK H PARENT
REMARK Flexibility Score: inf
ROOT
ATOM      1  C   UNL     1      -1.401 -10.957  40.985  1.00  0.00     0.059 C 
ENDROOT
BRANCH   1   2
ATOM      2  C   UNL     1      -1.349 -11.885  42.157  1.00  0.00     0.042 C 
ATOM      3  O   UNL     1      -0.571 -11.649  43.118  1.00  0.00    -0.550 OA
ATOM      4  O   UNL     1      -2.197 -12.984  42.211  1.00  0.00    -0.550 OA
ENDBRANCH   1   2
BRANCH   1   5
ATOM      5  C   UNL     1      -2.021  -9.618  41.389  1.00  0.00     0.059 C 
BRANCH   5   6
ATOM      6  C   UNL     1      -1.943  -8.642  40.258  1.00  0.00     0.042 C 
ATOM      7  O   UNL     1      -0.828  -8.188  39.888  1.00  0.00    -0.550 OA
ATOM      8  O   UNL     1      -3.107  -8.194  39.646  1.00  0.00    -0.550 OA
ENDBRANCH   5   6
ENDBRANCH   1   5
TORSDOF 3
ENDMDL
MODEL 2
REMARK VINA RESULT:    -2.852      0.157      4.278
REMARK INTER + INTRA:          -3.381
REMARK INTER:                  -3.351
REMARK INTRA:                  -0.030
REMARK UNBOUND:                -0.030
REMARK SMILES O=C([O-])CCC(=O)[O-]
REMARK SMILES IDX 4 1 2 2 1 3 3 4 5 5 6 6 7 7 8 8
REMARK H PARENT
REMARK Flexibility Score: inf
ROOT
ATOM      1  C   UNL     1      -2.032  -9.651  41.316  1.00  0.00     0.059 C 
ENDROOT
BRANCH   1   2
ATOM      2  C   UNL     1      -1.874  -8.664  40.202  1.00  0.00     0.042 C 
ATOM      3  O   UNL     1      -2.884  -8.098  39.709  1.00  0.00    -0.550 OA
ATOM      4  O   UNL     1      -0.605  -8.331  39.744  1.00  0.00    -0.550 OA
ENDBRANCH   1   2
BRANCH   1   5
ATOM      5  C   UNL     1      -1.322 -10.962  40.973  1.00  0.00     0.059 C 
BRANCH   5   6
ATOM      6  C   UNL     1      -1.284 -11.864  42.166  1.00  0.00     0.042 C 
ATOM      7  O   UNL     1      -0.480 -11.637  43.108  1.00  0.00    -0.550 OA
ATOM      8  O   UNL     1      -2.104 -12.985  42.215  1.00  0.00    -0.550 OA
ENDBRANCH   5   6
ENDBRANCH   1   5
TORSDOF 3
ENDMDL
MODEL 3
REMARK VINA RESULT:    -2.839      1.400      2.133
REMARK INTER + INTRA:          -3.366
REMARK INTER:                  -3.243
REMARK INTRA:                  -0.123
REMARK UNBOUND:                -0.030
REMARK SMILES O=C([O-])CCC(=O)[O-]
REMARK SMILES IDX 4 1 2 2 1 3 3 4 5 5 6 6 7 7 8 8
REMARK H PARENT
REMARK Flexibility Score: inf
ROOT
ATOM      1  C   UNL     1      -1.346 -11.722  42.302  1.00  0.00     0.059 C 
ENDROOT
BRANCH   1   2
ATOM      2  C   UNL     1      -2.127 -12.996  42.217  1.00  0.00     0.042 C 
ATOM      3  O   UNL     1      -3.130 -13.075  41.461  1.00  0.00    -0.550 OA
ATOM      4  O   UNL     1      -1.715 -14.112  42.935  1.00  0.00    -0.550 OA
ENDBRANCH   1   2
BRANCH   1   5
ATOM      5  C   UNL     1      -1.379 -10.984  40.963  1.00  0.00     0.059 C 
BRANCH   5   6
ATOM      6  C   UNL     1      -2.097  -9.678  41.102  1.00  0.00     0.042 C 
ATOM      7  O   UNL     1      -3.264  -9.643  41.573  1.00  0.00    -0.550 OA
ATOM      8  O   UNL     1      -1.496  -8.505  40.665  1.00  0.00    -0.550 OA
ENDBRANCH   5   6
ENDBRANCH   1   5
TORSDOF 3
ENDMDL
MODEL 4
REMARK VINA RESULT:    -2.815      1.403      4.353
REMARK INTER + INTRA:          -3.338
REMARK INTER:                  -3.215
REMARK INTRA:                  -0.123
REMARK UNBOUND:                -0.030
REMARK SMILES O=C([O-])CCC(=O)[O-]
REMARK SMILES IDX 4 1 2 2 1 3 3 4 5 5 6 6 7 7 8 8
REMARK H PARENT
REMARK Flexibility Score: inf
ROOT
ATOM      1  C   UNL     1      -1.454 -11.010  40.909  1.00  0.00     0.059 C 
ENDROOT
BRANCH   1   2
ATOM      2  C   UNL     1      -2.152  -9.699  41.087  1.00  0.00     0.042 C 
ATOM      3  O   UNL     1      -3.278  -9.651  41.647  1.00  0.00    -0.550 OA
ATOM      4  O   UNL     1      -1.534  -8.522  40.681  1.00  0.00    -0.550 OA
ENDBRANCH   1   2
BRANCH   1   5
ATOM      5  C   UNL     1      -1.343 -11.744  42.246  1.00  0.00     0.059 C 
BRANCH   5   6
ATOM      6  C   UNL     1      -2.135 -13.013  42.214  1.00  0.00     0.042 C 
ATOM      7  O   UNL     1      -3.195 -13.082  41.539  1.00  0.00    -0.550 OA
ATOM      8  O   UNL     1      -1.729 -14.104  42.972  1.00  0.00    -0.550 OA
ENDBRANCH   5   6
ENDBRANCH   1   5
TORSDOF 3
ENDMDL
MODEL 5
REMARK VINA RESULT:    -2.762      1.484      4.328
REMARK INTER + INTRA:          -3.276
REMARK INTER:                  -3.194
REMARK INTRA:                  -0.082
REMARK UNBOUND:                -0.030
REMARK SMILES O=C([O-])CCC(=O)[O-]
REMARK SMILES IDX 4 1 2 2 1 3 3 4 5 5 6 6 7 7 8 8
REMARK H PARENT
REMARK Flexibility Score: inf
ROOT
ATOM      1  C   UNL     1      -1.453  -8.283  40.120  1.00  0.00     0.059 C 
ENDROOT
BRANCH   1   2
ATOM      2  C   UNL     1      -2.468  -7.898  39.090  1.00  0.00     0.042 C 
ATOM      3  O   UNL     1      -2.102  -7.390  37.999  1.00  0.00    -0.550 OA
ATOM      4  O   UNL     1      -3.816  -8.149  39.315  1.00  0.00    -0.550 OA
ENDBRANCH   1   2
BRANCH   1   5
ATOM      5  C   UNL     1      -1.985  -9.418  40.998  1.00  0.00     0.059 C 
BRANCH   5   6
ATOM      6  C   UNL     1      -1.190 -10.666  40.778  1.00  0.00     0.042 C 
ATOM      7  O   UNL     1      -1.261 -11.616  41.601  1.00  0.00    -0.550 OA
ATOM      8  O   UNL     1      -0.331 -10.760  39.690  1.00  0.00    -0.550 OA
ENDBRANCH   5   6
ENDBRANCH   1   5
TORSDOF 3
ENDMDL
MODEL 6
REMARK VINA RESULT:    -2.751      1.460      2.123
REMARK INTER + INTRA:          -3.264
REMARK INTER:                  -3.180
REMARK INTRA:                  -0.083
REMARK UNBOUND:                -0.030
REMARK SMILES O=C([O-])CCC(=O)[O-]
REMARK SMILES IDX 4 1 2 2 1 3 3 4 5 5 6 6 7 7 8 8
REMARK H PARENT
REMARK Flexibility Score: inf
ROOT
ATOM      1  C   UNL     1      -1.933  -9.338  41.056  1.00  0.00     0.059 C 
ENDROOT
BRANCH   1   2
ATOM      2  C   UNL     1      -1.133 -10.584  40.838  1.00  0.00     0.042 C 
ATOM      3  O   UNL     1      -1.152 -11.508  41.692  1.00  0.00    -0.550 OA
ATOM      4  O   UNL     1      -0.405 -10.745  39.665  1.00  0.00    -0.550 OA
ENDBRANCH   1   2
BRANCH   1   5
ATOM      5  C   UNL     1      -1.444  -8.220  40.134  1.00  0.00     0.059 C 
BRANCH   5   6
ATOM      6  C   UNL     1      -2.482  -7.899  39.105  1.00  0.00     0.042 C 
ATOM      7  O   UNL     1      -2.158  -7.316  38.038  1.00  0.00    -0.550 OA
ATOM      8  O   UNL     1      -3.817  -8.199  39.348  1.00  0.00    -0.550 OA
ENDBRANCH   5   6
ENDBRANCH   1   5
TORSDOF 3
ENDMDL
MODEL 7
REMARK VINA RESULT:    -2.718      1.634      3.885
REMARK INTER + INTRA:          -3.224
REMARK INTER:                  -3.065
REMARK INTRA:                  -0.159
REMARK UNBOUND:                -0.030
REMARK SMILES O=C([O-])CCC(=O)[O-]
REMARK SMILES IDX 4 1 2 2 1 3 3 4 5 5 6 6 7 7 8 8
REMARK H PARENT
REMARK Flexibility Score: inf
ROOT
ATOM      1  C   UNL     1      -1.824 -10.017  41.165  1.00  0.00     0.059 C 
ENDROOT
BRANCH   1   2
ATOM      2  C   UNL     1      -1.327 -10.609  39.884  1.00  0.00     0.042 C 
ATOM      3  O   UNL     1      -0.091 -10.674  39.654  1.00  0.00    -0.550 OA
ATOM      4  O   UNL     1      -2.227 -11.134  38.965  1.00  0.00    -0.550 OA
ENDBRANCH   1   2
BRANCH   1   5
ATOM      5  C   UNL     1      -2.636 -11.049  41.950  1.00  0.00     0.059 C 
BRANCH   5   6
ATOM      6  C   UNL     1      -1.772 -12.206  42.342  1.00  0.00     0.042 C 
ATOM      7  O   UNL     1      -2.184 -13.385  42.191  1.00  0.00    -0.550 OA
ATOM      8  O   UNL     1      -0.530 -11.980  42.923  1.00  0.00    -0.550 OA
ENDBRANCH   5   6
ENDBRANCH   1   5
TORSDOF 3
ENDMDL
MODEL 8
REMARK VINA RESULT:    -2.716      2.296      3.247
REMARK INTER + INTRA:          -3.222
REMARK INTER:                  -3.102
REMARK INTRA:                  -0.119
REMARK UNBOUND:                -0.030
REMARK SMILES O=C([O-])CCC(=O)[O-]
REMARK SMILES IDX 4 1 2 2 1 3 3 4 5 5 6 6 7 7 8 8
REMARK H PARENT
REMARK Flexibility Score: inf
ROOT
ATOM      1  C   UNL     1      -2.189  -9.643  41.507  1.00  0.00     0.059 C 
ENDROOT
BRANCH   1   2
ATOM      2  C   UNL     1      -1.354 -10.834  41.155  1.00  0.00     0.042 C 
ATOM      3  O   UNL     1      -1.403 -11.874  41.863  1.00  0.00    -0.550 OA
ATOM      4  O   UNL     1      -0.559 -10.813  40.016  1.00  0.00    -0.550 OA
ENDBRANCH   1   2
BRANCH   1   5
ATOM      5  C   UNL     1      -3.626  -9.836  41.021  1.00  0.00     0.059 C 
BRANCH   5   6
ATOM      6  C   UNL     1      -4.555  -9.995  42.183  1.00  0.00     0.042 C 
ATOM      7  O   UNL     1      -5.417  -9.112  42.432  1.00  0.00    -0.550 OA
ATOM      8  O   UNL     1      -4.434 -11.096  43.023  1.00  0.00    -0.550 OA
ENDBRANCH   5   6
ENDBRANCH   1   5
TORSDOF 3
ENDMDL
MODEL 9
REMARK VINA RESULT:    -2.703      2.336      3.421
REMARK INTER + INTRA:          -3.207
REMARK INTER:                  -3.085
REMARK INTRA:                  -0.121
REMARK UNBOUND:                -0.030
REMARK SMILES O=C([O-])CCC(=O)[O-]
REMARK SMILES IDX 4 1 2 2 1 3 3 4 5 5 6 6 7 7 8 8
REMARK H PARENT
REMARK Flexibility Score: inf
ROOT
ATOM      1  C   UNL     1      -3.713 -10.035  41.072  1.00  0.00     0.059 C 
ENDROOT
BRANCH   1   2
ATOM      2  C   UNL     1      -4.561 -10.136  42.300  1.00  0.00     0.042 C 
ATOM      3  O   UNL     1      -5.333  -9.194  42.617  1.00  0.00    -0.550 OA
ATOM      4  O   UNL     1      -4.536 -11.294  43.068  1.00  0.00    -0.550 OA
ENDBRANCH   1   2
BRANCH   1   5
ATOM      5  C   UNL     1      -2.273  -9.674  41.443  1.00  0.00     0.059 C 
BRANCH   5   6
ATOM      6  C   UNL     1      -1.360 -10.831  41.183  1.00  0.00     0.042 C 
ATOM      7  O   UNL     1      -0.642 -10.852  40.149  1.00  0.00    -0.550 OA
ATOM      8  O   UNL     1      -1.340 -11.911  42.058  1.00  0.00    -0.550 OA
ENDBRANCH   5   6
ENDBRANCH   1   5
TORSDOF 3
ENDMDL
