MODEL 1
REMARK VINA RESULT:    16.531      0.000      0.000
REMARK INTER + INTRA:          43.488
REMARK INTER:                  43.591
REMARK INTRA:                  -0.103
REMARK UNBOUND:                -0.103
REMARK SMILES CCCCCCCCCCCCCCCCCCCCCCCCCCCCCC(=O)[O-]
REMARK SMILES IDX 16 1 17 2 18 3 19 4 20 5 21 6 22 7 23 8 24 9 25 10 26 11
REMARK SMILES IDX 27 12 28 13 29 14 30 15 31 16 32 17 15 18 14 19 13 20 12 21
REMARK SMILES IDX 11 22 10 23 9 24 8 25 7 26 6 27 5 28 4 29 3 30 2 31 1 32
REMARK H PARENT
REMARK Flexibility Score: inf
ROOT
ATOM      1  C   UNL     1       3.769 -26.107 -13.969  1.00  0.00     0.000 C 
ENDROOT
BRANCH   1   2
ATOM      2  C   UNL     1       3.465 -24.801 -13.206  1.00  0.00     0.000 C 
BRANCH   2   3
ATOM      3  C   UNL     1       4.698 -23.959 -12.832  1.00  0.00     0.000 C 
BRANCH   3   4
ATOM      4  C   UNL     1       5.109 -22.975 -13.941  1.00  0.00     0.000 C 
BRANCH   4   5
ATOM      5  C   UNL     1       6.369 -22.168 -13.581  1.00  0.00     0.000 C 
BRANCH   5   6
ATOM      6  C   UNL     1       6.112 -20.720 -13.117  1.00  0.00     0.000 C 
BRANCH   6   7
ATOM      7  C   UNL     1       5.044 -19.953 -13.923  1.00  0.00     0.000 C 
BRANCH   7   8
ATOM      8  C   UNL     1       5.012 -18.435 -13.673  1.00  0.00     0.000 C 
BRANCH   8   9
ATOM      9  C   UNL     1       3.585 -17.862 -13.674  1.00  0.00     0.000 C 
BRANCH   9  10
ATOM     10  C   UNL     1       3.474 -16.534 -14.443  1.00  0.00     0.000 C 
BRANCH  10  11
ATOM     11  C   UNL     1       2.212 -16.395 -15.317  1.00  0.00     0.000 C 
BRANCH  11  12
ATOM     12  C   UNL     1       1.754 -14.947 -15.584  1.00  0.00     0.000 C 
BRANCH  12  13
ATOM     13  C   UNL     1       1.779 -14.519 -17.065  1.00  0.00     0.006 C 
BRANCH  13  14
ATOM     14  C   UNL     1       3.137 -14.711 -17.760  1.00  0.00     0.053 C 
BRANCH  14  15
ATOM     15  C   UNL     1       3.245 -13.905 -19.016  1.00  0.00     0.041 C 
ATOM     16  O   UNL     1       3.476 -14.473 -20.116  1.00  0.00    -0.550 OA
ATOM     17  O   UNL     1       3.122 -12.521 -18.969  1.00  0.00    -0.550 OA
ENDBRANCH  14  15
ENDBRANCH  13  14
ENDBRANCH  12  13
ENDBRANCH  11  12
ENDBRANCH  10  11
ENDBRANCH   9  10
ENDBRANCH   8   9
ENDBRANCH   7   8
ENDBRANCH   6   7
ENDBRANCH   5   6
ENDBRANCH   4   5
ENDBRANCH   3   4
ENDBRANCH   2   3
ENDBRANCH   1   2
BRANCH   1  18
ATOM     18  C   UNL     1       4.142 -25.931 -15.454  1.00  0.00     0.000 C 
BRANCH  18  19
ATOM     19  C   UNL     1       5.292 -24.943 -15.719  1.00  0.00     0.000 C 
BRANCH  19  20
ATOM     20  C   UNL     1       6.482 -25.595 -16.445  1.00  0.00     0.000 C 
BRANCH  20  21
ATOM     21  C   UNL     1       7.775 -24.777 -16.305  1.00  0.00     0.000 C 
BRANCH  21  22
ATOM     22  C   UNL     1       8.702 -24.927 -17.523  1.00  0.00     0.000 C 
BRANCH  22  23
ATOM     23  C   UNL     1       7.976 -25.500 -18.751  1.00  0.00     0.000 C 
BRANCH  23  24
ATOM     24  C   UNL     1       8.247 -24.690 -20.029  1.00  0.00    -0.000 C 
BRANCH  24  25
ATOM     25  C   UNL     1       9.740 -24.346 -20.153  1.00  0.00    -0.000 C 
BRANCH  25  26
ATOM     26  C   UNL     1      10.312 -24.665 -21.544  1.00  0.00    -0.000 C 
BRANCH  26  27
ATOM     27  C   UNL     1      10.103 -23.518 -22.549  1.00  0.00    -0.000 C 
BRANCH  27  28
ATOM     28  C   UNL     1      11.101 -23.555 -23.720  1.00  0.00    -0.000 C 
BRANCH  28  29
ATOM     29  C   UNL     1      12.264 -22.548 -23.627  1.00  0.00    -0.000 C 
BRANCH  29  30
ATOM     30  C   UNL     1      13.330 -22.757 -24.717  1.00  0.00    -0.000 C 
BRANCH  30  31
ATOM     31  C   UNL     1      12.861 -23.718 -25.821  1.00  0.00    -0.003 C 
ATOM     32  C   UNL     1      14.015 -24.469 -26.484  1.00  0.00     0.004 C 
ENDBRANCH  30  31
ENDBRANCH  29  30
ENDBRANCH  28  29
ENDBRANCH  27  28
ENDBRANCH  26  27
ENDBRANCH  25  26
ENDBRANCH  24  25
ENDBRANCH  23  24
ENDBRANCH  22  23
ENDBRANCH  21  22
ENDBRANCH  20  21
ENDBRANCH  19  20
ENDBRANCH  18  19
ENDBRANCH   1  18
TORSDOF 28
ENDMDL
MODEL 2
REMARK VINA RESULT:    16.820      0.985      2.043
REMARK INTER + INTRA:          44.249
REMARK INTER:                  45.508
REMARK INTRA:                  -1.259
REMARK UNBOUND:                -0.103
REMARK SMILES CCCCCCCCCCCCCCCCCCCCCCCCCCCCCC(=O)[O-]
REMARK SMILES IDX 16 1 17 2 18 3 19 4 20 5 21 6 22 7 23 8 24 9 25 10 26 11
REMARK SMILES IDX 27 12 28 13 29 14 30 15 31 16 32 17 15 18 14 19 13 20 12 21
REMARK SMILES IDX 11 22 10 23 9 24 8 25 7 26 6 27 5 28 4 29 3 30 2 31 1 32
REMARK H PARENT
REMARK Flexibility Score: inf
ROOT
ATOM      1  C   UNL     1       4.628 -24.470 -12.526  1.00  0.00     0.000 C 
ENDROOT
BRANCH   1   2
ATOM      2  C   UNL     1       5.722 -23.493 -13.002  1.00  0.00     0.000 C 
BRANCH   2   3
ATOM      3  C   UNL     1       5.235 -22.366 -13.930  1.00  0.00     0.000 C 
BRANCH   3   4
ATOM      4  C   UNL     1       6.148 -21.128 -13.900  1.00  0.00     0.000 C 
BRANCH   4   5
ATOM      5  C   UNL     1       5.566 -19.982 -13.056  1.00  0.00     0.000 C 
BRANCH   5   6
ATOM      6  C   UNL     1       5.004 -18.793 -13.862  1.00  0.00     0.000 C 
BRANCH   6   7
ATOM      7  C   UNL     1       3.702 -18.181 -13.308  1.00  0.00     0.000 C 
BRANCH   7   8
ATOM      8  C   UNL     1       3.552 -16.666 -13.533  1.00  0.00     0.000 C 
BRANCH   8   9
ATOM      9  C   UNL     1       3.106 -16.319 -14.964  1.00  0.00     0.000 C 
BRANCH   9  10
ATOM     10  C   UNL     1       1.753 -15.587 -15.008  1.00  0.00     0.000 C 
BRANCH  10  11
ATOM     11  C   UNL     1       1.225 -15.289 -16.425  1.00  0.00     0.000 C 
BRANCH  11  12
ATOM     12  C   UNL     1       2.054 -14.271 -17.234  1.00  0.00     0.000 C 
BRANCH  12  13
ATOM     13  C   UNL     1       2.591 -14.794 -18.581  1.00  0.00     0.006 C 
BRANCH  13  14
ATOM     14  C   UNL     1       3.807 -14.024 -19.122  1.00  0.00     0.053 C 
BRANCH  14  15
ATOM     15  C   UNL     1       3.690 -12.550 -18.887  1.00  0.00     0.041 C 
ATOM     16  O   UNL     1       2.889 -11.861 -19.573  1.00  0.00    -0.550 OA
ATOM     17  O   UNL     1       4.487 -11.932 -17.931  1.00  0.00    -0.550 OA
ENDBRANCH  14  15
ENDBRANCH  13  14
ENDBRANCH  12  13
ENDBRANCH  11  12
ENDBRANCH  10  11
ENDBRANCH   9  10
ENDBRANCH   8   9
ENDBRANCH   7   8
ENDBRANCH   6   7
ENDBRANCH   5   6
ENDBRANCH   4   5
ENDBRANCH   3   4
ENDBRANCH   2   3
ENDBRANCH   1   2
BRANCH   1  18
ATOM     18  C   UNL     1       3.711 -25.024 -13.634  1.00  0.00     0.000 C 
BRANCH  18  19
ATOM     19  C   UNL     1       4.410 -25.943 -14.652  1.00  0.00     0.000 C 
BRANCH  19  20
ATOM     20  C   UNL     1       4.517 -25.309 -16.051  1.00  0.00     0.000 C 
BRANCH  20  21
ATOM     21  C   UNL     1       5.771 -24.435 -16.205  1.00  0.00     0.000 C 
BRANCH  21  22
ATOM     22  C   UNL     1       7.022 -25.257 -16.561  1.00  0.00     0.000 C 
BRANCH  22  23
ATOM     23  C   UNL     1       6.843 -26.078 -17.848  1.00  0.00     0.000 C 
BRANCH  23  24
ATOM     24  C   UNL     1       8.007 -25.894 -18.834  1.00  0.00    -0.000 C 
BRANCH  24  25
ATOM     25  C   UNL     1       8.332 -24.404 -19.026  1.00  0.00    -0.000 C 
BRANCH  25  26
ATOM     26  C   UNL     1       9.025 -24.113 -20.368  1.00  0.00    -0.000 C 
BRANCH  26  27
ATOM     27  C   UNL     1      10.300 -24.949 -20.570  1.00  0.00    -0.000 C 
BRANCH  27  28
ATOM     28  C   UNL     1      10.875 -24.836 -21.994  1.00  0.00    -0.000 C 
BRANCH  28  29
ATOM     29  C   UNL     1      10.381 -23.625 -22.810  1.00  0.00    -0.000 C 
BRANCH  29  30
ATOM     30  C   UNL     1      11.514 -22.902 -23.558  1.00  0.00    -0.000 C 
BRANCH  30  31
ATOM     31  C   UNL     1      11.829 -23.549 -24.916  1.00  0.00    -0.003 C 
ATOM     32  C   UNL     1      13.255 -23.272 -25.389  1.00  0.00     0.004 C 
ENDBRANCH  30  31
ENDBRANCH  29  30
ENDBRANCH  28  29
ENDBRANCH  27  28
ENDBRANCH  26  27
ENDBRANCH  25  26
ENDBRANCH  24  25
ENDBRANCH  23  24
ENDBRANCH  22  23
ENDBRANCH  21  22
ENDBRANCH  20  21
ENDBRANCH  19  20
ENDBRANCH  18  19
ENDBRANCH   1  18
TORSDOF 28
ENDMDL
MODEL 3
REMARK VINA RESULT:    17.562      4.306     11.506
REMARK INTER + INTRA:          46.206
REMARK INTER:                  47.690
REMARK INTRA:                  -1.484
REMARK UNBOUND:                -0.103
REMARK SMILES CCCCCCCCCCCCCCCCCCCCCCCCCCCCCC(=O)[O-]
REMARK SMILES IDX 16 1 17 2 18 3 19 4 20 5 21 6 22 7 23 8 24 9 25 10 26 11
REMARK SMILES IDX 27 12 28 13 29 14 30 15 31 16 32 17 15 18 14 19 13 20 12 21
REMARK SMILES IDX 11 22 10 23 9 24 8 25 7 26 6 27 5 28 4 29 3 30 2 31 1 32
REMARK H PARENT
REMARK Flexibility Score: inf
ROOT
ATOM      1  C   UNL     1       4.444 -25.475 -13.765  1.00  0.00     0.000 C 
ENDROOT
BRANCH   1   2
ATOM      2  C   UNL     1       4.229 -25.641 -15.284  1.00  0.00     0.000 C 
BRANCH   2   3
ATOM      3  C   UNL     1       5.108 -24.743 -16.172  1.00  0.00     0.000 C 
BRANCH   3   4
ATOM      4  C   UNL     1       6.603 -25.096 -16.087  1.00  0.00     0.000 C 
BRANCH   4   5
ATOM      5  C   UNL     1       7.266 -25.208 -17.471  1.00  0.00     0.000 C 
BRANCH   5   6
ATOM      6  C   UNL     1       8.784 -24.936 -17.496  1.00  0.00     0.000 C 
BRANCH   6   7
ATOM      7  C   UNL     1       9.318 -24.314 -18.802  1.00  0.00     0.000 C 
BRANCH   7   8
ATOM      8  C   UNL     1       8.545 -24.713 -20.071  1.00  0.00     0.000 C 
BRANCH   8   9
ATOM      9  C   UNL     1       8.895 -23.831 -21.282  1.00  0.00     0.000 C 
BRANCH   9  10
ATOM     10  C   UNL     1      10.329 -24.059 -21.794  1.00  0.00     0.000 C 
BRANCH  10  11
ATOM     11  C   UNL     1      10.557 -23.680 -23.270  1.00  0.00     0.000 C 
BRANCH  11  12
ATOM     12  C   UNL     1      11.599 -22.568 -23.509  1.00  0.00     0.000 C 
BRANCH  12  13
ATOM     13  C   UNL     1      12.958 -23.055 -24.050  1.00  0.00     0.006 C 
BRANCH  13  14
ATOM     14  C   UNL     1      13.101 -22.969 -25.578  1.00  0.00     0.053 C 
BRANCH  14  15
ATOM     15  C   UNL     1      13.873 -24.124 -26.136  1.00  0.00     0.041 C 
ATOM     16  O   UNL     1      15.127 -24.059 -26.236  1.00  0.00    -0.550 OA
ATOM     17  O   UNL     1      13.205 -25.260 -26.577  1.00  0.00    -0.550 OA
ENDBRANCH  14  15
ENDBRANCH  13  14
ENDBRANCH  12  13
ENDBRANCH  11  12
ENDBRANCH  10  11
ENDBRANCH   9  10
ENDBRANCH   8   9
ENDBRANCH   7   8
ENDBRANCH   6   7
ENDBRANCH   5   6
ENDBRANCH   4   5
ENDBRANCH   3   4
ENDBRANCH   2   3
ENDBRANCH   1   2
BRANCH   1  18
ATOM     18  C   UNL     1       4.528 -24.018 -13.267  1.00  0.00     0.000 C 
BRANCH  18  19
ATOM     19  C   UNL     1       5.921 -23.579 -12.784  1.00  0.00     0.000 C 
BRANCH  19  20
ATOM     20  C   UNL     1       6.452 -22.347 -13.538  1.00  0.00     0.000 C 
BRANCH  20  21
ATOM     21  C   UNL     1       5.893 -21.030 -12.978  1.00  0.00     0.000 C 
BRANCH  21  22
ATOM     22  C   UNL     1       5.321 -20.118 -14.078  1.00  0.00     0.000 C 
BRANCH  22  23
ATOM     23  C   UNL     1       4.555 -18.914 -13.507  1.00  0.00     0.000 C 
BRANCH  23  24
ATOM     24  C   UNL     1       4.421 -17.765 -14.519  1.00  0.00    -0.000 C 
BRANCH  24  25
ATOM     25  C   UNL     1       3.272 -16.822 -14.129  1.00  0.00    -0.000 C 
BRANCH  25  26
ATOM     26  C   UNL     1       2.388 -16.432 -15.325  1.00  0.00    -0.000 C 
BRANCH  26  27
ATOM     27  C   UNL     1       1.891 -14.978 -15.247  1.00  0.00    -0.000 C 
BRANCH  27  28
ATOM     28  C   UNL     1       1.768 -14.308 -16.627  1.00  0.00    -0.000 C 
BRANCH  28  29
ATOM     29  C   UNL     1       2.435 -15.068 -17.790  1.00  0.00    -0.000 C 
BRANCH  29  30
ATOM     30  C   UNL     1       3.667 -14.341 -18.356  1.00  0.00    -0.000 C 
BRANCH  30  31
ATOM     31  C   UNL     1       3.298 -13.044 -19.092  1.00  0.00    -0.003 C 
ATOM     32  C   UNL     1       4.133 -11.847 -18.639  1.00  0.00     0.004 C 
ENDBRANCH  30  31
ENDBRANCH  29  30
ENDBRANCH  28  29
ENDBRANCH  27  28
ENDBRANCH  26  27
ENDBRANCH  25  26
ENDBRANCH  24  25
ENDBRANCH  23  24
ENDBRANCH  22  23
ENDBRANCH  21  22
ENDBRANCH  20  21
ENDBRANCH  19  20
ENDBRANCH  18  19
ENDBRANCH   1  18
TORSDOF 28
ENDMDL
MODEL 4
REMARK VINA RESULT:    17.963      0.862      1.494
REMARK INTER + INTRA:          47.263
REMARK INTER:                  47.388
REMARK INTRA:                  -0.125
REMARK UNBOUND:                -0.103
REMARK SMILES CCCCCCCCCCCCCCCCCCCCCCCCCCCCCC(=O)[O-]
REMARK SMILES IDX 16 1 17 2 18 3 19 4 20 5 21 6 22 7 23 8 24 9 25 10 26 11
REMARK SMILES IDX 27 12 28 13 29 14 30 15 31 16 32 17 15 18 14 19 13 20 12 21
REMARK SMILES IDX 11 22 10 23 9 24 8 25 7 26 6 27 5 28 4 29 3 30 2 31 1 32
REMARK H PARENT
REMARK Flexibility Score: inf
ROOT
ATOM      1  C   UNL     1       4.181 -25.355 -13.999  1.00  0.00     0.000 C 
ENDROOT
BRANCH   1   2
ATOM      2  C   UNL     1       4.784 -24.157 -13.236  1.00  0.00     0.000 C 
BRANCH   2   3
ATOM      3  C   UNL     1       5.167 -22.949 -14.111  1.00  0.00     0.000 C 
BRANCH   3   4
ATOM      4  C   UNL     1       6.401 -22.196 -13.585  1.00  0.00     0.000 C 
BRANCH   4   5
ATOM      5  C   UNL     1       6.052 -20.811 -13.013  1.00  0.00     0.000 C 
BRANCH   5   6
ATOM      6  C   UNL     1       5.175 -19.928 -13.923  1.00  0.00     0.000 C 
BRANCH   6   7
ATOM      7  C   UNL     1       4.813 -18.545 -13.344  1.00  0.00     0.000 C 
BRANCH   7   8
ATOM      8  C   UNL     1       4.067 -17.613 -14.315  1.00  0.00     0.000 C 
BRANCH   8   9
ATOM      9  C   UNL     1       3.190 -16.578 -13.589  1.00  0.00     0.000 C 
BRANCH   9  10
ATOM     10  C   UNL     1       2.570 -15.543 -14.545  1.00  0.00     0.000 C 
BRANCH  10  11
ATOM     11  C   UNL     1       1.496 -16.104 -15.497  1.00  0.00     0.000 C 
BRANCH  11  12
ATOM     12  C   UNL     1       1.286 -15.299 -16.796  1.00  0.00     0.000 C 
BRANCH  12  13
ATOM     13  C   UNL     1       2.258 -14.119 -16.995  1.00  0.00     0.006 C 
BRANCH  13  14
ATOM     14  C   UNL     1       3.099 -14.199 -18.279  1.00  0.00     0.053 C 
BRANCH  14  15
ATOM     15  C   UNL     1       3.425 -12.842 -18.823  1.00  0.00     0.041 C 
ATOM     16  O   UNL     1       4.382 -12.180 -18.340  1.00  0.00    -0.550 OA
ATOM     17  O   UNL     1       2.654 -12.296 -19.842  1.00  0.00    -0.550 OA
ENDBRANCH  14  15
ENDBRANCH  13  14
ENDBRANCH  12  13
ENDBRANCH  11  12
ENDBRANCH  10  11
ENDBRANCH   9  10
ENDBRANCH   8   9
ENDBRANCH   7   8
ENDBRANCH   6   7
ENDBRANCH   5   6
ENDBRANCH   4   5
ENDBRANCH   3   4
ENDBRANCH   2   3
ENDBRANCH   1   2
BRANCH   1  18
ATOM     18  C   UNL     1       4.574 -25.454 -15.486  1.00  0.00     0.000 C 
BRANCH  18  19
ATOM     19  C   UNL     1       5.935 -24.829 -15.839  1.00  0.00     0.000 C 
BRANCH  19  20
ATOM     20  C   UNL     1       6.885 -25.822 -16.532  1.00  0.00     0.000 C 
BRANCH  20  21
ATOM     21  C   UNL     1       8.002 -25.117 -17.317  1.00  0.00     0.000 C 
BRANCH  21  22
ATOM     22  C   UNL     1       7.775 -25.166 -18.837  1.00  0.00     0.000 C 
BRANCH  22  23
ATOM     23  C   UNL     1       9.086 -25.064 -19.634  1.00  0.00     0.000 C 
BRANCH  23  24
ATOM     24  C   UNL     1       9.021 -24.008 -20.748  1.00  0.00    -0.000 C 
BRANCH  24  25
ATOM     25  C   UNL     1      10.174 -24.193 -21.747  1.00  0.00    -0.000 C 
BRANCH  25  26
ATOM     26  C   UNL     1      10.238 -23.072 -22.798  1.00  0.00    -0.000 C 
BRANCH  26  27
ATOM     27  C   UNL     1      11.527 -23.119 -23.637  1.00  0.00    -0.000 C 
BRANCH  27  28
ATOM     28  C   UNL     1      11.360 -23.900 -24.954  1.00  0.00    -0.000 C 
BRANCH  28  29
ATOM     29  C   UNL     1      12.284 -23.457 -26.104  1.00  0.00    -0.000 C 
BRANCH  29  30
ATOM     30  C   UNL     1      13.701 -23.090 -25.630  1.00  0.00    -0.000 C 
BRANCH  30  31
ATOM     31  C   UNL     1      14.795 -23.727 -26.501  1.00  0.00    -0.003 C 
ATOM     32  C   UNL     1      15.606 -24.785 -25.753  1.00  0.00     0.004 C 
ENDBRANCH  30  31
ENDBRANCH  29  30
ENDBRANCH  28  29
ENDBRANCH  27  28
ENDBRANCH  26  27
ENDBRANCH  25  26
ENDBRANCH  24  25
ENDBRANCH  23  24
ENDBRANCH  22  23
ENDBRANCH  21  22
ENDBRANCH  20  21
ENDBRANCH  19  20
ENDBRANCH  18  19
ENDBRANCH   1  18
TORSDOF 28
ENDMDL
MODEL 5
REMARK VINA RESULT:    18.012      3.968     11.761
REMARK INTER + INTRA:          47.393
REMARK INTER:                  49.159
REMARK INTRA:                  -1.766
REMARK UNBOUND:                -0.103
REMARK SMILES CCCCCCCCCCCCCCCCCCCCCCCCCCCCCC(=O)[O-]
REMARK SMILES IDX 16 1 17 2 18 3 19 4 20 5 21 6 22 7 23 8 24 9 25 10 26 11
REMARK SMILES IDX 27 12 28 13 29 14 30 15 31 16 32 17 15 18 14 19 13 20 12 21
REMARK SMILES IDX 11 22 10 23 9 24 8 25 7 26 6 27 5 28 4 29 3 30 2 31 1 32
REMARK H PARENT
REMARK Flexibility Score: inf
ROOT
ATOM      1  C   UNL     1       9.143 -18.801 -22.498  1.00  0.00     0.000 C 
ENDROOT
BRANCH   1   2
ATOM      2  C   UNL     1       8.828 -20.014 -21.599  1.00  0.00     0.000 C 
BRANCH   2   3
ATOM      3  C   UNL     1       7.916 -21.080 -22.232  1.00  0.00     0.000 C 
BRANCH   3   4
ATOM      4  C   UNL     1       7.874 -22.389 -21.425  1.00  0.00     0.000 C 
BRANCH   4   5
ATOM      5  C   UNL     1       9.009 -23.356 -21.803  1.00  0.00     0.000 C 
BRANCH   5   6
ATOM      6  C   UNL     1       9.391 -24.377 -20.712  1.00  0.00     0.000 C 
BRANCH   6   7
ATOM      7  C   UNL     1       8.785 -24.108 -19.320  1.00  0.00     0.000 C 
BRANCH   7   8
ATOM      8  C   UNL     1       7.936 -25.258 -18.751  1.00  0.00     0.000 C 
BRANCH   8   9
ATOM      9  C   UNL     1       8.100 -25.422 -17.230  1.00  0.00     0.000 C 
BRANCH   9  10
ATOM     10  C   UNL     1       6.837 -25.979 -16.549  1.00  0.00     0.000 C 
BRANCH  10  11
ATOM     11  C   UNL     1       5.773 -24.922 -16.195  1.00  0.00     0.000 C 
BRANCH  11  12
ATOM     12  C   UNL     1       4.840 -25.296 -15.026  1.00  0.00     0.000 C 
BRANCH  12  13
ATOM     13  C   UNL     1       4.447 -24.123 -14.106  1.00  0.00     0.006 C 
BRANCH  13  14
ATOM     14  C   UNL     1       5.159 -22.799 -14.425  1.00  0.00     0.053 C 
BRANCH  14  15
ATOM     15  C   UNL     1       6.195 -22.456 -13.400  1.00  0.00     0.041 C 
ATOM     16  O   UNL     1       6.636 -21.279 -13.315  1.00  0.00    -0.550 OA
ATOM     17  O   UNL     1       6.696 -23.442 -12.559  1.00  0.00    -0.550 OA
ENDBRANCH  14  15
ENDBRANCH  13  14
ENDBRANCH  12  13
ENDBRANCH  11  12
ENDBRANCH  10  11
ENDBRANCH   9  10
ENDBRANCH   8   9
ENDBRANCH   7   8
ENDBRANCH   6   7
ENDBRANCH   5   6
ENDBRANCH   4   5
ENDBRANCH   3   4
ENDBRANCH   2   3
ENDBRANCH   1   2
BRANCH   1  18
ATOM     18  C   UNL     1       8.942 -17.422 -21.838  1.00  0.00     0.000 C 
BRANCH  18  19
ATOM     19  C   UNL     1       8.745 -17.458 -20.312  1.00  0.00     0.000 C 
BRANCH  19  20
ATOM     20  C   UNL     1       8.006 -16.219 -19.777  1.00  0.00     0.000 C 
BRANCH  20  21
ATOM     21  C   UNL     1       7.075 -16.552 -18.602  1.00  0.00     0.000 C 
BRANCH  21  22
ATOM     22  C   UNL     1       6.367 -15.307 -18.039  1.00  0.00     0.000 C 
BRANCH  22  23
ATOM     23  C   UNL     1       4.839 -15.378 -18.189  1.00  0.00     0.000 C 
BRANCH  23  24
ATOM     24  C   UNL     1       4.342 -14.732 -19.492  1.00  0.00    -0.000 C 
BRANCH  24  25
ATOM     25  C   UNL     1       3.084 -13.886 -19.240  1.00  0.00    -0.000 C 
BRANCH  25  26
ATOM     26  C   UNL     1       3.142 -13.112 -17.912  1.00  0.00    -0.000 C 
BRANCH  26  27
ATOM     27  C   UNL     1       1.880 -13.310 -17.055  1.00  0.00    -0.000 C 
BRANCH  27  28
ATOM     28  C   UNL     1       1.215 -14.681 -17.269  1.00  0.00    -0.000 C 
BRANCH  28  29
ATOM     29  C   UNL     1       1.315 -15.656 -16.080  1.00  0.00    -0.000 C 
BRANCH  29  30
ATOM     30  C   UNL     1       0.230 -16.746 -16.103  1.00  0.00    -0.000 C 
BRANCH  30  31
ATOM     31  C   UNL     1      -0.631 -16.692 -17.374  1.00  0.00    -0.003 C 
ATOM     32  C   UNL     1      -2.027 -17.280 -17.171  1.00  0.00     0.004 C 
ENDBRANCH  30  31
ENDBRANCH  29  30
ENDBRANCH  28  29
ENDBRANCH  27  28
ENDBRANCH  26  27
ENDBRANCH  25  26
ENDBRANCH  24  25
ENDBRANCH  23  24
ENDBRANCH  22  23
ENDBRANCH  21  22
ENDBRANCH  20  21
ENDBRANCH  19  20
ENDBRANCH  18  19
ENDBRANCH   1  18
TORSDOF 28
ENDMDL
MODEL 6
REMARK VINA RESULT:    18.032      3.535     10.720
REMARK INTER + INTRA:          47.445
REMARK INTER:                  47.770
REMARK INTRA:                  -0.325
REMARK UNBOUND:                -0.103
REMARK SMILES CCCCCCCCCCCCCCCCCCCCCCCCCCCCCC(=O)[O-]
REMARK SMILES IDX 16 1 17 2 18 3 19 4 20 5 21 6 22 7 23 8 24 9 25 10 26 11
REMARK SMILES IDX 27 12 28 13 29 14 30 15 31 16 32 17 15 18 14 19 13 20 12 21
REMARK SMILES IDX 11 22 10 23 9 24 8 25 7 26 6 27 5 28 4 29 3 30 2 31 1 32
REMARK H PARENT
REMARK Flexibility Score: inf
ROOT
ATOM      1  C   UNL     1       5.075 -21.117 -14.341  1.00  0.00     0.000 C 
ENDROOT
BRANCH   1   2
ATOM      2  C   UNL     1       5.768 -22.494 -14.380  1.00  0.00     0.000 C 
BRANCH   2   3
ATOM      3  C   UNL     1       6.226 -23.037 -13.014  1.00  0.00     0.000 C 
BRANCH   3   4
ATOM      4  C   UNL     1       5.129 -23.839 -12.291  1.00  0.00     0.000 C 
BRANCH   4   5
ATOM      5  C   UNL     1       3.935 -24.167 -13.203  1.00  0.00     0.000 C 
BRANCH   5   6
ATOM      6  C   UNL     1       3.642 -25.671 -13.385  1.00  0.00     0.000 C 
BRANCH   6   7
ATOM      7  C   UNL     1       3.365 -26.115 -14.835  1.00  0.00     0.000 C 
BRANCH   7   8
ATOM      8  C   UNL     1       4.596 -26.116 -15.758  1.00  0.00     0.000 C 
BRANCH   8   9
ATOM      9  C   UNL     1       5.380 -24.793 -15.705  1.00  0.00     0.000 C 
BRANCH   9  10
ATOM     10  C   UNL     1       6.700 -24.848 -16.495  1.00  0.00     0.000 C 
BRANCH  10  11
ATOM     11  C   UNL     1       6.709 -25.843 -17.671  1.00  0.00     0.000 C 
BRANCH  11  12
ATOM     12  C   UNL     1       7.958 -25.781 -18.574  1.00  0.00     0.000 C 
BRANCH  12  13
ATOM     13  C   UNL     1       8.207 -24.417 -19.249  1.00  0.00     0.006 C 
BRANCH  13  14
ATOM     14  C   UNL     1       9.415 -24.389 -20.199  1.00  0.00     0.053 C 
BRANCH  14  15
ATOM     15  C   UNL     1       9.115 -23.652 -21.467  1.00  0.00     0.041 C 
ATOM     16  O   UNL     1       8.122 -22.880 -21.531  1.00  0.00    -0.550 OA
ATOM     17  O   UNL     1       9.915 -23.841 -22.588  1.00  0.00    -0.550 OA
ENDBRANCH  14  15
ENDBRANCH  13  14
ENDBRANCH  12  13
ENDBRANCH  11  12
ENDBRANCH  10  11
ENDBRANCH   9  10
ENDBRANCH   8   9
ENDBRANCH   7   8
ENDBRANCH   6   7
ENDBRANCH   5   6
ENDBRANCH   4   5
ENDBRANCH   3   4
ENDBRANCH   2   3
ENDBRANCH   1   2
BRANCH   1  18
ATOM     18  C   UNL     1       5.661 -20.113 -13.328  1.00  0.00     0.000 C 
BRANCH  18  19
ATOM     19  C   UNL     1       5.241 -18.649 -13.551  1.00  0.00     0.000 C 
BRANCH  19  20
ATOM     20  C   UNL     1       4.757 -18.382 -14.987  1.00  0.00     0.000 C 
BRANCH  20  21
ATOM     21  C   UNL     1       5.561 -17.271 -15.680  1.00  0.00     0.000 C 
BRANCH  21  22
ATOM     22  C   UNL     1       5.299 -17.211 -17.195  1.00  0.00     0.000 C 
BRANCH  22  23
ATOM     23  C   UNL     1       6.231 -16.223 -17.917  1.00  0.00     0.000 C 
BRANCH  23  24
ATOM     24  C   UNL     1       5.636 -14.809 -18.009  1.00  0.00    -0.000 C 
BRANCH  24  25
ATOM     25  C   UNL     1       4.217 -14.848 -18.597  1.00  0.00    -0.000 C 
BRANCH  25  26
ATOM     26  C   UNL     1       3.492 -13.496 -18.496  1.00  0.00    -0.000 C 
BRANCH  26  27
ATOM     27  C   UNL     1       2.291 -13.537 -17.534  1.00  0.00    -0.000 C 
BRANCH  27  28
ATOM     28  C   UNL     1       1.571 -14.897 -17.528  1.00  0.00    -0.000 C 
BRANCH  28  29
ATOM     29  C   UNL     1       1.287 -15.486 -16.133  1.00  0.00    -0.000 C 
BRANCH  29  30
ATOM     30  C   UNL     1       0.234 -16.607 -16.156  1.00  0.00    -0.000 C 
BRANCH  30  31
ATOM     31  C   UNL     1      -0.643 -16.564 -17.417  1.00  0.00    -0.003 C 
ATOM     32  C   UNL     1      -1.886 -17.445 -17.306  1.00  0.00     0.004 C 
ENDBRANCH  30  31
ENDBRANCH  29  30
ENDBRANCH  28  29
ENDBRANCH  27  28
ENDBRANCH  26  27
ENDBRANCH  25  26
ENDBRANCH  24  25
ENDBRANCH  23  24
ENDBRANCH  22  23
ENDBRANCH  21  22
ENDBRANCH  20  21
ENDBRANCH  19  20
ENDBRANCH  18  19
ENDBRANCH   1  18
TORSDOF 28
ENDMDL
MODEL 7
REMARK VINA RESULT:    18.291      3.811     10.971
REMARK INTER + INTRA:          48.128
REMARK INTER:                  47.693
REMARK INTRA:                   0.435
REMARK UNBOUND:                -0.103
REMARK SMILES CCCCCCCCCCCCCCCCCCCCCCCCCCCCCC(=O)[O-]
REMARK SMILES IDX 16 1 17 2 18 3 19 4 20 5 21 6 22 7 23 8 24 9 25 10 26 11
REMARK SMILES IDX 27 12 28 13 29 14 30 15 31 16 32 17 15 18 14 19 13 20 12 21
REMARK SMILES IDX 11 22 10 23 9 24 8 25 7 26 6 27 5 28 4 29 3 30 2 31 1 32
REMARK H PARENT
REMARK Flexibility Score: inf
ROOT
ATOM      1  C   UNL     1       5.567 -23.254 -14.164  1.00  0.00     0.000 C 
ENDROOT
BRANCH   1   2
ATOM      2  C   UNL     1       4.595 -23.987 -13.217  1.00  0.00     0.000 C 
BRANCH   2   3
ATOM      3  C   UNL     1       3.758 -25.100 -13.871  1.00  0.00     0.000 C 
BRANCH   3   4
ATOM      4  C   UNL     1       4.571 -25.965 -14.849  1.00  0.00     0.000 C 
BRANCH   4   5
ATOM      5  C   UNL     1       5.104 -25.163 -16.049  1.00  0.00     0.000 C 
BRANCH   5   6
ATOM      6  C   UNL     1       6.637 -25.180 -16.221  1.00  0.00     0.000 C 
BRANCH   6   7
ATOM      7  C   UNL     1       7.132 -25.414 -17.662  1.00  0.00     0.000 C 
BRANCH   7   8
ATOM      8  C   UNL     1       8.492 -24.772 -17.991  1.00  0.00     0.000 C 
BRANCH   8   9
ATOM      9  C   UNL     1       8.869 -24.906 -19.476  1.00  0.00     0.000 C 
BRANCH   9  10
ATOM     10  C   UNL     1       8.055 -23.969 -20.387  1.00  0.00     0.000 C 
BRANCH  10  11
ATOM     11  C   UNL     1       8.875 -23.257 -21.480  1.00  0.00     0.000 C 
BRANCH  11  12
ATOM     12  C   UNL     1      10.175 -23.973 -21.898  1.00  0.00     0.000 C 
BRANCH  12  13
ATOM     13  C   UNL     1      10.581 -23.778 -23.372  1.00  0.00     0.006 C 
BRANCH  13  14
ATOM     14  C   UNL     1      11.923 -23.055 -23.572  1.00  0.00     0.053 C 
BRANCH  14  15
ATOM     15  C   UNL     1      12.479 -23.271 -24.945  1.00  0.00     0.041 C 
ATOM     16  O   UNL     1      13.652 -22.903 -25.218  1.00  0.00    -0.550 OA
ATOM     17  O   UNL     1      11.691 -23.849 -25.933  1.00  0.00    -0.550 OA
ENDBRANCH  14  15
ENDBRANCH  13  14
ENDBRANCH  12  13
ENDBRANCH  11  12
ENDBRANCH  10  11
ENDBRANCH   9  10
ENDBRANCH   8   9
ENDBRANCH   7   8
ENDBRANCH   6   7
ENDBRANCH   5   6
ENDBRANCH   4   5
ENDBRANCH   3   4
ENDBRANCH   2   3
ENDBRANCH   1   2
BRANCH   1  18
ATOM     18  C   UNL     1       6.639 -22.391 -13.470  1.00  0.00     0.000 C 
BRANCH  18  19
ATOM     19  C   UNL     1       6.163 -20.994 -13.034  1.00  0.00     0.000 C 
BRANCH  19  20
ATOM     20  C   UNL     1       5.260 -20.319 -14.081  1.00  0.00     0.000 C 
BRANCH  20  21
ATOM     21  C   UNL     1       5.139 -18.803 -13.863  1.00  0.00     0.000 C 
BRANCH  21  22
ATOM     22  C   UNL     1       3.725 -18.381 -13.429  1.00  0.00     0.000 C 
BRANCH  22  23
ATOM     23  C   UNL     1       3.511 -16.860 -13.512  1.00  0.00     0.000 C 
BRANCH  23  24
ATOM     24  C   UNL     1       3.283 -16.373 -14.951  1.00  0.00    -0.000 C 
BRANCH  24  25
ATOM     25  C   UNL     1       2.112 -15.380 -15.016  1.00  0.00    -0.000 C 
BRANCH  25  26
ATOM     26  C   UNL     1       1.373 -15.417 -16.364  1.00  0.00    -0.000 C 
BRANCH  26  27
ATOM     27  C   UNL     1       1.293 -14.034 -17.034  1.00  0.00    -0.000 C 
BRANCH  27  28
ATOM     28  C   UNL     1       2.676 -13.412 -17.298  1.00  0.00    -0.000 C 
BRANCH  28  29
ATOM     29  C   UNL     1       2.947 -13.005 -18.759  1.00  0.00    -0.000 C 
BRANCH  29  30
ATOM     30  C   UNL     1       2.904 -14.195 -19.733  1.00  0.00    -0.000 C 
BRANCH  30  31
ATOM     31  C   UNL     1       3.834 -15.340 -19.302  1.00  0.00    -0.003 C 
ATOM     32  C   UNL     1       4.835 -14.919 -18.227  1.00  0.00     0.004 C 
ENDBRANCH  30  31
ENDBRANCH  29  30
ENDBRANCH  28  29
ENDBRANCH  27  28
ENDBRANCH  26  27
ENDBRANCH  25  26
ENDBRANCH  24  25
ENDBRANCH  23  24
ENDBRANCH  22  23
ENDBRANCH  21  22
ENDBRANCH  20  21
ENDBRANCH  19  20
ENDBRANCH  18  19
ENDBRANCH   1  18
TORSDOF 28
ENDMDL
MODEL 8
REMARK VINA RESULT:    18.329      3.707     10.959
REMARK INTER + INTRA:          48.228
REMARK INTER:                  49.533
REMARK INTRA:                  -1.306
REMARK UNBOUND:                -0.103
REMARK SMILES CCCCCCCCCCCCCCCCCCCCCCCCCCCCCC(=O)[O-]
REMARK SMILES IDX 16 1 17 2 18 3 19 4 20 5 21 6 22 7 23 8 24 9 25 10 26 11
REMARK SMILES IDX 27 12 28 13 29 14 30 15 31 16 32 17 15 18 14 19 13 20 12 21
REMARK SMILES IDX 11 22 10 23 9 24 8 25 7 26 6 27 5 28 4 29 3 30 2 31 1 32
REMARK H PARENT
REMARK Flexibility Score: inf
ROOT
ATOM      1  C   UNL     1       6.274 -22.728 -13.090  1.00  0.00     0.000 C 
ENDROOT
BRANCH   1   2
ATOM      2  C   UNL     1       5.236 -23.742 -12.564  1.00  0.00     0.000 C 
BRANCH   2   3
ATOM      3  C   UNL     1       4.013 -23.959 -13.475  1.00  0.00     0.000 C 
BRANCH   3   4
ATOM      4  C   UNL     1       3.703 -25.446 -13.717  1.00  0.00     0.000 C 
BRANCH   4   5
ATOM      5  C   UNL     1       4.290 -25.967 -15.039  1.00  0.00     0.000 C 
BRANCH   5   6
ATOM      6  C   UNL     1       5.374 -25.072 -15.674  1.00  0.00     0.000 C 
BRANCH   6   7
ATOM      7  C   UNL     1       6.076 -25.668 -16.911  1.00  0.00     0.000 C 
BRANCH   7   8
ATOM      8  C   UNL     1       7.509 -25.161 -17.149  1.00  0.00     0.000 C 
BRANCH   8   9
ATOM      9  C   UNL     1       7.999 -25.415 -18.585  1.00  0.00     0.000 C 
BRANCH   9  10
ATOM     10  C   UNL     1       8.829 -24.249 -19.149  1.00  0.00     0.000 C 
BRANCH  10  11
ATOM     11  C   UNL     1       9.495 -24.527 -20.511  1.00  0.00     0.000 C 
BRANCH  11  12
ATOM     12  C   UNL     1       8.861 -23.799 -21.713  1.00  0.00     0.000 C 
BRANCH  12  13
ATOM     13  C   UNL     1       9.849 -22.994 -22.581  1.00  0.00     0.006 C 
BRANCH  13  14
ATOM     14  C   UNL     1      11.200 -23.688 -22.817  1.00  0.00     0.053 C 
BRANCH  14  15
ATOM     15  C   UNL     1      11.792 -23.328 -24.145  1.00  0.00     0.041 C 
ATOM     16  O   UNL     1      12.934 -22.800 -24.206  1.00  0.00    -0.550 OA
ATOM     17  O   UNL     1      11.071 -23.548 -25.312  1.00  0.00    -0.550 OA
ENDBRANCH  14  15
ENDBRANCH  13  14
ENDBRANCH  12  13
ENDBRANCH  11  12
ENDBRANCH  10  11
ENDBRANCH   9  10
ENDBRANCH   8   9
ENDBRANCH   7   8
ENDBRANCH   6   7
ENDBRANCH   5   6
ENDBRANCH   4   5
ENDBRANCH   3   4
ENDBRANCH   2   3
ENDBRANCH   1   2
BRANCH   1  18
ATOM     18  C   UNL     1       5.843 -21.930 -14.336  1.00  0.00     0.000 C 
BRANCH  18  19
ATOM     19  C   UNL     1       4.818 -20.814 -14.067  1.00  0.00     0.000 C 
BRANCH  19  20
ATOM     20  C   UNL     1       5.471 -19.515 -13.563  1.00  0.00     0.000 C 
BRANCH  20  21
ATOM     21  C   UNL     1       4.867 -18.262 -14.217  1.00  0.00     0.000 C 
BRANCH  21  22
ATOM     22  C   UNL     1       5.450 -17.988 -15.614  1.00  0.00     0.000 C 
BRANCH  22  23
ATOM     23  C   UNL     1       4.755 -16.815 -16.325  1.00  0.00     0.000 C 
BRANCH  23  24
ATOM     24  C   UNL     1       5.483 -16.386 -17.608  1.00  0.00    -0.000 C 
BRANCH  24  25
ATOM     25  C   UNL     1       4.978 -15.019 -18.095  1.00  0.00    -0.000 C 
BRANCH  25  26
ATOM     26  C   UNL     1       3.551 -15.079 -18.665  1.00  0.00    -0.000 C 
BRANCH  26  27
ATOM     27  C   UNL     1       2.711 -13.844 -18.294  1.00  0.00    -0.000 C 
BRANCH  27  28
ATOM     28  C   UNL     1       2.071 -13.948 -16.898  1.00  0.00    -0.000 C 
BRANCH  28  29
ATOM     29  C   UNL     1       1.561 -15.348 -16.509  1.00  0.00    -0.000 C 
BRANCH  29  30
ATOM     30  C   UNL     1       0.380 -15.820 -17.376  1.00  0.00    -0.000 C 
BRANCH  30  31
ATOM     31  C   UNL     1      -0.417 -16.955 -16.716  1.00  0.00    -0.003 C 
ATOM     32  C   UNL     1      -1.837 -17.081 -17.266  1.00  0.00     0.004 C 
ENDBRANCH  30  31
ENDBRANCH  29  30
ENDBRANCH  28  29
ENDBRANCH  27  28
ENDBRANCH  26  27
ENDBRANCH  25  26
ENDBRANCH  24  25
ENDBRANCH  23  24
ENDBRANCH  22  23
ENDBRANCH  21  22
ENDBRANCH  20  21
ENDBRANCH  19  20
ENDBRANCH  18  19
ENDBRANCH   1  18
TORSDOF 28
ENDMDL
MODEL 9
REMARK VINA RESULT:    18.587      3.818     10.507
REMARK INTER + INTRA:          48.908
REMARK INTER:                  48.480
REMARK INTRA:                   0.429
REMARK UNBOUND:                -0.103
REMARK SMILES CCCCCCCCCCCCCCCCCCCCCCCCCCCCCC(=O)[O-]
REMARK SMILES IDX 16 1 17 2 18 3 19 4 20 5 21 6 22 7 23 8 24 9 25 10 26 11
REMARK SMILES IDX 27 12 28 13 29 14 30 15 31 16 32 17 15 18 14 19 13 20 12 21
REMARK SMILES IDX 11 22 10 23 9 24 8 25 7 26 6 27 5 28 4 29 3 30 2 31 1 32
REMARK H PARENT
REMARK Flexibility Score: inf
ROOT
ATOM      1  C   UNL     1       8.059 -22.870 -21.693  1.00  0.00     0.000 C 
ENDROOT
BRANCH   1   2
ATOM      2  C   UNL     1       9.508 -23.305 -21.999  1.00  0.00     0.000 C 
BRANCH   2   3
ATOM      3  C   UNL     1       9.901 -24.694 -21.466  1.00  0.00     0.000 C 
BRANCH   3   4
ATOM      4  C   UNL     1       9.969 -24.749 -19.929  1.00  0.00     0.000 C 
BRANCH   4   5
ATOM      5  C   UNL     1       8.631 -24.388 -19.263  1.00  0.00     0.000 C 
BRANCH   5   6
ATOM      6  C   UNL     1       7.613 -25.544 -19.166  1.00  0.00     0.000 C 
BRANCH   6   7
ATOM      7  C   UNL     1       7.296 -26.020 -17.734  1.00  0.00     0.000 C 
BRANCH   7   8
ATOM      8  C   UNL     1       7.677 -25.027 -16.622  1.00  0.00     0.000 C 
BRANCH   8   9
ATOM      9  C   UNL     1       6.590 -24.900 -15.541  1.00  0.00     0.000 C 
BRANCH   9  10
ATOM     10  C   UNL     1       5.180 -25.220 -16.069  1.00  0.00     0.000 C 
BRANCH  10  11
ATOM     11  C   UNL     1       4.164 -25.639 -14.989  1.00  0.00     0.000 C 
BRANCH  11  12
ATOM     12  C   UNL     1       4.529 -25.226 -13.549  1.00  0.00     0.000 C 
BRANCH  12  13
ATOM     13  C   UNL     1       4.487 -23.709 -13.276  1.00  0.00     0.006 C 
BRANCH  13  14
ATOM     14  C   UNL     1       5.306 -22.863 -14.263  1.00  0.00     0.053 C 
BRANCH  14  15
ATOM     15  C   UNL     1       6.289 -21.977 -13.564  1.00  0.00     0.041 C 
ATOM     16  O   UNL     1       5.974 -20.795 -13.263  1.00  0.00    -0.550 OA
ATOM     17  O   UNL     1       7.564 -22.446 -13.271  1.00  0.00    -0.550 OA
ENDBRANCH  14  15
ENDBRANCH  13  14
ENDBRANCH  12  13
ENDBRANCH  11  12
ENDBRANCH  10  11
ENDBRANCH   9  10
ENDBRANCH   8   9
ENDBRANCH   7   8
ENDBRANCH   6   7
ENDBRANCH   5   6
ENDBRANCH   4   5
ENDBRANCH   3   4
ENDBRANCH   2   3
ENDBRANCH   1   2
BRANCH   1  18
ATOM     18  C   UNL     1       7.853 -21.355 -21.499  1.00  0.00     0.000 C 
BRANCH  18  19
ATOM     19  C   UNL     1       8.409 -20.476 -22.635  1.00  0.00     0.000 C 
BRANCH  19  20
ATOM     20  C   UNL     1       9.328 -19.353 -22.123  1.00  0.00     0.000 C 
BRANCH  20  21
ATOM     21  C   UNL     1       9.167 -18.052 -22.926  1.00  0.00     0.000 C 
BRANCH  21  22
ATOM     22  C   UNL     1       8.836 -16.845 -22.032  1.00  0.00     0.000 C 
BRANCH  22  23
ATOM     23  C   UNL     1       8.698 -17.228 -20.549  1.00  0.00     0.000 C 
BRANCH  23  24
ATOM     24  C   UNL     1       8.294 -16.037 -19.666  1.00  0.00    -0.000 C 
BRANCH  24  25
ATOM     25  C   UNL     1       7.249 -16.459 -18.621  1.00  0.00    -0.000 C 
BRANCH  25  26
ATOM     26  C   UNL     1       6.575 -15.260 -17.933  1.00  0.00    -0.000 C 
BRANCH  26  27
ATOM     27  C   UNL     1       5.040 -15.325 -17.997  1.00  0.00    -0.000 C 
BRANCH  27  28
ATOM     28  C   UNL     1       4.393 -13.972 -18.342  1.00  0.00    -0.000 C 
BRANCH  28  29
ATOM     29  C   UNL     1       3.176 -14.045 -19.284  1.00  0.00    -0.000 C 
BRANCH  29  30
ATOM     30  C   UNL     1       1.930 -14.646 -18.612  1.00  0.00    -0.000 C 
BRANCH  30  31
ATOM     31  C   UNL     1       1.727 -14.127 -17.180  1.00  0.00    -0.003 C 
ATOM     32  C   UNL     1       1.815 -15.234 -16.130  1.00  0.00     0.004 C 
ENDBRANCH  30  31
ENDBRANCH  29  30
ENDBRANCH  28  29
ENDBRANCH  27  28
ENDBRANCH  26  27
ENDBRANCH  25  26
ENDBRANCH  24  25
ENDBRANCH  23  24
ENDBRANCH  22  23
ENDBRANCH  21  22
ENDBRANCH  20  21
ENDBRANCH  19  20
ENDBRANCH  18  19
ENDBRANCH   1  18
TORSDOF 28
ENDMDL
