MODEL 1
REMARK VINA RESULT:     2.605      0.000      0.000
REMARK INTER + INTRA:           3.612
REMARK INTER:                   3.824
REMARK INTRA:                  -0.212
REMARK UNBOUND:                -0.212
REMARK SMILES O=C([O-])CCCCCCCC(=O)[O-]
REMARK SMILES IDX 7 1 6 2 5 3 4 4 2 5 1 6 3 7 8 8 9 9 10 10 11 11 12 12 13 13
REMARK H PARENT
REMARK Flexibility Score: inf
ROOT
ATOM      1  C   UNL     1       3.388  -6.705  11.214  1.00  0.00     0.000 C 
ENDROOT
BRANCH   1   2
ATOM      2  C   UNL     1       1.870  -6.460  11.232  1.00  0.00     0.000 C 
BRANCH   2   3
ATOM      3  C   UNL     1       1.108  -7.531  12.032  1.00  0.00     0.006 C 
BRANCH   3   4
ATOM      4  C   UNL     1      -0.398  -7.510  11.739  1.00  0.00     0.053 C 
BRANCH   4   5
ATOM      5  C   UNL     1      -0.705  -8.052  10.377  1.00  0.00     0.041 C 
ATOM      6  O   UNL     1      -0.558  -9.279  10.135  1.00  0.00    -0.550 OA
ATOM      7  O   UNL     1      -1.122  -7.197   9.365  1.00  0.00    -0.550 OA
ENDBRANCH   4   5
ENDBRANCH   3   4
ENDBRANCH   2   3
ENDBRANCH   1   2
BRANCH   1   8
ATOM      8  C   UNL     1       3.750  -8.192  11.336  1.00  0.00     0.000 C 
BRANCH   8   9
ATOM      9  C   UNL     1       4.501  -8.469  12.643  1.00  0.00     0.006 C 
BRANCH   9  10
ATOM     10  C   UNL     1       5.049  -7.173  13.248  1.00  0.00     0.053 C 
BRANCH  10  11
ATOM     11  C   UNL     1       6.456  -6.938  12.796  1.00  0.00     0.041 C 
ATOM     12  O   UNL     1       6.746  -6.996  11.571  1.00  0.00    -0.550 OA
ATOM     13  O   UNL     1       7.456  -6.705  13.730  1.00  0.00    -0.550 OA
ENDBRANCH  10  11
ENDBRANCH   9  10
ENDBRANCH   8   9
ENDBRANCH   1   8
TORSDOF 8
ENDMDL
MODEL 2
REMARK VINA RESULT:     2.840      0.954      6.725
REMARK INTER + INTRA:           3.957
REMARK INTER:                   4.303
REMARK INTRA:                  -0.346
REMARK UNBOUND:                -0.212
REMARK SMILES O=C([O-])CCCCCCCC(=O)[O-]
REMARK SMILES IDX 7 1 6 2 5 3 4 4 2 5 1 6 3 7 8 8 9 9 10 10 11 11 12 12 13 13
REMARK H PARENT
REMARK Flexibility Score: inf
ROOT
ATOM      1  C   UNL     1       3.657  -8.197  10.975  1.00  0.00     0.000 C 
ENDROOT
BRANCH   1   2
ATOM      2  C   UNL     1       4.310  -8.201  12.367  1.00  0.00     0.000 C 
BRANCH   2   3
ATOM      3  C   UNL     1       4.952  -6.849  12.723  1.00  0.00     0.006 C 
BRANCH   3   4
ATOM      4  C   UNL     1       6.398  -6.745  12.220  1.00  0.00     0.053 C 
BRANCH   4   5
ATOM      5  C   UNL     1       7.372  -6.626  13.351  1.00  0.00     0.041 C 
ATOM      6  O   UNL     1       8.368  -7.394  13.413  1.00  0.00    -0.550 OA
ATOM      7  O   UNL     1       7.162  -5.689  14.355  1.00  0.00    -0.550 OA
ENDBRANCH   4   5
ENDBRANCH   3   4
ENDBRANCH   2   3
ENDBRANCH   1   2
BRANCH   1   8
ATOM      8  C   UNL     1       2.416  -7.295  10.906  1.00  0.00     0.000 C 
BRANCH   8   9
ATOM      9  C   UNL     1       1.416  -7.653  12.012  1.00  0.00     0.006 C 
BRANCH   9  10
ATOM     10  C   UNL     1      -0.003  -7.221  11.631  1.00  0.00     0.053 C 
BRANCH  10  11
ATOM     11  C   UNL     1      -0.521  -8.057  10.504  1.00  0.00     0.041 C 
ATOM     12  O   UNL     1      -0.371  -9.307  10.522  1.00  0.00    -0.550 OA
ATOM     13  O   UNL     1      -1.125  -7.452   9.410  1.00  0.00    -0.550 OA
ENDBRANCH  10  11
ENDBRANCH   9  10
ENDBRANCH   8   9
ENDBRANCH   1   8
TORSDOF 8
ENDMDL
MODEL 3
REMARK VINA RESULT:     3.910      1.747      6.910
REMARK INTER + INTRA:           5.526
REMARK INTER:                   5.945
REMARK INTRA:                  -0.418
REMARK UNBOUND:                -0.212
REMARK SMILES O=C([O-])CCCCCCCC(=O)[O-]
REMARK SMILES IDX 7 1 6 2 5 3 4 4 2 5 1 6 3 7 8 8 9 9 10 10 11 11 12 12 13 13
REMARK H PARENT
REMARK Flexibility Score: inf
ROOT
ATOM      1  C   UNL     1       4.851  -7.517  13.131  1.00  0.00     0.000 C 
ENDROOT
BRANCH   1   2
ATOM      2  C   UNL     1       5.734  -7.127  11.934  1.00  0.00     0.000 C 
BRANCH   2   3
ATOM      3  C   UNL     1       7.041  -6.438  12.364  1.00  0.00     0.006 C 
BRANCH   3   4
ATOM      4  C   UNL     1       7.458  -6.825  13.789  1.00  0.00     0.053 C 
BRANCH   4   5
ATOM      5  C   UNL     1       7.851  -5.627  14.597  1.00  0.00     0.041 C 
ATOM      6  O   UNL     1       9.057  -5.270  14.655  1.00  0.00    -0.550 OA
ATOM      7  O   UNL     1       6.890  -4.925  15.314  1.00  0.00    -0.550 OA
ENDBRANCH   4   5
ENDBRANCH   3   4
ENDBRANCH   2   3
ENDBRANCH   1   2
BRANCH   1   8
ATOM      8  C   UNL     1       3.579  -8.268  12.709  1.00  0.00     0.000 C 
BRANCH   8   9
ATOM      9  C   UNL     1       3.224  -7.967  11.248  1.00  0.00     0.006 C 
BRANCH   9  10
ATOM     10  C   UNL     1       2.046  -6.993  11.158  1.00  0.00     0.053 C 
BRANCH  10  11
ATOM     11  C   UNL     1       0.753  -7.710  11.390  1.00  0.00     0.041 C 
ATOM     12  O   UNL     1       0.065  -7.459  12.414  1.00  0.00    -0.550 OA
ATOM     13  O   UNL     1       0.334  -8.691  10.501  1.00  0.00    -0.550 OA
ENDBRANCH  10  11
ENDBRANCH   9  10
ENDBRANCH   8   9
ENDBRANCH   1   8
TORSDOF 8
ENDMDL
MODEL 4
REMARK VINA RESULT:     4.287      2.358      5.569
REMARK INTER + INTRA:           6.080
REMARK INTER:                   6.203
REMARK INTRA:                  -0.123
REMARK UNBOUND:                -0.212
REMARK SMILES O=C([O-])CCCCCCCC(=O)[O-]
REMARK SMILES IDX 7 1 6 2 5 3 4 4 2 5 1 6 3 7 8 8 9 9 10 10 11 11 12 12 13 13
REMARK H PARENT
REMARK Flexibility Score: inf
ROOT
ATOM      1  C   UNL     1       4.294  -8.024  10.914  1.00  0.00     0.000 C 
ENDROOT
BRANCH   1   2
ATOM      2  C   UNL     1       4.848  -7.074  11.989  1.00  0.00     0.000 C 
BRANCH   2   3
ATOM      3  C   UNL     1       5.073  -7.777  13.340  1.00  0.00     0.006 C 
BRANCH   3   4
ATOM      4  C   UNL     1       4.589  -9.233  13.322  1.00  0.00     0.053 C 
BRANCH   4   5
ATOM      5  C   UNL     1       3.503  -9.469  14.327  1.00  0.00     0.041 C 
ATOM      6  O   UNL     1       3.742 -10.125  15.375  1.00  0.00    -0.550 OA
ATOM      7  O   UNL     1       2.219  -8.993  14.090  1.00  0.00    -0.550 OA
ENDBRANCH   4   5
ENDBRANCH   3   4
ENDBRANCH   2   3
ENDBRANCH   1   2
BRANCH   1   8
ATOM      8  C   UNL     1       2.763  -8.137  10.956  1.00  0.00     0.000 C 
BRANCH   8   9
ATOM      9  C   UNL     1       2.120  -6.774  11.240  1.00  0.00     0.006 C 
BRANCH   9  10
ATOM     10  C   UNL     1       0.793  -6.625  10.489  1.00  0.00     0.053 C 
BRANCH  10  11
ATOM     11  C   UNL     1      -0.217  -7.596  11.012  1.00  0.00     0.041 C 
ATOM     12  O   UNL     1      -0.258  -7.867  12.241  1.00  0.00    -0.550 OA
ATOM     13  O   UNL     1      -1.080  -8.240  10.136  1.00  0.00    -0.550 OA
ENDBRANCH  10  11
ENDBRANCH   9  10
ENDBRANCH   8   9
ENDBRANCH   1   8
TORSDOF 8
ENDMDL
MODEL 5
REMARK VINA RESULT:     4.764      0.170      6.355
REMARK INTER + INTRA:           6.781
REMARK INTER:                   7.108
REMARK INTRA:                  -0.327
REMARK UNBOUND:                -0.212
REMARK SMILES O=C([O-])CCCCCCCC(=O)[O-]
REMARK SMILES IDX 7 1 6 2 5 3 4 4 2 5 1 6 3 7 8 8 9 9 10 10 11 11 12 12 13 13
REMARK H PARENT
REMARK Flexibility Score: inf
ROOT
ATOM      1  C   UNL     1       3.275  -6.616  11.237  1.00  0.00     0.000 C 
ENDROOT
BRANCH   1   2
ATOM      2  C   UNL     1       3.632  -8.110  11.186  1.00  0.00     0.000 C 
BRANCH   2   3
ATOM      3  C   UNL     1       4.502  -8.551  12.377  1.00  0.00     0.006 C 
BRANCH   3   4
ATOM      4  C   UNL     1       5.028  -7.355  13.183  1.00  0.00     0.053 C 
BRANCH   4   5
ATOM      5  C   UNL     1       6.409  -6.963  12.756  1.00  0.00     0.041 C 
ATOM      6  O   UNL     1       6.646  -6.692  11.549  1.00  0.00    -0.550 OA
ATOM      7  O   UNL     1       7.442  -6.931  13.684  1.00  0.00    -0.550 OA
ENDBRANCH   4   5
ENDBRANCH   3   4
ENDBRANCH   2   3
ENDBRANCH   1   2
BRANCH   1   8
ATOM      8  C   UNL     1       1.760  -6.372  11.316  1.00  0.00     0.000 C 
BRANCH   8   9
ATOM      9  C   UNL     1       1.058  -7.519  12.052  1.00  0.00     0.006 C 
BRANCH   9  10
ATOM     10  C   UNL     1      -0.448  -7.510  11.773  1.00  0.00     0.053 C 
BRANCH  10  11
ATOM     11  C   UNL     1      -0.730  -8.032  10.400  1.00  0.00     0.041 C 
ATOM     12  O   UNL     1      -0.567  -9.254  10.140  1.00  0.00    -0.550 OA
ATOM     13  O   UNL     1      -1.125  -7.161   9.393  1.00  0.00    -0.550 OA
ENDBRANCH  10  11
ENDBRANCH   9  10
ENDBRANCH   8   9
ENDBRANCH   1   8
TORSDOF 8
ENDMDL
