MODEL 1
REMARK VINA RESULT:    -6.455      0.000      0.000
REMARK INTER + INTRA:          -7.098
REMARK INTER:                  -6.832
REMARK INTRA:                  -0.266
REMARK UNBOUND:                -0.266
REMARK SMILES O=c1cc(-c2ccccc2)oc2ccccc12
REMARK SMILES IDX 4 1 3 2 2 3 1 4 17 5 16 6 15 7 14 8 13 9 12 10 11 11 5 12
REMARK SMILES IDX 8 13 7 14 9 15 6 16 10 17
REMARK H PARENT
REMARK Flexibility Score: inf
ROOT
ATOM      1  C   UNL     1      20.174   7.000 -21.455  1.00  0.00     0.138 A 
ATOM      2  C   UNL     1      19.159   6.917 -22.433  1.00  0.00     0.100 A 
ATOM      3  C   UNL     1      17.903   7.464 -22.169  1.00  0.00     0.193 A 
ATOM      4  O   UNL     1      16.995   7.389 -23.042  1.00  0.00    -0.289 OA
ATOM      5  C   UNL     1      17.666   8.088 -20.936  1.00  0.00     0.065 A 
ATOM      6  C   UNL     1      16.423   8.659 -20.606  1.00  0.00     0.016 A 
ATOM      7  C   UNL     1      16.241   9.270 -19.362  1.00  0.00     0.001 A 
ATOM      8  C   UNL     1      17.293   9.316 -18.440  1.00  0.00     0.004 A 
ATOM      9  C   UNL     1      18.530   8.751 -18.760  1.00  0.00     0.048 A 
ATOM     10  C   UNL     1      18.723   8.138 -20.003  1.00  0.00     0.138 A 
ATOM     11  O   UNL     1      19.905   7.604 -20.297  1.00  0.00    -0.456 OA
ENDROOT
BRANCH   1  12
ATOM     12  C   UNL     1      21.546   6.442 -21.657  1.00  0.00     0.017 A 
ATOM     13  C   UNL     1      24.111   5.360 -22.128  1.00  0.00     0.000 A 
ATOM     14  C   UNL     1      23.816   5.948 -20.899  1.00  0.00     0.001 A 
ATOM     15  C   UNL     1      23.137   5.307 -23.125  1.00  0.00     0.001 A 
ATOM     16  C   UNL     1      22.547   6.486 -20.659  1.00  0.00     0.012 A 
ATOM     17  C   UNL     1      21.866   5.841 -22.893  1.00  0.00     0.012 A 
ENDBRANCH   1  12
TORSDOF 1
ENDMDL
MODEL 2
REMARK VINA RESULT:    -6.279      1.236      6.400
REMARK INTER + INTRA:          -6.912
REMARK INTER:                  -6.646
REMARK INTRA:                  -0.265
REMARK UNBOUND:                -0.266
REMARK SMILES O=c1cc(-c2ccccc2)oc2ccccc12
REMARK SMILES IDX 4 1 3 2 2 3 1 4 17 5 16 6 15 7 14 8 13 9 12 10 11 11 5 12
REMARK SMILES IDX 8 13 7 14 9 15 6 16 10 17
REMARK H PARENT
REMARK Flexibility Score: inf
ROOT
ATOM      1  C   UNL     1      20.129   7.567 -20.283  1.00  0.00     0.138 A 
ATOM      2  C   UNL     1      21.134   7.745 -19.309  1.00  0.00     0.100 A 
ATOM      3  C   UNL     1      22.404   7.208 -19.524  1.00  0.00     0.193 A 
ATOM      4  O   UNL     1      23.303   7.366 -18.653  1.00  0.00    -0.289 OA
ATOM      5  C   UNL     1      22.664   6.499 -20.706  1.00  0.00     0.065 A 
ATOM      6  C   UNL     1      23.920   5.932 -20.985  1.00  0.00     0.016 A 
ATOM      7  C   UNL     1      24.125   5.236 -22.180  1.00  0.00     0.001 A 
ATOM      8  C   UNL     1      23.082   5.099 -23.101  1.00  0.00     0.004 A 
ATOM      9  C   UNL     1      21.830   5.659 -22.832  1.00  0.00     0.048 A 
ATOM     10  C   UNL     1      21.615   6.359 -21.639  1.00  0.00     0.138 A 
ATOM     11  O   UNL     1      20.421   6.887 -21.393  1.00  0.00    -0.456 OA
ENDROOT
BRANCH   1  12
ATOM     12  C   UNL     1      18.744   8.110 -20.132  1.00  0.00     0.017 A 
ATOM     13  C   UNL     1      16.150   9.160 -19.754  1.00  0.00     0.000 A 
ATOM     14  C   UNL     1      16.501   8.587 -20.977  1.00  0.00     0.001 A 
ATOM     15  C   UNL     1      17.083   9.212 -18.719  1.00  0.00     0.001 A 
ATOM     16  C   UNL     1      17.784   8.065 -21.170  1.00  0.00     0.012 A 
ATOM     17  C   UNL     1      18.367   8.693 -18.904  1.00  0.00     0.012 A 
ENDBRANCH   1  12
TORSDOF 1
ENDMDL
MODEL 3
REMARK VINA RESULT:    -6.019     17.692     18.803
REMARK INTER + INTRA:          -6.637
REMARK INTER:                  -6.413
REMARK INTRA:                  -0.223
REMARK UNBOUND:                -0.266
REMARK SMILES O=c1cc(-c2ccccc2)oc2ccccc12
REMARK SMILES IDX 4 1 3 2 2 3 1 4 17 5 16 6 15 7 14 8 13 9 12 10 11 11 5 12
REMARK SMILES IDX 8 13 7 14 9 15 6 16 10 17
REMARK H PARENT
REMARK Flexibility Score: inf
ROOT
ATOM      1  C   UNL     1       4.752   6.446 -10.164  1.00  0.00     0.138 A 
ATOM      2  C   UNL     1       4.362   6.227 -11.502  1.00  0.00     0.100 A 
ATOM      3  C   UNL     1       4.328   7.299 -12.394  1.00  0.00     0.193 A 
ATOM      4  O   UNL     1       3.979   7.104 -13.591  1.00  0.00    -0.289 OA
ATOM      5  C   UNL     1       4.683   8.580 -11.948  1.00  0.00     0.065 A 
ATOM      6  C   UNL     1       4.670   9.704 -12.794  1.00  0.00     0.016 A 
ATOM      7  C   UNL     1       5.034  10.959 -12.298  1.00  0.00     0.001 A 
ATOM      8  C   UNL     1       5.411  11.103 -10.958  1.00  0.00     0.004 A 
ATOM      9  C   UNL     1       5.426   9.992 -10.111  1.00  0.00     0.048 A 
ATOM     10  C   UNL     1       5.064   8.731 -10.598  1.00  0.00     0.138 A 
ATOM     11  O   UNL     1       5.082   7.681  -9.783  1.00  0.00    -0.456 OA
ENDROOT
BRANCH   1  12
ATOM     12  C   UNL     1       4.815   5.354  -9.145  1.00  0.00     0.017 A 
ATOM     13  C   UNL     1       5.014   3.255  -7.267  1.00  0.00     0.000 A 
ATOM     14  C   UNL     1       3.996   4.202  -7.151  1.00  0.00     0.001 A 
ATOM     15  C   UNL     1       5.932   3.346  -8.312  1.00  0.00     0.001 A 
ATOM     16  C   UNL     1       3.893   5.244  -8.078  1.00  0.00     0.012 A 
ATOM     17  C   UNL     1       5.836   4.384  -9.243  1.00  0.00     0.012 A 
ENDBRANCH   1  12
TORSDOF 1
ENDMDL
MODEL 4
REMARK VINA RESULT:    -5.943      1.150      2.463
REMARK INTER + INTRA:          -6.556
REMARK INTER:                  -6.291
REMARK INTRA:                  -0.265
REMARK UNBOUND:                -0.266
REMARK SMILES O=c1cc(-c2ccccc2)oc2ccccc12
REMARK SMILES IDX 4 1 3 2 2 3 1 4 17 5 16 6 15 7 14 8 13 9 12 10 11 11 5 12
REMARK SMILES IDX 8 13 7 14 9 15 6 16 10 17
REMARK H PARENT
REMARK Flexibility Score: inf
ROOT
ATOM      1  C   UNL     1      20.737   7.335 -20.437  1.00  0.00     0.138 A 
ATOM      2  C   UNL     1      20.877   7.948 -19.174  1.00  0.00     0.100 A 
ATOM      3  C   UNL     1      19.785   8.600 -18.600  1.00  0.00     0.193 A 
ATOM      4  O   UNL     1      19.910   9.149 -17.471  1.00  0.00    -0.289 OA
ATOM      5  C   UNL     1      18.564   8.637 -19.287  1.00  0.00     0.065 A 
ATOM      6  C   UNL     1      17.425   9.277 -18.767  1.00  0.00     0.016 A 
ATOM      7  C   UNL     1      16.231   9.284 -19.494  1.00  0.00     0.001 A 
ATOM      8  C   UNL     1      16.164   8.655 -20.742  1.00  0.00     0.004 A 
ATOM      9  C   UNL     1      17.291   8.017 -21.266  1.00  0.00     0.048 A 
ATOM     10  C   UNL     1      18.490   8.004 -20.546  1.00  0.00     0.138 A 
ATOM     11  O   UNL     1      19.556   7.394 -21.055  1.00  0.00    -0.456 OA
ENDROOT
BRANCH   1  12
ATOM     12  C   UNL     1      21.855   6.616 -21.122  1.00  0.00     0.017 A 
ATOM     13  C   UNL     1      23.909   5.248 -22.494  1.00  0.00     0.000 A 
ATOM     14  C   UNL     1      24.121   5.703 -21.193  1.00  0.00     0.001 A 
ATOM     15  C   UNL     1      22.681   5.469 -23.116  1.00  0.00     0.001 A 
ATOM     16  C   UNL     1      23.107   6.381 -20.508  1.00  0.00     0.012 A 
ATOM     17  C   UNL     1      21.663   6.146 -22.438  1.00  0.00     0.012 A 
ENDBRANCH   1  12
TORSDOF 1
ENDMDL
MODEL 5
REMARK VINA RESULT:    -5.902      2.604      3.852
REMARK INTER + INTRA:          -6.513
REMARK INTER:                  -6.284
REMARK INTRA:                  -0.230
REMARK UNBOUND:                -0.266
REMARK SMILES O=c1cc(-c2ccccc2)oc2ccccc12
REMARK SMILES IDX 4 1 3 2 2 3 1 4 17 5 16 6 15 7 14 8 13 9 12 10 11 11 5 12
REMARK SMILES IDX 8 13 7 14 9 15 6 16 10 17
REMARK H PARENT
REMARK Flexibility Score: inf
ROOT
ATOM      1  C   UNL     1      21.314   8.150 -20.467  1.00  0.00     0.138 A 
ATOM      2  C   UNL     1      21.687   7.191 -21.433  1.00  0.00     0.100 A 
ATOM      3  C   UNL     1      20.713   6.633 -22.262  1.00  0.00     0.193 A 
ATOM      4  O   UNL     1      21.047   5.776 -23.125  1.00  0.00    -0.289 OA
ATOM      5  C   UNL     1      19.377   7.034 -22.124  1.00  0.00     0.065 A 
ATOM      6  C   UNL     1      18.347   6.512 -22.927  1.00  0.00     0.016 A 
ATOM      7  C   UNL     1      17.030   6.947 -22.747  1.00  0.00     0.001 A 
ATOM      8  C   UNL     1      16.732   7.902 -21.770  1.00  0.00     0.004 A 
ATOM      9  C   UNL     1      17.750   8.426 -20.968  1.00  0.00     0.048 A 
ATOM     10  C   UNL     1      19.071   7.998 -21.140  1.00  0.00     0.138 A 
ATOM     11  O   UNL     1      20.031   8.502 -20.372  1.00  0.00    -0.456 OA
ENDROOT
BRANCH   1  12
ATOM     12  C   UNL     1      22.293   8.796 -19.540  1.00  0.00     0.017 A 
ATOM     13  C   UNL     1      24.125  10.102 -17.834  1.00  0.00     0.000 A 
ATOM     14  C   UNL     1      23.904   8.731 -17.703  1.00  0.00     0.001 A 
ATOM     15  C   UNL     1      23.440  10.826 -18.809  1.00  0.00     0.001 A 
ATOM     16  C   UNL     1      22.998   8.079 -18.546  1.00  0.00     0.012 A 
ATOM     17  C   UNL     1      22.533  10.182 -19.655  1.00  0.00     0.012 A 
ENDBRANCH   1  12
TORSDOF 1
ENDMDL
MODEL 6
REMARK VINA RESULT:    -5.816     17.137     18.779
REMARK INTER + INTRA:          -6.422
REMARK INTER:                  -6.191
REMARK INTRA:                  -0.231
REMARK UNBOUND:                -0.266
REMARK SMILES O=c1cc(-c2ccccc2)oc2ccccc12
REMARK SMILES IDX 4 1 3 2 2 3 1 4 17 5 16 6 15 7 14 8 13 9 12 10 11 11 5 12
REMARK SMILES IDX 8 13 7 14 9 15 6 16 10 17
REMARK H PARENT
REMARK Flexibility Score: inf
ROOT
ATOM      1  C   UNL     1       4.751   6.167 -10.327  1.00  0.00     0.138 A 
ATOM      2  C   UNL     1       4.911   7.557 -10.143  1.00  0.00     0.100 A 
ATOM      3  C   UNL     1       4.843   8.410 -11.245  1.00  0.00     0.193 A 
ATOM      4  O   UNL     1       4.987   9.653 -11.080  1.00  0.00    -0.289 OA
ATOM      5  C   UNL     1       4.617   7.874 -12.520  1.00  0.00     0.065 A 
ATOM      6  C   UNL     1       4.538   8.677 -13.672  1.00  0.00     0.016 A 
ATOM      7  C   UNL     1       4.309   8.091 -14.921  1.00  0.00     0.001 A 
ATOM      8  C   UNL     1       4.160   6.705 -15.030  1.00  0.00     0.004 A 
ATOM      9  C   UNL     1       4.237   5.899 -13.890  1.00  0.00     0.048 A 
ATOM     10  C   UNL     1       4.464   6.476 -12.636  1.00  0.00     0.138 A 
ATOM     11  O   UNL     1       4.536   5.701 -11.558  1.00  0.00    -0.456 OA
ENDROOT
BRANCH   1  12
ATOM     12  C   UNL     1       4.809   5.184  -9.202  1.00  0.00     0.017 A 
ATOM     13  C   UNL     1       4.998   3.288  -7.118  1.00  0.00     0.000 A 
ATOM     14  C   UNL     1       3.974   4.235  -7.110  1.00  0.00     0.001 A 
ATOM     15  C   UNL     1       5.929   3.280  -8.157  1.00  0.00     0.001 A 
ATOM     16  C   UNL     1       3.875   5.176  -8.140  1.00  0.00     0.012 A 
ATOM     17  C   UNL     1       5.837   4.217  -9.190  1.00  0.00     0.012 A 
ENDBRANCH   1  12
TORSDOF 1
ENDMDL
MODEL 7
REMARK VINA RESULT:    -5.799     20.237     20.950
REMARK INTER + INTRA:          -6.404
REMARK INTER:                  -6.138
REMARK INTRA:                  -0.265
REMARK UNBOUND:                -0.266
REMARK SMILES O=c1cc(-c2ccccc2)oc2ccccc12
REMARK SMILES IDX 4 1 3 2 2 3 1 4 17 5 16 6 15 7 14 8 13 9 12 10 11 11 5 12
REMARK SMILES IDX 8 13 7 14 9 15 6 16 10 17
REMARK H PARENT
REMARK Flexibility Score: inf
ROOT
ATOM      1  C   UNL     1      10.905  -6.913  -9.231  1.00  0.00     0.138 A 
ATOM      2  C   UNL     1      10.021  -8.009  -9.327  1.00  0.00     0.100 A 
ATOM      3  C   UNL     1       8.987  -8.143  -8.399  1.00  0.00     0.193 A 
ATOM      4  O   UNL     1       8.197  -9.123  -8.485  1.00  0.00    -0.289 OA
ATOM      5  C   UNL     1       8.842  -7.187  -7.385  1.00  0.00     0.065 A 
ATOM      6  C   UNL     1       7.823  -7.262  -6.418  1.00  0.00     0.016 A 
ATOM      7  C   UNL     1       7.723  -6.281  -5.427  1.00  0.00     0.001 A 
ATOM      8  C   UNL     1       8.635  -5.221  -5.392  1.00  0.00     0.004 A 
ATOM      9  C   UNL     1       9.650  -5.139  -6.349  1.00  0.00     0.048 A 
ATOM     10  C   UNL     1       9.759  -6.115  -7.345  1.00  0.00     0.138 A 
ATOM     11  O   UNL     1      10.729  -6.027  -8.250  1.00  0.00    -0.456 OA
ENDROOT
BRANCH   1  12
ATOM     12  C   UNL     1      12.037  -6.695 -10.183  1.00  0.00     0.017 A 
ATOM     13  C   UNL     1      14.192  -6.196 -11.938  1.00  0.00     0.000 A 
ATOM     14  C   UNL     1      13.464  -7.381 -12.045  1.00  0.00     0.001 A 
ATOM     15  C   UNL     1      13.854  -5.258 -10.963  1.00  0.00     0.001 A 
ATOM     16  C   UNL     1      12.395  -7.633 -11.179  1.00  0.00     0.012 A 
ATOM     17  C   UNL     1      12.787  -5.503 -10.093  1.00  0.00     0.012 A 
ENDBRANCH   1  12
TORSDOF 1
ENDMDL
MODEL 8
REMARK VINA RESULT:    -5.745      1.407      5.864
REMARK INTER + INTRA:          -6.347
REMARK INTER:                  -6.081
REMARK INTRA:                  -0.266
REMARK UNBOUND:                -0.266
REMARK SMILES O=c1cc(-c2ccccc2)oc2ccccc12
REMARK SMILES IDX 4 1 3 2 2 3 1 4 17 5 16 6 15 7 14 8 13 9 12 10 11 11 5 12
REMARK SMILES IDX 8 13 7 14 9 15 6 16 10 17
REMARK H PARENT
REMARK Flexibility Score: inf
ROOT
ATOM      1  C   UNL     1      19.425   7.762 -20.269  1.00  0.00     0.138 A 
ATOM      2  C   UNL     1      19.502   7.189 -21.556  1.00  0.00     0.100 A 
ATOM      3  C   UNL     1      20.693   6.595 -21.974  1.00  0.00     0.193 A 
ATOM      4  O   UNL     1      20.763   6.082 -23.125  1.00  0.00    -0.289 OA
ATOM      5  C   UNL     1      21.797   6.576 -21.110  1.00  0.00     0.065 A 
ATOM      6  C   UNL     1      23.027   5.995 -21.469  1.00  0.00     0.016 A 
ATOM      7  C   UNL     1      24.095   6.003 -20.568  1.00  0.00     0.001 A 
ATOM      8  C   UNL     1      23.947   6.590 -19.307  1.00  0.00     0.004 A 
ATOM      9  C   UNL     1      22.729   7.170 -18.942  1.00  0.00     0.048 A 
ATOM     10  C   UNL     1      21.653   7.166 -19.836  1.00  0.00     0.138 A 
ATOM     11  O   UNL     1      20.499   7.721 -19.479  1.00  0.00    -0.456 OA
ENDROOT
BRANCH   1  12
ATOM     12  C   UNL     1      18.188   8.418 -19.742  1.00  0.00     0.017 A 
ATOM     13  C   UNL     1      15.809   9.637 -18.834  1.00  0.00     0.000 A 
ATOM     14  C   UNL     1      16.924   9.574 -17.999  1.00  0.00     0.001 A 
ATOM     15  C   UNL     1      15.871   9.097 -20.118  1.00  0.00     0.001 A 
ATOM     16  C   UNL     1      18.106   8.971 -18.443  1.00  0.00     0.012 A 
ATOM     17  C   UNL     1      17.048   8.494 -20.570  1.00  0.00     0.012 A 
ENDBRANCH   1  12
TORSDOF 1
ENDMDL
MODEL 9
REMARK VINA RESULT:    -4.645     15.475     16.448
REMARK INTER + INTRA:          -5.182
REMARK INTER:                  -4.961
REMARK INTRA:                  -0.221
REMARK UNBOUND:                -0.266
REMARK SMILES O=c1cc(-c2ccccc2)oc2ccccc12
REMARK SMILES IDX 4 1 3 2 2 3 1 4 17 5 16 6 15 7 14 8 13 9 12 10 11 11 5 12
REMARK SMILES IDX 8 13 7 14 9 15 6 16 10 17
REMARK H PARENT
REMARK Flexibility Score: inf
ROOT
ATOM      1  C   UNL     1      20.599  -1.854  -7.497  1.00  0.00     0.138 A 
ATOM      2  C   UNL     1      20.345  -0.505  -7.168  1.00  0.00     0.100 A 
ATOM      3  C   UNL     1      19.167   0.101  -7.606  1.00  0.00     0.193 A 
ATOM      4  O   UNL     1      18.940   1.306  -7.312  1.00  0.00    -0.289 OA
ATOM      5  C   UNL     1      18.250  -0.640  -8.366  1.00  0.00     0.065 A 
ATOM      6  C   UNL     1      17.045  -0.091  -8.838  1.00  0.00     0.016 A 
ATOM      7  C   UNL     1      16.166  -0.874  -9.592  1.00  0.00     0.001 A 
ATOM      8  C   UNL     1      16.482  -2.206  -9.881  1.00  0.00     0.004 A 
ATOM      9  C   UNL     1      17.678  -2.759  -9.416  1.00  0.00     0.048 A 
ATOM     10  C   UNL     1      18.564  -1.984  -8.660  1.00  0.00     0.138 A 
ATOM     11  O   UNL     1      19.699  -2.520  -8.222  1.00  0.00    -0.456 OA
ENDROOT
BRANCH   1  12
ATOM     12  C   UNL     1      21.835  -2.578  -7.069  1.00  0.00     0.017 A 
ATOM     13  C   UNL     1      24.125  -3.967  -6.177  1.00  0.00     0.000 A 
ATOM     14  C   UNL     1      24.125  -3.353  -7.429  1.00  0.00     0.001 A 
ATOM     15  C   UNL     1      22.992  -3.894  -5.367  1.00  0.00     0.001 A 
ATOM     16  C   UNL     1      22.993  -2.663  -7.876  1.00  0.00     0.012 A 
ATOM     17  C   UNL     1      21.858  -3.206  -5.806  1.00  0.00     0.012 A 
ENDBRANCH   1  12
TORSDOF 1
ENDMDL
