MODEL 1
REMARK VINA RESULT:    -4.229      0.000      0.000
REMARK INTER + INTRA:          -4.494
REMARK INTER:                  -4.477
REMARK INTRA:                  -0.018
REMARK UNBOUND:                -0.018
REMARK SMILES O=C([O-])c1cccnc1
REMARK SMILES IDX 4 1 5 2 9 3 6 4 8 5 7 6 2 7 1 8 3 9
REMARK H PARENT
REMARK Flexibility Score: inf
ROOT
ATOM      1  C   UNL     1      38.622  18.156  11.477  1.00  0.00     0.016 A 
ATOM      2  C   UNL     1      39.917  18.149  12.025  1.00  0.00     0.013 A 
ATOM      3  C   UNL     1      38.479  18.423  10.105  1.00  0.00     0.120 A 
ATOM      4  C   UNL     1      41.023  18.404  11.212  1.00  0.00     0.021 A 
ATOM      5  N   UNL     1      39.573  18.667   9.335  1.00  0.00    -0.264 NA
ATOM      6  C   UNL     1      40.828  18.664   9.855  1.00  0.00     0.111 A 
ENDROOT
BRANCH   1   7
ATOM      7  C   UNL     1      37.438  17.889  12.322  1.00  0.00     0.073 C 
ATOM      8  O   UNL     1      36.676  16.918  12.068  1.00  0.00    -0.545 OA
ATOM      9  O   UNL     1      37.149  18.707  13.409  1.00  0.00    -0.545 OA
ENDBRANCH   1   7
TORSDOF 1
ENDMDL
MODEL 2
REMARK VINA RESULT:    -4.206      8.559      9.634
REMARK INTER + INTRA:          -4.470
REMARK INTER:                  -4.448
REMARK INTRA:                  -0.022
REMARK UNBOUND:                -0.018
REMARK SMILES O=C([O-])c1cccnc1
REMARK SMILES IDX 4 1 5 2 9 3 6 4 8 5 7 6 2 7 1 8 3 9
REMARK H PARENT
REMARK Flexibility Score: inf
ROOT
ATOM      1  C   UNL     1      31.996  13.157  15.710  1.00  0.00     0.016 A 
ATOM      2  C   UNL     1      33.210  13.148  15.002  1.00  0.00     0.013 A 
ATOM      3  C   UNL     1      31.808  14.137  16.700  1.00  0.00     0.120 A 
ATOM      4  C   UNL     1      34.195  14.095  15.287  1.00  0.00     0.021 A 
ATOM      5  N   UNL     1      32.784  15.048  16.958  1.00  0.00    -0.264 NA
ATOM      6  C   UNL     1      33.961  15.047  16.280  1.00  0.00     0.111 A 
ENDROOT
BRANCH   1   7
ATOM      7  C   UNL     1      30.940  12.163  15.423  1.00  0.00     0.073 C 
ATOM      8  O   UNL     1      30.138  11.801  16.325  1.00  0.00    -0.545 OA
ATOM      9  O   UNL     1      30.817  11.614  14.151  1.00  0.00    -0.545 OA
ENDBRANCH   1   7
TORSDOF 1
ENDMDL
MODEL 3
REMARK VINA RESULT:    -4.206      0.931      1.607
REMARK INTER + INTRA:          -4.469
REMARK INTER:                  -4.450
REMARK INTRA:                  -0.019
REMARK UNBOUND:                -0.018
REMARK SMILES O=C([O-])c1cccnc1
REMARK SMILES IDX 4 1 5 2 9 3 6 4 8 5 7 6 2 7 1 8 3 9
REMARK H PARENT
REMARK Flexibility Score: inf
ROOT
ATOM      1  C   UNL     1      38.539  18.152  11.545  1.00  0.00     0.016 A 
ATOM      2  C   UNL     1      38.419  18.390  10.166  1.00  0.00     0.013 A 
ATOM      3  C   UNL     1      39.827  18.119  12.108  1.00  0.00     0.120 A 
ATOM      4  C   UNL     1      39.560  18.587   9.386  1.00  0.00     0.021 A 
ATOM      5  N   UNL     1      40.922  18.314  11.325  1.00  0.00    -0.264 NA
ATOM      6  C   UNL     1      40.816  18.544   9.990  1.00  0.00     0.111 A 
ENDROOT
BRANCH   1   7
ATOM      7  C   UNL     1      37.343  17.942  12.389  1.00  0.00     0.073 C 
ATOM      8  O   UNL     1      36.470  17.094  12.063  1.00  0.00    -0.545 OA
ATOM      9  O   UNL     1      37.164  18.680  13.554  1.00  0.00    -0.545 OA
ENDBRANCH   1   7
TORSDOF 1
ENDMDL
MODEL 4
REMARK VINA RESULT:    -4.116      2.798      3.686
REMARK INTER + INTRA:          -4.374
REMARK INTER:                  -4.354
REMARK INTRA:                  -0.019
REMARK UNBOUND:                -0.018
REMARK SMILES O=C([O-])c1cccnc1
REMARK SMILES IDX 4 1 5 2 9 3 6 4 8 5 7 6 2 7 1 8 3 9
REMARK H PARENT
REMARK Flexibility Score: inf
ROOT
ATOM      1  C   UNL     1      37.975  18.115  10.862  1.00  0.00     0.016 A 
ATOM      2  C   UNL     1      38.260  18.258  12.231  1.00  0.00     0.013 A 
ATOM      3  C   UNL     1      36.632  18.158  10.451  1.00  0.00     0.120 A 
ATOM      4  C   UNL     1      37.223  18.439  13.147  1.00  0.00     0.021 A 
ATOM      5  N   UNL     1      35.641  18.335  11.364  1.00  0.00    -0.264 NA
ATOM      6  C   UNL     1      35.905  18.474  12.690  1.00  0.00     0.111 A 
ENDROOT
BRANCH   1   7
ATOM      7  C   UNL     1      39.060  17.923   9.876  1.00  0.00     0.073 C 
ATOM      8  O   UNL     1      38.966  17.038   8.983  1.00  0.00    -0.545 OA
ATOM      9  O   UNL     1      40.200  18.718   9.919  1.00  0.00    -0.545 OA
ENDBRANCH   1   7
TORSDOF 1
ENDMDL
MODEL 5
REMARK VINA RESULT:    -4.060      2.781      4.156
REMARK INTER + INTRA:          -4.315
REMARK INTER:                  -4.297
REMARK INTRA:                  -0.017
REMARK UNBOUND:                -0.018
REMARK SMILES O=C([O-])c1cccnc1
REMARK SMILES IDX 4 1 5 2 9 3 6 4 8 5 7 6 2 7 1 8 3 9
REMARK H PARENT
REMARK Flexibility Score: inf
ROOT
ATOM      1  C   UNL     1      37.793  17.734  11.759  1.00  0.00     0.016 A 
ATOM      2  C   UNL     1      37.173  16.641  11.130  1.00  0.00     0.013 A 
ATOM      3  C   UNL     1      37.101  18.394  12.789  1.00  0.00     0.120 A 
ATOM      4  C   UNL     1      35.900  16.232  11.531  1.00  0.00     0.021 A 
ATOM      5  N   UNL     1      35.862  17.975  13.160  1.00  0.00    -0.264 NA
ATOM      6  C   UNL     1      35.253  16.919  12.559  1.00  0.00     0.111 A 
ENDROOT
BRANCH   1   7
ATOM      7  C   UNL     1      39.141  18.183  11.349  1.00  0.00     0.073 C 
ATOM      8  O   UNL     1      40.101  18.157  12.165  1.00  0.00    -0.545 OA
ATOM      9  O   UNL     1      39.369  18.639  10.055  1.00  0.00    -0.545 OA
ENDBRANCH   1   7
TORSDOF 1
ENDMDL
MODEL 6
REMARK VINA RESULT:    -4.047      3.097      3.885
REMARK INTER + INTRA:          -4.301
REMARK INTER:                  -4.284
REMARK INTRA:                  -0.017
REMARK UNBOUND:                -0.018
REMARK SMILES O=C([O-])c1cccnc1
REMARK SMILES IDX 4 1 5 2 9 3 6 4 8 5 7 6 2 7 1 8 3 9
REMARK H PARENT
REMARK Flexibility Score: inf
ROOT
ATOM      1  C   UNL     1      40.632  18.444  10.818  1.00  0.00     0.016 A 
ATOM      2  C   UNL     1      39.998  18.171  12.042  1.00  0.00     0.013 A 
ATOM      3  C   UNL     1      39.836  18.572   9.667  1.00  0.00     0.120 A 
ATOM      4  C   UNL     1      38.610  18.033  12.097  1.00  0.00     0.021 A 
ATOM      5  N   UNL     1      38.485  18.433   9.748  1.00  0.00    -0.264 NA
ATOM      6  C   UNL     1      37.863  18.169  10.927  1.00  0.00     0.111 A 
ENDROOT
BRANCH   1   7
ATOM      7  C   UNL     1      42.101  18.594  10.739  1.00  0.00     0.073 C 
ATOM      8  O   UNL     1      42.615  19.685  10.376  1.00  0.00    -0.545 OA
ATOM      9  O   UNL     1      42.936  17.530  11.064  1.00  0.00    -0.545 OA
ENDBRANCH   1   7
TORSDOF 1
ENDMDL
MODEL 7
REMARK VINA RESULT:    -3.988      1.880      2.383
REMARK INTER + INTRA:          -4.239
REMARK INTER:                  -4.222
REMARK INTRA:                  -0.017
REMARK UNBOUND:                -0.018
REMARK SMILES O=C([O-])c1cccnc1
REMARK SMILES IDX 4 1 5 2 9 3 6 4 8 5 7 6 2 7 1 8 3 9
REMARK H PARENT
REMARK Flexibility Score: inf
ROOT
ATOM      1  C   UNL     1      36.369  18.222  11.816  1.00  0.00     0.016 A 
ATOM      2  C   UNL     1      37.486  18.191  12.668  1.00  0.00     0.013 A 
ATOM      3  C   UNL     1      36.588  18.220  10.427  1.00  0.00     0.120 A 
ATOM      4  C   UNL     1      38.775  18.158  12.133  1.00  0.00     0.021 A 
ATOM      5  N   UNL     1      37.854  18.188   9.933  1.00  0.00    -0.264 NA
ATOM      6  C   UNL     1      38.940  18.158  10.748  1.00  0.00     0.111 A 
ENDROOT
BRANCH   1   7
ATOM      7  C   UNL     1      34.996  18.256  12.363  1.00  0.00     0.073 C 
ATOM      8  O   UNL     1      34.481  17.223  12.867  1.00  0.00    -0.545 OA
ATOM      9  O   UNL     1      34.252  19.431  12.327  1.00  0.00    -0.545 OA
ENDBRANCH   1   7
TORSDOF 1
ENDMDL
MODEL 8
REMARK VINA RESULT:    -3.947      8.402      9.594
REMARK INTER + INTRA:          -4.196
REMARK INTER:                  -4.178
REMARK INTRA:                  -0.018
REMARK UNBOUND:                -0.018
REMARK SMILES O=C([O-])c1cccnc1
REMARK SMILES IDX 4 1 5 2 9 3 6 4 8 5 7 6 2 7 1 8 3 9
REMARK H PARENT
REMARK Flexibility Score: inf
ROOT
ATOM      1  C   UNL     1      32.293  13.612  15.081  1.00  0.00     0.016 A 
ATOM      2  C   UNL     1      32.150  12.218  14.982  1.00  0.00     0.013 A 
ATOM      3  C   UNL     1      31.267  14.427  14.573  1.00  0.00     0.120 A 
ATOM      4  C   UNL     1      31.010  11.670  14.390  1.00  0.00     0.021 A 
ATOM      5  N   UNL     1      30.167  13.868  14.001  1.00  0.00    -0.264 NA
ATOM      6  C   UNL     1      30.019  12.521  13.900  1.00  0.00     0.111 A 
ENDROOT
BRANCH   1   7
ATOM      7  C   UNL     1      33.493  14.212  15.704  1.00  0.00     0.073 C 
ATOM      8  O   UNL     1      34.643  13.962  15.252  1.00  0.00    -0.545 OA
ATOM      9  O   UNL     1      33.368  15.060  16.799  1.00  0.00    -0.545 OA
ENDBRANCH   1   7
TORSDOF 1
ENDMDL
MODEL 9
REMARK VINA RESULT:    -3.933      2.836      3.925
REMARK INTER + INTRA:          -4.181
REMARK INTER:                  -4.160
REMARK INTRA:                  -0.021
REMARK UNBOUND:                -0.018
REMARK SMILES O=C([O-])c1cccnc1
REMARK SMILES IDX 4 1 5 2 9 3 6 4 8 5 7 6 2 7 1 8 3 9
REMARK H PARENT
REMARK Flexibility Score: inf
ROOT
ATOM      1  C   UNL     1      38.861  18.182  10.592  1.00  0.00     0.016 A 
ATOM      2  C   UNL     1      37.575  18.130  10.028  1.00  0.00     0.013 A 
ATOM      3  C   UNL     1      38.976  18.207  11.992  1.00  0.00     0.120 A 
ATOM      4  C   UNL     1      36.448  18.103  10.853  1.00  0.00     0.021 A 
ATOM      5  N   UNL     1      37.863  18.180  12.773  1.00  0.00    -0.264 NA
ATOM      6  C   UNL     1      36.615  18.130  12.238  1.00  0.00     0.111 A 
ENDROOT
BRANCH   1   7
ATOM      7  C   UNL     1      40.066  18.211   9.735  1.00  0.00     0.073 C 
ATOM      8  O   UNL     1      40.119  17.524   8.680  1.00  0.00    -0.545 OA
ATOM      9  O   UNL     1      41.159  18.996  10.084  1.00  0.00    -0.545 OA
ENDBRANCH   1   7
TORSDOF 1
ENDMDL
