MODEL 1
REMARK VINA RESULT:    -3.024      0.000      0.000
REMARK INTER + INTRA:          -6.898
REMARK INTER:                  -5.499
REMARK INTRA:                  -1.399
REMARK UNBOUND:                -1.399
REMARK SMILES CCCCCCCCCCCCCC[C@@H](C)C(=O)[O-]
REMARK SMILES IDX 9 1 10 2 11 3 12 4 13 5 14 6 15 7 16 8 17 9 18 10 19 11 8 12
REMARK SMILES IDX 7 13 6 14 5 15 4 16 3 17 2 18 1 19
REMARK H PARENT
REMARK Flexibility Score: inf
ROOT
ATOM      1  C   UNL     1     -16.050 -10.799   3.408  1.00  0.00     0.000 C 
ENDROOT
BRANCH   1   2
ATOM      2  C   UNL     1     -17.051 -11.651   2.613  1.00  0.00     0.000 C 
BRANCH   2   3
ATOM      3  C   UNL     1     -16.976 -11.324   1.113  1.00  0.00     0.000 C 
BRANCH   3   4
ATOM      4  C   UNL     1     -17.767 -12.322   0.252  1.00  0.00     0.000 C 
BRANCH   4   5
ATOM      5  C   UNL     1     -18.794 -13.125   1.071  1.00  0.00     0.001 C 
BRANCH   5   6
ATOM      6  C   UNL     1     -20.222 -12.560   0.953  1.00  0.00     0.009 C 
BRANCH   6   7
ATOM      7  C   UNL     1     -21.200 -13.087   2.026  1.00  0.00     0.032 C 
ATOM      8  C   UNL     1     -20.618 -12.880   3.428  1.00  0.00     0.014 C 
BRANCH   7   9
ATOM      9  C   UNL     1     -22.540 -12.409   1.926  1.00  0.00     0.044 C 
ATOM     10  O   UNL     1     -22.883 -11.559   2.790  1.00  0.00    -0.550 OA
ATOM     11  O   UNL     1     -23.416 -12.730   0.896  1.00  0.00    -0.550 OA
ENDBRANCH   7   9
ENDBRANCH   6   7
ENDBRANCH   5   6
ENDBRANCH   4   5
ENDBRANCH   3   4
ENDBRANCH   2   3
ENDBRANCH   1   2
BRANCH   1  12
ATOM     12  C   UNL     1     -15.044 -10.065   2.502  1.00  0.00     0.000 C 
BRANCH  12  13
ATOM     13  C   UNL     1     -13.590 -10.551   2.662  1.00  0.00    -0.000 C 
BRANCH  13  14
ATOM     14  C   UNL     1     -13.321 -11.917   1.990  1.00  0.00    -0.000 C 
BRANCH  14  15
ATOM     15  C   UNL     1     -13.663 -13.125   2.884  1.00  0.00    -0.000 C 
BRANCH  15  16
ATOM     16  C   UNL     1     -13.020 -13.090   4.282  1.00  0.00    -0.000 C 
BRANCH  16  17
ATOM     17  C   UNL     1     -14.059 -13.025   5.412  1.00  0.00    -0.000 C 
BRANCH  17  18
ATOM     18  C   UNL     1     -13.377 -13.062   6.784  1.00  0.00    -0.003 C 
ATOM     19  C   UNL     1     -11.894 -12.719   6.672  1.00  0.00     0.004 C 
ENDBRANCH  17  18
ENDBRANCH  16  17
ENDBRANCH  15  16
ENDBRANCH  14  15
ENDBRANCH  13  14
ENDBRANCH  12  13
ENDBRANCH   1  12
TORSDOF 14
ENDMDL
MODEL 2
REMARK VINA RESULT:    -2.814     15.480     17.254
REMARK INTER + INTRA:          -6.516
REMARK INTER:                  -5.062
REMARK INTRA:                  -1.453
REMARK UNBOUND:                -1.399
REMARK SMILES CCCCCCCCCCCCCC[C@@H](C)C(=O)[O-]
REMARK SMILES IDX 9 1 10 2 11 3 12 4 13 5 14 6 15 7 16 8 17 9 18 10 19 11 8 12
REMARK SMILES IDX 7 13 6 14 5 15 4 16 3 17 2 18 1 19
REMARK H PARENT
REMARK Flexibility Score: inf
ROOT
ATOM      1  C   UNL     1     -23.002   1.384   2.173  1.00  0.00     0.000 C 
ENDROOT
BRANCH   1   2
ATOM      2  C   UNL     1     -23.885   0.789   1.066  1.00  0.00     0.000 C 
BRANCH   2   3
ATOM      3  C   UNL     1     -25.347   1.228   1.237  1.00  0.00     0.000 C 
BRANCH   3   4
ATOM      4  C   UNL     1     -25.475   2.604   1.911  1.00  0.00     0.000 C 
BRANCH   4   5
ATOM      5  C   UNL     1     -25.997   3.686   0.948  1.00  0.00     0.001 C 
BRANCH   5   6
ATOM      6  C   UNL     1     -25.145   4.970   0.977  1.00  0.00     0.009 C 
BRANCH   6   7
ATOM      7  C   UNL     1     -23.747   4.785   1.607  1.00  0.00     0.032 C 
ATOM      8  C   UNL     1     -22.665   4.810   0.523  1.00  0.00     0.014 C 
BRANCH   7   9
ATOM      9  C   UNL     1     -23.464   5.850   2.633  1.00  0.00     0.044 C 
ATOM     10  O   UNL     1     -22.808   6.876   2.313  1.00  0.00    -0.550 OA
ATOM     11  O   UNL     1     -23.905   5.699   3.943  1.00  0.00    -0.550 OA
ENDBRANCH   7   9
ENDBRANCH   6   7
ENDBRANCH   5   6
ENDBRANCH   4   5
ENDBRANCH   3   4
ENDBRANCH   2   3
ENDBRANCH   1   2
BRANCH   1  12
ATOM     12  C   UNL     1     -21.792   0.492   2.510  1.00  0.00     0.000 C 
BRANCH  12  13
ATOM     13  C   UNL     1     -20.780   0.351   1.356  1.00  0.00    -0.000 C 
BRANCH  13  14
ATOM     14  C   UNL     1     -20.730   1.585   0.427  1.00  0.00    -0.000 C 
BRANCH  14  15
ATOM     15  C   UNL     1     -19.310   2.145   0.217  1.00  0.00    -0.000 C 
BRANCH  15  16
ATOM     16  C   UNL     1     -19.190   3.669   0.393  1.00  0.00    -0.000 C 
BRANCH  16  17
ATOM     17  C   UNL     1     -17.854   4.224  -0.125  1.00  0.00    -0.000 C 
BRANCH  17  18
ATOM     18  C   UNL     1     -17.830   5.754  -0.047  1.00  0.00    -0.003 C 
ATOM     19  C   UNL     1     -19.244   6.328  -0.037  1.00  0.00     0.004 C 
ENDBRANCH  17  18
ENDBRANCH  16  17
ENDBRANCH  15  16
ENDBRANCH  14  15
ENDBRANCH  13  14
ENDBRANCH  12  13
ENDBRANCH   1  12
TORSDOF 14
ENDMDL
MODEL 3
REMARK VINA RESULT:    -2.721      4.083      8.531
REMARK INTER + INTRA:          -6.347
REMARK INTER:                  -5.125
REMARK INTRA:                  -1.222
REMARK UNBOUND:                -1.399
REMARK SMILES CCCCCCCCCCCCCC[C@@H](C)C(=O)[O-]
REMARK SMILES IDX 9 1 10 2 11 3 12 4 13 5 14 6 15 7 16 8 17 9 18 10 19 11 8 12
REMARK SMILES IDX 7 13 6 14 5 15 4 16 3 17 2 18 1 19
REMARK H PARENT
REMARK Flexibility Score: inf
ROOT
ATOM      1  C   UNL     1     -19.860 -12.725   2.383  1.00  0.00     0.000 C 
ENDROOT
BRANCH   1   2
ATOM      2  C   UNL     1     -18.595 -12.516   3.228  1.00  0.00     0.000 C 
BRANCH   2   3
ATOM      3  C   UNL     1     -17.401 -12.133   2.339  1.00  0.00     0.000 C 
BRANCH   3   4
ATOM      4  C   UNL     1     -16.182 -11.673   3.155  1.00  0.00     0.000 C 
BRANCH   4   5
ATOM      5  C   UNL     1     -15.592 -10.347   2.639  1.00  0.00     0.001 C 
BRANCH   5   6
ATOM      6  C   UNL     1     -14.061 -10.401   2.475  1.00  0.00     0.009 C 
BRANCH   6   7
ATOM      7  C   UNL     1     -13.528 -11.761   1.973  1.00  0.00     0.032 C 
ATOM      8  C   UNL     1     -13.193 -11.685   0.479  1.00  0.00     0.014 C 
BRANCH   7   9
ATOM      9  C   UNL     1     -12.309 -12.190   2.746  1.00  0.00     0.044 C 
ATOM     10  O   UNL     1     -12.234 -11.963   3.982  1.00  0.00    -0.550 OA
ATOM     11  O   UNL     1     -11.252 -12.819   2.099  1.00  0.00    -0.550 OA
ENDBRANCH   7   9
ENDBRANCH   6   7
ENDBRANCH   5   6
ENDBRANCH   4   5
ENDBRANCH   3   4
ENDBRANCH   2   3
ENDBRANCH   1   2
BRANCH   1  12
ATOM     12  C   UNL     1     -19.576 -12.688   0.870  1.00  0.00     0.000 C 
BRANCH  12  13
ATOM     13  C   UNL     1     -20.746 -12.139   0.029  1.00  0.00    -0.000 C 
BRANCH  13  14
ATOM     14  C   UNL     1     -21.930 -13.124  -0.096  1.00  0.00    -0.000 C 
BRANCH  14  15
ATOM     15  C   UNL     1     -23.190 -12.679   0.671  1.00  0.00    -0.000 C 
BRANCH  15  16
ATOM     16  C   UNL     1     -23.495 -11.173   0.582  1.00  0.00    -0.000 C 
BRANCH  16  17
ATOM     17  C   UNL     1     -23.907 -10.569   1.934  1.00  0.00    -0.000 C 
BRANCH  17  18
ATOM     18  C   UNL     1     -23.315 -11.375   3.095  1.00  0.00    -0.003 C 
ATOM     19  C   UNL     1     -24.296 -11.463   4.261  1.00  0.00     0.004 C 
ENDBRANCH  17  18
ENDBRANCH  16  17
ENDBRANCH  15  16
ENDBRANCH  14  15
ENDBRANCH  13  14
ENDBRANCH  12  13
ENDBRANCH   1  12
TORSDOF 14
ENDMDL
MODEL 4
REMARK VINA RESULT:    -2.675      3.802      8.869
REMARK INTER + INTRA:          -6.264
REMARK INTER:                  -5.336
REMARK INTRA:                  -0.928
REMARK UNBOUND:                -1.399
REMARK SMILES CCCCCCCCCCCCCC[C@@H](C)C(=O)[O-]
REMARK SMILES IDX 9 1 10 2 11 3 12 4 13 5 14 6 15 7 16 8 17 9 18 10 19 11 8 12
REMARK SMILES IDX 7 13 6 14 5 15 4 16 3 17 2 18 1 19
REMARK H PARENT
REMARK Flexibility Score: inf
ROOT
ATOM      1  C   UNL     1     -19.583 -12.721   1.980  1.00  0.00     0.000 C 
ENDROOT
BRANCH   1   2
ATOM      2  C   UNL     1     -18.240 -12.905   1.258  1.00  0.00     0.000 C 
BRANCH   2   3
ATOM      3  C   UNL     1     -17.076 -12.916   2.262  1.00  0.00     0.000 C 
BRANCH   3   4
ATOM      4  C   UNL     1     -16.803 -11.528   2.864  1.00  0.00     0.000 C 
BRANCH   4   5
ATOM      5  C   UNL     1     -15.378 -11.401   3.433  1.00  0.00     0.001 C 
BRANCH   5   6
ATOM      6  C   UNL     1     -14.494 -10.440   2.615  1.00  0.00     0.009 C 
BRANCH   6   7
ATOM      7  C   UNL     1     -13.083 -10.989   2.306  1.00  0.00     0.032 C 
ATOM      8  C   UNL     1     -12.707 -12.089   3.304  1.00  0.00     0.014 C 
BRANCH   7   9
ATOM      9  C   UNL     1     -13.001 -11.526   0.902  1.00  0.00     0.044 C 
ATOM     10  O   UNL     1     -11.880 -11.673   0.347  1.00  0.00    -0.550 OA
ATOM     11  O   UNL     1     -14.159 -11.843   0.201  1.00  0.00    -0.550 OA
ENDBRANCH   7   9
ENDBRANCH   6   7
ENDBRANCH   5   6
ENDBRANCH   4   5
ENDBRANCH   3   4
ENDBRANCH   2   3
ENDBRANCH   1   2
BRANCH   1  12
ATOM     12  C   UNL     1     -20.791 -12.910   1.043  1.00  0.00     0.000 C 
BRANCH  12  13
ATOM     13  C   UNL     1     -22.154 -12.702   1.733  1.00  0.00    -0.000 C 
BRANCH  13  14
ATOM     14  C   UNL     1     -22.037 -12.374   3.240  1.00  0.00    -0.000 C 
BRANCH  14  15
ATOM     15  C   UNL     1     -23.020 -11.287   3.715  1.00  0.00    -0.000 C 
BRANCH  15  16
ATOM     16  C   UNL     1     -24.462 -11.779   3.933  1.00  0.00    -0.000 C 
BRANCH  16  17
ATOM     17  C   UNL     1     -25.444 -11.223   2.891  1.00  0.00    -0.000 C 
BRANCH  17  18
ATOM     18  C   UNL     1     -24.792 -10.109   2.064  1.00  0.00    -0.003 C 
ATOM     19  C   UNL     1     -25.733  -9.610   0.972  1.00  0.00     0.004 C 
ENDBRANCH  17  18
ENDBRANCH  16  17
ENDBRANCH  15  16
ENDBRANCH  14  15
ENDBRANCH  13  14
ENDBRANCH  12  13
ENDBRANCH   1  12
TORSDOF 14
ENDMDL
MODEL 5
REMARK VINA RESULT:    -2.645      1.836      3.102
REMARK INTER + INTRA:          -6.209
REMARK INTER:                  -5.482
REMARK INTRA:                  -0.727
REMARK UNBOUND:                -1.399
REMARK SMILES CCCCCCCCCCCCCC[C@@H](C)C(=O)[O-]
REMARK SMILES IDX 9 1 10 2 11 3 12 4 13 5 14 6 15 7 16 8 17 9 18 10 19 11 8 12
REMARK SMILES IDX 7 13 6 14 5 15 4 16 3 17 2 18 1 19
REMARK H PARENT
REMARK Flexibility Score: inf
ROOT
ATOM      1  C   UNL     1     -17.739 -12.247   2.870  1.00  0.00     0.000 C 
ENDROOT
BRANCH   1   2
ATOM      2  C   UNL     1     -18.593 -13.016   1.851  1.00  0.00     0.000 C 
BRANCH   2   3
ATOM      3  C   UNL     1     -20.087 -12.909   2.197  1.00  0.00     0.000 C 
BRANCH   3   4
ATOM      4  C   UNL     1     -20.953 -12.575   0.972  1.00  0.00     0.000 C 
BRANCH   4   5
ATOM      5  C   UNL     1     -22.460 -12.624   1.284  1.00  0.00     0.001 C 
BRANCH   5   6
ATOM      6  C   UNL     1     -23.125 -11.236   1.228  1.00  0.00     0.009 C 
BRANCH   6   7
ATOM      7  C   UNL     1     -24.669 -11.276   1.202  1.00  0.00     0.032 C 
ATOM      8  C   UNL     1     -25.178 -12.612   1.754  1.00  0.00     0.014 C 
BRANCH   7   9
ATOM      9  C   UNL     1     -25.260 -10.140   1.993  1.00  0.00     0.044 C 
ATOM     10  O   UNL     1     -25.862 -10.370   3.075  1.00  0.00    -0.550 OA
ATOM     11  O   UNL     1     -25.165  -8.834   1.527  1.00  0.00    -0.550 OA
ENDBRANCH   7   9
ENDBRANCH   6   7
ENDBRANCH   5   6
ENDBRANCH   4   5
ENDBRANCH   3   4
ENDBRANCH   2   3
ENDBRANCH   1   2
BRANCH   1  12
ATOM     12  C   UNL     1     -16.409 -11.748   2.273  1.00  0.00     0.000 C 
BRANCH  12  13
ATOM     13  C   UNL     1     -15.825 -10.518   2.996  1.00  0.00    -0.000 C 
BRANCH  13  14
ATOM     14  C   UNL     1     -14.441 -10.088   2.457  1.00  0.00    -0.000 C 
BRANCH  14  15
ATOM     15  C   UNL     1     -13.687 -11.211   1.720  1.00  0.00    -0.000 C 
BRANCH  15  16
ATOM     16  C   UNL     1     -12.286 -11.516   2.278  1.00  0.00    -0.000 C 
BRANCH  16  17
ATOM     17  C   UNL     1     -12.224 -12.854   3.030  1.00  0.00    -0.000 C 
BRANCH  17  18
ATOM     18  C   UNL     1     -12.666 -12.683   4.488  1.00  0.00    -0.003 C 
ATOM     19  C   UNL     1     -11.464 -12.633   5.426  1.00  0.00     0.004 C 
ENDBRANCH  17  18
ENDBRANCH  16  17
ENDBRANCH  15  16
ENDBRANCH  14  15
ENDBRANCH  13  14
ENDBRANCH  12  13
ENDBRANCH   1  12
TORSDOF 14
ENDMDL
MODEL 6
REMARK VINA RESULT:    -2.609      3.836      8.838
REMARK INTER + INTRA:          -6.144
REMARK INTER:                  -4.688
REMARK INTRA:                  -1.456
REMARK UNBOUND:                -1.399
REMARK SMILES CCCCCCCCCCCCCC[C@@H](C)C(=O)[O-]
REMARK SMILES IDX 9 1 10 2 11 3 12 4 13 5 14 6 15 7 16 8 17 9 18 10 19 11 8 12
REMARK SMILES IDX 7 13 6 14 5 15 4 16 3 17 2 18 1 19
REMARK H PARENT
REMARK Flexibility Score: inf
ROOT
ATOM      1  C   UNL     1     -21.804 -12.301   3.107  1.00  0.00     0.000 C 
ENDROOT
BRANCH   1   2
ATOM      2  C   UNL     1     -20.605 -13.125   3.601  1.00  0.00     0.000 C 
BRANCH   2   3
ATOM      3  C   UNL     1     -19.299 -12.325   3.468  1.00  0.00     0.000 C 
BRANCH   3   4
ATOM      4  C   UNL     1     -18.526 -12.669   2.185  1.00  0.00     0.000 C 
BRANCH   4   5
ATOM      5  C   UNL     1     -17.003 -12.511   2.353  1.00  0.00     0.001 C 
BRANCH   5   6
ATOM      6  C   UNL     1     -16.435 -11.330   1.544  1.00  0.00     0.009 C 
BRANCH   6   7
ATOM      7  C   UNL     1     -15.362 -10.510   2.295  1.00  0.00     0.032 C 
ATOM      8  C   UNL     1     -15.644 -10.512   3.801  1.00  0.00     0.014 C 
BRANCH   7   9
ATOM      9  C   UNL     1     -13.980 -11.050   2.036  1.00  0.00     0.044 C 
ATOM     10  O   UNL     1     -13.165 -11.181   2.986  1.00  0.00    -0.550 OA
ATOM     11  O   UNL     1     -13.588 -11.386   0.746  1.00  0.00    -0.550 OA
ENDBRANCH   7   9
ENDBRANCH   6   7
ENDBRANCH   5   6
ENDBRANCH   4   5
ENDBRANCH   3   4
ENDBRANCH   2   3
ENDBRANCH   1   2
BRANCH   1  12
ATOM     12  C   UNL     1     -22.306 -12.757   1.724  1.00  0.00     0.000 C 
BRANCH  12  13
ATOM     13  C   UNL     1     -22.348 -11.629   0.674  1.00  0.00    -0.000 C 
BRANCH  13  14
ATOM     14  C   UNL     1     -23.779 -11.139   0.353  1.00  0.00    -0.000 C 
BRANCH  14  15
ATOM     15  C   UNL     1     -24.305 -10.079   1.340  1.00  0.00    -0.000 C 
BRANCH  15  16
ATOM     16  C   UNL     1     -25.580 -10.487   2.099  1.00  0.00    -0.000 C 
BRANCH  16  17
ATOM     17  C   UNL     1     -25.895 -11.986   1.970  1.00  0.00    -0.000 C 
BRANCH  17  18
ATOM     18  C   UNL     1     -25.858 -12.672   3.340  1.00  0.00    -0.003 C 
ATOM     19  C   UNL     1     -25.289 -11.742   4.407  1.00  0.00     0.004 C 
ENDBRANCH  17  18
ENDBRANCH  16  17
ENDBRANCH  15  16
ENDBRANCH  14  15
ENDBRANCH  13  14
ENDBRANCH  12  13
ENDBRANCH   1  12
TORSDOF 14
ENDMDL
MODEL 7
REMARK VINA RESULT:    -2.583      4.329      9.218
REMARK INTER + INTRA:          -6.095
REMARK INTER:                  -5.277
REMARK INTRA:                  -0.818
REMARK UNBOUND:                -1.399
REMARK SMILES CCCCCCCCCCCCCC[C@@H](C)C(=O)[O-]
REMARK SMILES IDX 9 1 10 2 11 3 12 4 13 5 14 6 15 7 16 8 17 9 18 10 19 11 8 12
REMARK SMILES IDX 7 13 6 14 5 15 4 16 3 17 2 18 1 19
REMARK H PARENT
REMARK Flexibility Score: inf
ROOT
ATOM      1  C   UNL     1     -18.917 -12.977   2.331  1.00  0.00     0.000 C 
ENDROOT
BRANCH   1   2
ATOM      2  C   UNL     1     -17.465 -13.028   2.831  1.00  0.00     0.000 C 
BRANCH   2   3
ATOM      3  C   UNL     1     -16.789 -11.656   2.689  1.00  0.00     0.000 C 
BRANCH   3   4
ATOM      4  C   UNL     1     -15.598 -11.482   3.646  1.00  0.00     0.000 C 
BRANCH   4   5
ATOM      5  C   UNL     1     -14.882 -12.812   3.944  1.00  0.00     0.001 C 
BRANCH   5   6
ATOM      6  C   UNL     1     -13.988 -12.738   5.196  1.00  0.00     0.009 C 
BRANCH   6   7
ATOM      7  C   UNL     1     -12.514 -13.125   4.943  1.00  0.00     0.032 C 
ATOM      8  C   UNL     1     -11.948 -12.330   3.762  1.00  0.00     0.014 C 
BRANCH   7   9
ATOM      9  C   UNL     1     -11.668 -12.889   6.167  1.00  0.00     0.044 C 
ATOM     10  O   UNL     1     -10.414 -12.967   6.091  1.00  0.00    -0.550 OA
ATOM     11  O   UNL     1     -12.265 -12.607   7.390  1.00  0.00    -0.550 OA
ENDBRANCH   7   9
ENDBRANCH   6   7
ENDBRANCH   5   6
ENDBRANCH   4   5
ENDBRANCH   3   4
ENDBRANCH   2   3
ENDBRANCH   1   2
BRANCH   1  12
ATOM     12  C   UNL     1     -19.935 -12.831   3.479  1.00  0.00     0.000 C 
BRANCH  12  13
ATOM     13  C   UNL     1     -21.370 -12.530   3.004  1.00  0.00    -0.000 C 
BRANCH  13  14
ATOM     14  C   UNL     1     -21.477 -12.294   1.480  1.00  0.00    -0.000 C 
BRANCH  14  15
ATOM     15  C   UNL     1     -22.918 -12.052   0.991  1.00  0.00    -0.000 C 
BRANCH  15  16
ATOM     16  C   UNL     1     -23.841 -11.380   2.023  1.00  0.00    -0.000 C 
BRANCH  16  17
ATOM     17  C   UNL     1     -25.211 -12.066   2.131  1.00  0.00    -0.000 C 
BRANCH  17  18
ATOM     18  C   UNL     1     -25.972 -11.576   3.368  1.00  0.00    -0.003 C 
ATOM     19  C   UNL     1     -25.012 -11.177   4.484  1.00  0.00     0.004 C 
ENDBRANCH  17  18
ENDBRANCH  16  17
ENDBRANCH  15  16
ENDBRANCH  14  15
ENDBRANCH  13  14
ENDBRANCH  12  13
ENDBRANCH   1  12
TORSDOF 14
ENDMDL
MODEL 8
REMARK VINA RESULT:    -2.544     15.078     16.942
REMARK INTER + INTRA:          -6.025
REMARK INTER:                  -4.692
REMARK INTRA:                  -1.333
REMARK UNBOUND:                -1.399
REMARK SMILES CCCCCCCCCCCCCC[C@@H](C)C(=O)[O-]
REMARK SMILES IDX 9 1 10 2 11 3 12 4 13 5 14 6 15 7 16 8 17 9 18 10 19 11 8 12
REMARK SMILES IDX 7 13 6 14 5 15 4 16 3 17 2 18 1 19
REMARK H PARENT
REMARK Flexibility Score: inf
ROOT
ATOM      1  C   UNL     1     -19.644   4.509   0.185  1.00  0.00     0.000 C 
ENDROOT
BRANCH   1   2
ATOM      2  C   UNL     1     -18.238   3.960   0.472  1.00  0.00     0.000 C 
BRANCH   2   3
ATOM      3  C   UNL     1     -18.219   2.426   0.367  1.00  0.00     0.000 C 
BRANCH   3   4
ATOM      4  C   UNL     1     -19.564   1.850  -0.105  1.00  0.00     0.000 C 
BRANCH   4   5
ATOM      5  C   UNL     1     -20.349   1.176   1.035  1.00  0.00     0.001 C 
BRANCH   5   6
ATOM      6  C   UNL     1     -21.385   0.157   0.522  1.00  0.00     0.009 C 
BRANCH   6   7
ATOM      7  C   UNL     1     -22.729   0.187   1.282  1.00  0.00     0.032 C 
ATOM      8  C   UNL     1     -22.525   0.705   2.710  1.00  0.00     0.014 C 
BRANCH   7   9
ATOM      9  C   UNL     1     -23.741   1.045   0.570  1.00  0.00     0.044 C 
ATOM     10  O   UNL     1     -24.960   0.726   0.584  1.00  0.00    -0.550 OA
ATOM     11  O   UNL     1     -23.337   2.179  -0.124  1.00  0.00    -0.550 OA
ENDBRANCH   7   9
ENDBRANCH   6   7
ENDBRANCH   5   6
ENDBRANCH   4   5
ENDBRANCH   3   4
ENDBRANCH   2   3
ENDBRANCH   1   2
BRANCH   1  12
ATOM     12  C   UNL     1     -19.669   6.045   0.072  1.00  0.00     0.000 C 
BRANCH  12  13
ATOM     13  C   UNL     1     -21.075   6.659   0.224  1.00  0.00    -0.000 C 
BRANCH  13  14
ATOM     14  C   UNL     1     -22.217   5.644  -0.010  1.00  0.00    -0.000 C 
BRANCH  14  15
ATOM     15  C   UNL     1     -23.473   5.919   0.840  1.00  0.00    -0.000 C 
BRANCH  15  16
ATOM     16  C   UNL     1     -23.347   5.513   2.319  1.00  0.00    -0.000 C 
BRANCH  16  17
ATOM     17  C   UNL     1     -23.843   4.084   2.588  1.00  0.00    -0.000 C 
BRANCH  17  18
ATOM     18  C   UNL     1     -25.334   4.082   2.943  1.00  0.00    -0.003 C 
ATOM     19  C   UNL     1     -25.738   2.773   3.615  1.00  0.00     0.004 C 
ENDBRANCH  17  18
ENDBRANCH  16  17
ENDBRANCH  15  16
ENDBRANCH  14  15
ENDBRANCH  13  14
ENDBRANCH  12  13
ENDBRANCH   1  12
TORSDOF 14
ENDMDL
MODEL 9
REMARK VINA RESULT:    -2.474      4.264      8.258
REMARK INTER + INTRA:          -5.898
REMARK INTER:                  -4.990
REMARK INTRA:                  -0.908
REMARK UNBOUND:                -1.399
REMARK SMILES CCCCCCCCCCCCCC[C@@H](C)C(=O)[O-]
REMARK SMILES IDX 9 1 10 2 11 3 12 4 13 5 14 6 15 7 16 8 17 9 18 10 19 11 8 12
REMARK SMILES IDX 7 13 6 14 5 15 4 16 3 17 2 18 1 19
REMARK H PARENT
REMARK Flexibility Score: inf
ROOT
ATOM      1  C   UNL     1     -16.828 -11.241   2.314  1.00  0.00     0.000 C 
ENDROOT
BRANCH   1   2
ATOM      2  C   UNL     1     -15.574 -11.193   3.201  1.00  0.00     0.000 C 
BRANCH   2   3
ATOM      3  C   UNL     1     -14.451 -10.396   2.518  1.00  0.00     0.000 C 
BRANCH   3   4
ATOM      4  C   UNL     1     -13.425 -11.303   1.821  1.00  0.00     0.000 C 
BRANCH   4   5
ATOM      5  C   UNL     1     -13.219 -12.639   2.559  1.00  0.00     0.001 C 
BRANCH   5   6
ATOM      6  C   UNL     1     -12.041 -12.595   3.551  1.00  0.00     0.009 C 
BRANCH   6   7
ATOM      7  C   UNL     1     -12.461 -12.368   5.020  1.00  0.00     0.032 C 
ATOM      8  C   UNL     1     -13.757 -13.125   5.329  1.00  0.00     0.014 C 
BRANCH   7   9
ATOM      9  C   UNL     1     -11.379 -12.802   5.973  1.00  0.00     0.044 C 
ATOM     10  O   UNL     1     -11.624 -12.902   7.204  1.00  0.00    -0.550 OA
ATOM     11  O   UNL     1     -10.099 -13.074   5.505  1.00  0.00    -0.550 OA
ENDBRANCH   7   9
ENDBRANCH   6   7
ENDBRANCH   5   6
ENDBRANCH   4   5
ENDBRANCH   3   4
ENDBRANCH   2   3
ENDBRANCH   1   2
BRANCH   1  12
ATOM     12  C   UNL     1     -16.725 -12.301   1.200  1.00  0.00     0.000 C 
BRANCH  12  13
ATOM     13  C   UNL     1     -17.665 -12.042   0.006  1.00  0.00    -0.000 C 
BRANCH  13  14
ATOM     14  C   UNL     1     -18.796 -13.088  -0.125  1.00  0.00    -0.000 C 
BRANCH  14  15
ATOM     15  C   UNL     1     -19.864 -12.988   0.982  1.00  0.00    -0.000 C 
BRANCH  15  16
ATOM     16  C   UNL     1     -21.311 -12.882   0.468  1.00  0.00    -0.000 C 
BRANCH  16  17
ATOM     17  C   UNL     1     -22.351 -13.033   1.589  1.00  0.00    -0.000 C 
BRANCH  17  18
ATOM     18  C   UNL     1     -22.788 -11.662   2.118  1.00  0.00    -0.003 C 
ATOM     19  C   UNL     1     -23.078 -11.716   3.615  1.00  0.00     0.004 C 
ENDBRANCH  17  18
ENDBRANCH  16  17
ENDBRANCH  15  16
ENDBRANCH  14  15
ENDBRANCH  13  14
ENDBRANCH  12  13
ENDBRANCH   1  12
TORSDOF 14
ENDMDL
