MODEL 1
REMARK VINA RESULT:    -5.227      0.000      0.000
REMARK INTER + INTRA:          -5.227
REMARK INTER:                  -5.227
REMARK INTRA:                   0.000
REMARK UNBOUND:                 0.000
REMARK SMILES CC1=CC[C@@H]2C[C@H]1C2(C)C
REMARK SMILES IDX 1 1 2 2 3 3 4 4 5 5 6 6 7 7 8 8 9 9 10 10
REMARK H PARENT
REMARK Flexibility Score: inf
ROOT
ATOM      1  C   UNL     1     106.736 111.257 125.075  1.00  0.00     0.039 C 
ATOM      2  C   UNL     1     106.355 111.261 126.525  1.00  0.00    -0.074 C 
ATOM      3  C   UNL     1     105.152 111.750 126.943  1.00  0.00    -0.027 C 
ATOM      4  C   UNL     1     104.811 111.698 128.446  1.00  0.00     0.031 C 
ATOM      5  C   UNL     1     106.013 111.090 129.249  1.00  0.00    -0.000 C 
ATOM      6  C   UNL     1     107.273 111.806 128.721  1.00  0.00     0.013 C 
ATOM      7  C   UNL     1     107.303 110.734 127.612  1.00  0.00     0.021 C 
ATOM      8  C   UNL     1     106.520 109.791 128.562  1.00  0.00    -0.026 C 
ATOM      9  C   UNL     1     107.459 108.971 129.483  1.00  0.00     0.012 C 
ATOM     10  C   UNL     1     105.475 108.820 127.943  1.00  0.00     0.012 C 
ENDROOT
TORSDOF 0
ENDMDL
MODEL 2
REMARK VINA RESULT:    -5.223      4.980      6.638
REMARK INTER + INTRA:          -5.223
REMARK INTER:                  -5.223
REMARK INTRA:                   0.000
REMARK UNBOUND:                 0.000
REMARK SMILES CC1=CC[C@@H]2C[C@H]1C2(C)C
REMARK SMILES IDX 1 1 2 2 3 3 4 4 5 5 6 6 7 7 8 8 9 9 10 10
REMARK H PARENT
REMARK Flexibility Score: inf
ROOT
ATOM      1  C   UNL     1     101.205 106.749 125.081  1.00  0.00     0.039 C 
ATOM      2  C   UNL     1     101.202 106.364 126.530  1.00  0.00    -0.074 C 
ATOM      3  C   UNL     1     100.709 105.161 126.945  1.00  0.00    -0.027 C 
ATOM      4  C   UNL     1     100.763 104.816 128.447  1.00  0.00     0.031 C 
ATOM      5  C   UNL     1     101.376 106.014 129.252  1.00  0.00    -0.000 C 
ATOM      6  C   UNL     1     100.664 107.278 128.729  1.00  0.00     0.013 C 
ATOM      7  C   UNL     1     101.734 107.307 127.619  1.00  0.00     0.021 C 
ATOM      8  C   UNL     1     102.676 106.518 128.565  1.00  0.00    -0.026 C 
ATOM      9  C   UNL     1     103.501 107.452 129.487  1.00  0.00     0.012 C 
ATOM     10  C   UNL     1     103.642 105.471 127.941  1.00  0.00     0.012 C 
ENDROOT
TORSDOF 0
ENDMDL
MODEL 3
REMARK VINA RESULT:    -5.177      5.009      6.667
REMARK INTER + INTRA:          -5.177
REMARK INTER:                  -5.177
REMARK INTRA:                   0.000
REMARK UNBOUND:                 0.000
REMARK SMILES CC1=CC[C@@H]2C[C@H]1C2(C)C
REMARK SMILES IDX 1 1 2 2 3 3 4 4 5 5 6 6 7 7 8 8 9 9 10 10
REMARK H PARENT
REMARK Flexibility Score: inf
ROOT
ATOM      1  C   UNL     1     111.283 105.657 125.082  1.00  0.00     0.039 C 
ATOM      2  C   UNL     1     111.290 106.078 126.522  1.00  0.00    -0.074 C 
ATOM      3  C   UNL     1     111.752 107.304 126.902  1.00  0.00    -0.027 C 
ATOM      4  C   UNL     1     111.704 107.685 128.395  1.00  0.00     0.031 C 
ATOM      5  C   UNL     1     111.133 106.491 129.237  1.00  0.00    -0.000 C 
ATOM      6  C   UNL     1     111.877 105.235 128.736  1.00  0.00     0.013 C 
ATOM      7  C   UNL     1     110.796 105.148 127.639  1.00  0.00     0.021 C 
ATOM      8  C   UNL     1     109.842 105.933 128.576  1.00  0.00    -0.026 C 
ATOM      9  C   UNL     1     109.054 104.999 129.530  1.00  0.00     0.012 C 
ATOM     10  C   UNL     1     108.839 106.935 127.938  1.00  0.00     0.012 C 
ENDROOT
TORSDOF 0
ENDMDL
MODEL 4
REMARK VINA RESULT:    -5.157      7.350      9.403
REMARK INTER + INTRA:          -5.157
REMARK INTER:                  -5.157
REMARK INTRA:                   0.000
REMARK UNBOUND:                 0.000
REMARK SMILES CC1=CC[C@@H]2C[C@H]1C2(C)C
REMARK SMILES IDX 1 1 2 2 3 3 4 4 5 5 6 6 7 7 8 8 9 9 10 10
REMARK H PARENT
REMARK Flexibility Score: inf
ROOT
ATOM      1  C   UNL     1     105.702 101.136 125.119  1.00  0.00     0.039 C 
ATOM      2  C   UNL     1     106.091 101.169 126.567  1.00  0.00    -0.074 C 
ATOM      3  C   UNL     1     107.309 100.718 126.986  1.00  0.00    -0.027 C 
ATOM      4  C   UNL     1     107.657 100.807 128.485  1.00  0.00     0.031 C 
ATOM      5  C   UNL     1     106.445 101.399 129.285  1.00  0.00    -0.000 C 
ATOM      6  C   UNL     1     105.200 100.641 128.778  1.00  0.00     0.013 C 
ATOM      7  C   UNL     1     105.137 101.692 127.650  1.00  0.00     0.021 C 
ATOM      8  C   UNL     1     105.901 102.672 128.578  1.00  0.00    -0.026 C 
ATOM      9  C   UNL     1     104.946 103.485 129.489  1.00  0.00     0.012 C 
ATOM     10  C   UNL     1     106.917 103.658 127.934  1.00  0.00     0.012 C 
ENDROOT
TORSDOF 0
ENDMDL
MODEL 5
REMARK VINA RESULT:    -5.137      5.499      7.152
REMARK INTER + INTRA:          -5.137
REMARK INTER:                  -5.137
REMARK INTRA:                   0.000
REMARK UNBOUND:                 0.000
REMARK SMILES CC1=CC[C@@H]2C[C@H]1C2(C)C
REMARK SMILES IDX 1 1 2 2 3 3 4 4 5 5 6 6 7 7 8 8 9 9 10 10
REMARK H PARENT
REMARK Flexibility Score: inf
ROOT
ATOM      1  C   UNL     1     104.263 104.238 128.865  1.00  0.00     0.039 C 
ATOM      2  C   UNL     1     103.157 104.970 128.166  1.00  0.00    -0.074 C 
ATOM      3  C   UNL     1     102.604 104.491 127.014  1.00  0.00    -0.027 C 
ATOM      4  C   UNL     1     101.450 105.278 126.361  1.00  0.00     0.031 C 
ATOM      5  C   UNL     1     101.154 106.580 127.186  1.00  0.00    -0.000 C 
ATOM      6  C   UNL     1     102.529 107.222 127.461  1.00  0.00     0.013 C 
ATOM      7  C   UNL     1     102.606 106.301 128.696  1.00  0.00     0.021 C 
ATOM      8  C   UNL     1     101.056 106.249 128.701  1.00  0.00    -0.026 C 
ATOM      9  C   UNL     1     100.430 107.411 129.514  1.00  0.00     0.012 C 
ATOM     10  C   UNL     1     100.362 104.925 129.131  1.00  0.00     0.012 C 
ENDROOT
TORSDOF 0
ENDMDL
MODEL 6
REMARK VINA RESULT:    -5.131      7.169      9.164
REMARK INTER + INTRA:          -5.131
REMARK INTER:                  -5.131
REMARK INTRA:                   0.000
REMARK UNBOUND:                 0.000
REMARK SMILES CC1=CC[C@@H]2C[C@H]1C2(C)C
REMARK SMILES IDX 1 1 2 2 3 3 4 4 5 5 6 6 7 7 8 8 9 9 10 10
REMARK H PARENT
REMARK Flexibility Score: inf
ROOT
ATOM      1  C   UNL     1     108.199 104.270 128.811  1.00  0.00     0.039 C 
ATOM      2  C   UNL     1     107.463 103.144 128.149  1.00  0.00    -0.074 C 
ATOM      3  C   UNL     1     107.932 102.562 127.007  1.00  0.00    -0.027 C 
ATOM      4  C   UNL     1     107.141 101.389 126.394  1.00  0.00     0.031 C 
ATOM      5  C   UNL     1     105.850 101.109 127.240  1.00  0.00    -0.000 C 
ATOM      6  C   UNL     1     105.206 102.489 127.487  1.00  0.00     0.013 C 
ATOM      7  C   UNL     1     106.140 102.601 128.709  1.00  0.00     0.021 C 
ATOM      8  C   UNL     1     106.198 101.052 128.754  1.00  0.00    -0.026 C 
ATOM      9  C   UNL     1     105.047 100.444 129.595  1.00  0.00     0.012 C 
ATOM     10  C   UNL     1     107.529 100.375 129.187  1.00  0.00     0.012 C 
ENDROOT
TORSDOF 0
ENDMDL
MODEL 7
REMARK VINA RESULT:    -5.115      4.450      6.410
REMARK INTER + INTRA:          -5.115
REMARK INTER:                  -5.115
REMARK INTRA:                   0.000
REMARK UNBOUND:                 0.000
REMARK SMILES CC1=CC[C@@H]2C[C@H]1C2(C)C
REMARK SMILES IDX 1 1 2 2 3 3 4 4 5 5 6 6 7 7 8 8 9 9 10 10
REMARK H PARENT
REMARK Flexibility Score: inf
ROOT
ATOM      1  C   UNL     1     108.112 108.112 128.851  1.00  0.00     0.039 C 
ATOM      2  C   UNL     1     109.267 107.435 128.177  1.00  0.00    -0.074 C 
ATOM      3  C   UNL     1     109.837 107.955 127.052  1.00  0.00    -0.027 C 
ATOM      4  C   UNL     1     111.042 107.224 126.424  1.00  0.00     0.031 C 
ATOM      5  C   UNL     1     111.364 105.922 127.237  1.00  0.00    -0.000 C 
ATOM      6  C   UNL     1     110.007 105.222 127.459  1.00  0.00     0.013 C 
ATOM      7  C   UNL     1     109.855 106.118 128.705  1.00  0.00     0.021 C 
ATOM      8  C   UNL     1     111.401 106.231 128.760  1.00  0.00    -0.026 C 
ATOM      9  C   UNL     1     112.046 105.081 129.574  1.00  0.00     0.012 C 
ATOM     10  C   UNL     1     112.027 107.574 129.232  1.00  0.00     0.012 C 
ENDROOT
TORSDOF 0
ENDMDL
MODEL 8
REMARK VINA RESULT:    -5.076      1.047      2.910
REMARK INTER + INTRA:          -5.076
REMARK INTER:                  -5.076
REMARK INTRA:                   0.000
REMARK UNBOUND:                 0.000
REMARK SMILES CC1=CC[C@@H]2C[C@H]1C2(C)C
REMARK SMILES IDX 1 1 2 2 3 3 4 4 5 5 6 6 7 7 8 8 9 9 10 10
REMARK H PARENT
REMARK Flexibility Score: inf
ROOT
ATOM      1  C   UNL     1     104.293 108.090 128.854  1.00  0.00     0.039 C 
ATOM      2  C   UNL     1     104.994 109.219 128.160  1.00  0.00    -0.074 C 
ATOM      3  C   UNL     1     104.488 109.778 127.022  1.00  0.00    -0.027 C 
ATOM      4  C   UNL     1     105.244 110.955 126.374  1.00  0.00     0.031 C 
ATOM      5  C   UNL     1     106.550 111.268 127.185  1.00  0.00    -0.000 C 
ATOM      6  C   UNL     1     107.223 109.902 127.434  1.00  0.00     0.013 C 
ATOM      7  C   UNL     1     106.321 109.791 128.680  1.00  0.00     0.021 C 
ATOM      8  C   UNL     1     106.237 111.339 128.706  1.00  0.00    -0.026 C 
ATOM      9  C   UNL     1     107.397 111.978 129.512  1.00  0.00     0.012 C 
ATOM     10  C   UNL     1     104.905 112.000 129.162  1.00  0.00     0.012 C 
ENDROOT
TORSDOF 0
ENDMDL
MODEL 9
REMARK VINA RESULT:    -5.061      4.961      6.440
REMARK INTER + INTRA:          -5.061
REMARK INTER:                  -5.061
REMARK INTRA:                   0.000
REMARK UNBOUND:                 0.000
REMARK SMILES CC1=CC[C@@H]2C[C@H]1C2(C)C
REMARK SMILES IDX 1 1 2 2 3 3 4 4 5 5 6 6 7 7 8 8 9 9 10 10
REMARK H PARENT
REMARK Flexibility Score: inf
ROOT
ATOM      1  C   UNL     1     111.332 105.299 125.127  1.00  0.00     0.039 C 
ATOM      2  C   UNL     1     110.663 105.776 126.380  1.00  0.00    -0.074 C 
ATOM      3  C   UNL     1     109.580 105.127 126.899  1.00  0.00    -0.027 C 
ATOM      4  C   UNL     1     108.956 105.653 128.207  1.00  0.00     0.031 C 
ATOM      5  C   UNL     1     109.718 106.938 128.687  1.00  0.00    -0.000 C 
ATOM      6  C   UNL     1     109.865 107.828 127.436  1.00  0.00     0.013 C 
ATOM      7  C   UNL     1     111.146 107.024 127.132  1.00  0.00     0.021 C 
ATOM      8  C   UNL     1     111.254 106.703 128.645  1.00  0.00    -0.026 C 
ATOM      9  C   UNL     1     112.033 107.793 129.424  1.00  0.00     0.012 C 
ATOM     10  C   UNL     1     111.806 105.313 129.068  1.00  0.00     0.012 C 
ENDROOT
TORSDOF 0
ENDMDL
