MODEL 1
REMARK VINA RESULT:    -2.338      0.000      0.000
REMARK INTER + INTRA:          -2.666
REMARK INTER:                  -2.611
REMARK INTRA:                  -0.054
REMARK UNBOUND:                -0.054
REMARK SMILES CCCC(=O)[O-]
REMARK SMILES IDX 3 1 4 2 5 3 6 4 2 5 1 6
REMARK H PARENT
REMARK Flexibility Score: inf
ROOT
ATOM      1  C   UNL     1      32.324  17.151  50.632  1.00  0.00     0.052 C 
ENDROOT
BRANCH   1   2
ATOM      2  C   UNL     1      30.894  17.002  51.053  1.00  0.00     0.041 C 
ATOM      3  O   UNL     1      29.995  16.820  50.189  1.00  0.00    -0.550 OA
ATOM      4  O   UNL     1      30.550  17.098  52.395  1.00  0.00    -0.550 OA
ENDBRANCH   1   2
BRANCH   1   5
ATOM      5  C   UNL     1      32.951  15.799  50.266  1.00  0.00     0.003 C 
ATOM      6  C   UNL     1      33.123  14.890  51.482  1.00  0.00     0.004 C 
ENDBRANCH   1   5
TORSDOF 2
ENDMDL
MODEL 2
REMARK VINA RESULT:    -2.307     11.874     12.581
REMARK INTER + INTRA:          -2.631
REMARK INTER:                  -2.606
REMARK INTRA:                  -0.024
REMARK UNBOUND:                -0.054
REMARK SMILES CCCC(=O)[O-]
REMARK SMILES IDX 3 1 4 2 5 3 6 4 2 5 1 6
REMARK H PARENT
REMARK Flexibility Score: inf
ROOT
ATOM      1  C   UNL     1      22.887  17.197  43.698  1.00  0.00     0.052 C 
ENDROOT
BRANCH   1   2
ATOM      2  C   UNL     1      22.899  16.326  42.479  1.00  0.00     0.041 C 
ATOM      3  O   UNL     1      22.980  16.841  41.332  1.00  0.00    -0.550 OA
ATOM      4  O   UNL     1      22.789  14.947  42.608  1.00  0.00    -0.550 OA
ENDBRANCH   1   2
BRANCH   1   5
ATOM      5  C   UNL     1      22.265  18.568  43.408  1.00  0.00     0.003 C 
ATOM      6  C   UNL     1      20.939  18.771  44.138  1.00  0.00     0.004 C 
ENDBRANCH   1   5
TORSDOF 2
ENDMDL
MODEL 3
REMARK VINA RESULT:    -2.267     12.117     12.581
REMARK INTER + INTRA:          -2.586
REMARK INTER:                  -2.577
REMARK INTRA:                  -0.009
REMARK UNBOUND:                -0.054
REMARK SMILES CCCC(=O)[O-]
REMARK SMILES IDX 3 1 4 2 5 3 6 4 2 5 1 6
REMARK H PARENT
REMARK Flexibility Score: inf
ROOT
ATOM      1  C   UNL     1      22.998  17.456  41.296  1.00  0.00     0.052 C 
ENDROOT
BRANCH   1   2
ATOM      2  C   UNL     1      22.836  16.582  42.501  1.00  0.00     0.041 C 
ATOM      3  O   UNL     1      22.717  17.097  43.646  1.00  0.00    -0.550 OA
ATOM      4  O   UNL     1      22.850  15.200  42.366  1.00  0.00    -0.550 OA
ENDBRANCH   1   2
BRANCH   1   5
ATOM      5  C   UNL     1      23.789  18.729  41.620  1.00  0.00     0.003 C 
ATOM      6  C   UNL     1      24.694  19.162  40.468  1.00  0.00     0.004 C 
ENDBRANCH   1   5
TORSDOF 2
ENDMDL
MODEL 4
REMARK VINA RESULT:    -2.245     11.566     12.048
REMARK INTER + INTRA:          -2.562
REMARK INTER:                  -2.536
REMARK INTRA:                  -0.026
REMARK UNBOUND:                -0.054
REMARK SMILES CCCC(=O)[O-]
REMARK SMILES IDX 3 1 4 2 5 3 6 4 2 5 1 6
REMARK H PARENT
REMARK Flexibility Score: inf
ROOT
ATOM      1  C   UNL     1      30.869  17.530  38.989  1.00  0.00     0.052 C 
ENDROOT
BRANCH   1   2
ATOM      2  C   UNL     1      32.037  16.695  39.415  1.00  0.00     0.041 C 
ATOM      3  O   UNL     1      33.041  17.236  39.949  1.00  0.00    -0.550 OA
ATOM      4  O   UNL     1      32.030  15.325  39.193  1.00  0.00    -0.550 OA
ENDBRANCH   1   2
BRANCH   1   5
ATOM      5  C   UNL     1      31.129  19.026  39.210  1.00  0.00     0.003 C 
ATOM      6  C   UNL     1      29.978  19.715  39.941  1.00  0.00     0.004 C 
ENDBRANCH   1   5
TORSDOF 2
ENDMDL
MODEL 5
REMARK VINA RESULT:    -2.217     19.115     19.690
REMARK INTER + INTRA:          -2.531
REMARK INTER:                  -2.492
REMARK INTRA:                  -0.039
REMARK UNBOUND:                -0.054
REMARK SMILES CCCC(=O)[O-]
REMARK SMILES IDX 3 1 4 2 5 3 6 4 2 5 1 6
REMARK H PARENT
REMARK Flexibility Score: inf
ROOT
ATOM      1  C   UNL     1      17.579  30.199  53.685  1.00  0.00     0.052 C 
ENDROOT
BRANCH   1   2
ATOM      2  C   UNL     1      16.390  29.542  54.316  1.00  0.00     0.041 C 
ATOM      3  O   UNL     1      15.474  29.064  53.596  1.00  0.00    -0.550 OA
ATOM      4  O   UNL     1      16.277  29.489  55.699  1.00  0.00    -0.550 OA
ENDBRANCH   1   2
BRANCH   1   5
ATOM      5  C   UNL     1      18.847  29.350  53.846  1.00  0.00     0.003 C 
ATOM      6  C   UNL     1      19.795  29.915  54.902  1.00  0.00     0.004 C 
ENDBRANCH   1   5
TORSDOF 2
ENDMDL
MODEL 6
REMARK VINA RESULT:    -2.195      1.883      3.063
REMARK INTER + INTRA:          -2.506
REMARK INTER:                  -2.470
REMARK INTRA:                  -0.036
REMARK UNBOUND:                -0.054
REMARK SMILES CCCC(=O)[O-]
REMARK SMILES IDX 3 1 4 2 5 3 6 4 2 5 1 6
REMARK H PARENT
REMARK Flexibility Score: inf
ROOT
ATOM      1  C   UNL     1      31.480  16.699  50.792  1.00  0.00     0.052 C 
ENDROOT
BRANCH   1   2
ATOM      2  C   UNL     1      31.866  16.139  52.126  1.00  0.00     0.041 C 
ATOM      3  O   UNL     1      31.523  16.730  53.185  1.00  0.00    -0.550 OA
ATOM      4  O   UNL     1      32.631  14.983  52.201  1.00  0.00    -0.550 OA
ENDBRANCH   1   2
BRANCH   1   5
ATOM      5  C   UNL     1      30.214  17.560  50.883  1.00  0.00     0.003 C 
ATOM      6  C   UNL     1      28.936  16.727  50.791  1.00  0.00     0.004 C 
ENDBRANCH   1   5
TORSDOF 2
ENDMDL
MODEL 7
REMARK VINA RESULT:    -2.193     18.235     19.356
REMARK INTER + INTRA:          -2.503
REMARK INTER:                  -2.440
REMARK INTRA:                  -0.063
REMARK UNBOUND:                -0.054
REMARK SMILES CCCC(=O)[O-]
REMARK SMILES IDX 3 1 4 2 5 3 6 4 2 5 1 6
REMARK H PARENT
REMARK Flexibility Score: inf
ROOT
ATOM      1  C   UNL     1      17.836  30.263  53.480  1.00  0.00     0.052 C 
ENDROOT
BRANCH   1   2
ATOM      2  C   UNL     1      18.991  29.607  54.173  1.00  0.00     0.041 C 
ATOM      3  O   UNL     1      19.740  30.279  54.931  1.00  0.00    -0.550 OA
ATOM      4  O   UNL     1      19.258  28.262  53.957  1.00  0.00    -0.550 OA
ENDBRANCH   1   2
BRANCH   1   5
ATOM      5  C   UNL     1      16.508  29.573  53.814  1.00  0.00     0.003 C 
ATOM      6  C   UNL     1      16.266  29.475  55.320  1.00  0.00     0.004 C 
ENDBRANCH   1   5
TORSDOF 2
ENDMDL
MODEL 8
REMARK VINA RESULT:    -2.167     13.657     14.457
REMARK INTER + INTRA:          -2.475
REMARK INTER:                  -2.440
REMARK INTRA:                  -0.035
REMARK UNBOUND:                -0.054
REMARK SMILES CCCC(=O)[O-]
REMARK SMILES IDX 3 1 4 2 5 3 6 4 2 5 1 6
REMARK H PARENT
REMARK Flexibility Score: inf
ROOT
ATOM      1  C   UNL     1      16.948  17.192  52.259  1.00  0.00     0.052 C 
ENDROOT
BRANCH   1   2
ATOM      2  C   UNL     1      17.281  17.954  53.505  1.00  0.00     0.041 C 
ATOM      3  O   UNL     1      16.511  17.907  54.502  1.00  0.00    -0.550 OA
ATOM      4  O   UNL     1      18.423  18.741  53.555  1.00  0.00    -0.550 OA
ENDBRANCH   1   2
BRANCH   1   5
ATOM      5  C   UNL     1      18.117  17.190  51.267  1.00  0.00     0.003 C 
ATOM      6  C   UNL     1      17.770  17.896  49.958  1.00  0.00     0.004 C 
ENDBRANCH   1   5
TORSDOF 2
ENDMDL
MODEL 9
REMARK VINA RESULT:    -2.162     10.660     11.355
REMARK INTER + INTRA:          -2.469
REMARK INTER:                  -2.462
REMARK INTRA:                  -0.007
REMARK UNBOUND:                -0.054
REMARK SMILES CCCC(=O)[O-]
REMARK SMILES IDX 3 1 4 2 5 3 6 4 2 5 1 6
REMARK H PARENT
REMARK Flexibility Score: inf
ROOT
ATOM      1  C   UNL     1      32.225  17.856  39.915  1.00  0.00     0.052 C 
ENDROOT
BRANCH   1   2
ATOM      2  C   UNL     1      31.216  18.843  40.416  1.00  0.00     0.041 C 
ATOM      3  O   UNL     1      31.277  19.266  41.601  1.00  0.00    -0.550 OA
ATOM      4  O   UNL     1      30.188  19.271  39.585  1.00  0.00    -0.550 OA
ENDBRANCH   1   2
BRANCH   1   5
ATOM      5  C   UNL     1      31.601  16.858  38.932  1.00  0.00     0.003 C 
ATOM      6  C   UNL     1      32.371  15.539  38.875  1.00  0.00     0.004 C 
ENDBRANCH   1   5
TORSDOF 2
ENDMDL
