MODEL 1
REMARK VINA RESULT:    -5.162      0.000      0.000
REMARK INTER + INTRA:          -7.030
REMARK INTER:                  -6.520
REMARK INTRA:                  -0.510
REMARK UNBOUND:                -0.510
REMARK SMILES Oc1ccc(CCc2cc(O)cc(O)c2)cc1
REMARK SMILES IDX 6 1 5 2 4 3 3 4 2 5 16 6 17 7 1 8 7 10 8 11 15 12 9 13 13 14
REMARK SMILES IDX 10 15 12 16 14 17 11 19
REMARK H PARENT 1 9 14 18 11 20
REMARK Flexibility Score: inf
ROOT
ATOM      1  C   UNL     1      -8.107  -0.577  -9.454  1.00  0.00     0.040 C 
ENDROOT
BRANCH   1   2
ATOM      2  C   UNL     1      -8.467   0.385  -8.354  1.00  0.00    -0.047 A 
ATOM      3  C   UNL     1      -9.438   0.041  -7.399  1.00  0.00     0.007 A 
ATOM      4  C   UNL     1      -9.794   0.948  -6.397  1.00  0.00     0.046 A 
ATOM      5  C   UNL     1      -9.191   2.212  -6.345  1.00  0.00     0.115 A 
ATOM      6  C   UNL     1      -7.875   1.659  -8.305  1.00  0.00     0.007 A 
ATOM      7  C   UNL     1      -8.233   2.564  -7.302  1.00  0.00     0.046 A 
BRANCH   5   8
ATOM      8  O   UNL     1      -9.538   3.125  -5.351  1.00  0.00    -0.508 OA
ATOM      9  H   UNL     1      -9.747   4.092  -5.570  1.00  0.00     0.293 HD
ENDBRANCH   5   8
ENDBRANCH   1   2
BRANCH   1  10
ATOM     10  C   UNL     1      -9.139  -0.511 -10.584  1.00  0.00     0.040 C 
BRANCH  10  11
ATOM     11  C   UNL     1      -9.788  -1.854 -10.786  1.00  0.00    -0.040 A 
ATOM     12  C   UNL     1     -10.190  -2.260 -12.069  1.00  0.00     0.050 A 
ATOM     13  C   UNL     1      -9.946  -2.734  -9.703  1.00  0.00     0.050 A 
ATOM     14  C   UNL     1     -10.763  -3.520 -12.264  1.00  0.00     0.119 A 
ATOM     15  C   UNL     1     -10.521  -3.998  -9.896  1.00  0.00     0.119 A 
ATOM     16  C   UNL     1     -10.930  -4.387 -11.176  1.00  0.00     0.092 A 
BRANCH  14  17
ATOM     17  O   UNL     1     -11.162  -3.903 -13.543  1.00  0.00    -0.508 OA
ATOM     18  H   UNL     1     -10.692  -4.647 -14.044  1.00  0.00     0.293 HD
ENDBRANCH  14  17
BRANCH  15  19
ATOM     19  O   UNL     1     -10.686  -4.873  -8.826  1.00  0.00    -0.508 OA
ATOM     20  H   UNL     1      -9.891  -5.284  -8.350  1.00  0.00     0.293 HD
ENDBRANCH  15  19
ENDBRANCH  10  11
ENDBRANCH   1  10
TORSDOF 6
ENDMDL
MODEL 2
REMARK VINA RESULT:    -5.143      0.163      1.186
REMARK INTER + INTRA:          -7.006
REMARK INTER:                  -6.539
REMARK INTRA:                  -0.467
REMARK UNBOUND:                -0.510
REMARK SMILES Oc1ccc(CCc2cc(O)cc(O)c2)cc1
REMARK SMILES IDX 6 1 5 2 4 3 3 4 2 5 16 6 17 7 1 8 7 10 8 11 15 12 9 13 13 14
REMARK SMILES IDX 10 15 12 16 14 17 11 19
REMARK H PARENT 1 9 14 18 11 20
REMARK Flexibility Score: inf
ROOT
ATOM      1  C   UNL     1      -7.991  -0.434  -9.449  1.00  0.00     0.040 C 
ENDROOT
BRANCH   1   2
ATOM      2  C   UNL     1      -8.438   0.507  -8.362  1.00  0.00    -0.047 A 
ATOM      3  C   UNL     1      -7.875   1.789  -8.257  1.00  0.00     0.007 A 
ATOM      4  C   UNL     1      -8.268   2.649  -7.227  1.00  0.00     0.046 A 
ATOM      5  C   UNL     1      -9.219   2.233  -6.287  1.00  0.00     0.115 A 
ATOM      6  C   UNL     1      -9.382   0.089  -7.409  1.00  0.00     0.007 A 
ATOM      7  C   UNL     1      -9.773   0.952  -6.381  1.00  0.00     0.046 A 
BRANCH   5   8
ATOM      8  O   UNL     1      -9.619   3.082  -5.256  1.00  0.00    -0.508 OA
ATOM      9  H   UNL     1     -10.598   3.236  -5.048  1.00  0.00     0.293 HD
ENDBRANCH   5   8
ENDBRANCH   1   2
BRANCH   1  10
ATOM     10  C   UNL     1      -8.965  -0.394 -10.630  1.00  0.00     0.040 C 
BRANCH  10  11
ATOM     11  C   UNL     1      -9.651  -1.724 -10.795  1.00  0.00    -0.040 A 
ATOM     12  C   UNL     1     -10.125  -2.124 -12.055  1.00  0.00     0.050 A 
ATOM     13  C   UNL     1      -9.771  -2.599  -9.703  1.00  0.00     0.050 A 
ATOM     14  C   UNL     1     -10.733  -3.373 -12.217  1.00  0.00     0.119 A 
ATOM     15  C   UNL     1     -10.380  -3.851  -9.863  1.00  0.00     0.119 A 
ATOM     16  C   UNL     1     -10.862  -4.235 -11.119  1.00  0.00     0.092 A 
BRANCH  14  17
ATOM     17  O   UNL     1     -11.203  -3.750 -13.473  1.00  0.00    -0.508 OA
ATOM     18  H   UNL     1     -11.393  -4.720 -13.699  1.00  0.00     0.293 HD
ENDBRANCH  14  17
BRANCH  15  19
ATOM     19  O   UNL     1     -10.508  -4.721  -8.784  1.00  0.00    -0.508 OA
ATOM     20  H   UNL     1     -11.292  -5.360  -8.708  1.00  0.00     0.293 HD
ENDBRANCH  15  19
ENDBRANCH  10  11
ENDBRANCH   1  10
TORSDOF 6
ENDMDL
MODEL 3
REMARK VINA RESULT:    -5.142      0.146      2.354
REMARK INTER + INTRA:          -7.004
REMARK INTER:                  -6.503
REMARK INTRA:                  -0.501
REMARK UNBOUND:                -0.510
REMARK SMILES Oc1ccc(CCc2cc(O)cc(O)c2)cc1
REMARK SMILES IDX 6 1 5 2 4 3 3 4 2 5 16 6 17 7 1 8 7 10 8 11 15 12 9 13 13 14
REMARK SMILES IDX 10 15 12 16 14 17 11 19
REMARK H PARENT 1 9 14 18 11 20
REMARK Flexibility Score: inf
ROOT
ATOM      1  C   UNL     1      -8.031  -0.446  -9.410  1.00  0.00     0.040 C 
ENDROOT
BRANCH   1   2
ATOM      2  C   UNL     1      -8.444   0.504  -8.318  1.00  0.00    -0.047 A 
ATOM      3  C   UNL     1      -7.875   1.785  -8.239  1.00  0.00     0.007 A 
ATOM      4  C   UNL     1      -8.235   2.654  -7.205  1.00  0.00     0.046 A 
ATOM      5  C   UNL     1      -9.159   2.247  -6.234  1.00  0.00     0.115 A 
ATOM      6  C   UNL     1      -9.359   0.095  -7.333  1.00  0.00     0.007 A 
ATOM      7  C   UNL     1      -9.718   0.967  -6.300  1.00  0.00     0.046 A 
BRANCH   5   8
ATOM      8  O   UNL     1      -9.526   3.105  -5.198  1.00  0.00    -0.508 OA
ATOM      9  H   UNL     1     -10.128   2.796  -4.444  1.00  0.00     0.293 HD
ENDBRANCH   5   8
ENDBRANCH   1   2
BRANCH   1  10
ATOM     10  C   UNL     1      -9.033  -0.404 -10.567  1.00  0.00     0.040 C 
BRANCH  10  11
ATOM     11  C   UNL     1      -9.653  -1.759 -10.779  1.00  0.00    -0.040 A 
ATOM     12  C   UNL     1      -9.819  -2.638  -9.697  1.00  0.00     0.050 A 
ATOM     13  C   UNL     1     -10.123  -2.131 -12.049  1.00  0.00     0.050 A 
ATOM     14  C   UNL     1     -10.426  -3.884  -9.884  1.00  0.00     0.119 A 
ATOM     15  C   UNL     1     -10.731  -3.380 -12.240  1.00  0.00     0.119 A 
ATOM     16  C   UNL     1     -10.879  -4.254 -11.158  1.00  0.00     0.092 A 
BRANCH  14  17
ATOM     17  O   UNL     1     -10.575  -4.746  -8.800  1.00  0.00    -0.508 OA
ATOM     18  H   UNL     1     -10.198  -5.687  -8.816  1.00  0.00     0.293 HD
ENDBRANCH  14  17
BRANCH  15  19
ATOM     19  O   UNL     1     -11.194  -3.759 -13.497  1.00  0.00    -0.508 OA
ATOM     20  H   UNL     1     -11.814  -4.552 -13.617  1.00  0.00     0.293 HD
ENDBRANCH  15  19
ENDBRANCH  10  11
ENDBRANCH   1  10
TORSDOF 6
ENDMDL
MODEL 4
REMARK VINA RESULT:    -4.932      1.085      2.351
REMARK INTER + INTRA:          -6.739
REMARK INTER:                  -6.345
REMARK INTRA:                  -0.394
REMARK UNBOUND:                -0.510
REMARK SMILES Oc1ccc(CCc2cc(O)cc(O)c2)cc1
REMARK SMILES IDX 6 1 5 2 4 3 3 4 2 5 16 6 17 7 1 8 7 10 8 11 15 12 9 13 13 14
REMARK SMILES IDX 10 15 12 16 14 17 11 19
REMARK H PARENT 1 9 14 18 11 20
REMARK Flexibility Score: inf
ROOT
ATOM      1  C   UNL     1      -7.918  -0.585 -10.320  1.00  0.00     0.040 C 
ENDROOT
BRANCH   1   2
ATOM      2  C   UNL     1      -7.882  -0.127  -8.887  1.00  0.00    -0.047 A 
ATOM      3  C   UNL     1      -7.913  -1.064  -7.841  1.00  0.00     0.007 A 
ATOM      4  C   UNL     1      -7.913  -0.635  -6.510  1.00  0.00     0.046 A 
ATOM      5  C   UNL     1      -7.892   0.733  -6.212  1.00  0.00     0.115 A 
ATOM      6  C   UNL     1      -7.875   1.245  -8.582  1.00  0.00     0.007 A 
ATOM      7  C   UNL     1      -7.875   1.670  -7.250  1.00  0.00     0.046 A 
BRANCH   5   8
ATOM      8  O   UNL     1      -7.892   1.173  -4.889  1.00  0.00    -0.508 OA
ATOM      9  H   UNL     1      -8.657   1.720  -4.513  1.00  0.00     0.293 HD
ENDBRANCH   5   8
ENDBRANCH   1   2
BRANCH   1  10
ATOM     10  C   UNL     1      -9.349  -0.542 -10.863  1.00  0.00     0.040 C 
BRANCH  10  11
ATOM     11  C   UNL     1      -9.909  -1.933 -10.991  1.00  0.00    -0.040 A 
ATOM     12  C   UNL     1     -10.091  -2.730  -9.849  1.00  0.00     0.050 A 
ATOM     13  C   UNL     1     -10.306  -2.424 -12.246  1.00  0.00     0.050 A 
ATOM     14  C   UNL     1     -10.642  -4.011  -9.961  1.00  0.00     0.119 A 
ATOM     15  C   UNL     1     -10.858  -3.708 -12.361  1.00  0.00     0.119 A 
ATOM     16  C   UNL     1     -11.022  -4.499 -11.219  1.00  0.00     0.092 A 
BRANCH  14  17
ATOM     17  O   UNL     1     -10.809  -4.789  -8.819  1.00  0.00    -0.508 OA
ATOM     18  H   UNL     1     -10.446  -4.495  -7.919  1.00  0.00     0.293 HD
ENDBRANCH  14  17
BRANCH  15  19
ATOM     19  O   UNL     1     -11.248  -4.203 -13.602  1.00  0.00    -0.508 OA
ATOM     20  H   UNL     1     -11.840  -5.022 -13.683  1.00  0.00     0.293 HD
ENDBRANCH  15  19
ENDBRANCH  10  11
ENDBRANCH   1  10
TORSDOF 6
ENDMDL
MODEL 5
REMARK VINA RESULT:    -4.903      1.592      6.614
REMARK INTER + INTRA:          -6.702
REMARK INTER:                  -6.151
REMARK INTRA:                  -0.552
REMARK UNBOUND:                -0.510
REMARK SMILES Oc1ccc(CCc2cc(O)cc(O)c2)cc1
REMARK SMILES IDX 6 1 5 2 4 3 3 4 2 5 16 6 17 7 1 8 7 10 8 11 15 12 9 13 13 14
REMARK SMILES IDX 10 15 12 16 14 17 11 19
REMARK H PARENT 1 9 14 18 11 20
REMARK Flexibility Score: inf
ROOT
ATOM      1  C   UNL     1      -9.373  -2.922  -8.229  1.00  0.00     0.040 C 
ENDROOT
BRANCH   1   2
ATOM      2  C   UNL     1      -9.838  -3.149  -9.642  1.00  0.00    -0.047 A 
ATOM      3  C   UNL     1     -10.116  -2.058 -10.482  1.00  0.00     0.007 A 
ATOM      4  C   UNL     1     -10.580  -2.269 -11.783  1.00  0.00     0.046 A 
ATOM      5  C   UNL     1     -10.779  -3.573 -12.255  1.00  0.00     0.115 A 
ATOM      6  C   UNL     1     -10.053  -4.454 -10.116  1.00  0.00     0.007 A 
ATOM      7  C   UNL     1     -10.516  -4.663 -11.419  1.00  0.00     0.046 A 
BRANCH   5   8
ATOM      8  O   UNL     1     -11.241  -3.797 -13.552  1.00  0.00    -0.508 OA
ATOM      9  H   UNL     1     -11.147  -3.094 -14.275  1.00  0.00     0.293 HD
ENDBRANCH   5   8
ENDBRANCH   1   2
BRANCH   1  10
ATOM     10  C   UNL     1      -8.168  -1.977  -8.204  1.00  0.00     0.040 C 
BRANCH  10  11
ATOM     11  C   UNL     1      -8.542  -0.661  -7.575  1.00  0.00    -0.040 A 
ATOM     12  C   UNL     1      -8.028   0.540  -8.091  1.00  0.00     0.050 A 
ATOM     13  C   UNL     1      -9.450  -0.620  -6.505  1.00  0.00     0.050 A 
ATOM     14  C   UNL     1      -8.400   1.766  -7.529  1.00  0.00     0.119 A 
ATOM     15  C   UNL     1      -9.824   0.607  -5.941  1.00  0.00     0.119 A 
ATOM     16  C   UNL     1      -9.296   1.798  -6.452  1.00  0.00     0.092 A 
BRANCH  14  17
ATOM     17  O   UNL     1      -7.875   2.947  -8.049  1.00  0.00    -0.508 OA
ATOM     18  H   UNL     1      -8.369   3.828  -7.966  1.00  0.00     0.293 HD
ENDBRANCH  14  17
BRANCH  15  19
ATOM     19  O   UNL     1     -10.719   0.655  -4.875  1.00  0.00    -0.508 OA
ATOM     20  H   UNL     1     -11.135  -0.187  -4.494  1.00  0.00     0.293 HD
ENDBRANCH  15  19
ENDBRANCH  10  11
ENDBRANCH   1  10
TORSDOF 6
ENDMDL
MODEL 6
REMARK VINA RESULT:    -4.901      1.857      2.824
REMARK INTER + INTRA:          -6.700
REMARK INTER:                  -6.221
REMARK INTRA:                  -0.480
REMARK UNBOUND:                -0.510
REMARK SMILES Oc1ccc(CCc2cc(O)cc(O)c2)cc1
REMARK SMILES IDX 6 1 5 2 4 3 3 4 2 5 16 6 17 7 1 8 7 10 8 11 15 12 9 13 13 14
REMARK SMILES IDX 10 15 12 16 14 17 11 19
REMARK H PARENT 1 9 14 18 11 20
REMARK Flexibility Score: inf
ROOT
ATOM      1  C   UNL     1      -8.658  -3.263  -8.319  1.00  0.00     0.040 C 
ENDROOT
BRANCH   1   2
ATOM      2  C   UNL     1      -8.689  -2.070  -7.401  1.00  0.00    -0.047 A 
ATOM      3  C   UNL     1      -9.018  -2.226  -6.045  1.00  0.00     0.007 A 
ATOM      4  C   UNL     1      -9.078  -1.113  -5.201  1.00  0.00     0.046 A 
ATOM      5  C   UNL     1      -8.819   0.168  -5.707  1.00  0.00     0.115 A 
ATOM      6  C   UNL     1      -8.444  -0.782  -7.906  1.00  0.00     0.007 A 
ATOM      7  C   UNL     1      -8.504   0.330  -7.060  1.00  0.00     0.046 A 
BRANCH   5   8
ATOM      8  O   UNL     1      -8.876   1.285  -4.875  1.00  0.00    -0.508 OA
ATOM      9  H   UNL     1      -9.760   1.655  -4.545  1.00  0.00     0.293 HD
ENDBRANCH   5   8
ENDBRANCH   1   2
BRANCH   1  10
ATOM     10  C   UNL     1     -10.081  -3.731  -8.639  1.00  0.00     0.040 C 
BRANCH  10  11
ATOM     11  C   UNL     1     -10.518  -3.214  -9.983  1.00  0.00    -0.040 A 
ATOM     12  C   UNL     1     -10.885  -1.867 -10.138  1.00  0.00     0.050 A 
ATOM     13  C   UNL     1     -10.507  -4.059 -11.105  1.00  0.00     0.050 A 
ATOM     14  C   UNL     1     -11.260  -1.377 -11.393  1.00  0.00     0.119 A 
ATOM     15  C   UNL     1     -10.882  -3.570 -12.363  1.00  0.00     0.119 A 
ATOM     16  C   UNL     1     -11.260  -2.230 -12.504  1.00  0.00     0.092 A 
BRANCH  14  17
ATOM     17  O   UNL     1     -11.628  -0.040 -11.526  1.00  0.00    -0.508 OA
ATOM     18  H   UNL     1     -11.796   0.376 -12.435  1.00  0.00     0.293 HD
ENDBRANCH  14  17
BRANCH  15  19
ATOM     19  O   UNL     1     -10.880  -4.403 -13.478  1.00  0.00    -0.508 OA
ATOM     20  H   UNL     1     -10.839  -4.029 -14.420  1.00  0.00     0.293 HD
ENDBRANCH  15  19
ENDBRANCH  10  11
ENDBRANCH   1  10
TORSDOF 6
ENDMDL
MODEL 7
REMARK VINA RESULT:    -4.795      1.173      1.458
REMARK INTER + INTRA:          -6.566
REMARK INTER:                  -5.952
REMARK INTRA:                  -0.614
REMARK UNBOUND:                -0.510
REMARK SMILES Oc1ccc(CCc2cc(O)cc(O)c2)cc1
REMARK SMILES IDX 6 1 5 2 4 3 3 4 2 5 16 6 17 7 1 8 7 10 8 11 15 12 9 13 13 14
REMARK SMILES IDX 10 15 12 16 14 17 11 19
REMARK H PARENT 1 9 14 18 11 20
REMARK Flexibility Score: inf
ROOT
ATOM      1  C   UNL     1      -7.964  -1.448  -7.500  1.00  0.00     0.040 C 
ENDROOT
BRANCH   1   2
ATOM      2  C   UNL     1      -8.717  -0.354  -6.791  1.00  0.00    -0.047 A 
ATOM      3  C   UNL     1      -9.377  -0.618  -5.579  1.00  0.00     0.007 A 
ATOM      4  C   UNL     1     -10.104   0.390  -4.939  1.00  0.00     0.046 A 
ATOM      5  C   UNL     1     -10.187   1.668  -5.508  1.00  0.00     0.115 A 
ATOM      6  C   UNL     1      -8.815   0.924  -7.364  1.00  0.00     0.007 A 
ATOM      7  C   UNL     1      -9.542   1.931  -6.721  1.00  0.00     0.046 A 
BRANCH   5   8
ATOM      8  O   UNL     1     -10.908   2.681  -4.879  1.00  0.00    -0.508 OA
ATOM      9  H   UNL     1     -10.486   3.268  -4.169  1.00  0.00     0.293 HD
ENDBRANCH   5   8
ENDBRANCH   1   2
BRANCH   1  10
ATOM     10  C   UNL     1      -8.085  -1.288  -9.017  1.00  0.00     0.040 C 
BRANCH  10  11
ATOM     11  C   UNL     1      -9.087  -2.265  -9.573  1.00  0.00    -0.040 A 
ATOM     12  C   UNL     1      -9.503  -2.167 -10.911  1.00  0.00     0.050 A 
ATOM     13  C   UNL     1      -9.570  -3.315  -8.776  1.00  0.00     0.050 A 
ATOM     14  C   UNL     1     -10.408  -3.094 -11.439  1.00  0.00     0.119 A 
ATOM     15  C   UNL     1     -10.477  -4.245  -9.303  1.00  0.00     0.119 A 
ATOM     16  C   UNL     1     -10.896  -4.130 -10.633  1.00  0.00     0.092 A 
BRANCH  14  17
ATOM     17  O   UNL     1     -10.815  -2.976 -12.766  1.00  0.00    -0.508 OA
ATOM     18  H   UNL     1     -11.350  -3.706 -13.223  1.00  0.00     0.293 HD
ENDBRANCH  14  17
BRANCH  15  19
ATOM     19  O   UNL     1     -10.965  -5.285  -8.516  1.00  0.00    -0.508 OA
ATOM     20  H   UNL     1     -11.960  -5.426  -8.382  1.00  0.00     0.293 HD
ENDBRANCH  15  19
ENDBRANCH  10  11
ENDBRANCH   1  10
TORSDOF 6
ENDMDL
MODEL 8
REMARK VINA RESULT:    -4.737      1.450      6.779
REMARK INTER + INTRA:          -6.494
REMARK INTER:                  -5.976
REMARK INTRA:                  -0.517
REMARK UNBOUND:                -0.510
REMARK SMILES Oc1ccc(CCc2cc(O)cc(O)c2)cc1
REMARK SMILES IDX 6 1 5 2 4 3 3 4 2 5 16 6 17 7 1 8 7 10 8 11 15 12 9 13 13 14
REMARK SMILES IDX 10 15 12 16 14 17 11 19
REMARK H PARENT 1 9 14 18 11 20
REMARK Flexibility Score: inf
ROOT
ATOM      1  C   UNL     1      -9.181  -1.698  -8.298  1.00  0.00     0.040 C 
ENDROOT
BRANCH   1   2
ATOM      2  C   UNL     1      -9.684  -2.228  -9.614  1.00  0.00    -0.047 A 
ATOM      3  C   UNL     1     -10.074  -3.572  -9.736  1.00  0.00     0.007 A 
ATOM      4  C   UNL     1     -10.509  -4.071 -10.967  1.00  0.00     0.046 A 
ATOM      5  C   UNL     1     -10.548  -3.235 -12.091  1.00  0.00     0.115 A 
ATOM      6  C   UNL     1      -9.712  -1.398 -10.747  1.00  0.00     0.007 A 
ATOM      7  C   UNL     1     -10.148  -1.900 -11.977  1.00  0.00     0.046 A 
BRANCH   5   8
ATOM      8  O   UNL     1     -10.980  -3.722 -13.324  1.00  0.00    -0.508 OA
ATOM      9  H   UNL     1     -11.428  -3.118 -14.003  1.00  0.00     0.293 HD
ENDBRANCH   5   8
ENDBRANCH   1   2
BRANCH   1  10
ATOM     10  C   UNL     1      -8.548  -0.316  -8.481  1.00  0.00     0.040 C 
BRANCH  10  11
ATOM     11  C   UNL     1      -9.096   0.655  -7.468  1.00  0.00    -0.040 A 
ATOM     12  C   UNL     1     -10.479   0.731  -7.239  1.00  0.00     0.050 A 
ATOM     13  C   UNL     1      -8.225   1.449  -6.706  1.00  0.00     0.050 A 
ATOM     14  C   UNL     1     -10.988   1.608  -6.275  1.00  0.00     0.119 A 
ATOM     15  C   UNL     1      -8.732   2.329  -5.740  1.00  0.00     0.119 A 
ATOM     16  C   UNL     1     -10.113   2.409  -5.528  1.00  0.00     0.092 A 
BRANCH  14  17
ATOM     17  O   UNL     1     -12.364   1.677  -6.066  1.00  0.00    -0.508 OA
ATOM     18  H   UNL     1     -12.756   2.194  -5.288  1.00  0.00     0.293 HD
ENDBRANCH  14  17
BRANCH  15  19
ATOM     19  O   UNL     1      -7.875   3.125  -4.985  1.00  0.00    -0.508 OA
ATOM     20  H   UNL     1      -6.971   2.785  -4.676  1.00  0.00     0.293 HD
ENDBRANCH  15  19
ENDBRANCH  10  11
ENDBRANCH   1  10
TORSDOF 6
ENDMDL
MODEL 9
REMARK VINA RESULT:    -3.584      1.884      2.693
REMARK INTER + INTRA:          -5.037
REMARK INTER:                  -4.504
REMARK INTRA:                  -0.533
REMARK UNBOUND:                -0.510
REMARK SMILES Oc1ccc(CCc2cc(O)cc(O)c2)cc1
REMARK SMILES IDX 6 1 5 2 4 3 3 4 2 5 16 6 17 7 1 8 7 10 8 11 15 12 9 13 13 14
REMARK SMILES IDX 10 15 12 16 14 17 11 19
REMARK H PARENT 1 9 14 18 11 20
REMARK Flexibility Score: inf
ROOT
ATOM      1  C   UNL     1      -8.670  -3.267  -8.346  1.00  0.00     0.040 C 
ENDROOT
BRANCH   1   2
ATOM      2  C   UNL     1      -8.653  -2.079  -7.421  1.00  0.00    -0.047 A 
ATOM      3  C   UNL     1      -9.018  -2.225  -6.072  1.00  0.00     0.007 A 
ATOM      4  C   UNL     1      -9.034  -1.116  -5.222  1.00  0.00     0.046 A 
ATOM      5  C   UNL     1      -8.695   0.152  -5.713  1.00  0.00     0.115 A 
ATOM      6  C   UNL     1      -8.328  -0.804  -7.911  1.00  0.00     0.007 A 
ATOM      7  C   UNL     1      -8.344   0.304  -7.058  1.00  0.00     0.046 A 
BRANCH   5   8
ATOM      8  O   UNL     1      -8.707   1.265  -4.875  1.00  0.00    -0.508 OA
ATOM      9  H   UNL     1      -9.010   2.174  -5.207  1.00  0.00     0.293 HD
ENDBRANCH   5   8
ENDBRANCH   1   2
BRANCH   1  10
ATOM     10  C   UNL     1     -10.109  -3.666  -8.683  1.00  0.00     0.040 C 
BRANCH  10  11
ATOM     11  C   UNL     1     -10.506  -3.124 -10.030  1.00  0.00    -0.040 A 
ATOM     12  C   UNL     1     -10.541  -3.969 -11.150  1.00  0.00     0.050 A 
ATOM     13  C   UNL     1     -10.898  -1.782 -10.165  1.00  0.00     0.050 A 
ATOM     14  C   UNL     1     -10.942  -3.476 -12.396  1.00  0.00     0.119 A 
ATOM     15  C   UNL     1     -11.300  -1.285 -11.413  1.00  0.00     0.119 A 
ATOM     16  C   UNL     1     -11.319  -2.132 -12.526  1.00  0.00     0.092 A 
BRANCH  14  17
ATOM     17  O   UNL     1     -10.964  -4.328 -13.498  1.00  0.00    -0.508 OA
ATOM     18  H   UNL     1     -11.836  -4.635 -13.913  1.00  0.00     0.293 HD
ENDBRANCH  14  17
BRANCH  15  19
ATOM     19  O   UNL     1     -11.684   0.045 -11.557  1.00  0.00    -0.508 OA
ATOM     20  H   UNL     1     -12.653   0.304 -11.707  1.00  0.00     0.293 HD
ENDBRANCH  15  19
ENDBRANCH  10  11
ENDBRANCH   1  10
TORSDOF 6
ENDMDL
