MODEL 1
REMARK VINA RESULT:    -4.348      0.000      0.000
REMARK INTER + INTRA:          -6.154
REMARK INTER:                  -5.873
REMARK INTRA:                  -0.281
REMARK UNBOUND:                -0.281
REMARK SMILES O=C[C@H](O)[C@H](O)[C@@H](O)CO
REMARK SMILES IDX 7 1 9 2 10 3 5 5 3 6 2 7 1 8 4 9 6 11 8 13
REMARK H PARENT 10 4 4 10 6 12 8 14
REMARK Flexibility Score: inf
ROOT
ATOM      1  C   UNL     1      97.159 129.505  44.585  1.00  0.00     0.171 C 
ENDROOT
BRANCH   1   2
ATOM      2  C   UNL     1      98.162 130.609  44.218  1.00  0.00     0.190 C 
BRANCH   2   3
ATOM      3  O   UNL     1      99.177 130.103  43.396  1.00  0.00    -0.394 OA
ATOM      4  H   UNL     1      99.892 130.790  43.384  1.00  0.00     0.210 HD
ENDBRANCH   2   3
ENDBRANCH   1   2
BRANCH   1   5
ATOM      5  C   UNL     1      97.184 129.073  46.081  1.00  0.00     0.181 C 
BRANCH   5   6
ATOM      6  C   UNL     1      97.599 127.592  46.323  1.00  0.00     0.209 C 
BRANCH   6   7
ATOM      7  C   UNL     1      97.701 127.286  47.796  1.00  0.00     0.258 C 
ATOM      8  O   UNL     1      96.753 126.819  48.405  1.00  0.00    -0.300 OA
ENDBRANCH   6   7
BRANCH   6   9
ATOM      9  O   UNL     1      98.811 127.281  45.682  1.00  0.00    -0.383 OA
ATOM     10  H   UNL     1      98.872 126.291  45.615  1.00  0.00     0.211 HD
ENDBRANCH   6   9
ENDBRANCH   5   6
BRANCH   5  11
ATOM     11  O   UNL     1      95.954 129.372  46.700  1.00  0.00    -0.387 OA
ATOM     12  H   UNL     1      96.055 130.226  47.196  1.00  0.00     0.211 HD
ENDBRANCH   5  11
ENDBRANCH   1   5
BRANCH   1  13
ATOM     13  O   UNL     1      95.870 129.937  44.229  1.00  0.00    -0.388 OA
ATOM     14  H   UNL     1      95.685 130.762  44.749  1.00  0.00     0.211 HD
ENDBRANCH   1  13
TORSDOF 8
ENDMDL
MODEL 2
REMARK VINA RESULT:    -4.097      7.959      8.549
REMARK INTER + INTRA:          -5.815
REMARK INTER:                  -5.079
REMARK INTRA:                  -0.736
REMARK UNBOUND:                -0.281
REMARK SMILES O=C[C@H](O)[C@H](O)[C@@H](O)CO
REMARK SMILES IDX 7 1 9 2 10 3 5 5 3 6 2 7 1 8 4 9 6 11 8 13
REMARK H PARENT 10 4 4 10 6 12 8 14
REMARK Flexibility Score: inf
ROOT
ATOM      1  C   UNL     1     100.777 134.364  51.239  1.00  0.00     0.171 C 
ENDROOT
BRANCH   1   2
ATOM      2  C   UNL     1     100.516 135.048  49.888  1.00  0.00     0.190 C 
BRANCH   2   3
ATOM      3  O   UNL     1      99.278 134.654  49.364  1.00  0.00    -0.394 OA
ATOM      4  H   UNL     1      98.609 134.824  50.077  1.00  0.00     0.210 HD
ENDBRANCH   2   3
ENDBRANCH   1   2
BRANCH   1   5
ATOM      5  C   UNL     1      99.510 133.773  51.926  1.00  0.00     0.181 C 
BRANCH   5   6
ATOM      6  C   UNL     1      99.627 133.602  53.470  1.00  0.00     0.209 C 
BRANCH   6   7
ATOM      7  C   UNL     1      99.973 132.182  53.838  1.00  0.00     0.258 C 
ATOM      8  O   UNL     1     101.006 131.667  53.440  1.00  0.00    -0.300 OA
ENDBRANCH   6   7
BRANCH   6   9
ATOM      9  O   UNL     1      98.448 133.995  54.126  1.00  0.00    -0.383 OA
ATOM     10  H   UNL     1      97.867 134.448  53.459  1.00  0.00     0.211 HD
ENDBRANCH   6   9
ENDBRANCH   5   6
BRANCH   5  11
ATOM     11  O   UNL     1      99.127 132.570  51.301  1.00  0.00    -0.387 OA
ATOM     12  H   UNL     1      99.026 132.742  50.329  1.00  0.00     0.211 HD
ENDBRANCH   5  11
ENDBRANCH   1   5
BRANCH   1  13
ATOM     13  O   UNL     1     101.737 133.355  51.051  1.00  0.00    -0.388 OA
ATOM     14  H   UNL     1     102.164 133.191  51.931  1.00  0.00     0.211 HD
ENDBRANCH   1  13
TORSDOF 8
ENDMDL
MODEL 3
REMARK VINA RESULT:    -4.069      8.567      8.951
REMARK INTER + INTRA:          -5.777
REMARK INTER:                  -5.071
REMARK INTRA:                  -0.706
REMARK UNBOUND:                -0.281
REMARK SMILES O=C[C@H](O)[C@H](O)[C@@H](O)CO
REMARK SMILES IDX 7 1 9 2 10 3 5 5 3 6 2 7 1 8 4 9 6 11 8 13
REMARK H PARENT 10 4 4 10 6 12 8 14
REMARK Flexibility Score: inf
ROOT
ATOM      1  C   UNL     1     100.929 134.925  49.964  1.00  0.00     0.171 C 
ENDROOT
BRANCH   1   2
ATOM      2  C   UNL     1     101.371 136.384  49.772  1.00  0.00     0.190 C 
BRANCH   2   3
ATOM      3  O   UNL     1     102.747 136.519  49.996  1.00  0.00    -0.394 OA
ATOM      4  H   UNL     1     103.196 136.121  49.206  1.00  0.00     0.210 HD
ENDBRANCH   2   3
ENDBRANCH   1   2
BRANCH   1   5
ATOM      5  C   UNL     1     100.889 134.446  51.446  1.00  0.00     0.181 C 
BRANCH   5   6
ATOM      6  C   UNL     1      99.486 133.988  51.943  1.00  0.00     0.209 C 
BRANCH   6   7
ATOM      7  C   UNL     1      99.413 133.986  53.449  1.00  0.00     0.258 C 
ATOM      8  O   UNL     1      99.118 134.999  54.062  1.00  0.00    -0.300 OA
ENDBRANCH   6   7
BRANCH   6   9
ATOM      9  O   UNL     1      99.147 132.719  51.444  1.00  0.00    -0.383 OA
ATOM     10  H   UNL     1      99.956 132.339  51.010  1.00  0.00     0.211 HD
ENDBRANCH   6   9
ENDBRANCH   5   6
BRANCH   5  11
ATOM     11  O   UNL     1     101.443 135.425  52.294  1.00  0.00    -0.387 OA
ATOM     12  H   UNL     1     100.857 135.515  53.090  1.00  0.00     0.211 HD
ENDBRANCH   5  11
ENDBRANCH   1   5
BRANCH   1  13
ATOM     13  O   UNL     1      99.667 134.759  49.370  1.00  0.00    -0.388 OA
ATOM     14  H   UNL     1      99.107 134.249  50.011  1.00  0.00     0.211 HD
ENDBRANCH   1  13
TORSDOF 8
ENDMDL
MODEL 4
REMARK VINA RESULT:    -4.052      7.688      8.412
REMARK INTER + INTRA:          -5.754
REMARK INTER:                  -5.125
REMARK INTRA:                  -0.629
REMARK UNBOUND:                -0.281
REMARK SMILES O=C[C@H](O)[C@H](O)[C@@H](O)CO
REMARK SMILES IDX 7 1 9 2 10 3 5 5 3 6 2 7 1 8 4 9 6 11 8 13
REMARK H PARENT 10 4 4 10 6 12 8 14
REMARK Flexibility Score: inf
ROOT
ATOM      1  C   UNL     1      99.665 132.104  51.663  1.00  0.00     0.171 C 
ENDROOT
BRANCH   1   2
ATOM      2  C   UNL     1      99.571 133.630  51.515  1.00  0.00     0.190 C 
BRANCH   2   3
ATOM      3  O   UNL     1      99.316 133.985  50.185  1.00  0.00    -0.394 OA
ATOM      4  H   UNL     1     100.182 133.911  49.708  1.00  0.00     0.210 HD
ENDBRANCH   2   3
ENDBRANCH   1   2
BRANCH   1   5
ATOM      5  C   UNL     1     101.082 131.511  51.405  1.00  0.00     0.181 C 
BRANCH   5   6
ATOM      6  C   UNL     1     101.913 131.228  52.691  1.00  0.00     0.209 C 
BRANCH   6   7
ATOM      7  C   UNL     1     103.008 132.249  52.870  1.00  0.00     0.258 C 
ATOM      8  O   UNL     1     102.742 133.421  53.081  1.00  0.00    -0.300 OA
ENDBRANCH   6   7
BRANCH   6   9
ATOM      9  O   UNL     1     102.460 129.933  52.682  1.00  0.00    -0.383 OA
ATOM     10  H   UNL     1     103.437 130.018  52.522  1.00  0.00     0.211 HD
ENDBRANCH   6   9
ENDBRANCH   5   6
BRANCH   5  11
ATOM     11  O   UNL     1     101.795 132.318  50.497  1.00  0.00    -0.387 OA
ATOM     12  H   UNL     1     101.154 132.935  50.059  1.00  0.00     0.211 HD
ENDBRANCH   5  11
ENDBRANCH   1   5
BRANCH   1  13
ATOM     13  O   UNL     1      99.222 131.751  52.949  1.00  0.00    -0.388 OA
ATOM     14  H   UNL     1     100.004 131.380  53.435  1.00  0.00     0.211 HD
ENDBRANCH   1  13
TORSDOF 8
ENDMDL
MODEL 5
REMARK VINA RESULT:    -4.048      8.072      8.942
REMARK INTER + INTRA:          -5.749
REMARK INTER:                  -5.375
REMARK INTRA:                  -0.374
REMARK UNBOUND:                -0.281
REMARK SMILES O=C[C@H](O)[C@H](O)[C@@H](O)CO
REMARK SMILES IDX 7 1 9 2 10 3 5 5 3 6 2 7 1 8 4 9 6 11 8 13
REMARK H PARENT 10 4 4 10 6 12 8 14
REMARK Flexibility Score: inf
ROOT
ATOM      1  C   UNL     1     101.780 132.764  51.143  1.00  0.00     0.171 C 
ENDROOT
BRANCH   1   2
ATOM      2  C   UNL     1     102.915 132.637  50.116  1.00  0.00     0.190 C 
BRANCH   2   3
ATOM      3  O   UNL     1     102.866 131.393  49.473  1.00  0.00    -0.394 OA
ATOM      4  H   UNL     1     103.804 131.160  49.249  1.00  0.00     0.210 HD
ENDBRANCH   2   3
ENDBRANCH   1   2
BRANCH   1   5
ATOM      5  C   UNL     1     101.111 134.170  51.204  1.00  0.00     0.181 C 
BRANCH   5   6
ATOM      6  C   UNL     1     100.922 134.860  49.821  1.00  0.00     0.209 C 
BRANCH   6   7
ATOM      7  C   UNL     1     101.326 136.311  49.874  1.00  0.00     0.258 C 
ATOM      8  O   UNL     1     102.498 136.638  49.772  1.00  0.00    -0.300 OA
ENDBRANCH   6   7
BRANCH   6   9
ATOM      9  O   UNL     1      99.597 134.747  49.362  1.00  0.00    -0.383 OA
ATOM     10  H   UNL     1      99.123 134.112  49.961  1.00  0.00     0.211 HD
ENDBRANCH   6   9
ENDBRANCH   5   6
BRANCH   5  11
ATOM     11  O   UNL     1     101.801 135.003  52.106  1.00  0.00    -0.387 OA
ATOM     12  H   UNL     1     101.369 135.896  52.098  1.00  0.00     0.211 HD
ENDBRANCH   5  11
ENDBRANCH   1   5
BRANCH   1  13
ATOM     13  O   UNL     1     100.813 131.783  50.864  1.00  0.00    -0.388 OA
ATOM     14  H   UNL     1     100.146 132.195  50.257  1.00  0.00     0.211 HD
ENDBRANCH   1  13
TORSDOF 8
ENDMDL
MODEL 6
REMARK VINA RESULT:    -4.002      7.983      9.166
REMARK INTER + INTRA:          -5.686
REMARK INTER:                  -4.948
REMARK INTRA:                  -0.738
REMARK UNBOUND:                -0.281
REMARK SMILES O=C[C@H](O)[C@H](O)[C@@H](O)CO
REMARK SMILES IDX 7 1 9 2 10 3 5 5 3 6 2 7 1 8 4 9 6 11 8 13
REMARK H PARENT 10 4 4 10 6 12 8 14
REMARK Flexibility Score: inf
ROOT
ATOM      1  C   UNL     1     102.390 131.882  53.338  1.00  0.00     0.171 C 
ENDROOT
BRANCH   1   2
ATOM      2  C   UNL     1     103.113 130.599  53.776  1.00  0.00     0.190 C 
BRANCH   2   3
ATOM      3  O   UNL     1     102.859 129.555  52.877  1.00  0.00    -0.394 OA
ATOM      4  H   UNL     1     101.891 129.600  52.667  1.00  0.00     0.210 HD
ENDBRANCH   2   3
ENDBRANCH   1   2
BRANCH   1   5
ATOM      5  C   UNL     1     101.703 131.799  51.942  1.00  0.00     0.181 C 
BRANCH   5   6
ATOM      6  C   UNL     1     101.369 133.177  51.299  1.00  0.00     0.209 C 
BRANCH   6   7
ATOM      7  C   UNL     1      99.899 133.491  51.412  1.00  0.00     0.258 C 
ATOM      8  O   UNL     1      99.365 133.602  52.504  1.00  0.00    -0.300 OA
ENDBRANCH   6   7
BRANCH   6   9
ATOM      9  O   UNL     1     101.770 133.232  49.952  1.00  0.00    -0.383 OA
ATOM     10  H   UNL     1     102.063 132.321  49.687  1.00  0.00     0.211 HD
ENDBRANCH   6   9
ENDBRANCH   5   6
BRANCH   5  11
ATOM     11  O   UNL     1     100.567 130.968  52.002  1.00  0.00    -0.387 OA
ATOM     12  H   UNL     1     100.685 130.332  52.754  1.00  0.00     0.211 HD
ENDBRANCH   5  11
ENDBRANCH   1   5
BRANCH   1  13
ATOM     13  O   UNL     1     101.444 132.219  54.321  1.00  0.00    -0.388 OA
ATOM     14  H   UNL     1     101.360 131.437  54.925  1.00  0.00     0.211 HD
ENDBRANCH   1  13
TORSDOF 8
ENDMDL
MODEL 7
REMARK VINA RESULT:    -3.991      7.852      8.357
REMARK INTER + INTRA:          -5.672
REMARK INTER:                  -4.785
REMARK INTRA:                  -0.888
REMARK UNBOUND:                -0.281
REMARK SMILES O=C[C@H](O)[C@H](O)[C@@H](O)CO
REMARK SMILES IDX 7 1 9 2 10 3 5 5 3 6 2 7 1 8 4 9 6 11 8 13
REMARK H PARENT 10 4 4 10 6 12 8 14
REMARK Flexibility Score: inf
ROOT
ATOM      1  C   UNL     1     103.171 132.769  50.563  1.00  0.00     0.171 C 
ENDROOT
BRANCH   1   2
ATOM      2  C   UNL     1     102.409 134.064  50.244  1.00  0.00     0.190 C 
BRANCH   2   3
ATOM      3  O   UNL     1     101.030 133.827  50.187  1.00  0.00    -0.394 OA
ATOM      4  H   UNL     1     100.604 134.535  50.737  1.00  0.00     0.210 HD
ENDBRANCH   2   3
ENDBRANCH   1   2
BRANCH   1   5
ATOM      5  C   UNL     1     102.929 132.207  51.996  1.00  0.00     0.181 C 
BRANCH   5   6
ATOM      6  C   UNL     1     102.013 130.949  52.055  1.00  0.00     0.209 C 
BRANCH   6   7
ATOM      7  C   UNL     1     100.665 131.281  52.642  1.00  0.00     0.258 C 
ATOM      8  O   UNL     1      99.855 131.941  52.013  1.00  0.00    -0.300 OA
ENDBRANCH   6   7
BRANCH   6   9
ATOM      9  O   UNL     1     102.612 129.906  52.783  1.00  0.00    -0.383 OA
ATOM     10  H   UNL     1     101.926 129.200  52.920  1.00  0.00     0.211 HD
ENDBRANCH   6   9
ENDBRANCH   5   6
BRANCH   5  11
ATOM     11  O   UNL     1     102.463 133.225  52.851  1.00  0.00    -0.387 OA
ATOM     12  H   UNL     1     103.209 133.497  53.446  1.00  0.00     0.211 HD
ENDBRANCH   5  11
ENDBRANCH   1   5
BRANCH   1  13
ATOM     13  O   UNL     1     102.830 131.802  49.603  1.00  0.00    -0.388 OA
ATOM     14  H   UNL     1     101.943 131.438  49.857  1.00  0.00     0.211 HD
ENDBRANCH   1  13
TORSDOF 8
ENDMDL
MODEL 8
REMARK VINA RESULT:    -3.983      7.603      8.783
REMARK INTER + INTRA:          -5.661
REMARK INTER:                  -4.984
REMARK INTRA:                  -0.677
REMARK UNBOUND:                -0.281
REMARK SMILES O=C[C@H](O)[C@H](O)[C@@H](O)CO
REMARK SMILES IDX 7 1 9 2 10 3 5 5 3 6 2 7 1 8 4 9 6 11 8 13
REMARK H PARENT 10 4 4 10 6 12 8 14
REMARK Flexibility Score: inf
ROOT
ATOM      1  C   UNL     1      99.841 131.704  52.485  1.00  0.00     0.171 C 
ENDROOT
BRANCH   1   2
ATOM      2  C   UNL     1      99.882 132.405  53.852  1.00  0.00     0.190 C 
BRANCH   2   3
ATOM      3  O   UNL     1      98.706 133.134  54.071  1.00  0.00    -0.394 OA
ATOM      4  H   UNL     1      97.957 132.529  53.833  1.00  0.00     0.210 HD
ENDBRANCH   2   3
ENDBRANCH   1   2
BRANCH   1   5
ATOM      5  C   UNL     1      99.886 132.664  51.259  1.00  0.00     0.181 C 
BRANCH   5   6
ATOM      6  C   UNL     1     101.251 133.382  51.045  1.00  0.00     0.209 C 
BRANCH   6   7
ATOM      7  C   UNL     1     101.055 134.796  50.559  1.00  0.00     0.258 C 
ATOM      8  O   UNL     1     100.570 135.018  49.462  1.00  0.00    -0.300 OA
ENDBRANCH   6   7
BRANCH   6   9
ATOM      9  O   UNL     1     102.074 132.676  50.151  1.00  0.00    -0.383 OA
ATOM     10  H   UNL     1     101.728 132.833  49.233  1.00  0.00     0.211 HD
ENDBRANCH   6   9
ENDBRANCH   5   6
BRANCH   5  11
ATOM     11  O   UNL     1      98.822 133.586  51.318  1.00  0.00    -0.387 OA
ATOM     12  H   UNL     1      97.979 133.102  51.116  1.00  0.00     0.211 HD
ENDBRANCH   5  11
ENDBRANCH   1   5
BRANCH   1  13
ATOM     13  O   UNL     1     100.906 130.789  52.420  1.00  0.00    -0.388 OA
ATOM     14  H   UNL     1     101.727 131.278  52.685  1.00  0.00     0.211 HD
ENDBRANCH   1  13
TORSDOF 8
ENDMDL
MODEL 9
REMARK VINA RESULT:    -3.951      8.555      9.110
REMARK INTER + INTRA:          -5.618
REMARK INTER:                  -4.652
REMARK INTRA:                  -0.966
REMARK UNBOUND:                -0.281
REMARK SMILES O=C[C@H](O)[C@H](O)[C@@H](O)CO
REMARK SMILES IDX 7 1 9 2 10 3 5 5 3 6 2 7 1 8 4 9 6 11 8 13
REMARK H PARENT 10 4 4 10 6 12 8 14
REMARK Flexibility Score: inf
ROOT
ATOM      1  C   UNL     1     102.416 135.239  51.020  1.00  0.00     0.171 C 
ENDROOT
BRANCH   1   2
ATOM      2  C   UNL     1     103.469 134.421  51.782  1.00  0.00     0.190 C 
BRANCH   2   3
ATOM      3  O   UNL     1     102.863 133.609  52.749  1.00  0.00    -0.394 OA
ATOM      4  H   UNL     1     103.393 132.771  52.778  1.00  0.00     0.210 HD
ENDBRANCH   2   3
ENDBRANCH   1   2
BRANCH   1   5
ATOM      5  C   UNL     1     101.450 134.395  50.136  1.00  0.00     0.181 C 
BRANCH   5   6
ATOM      6  C   UNL     1      99.942 134.547  50.492  1.00  0.00     0.209 C 
BRANCH   6   7
ATOM      7  C   UNL     1      99.483 133.444  51.410  1.00  0.00     0.258 C 
ATOM      8  O   UNL     1      99.960 133.320  52.526  1.00  0.00    -0.300 OA
ENDBRANCH   6   7
BRANCH   6   9
ATOM      9  O   UNL     1      99.137 134.580  49.339  1.00  0.00    -0.383 OA
ATOM     10  H   UNL     1      99.151 133.672  48.935  1.00  0.00     0.211 HD
ENDBRANCH   6   9
ENDBRANCH   5   6
BRANCH   5  11
ATOM     11  O   UNL     1     101.845 133.043  50.129  1.00  0.00    -0.387 OA
ATOM     12  H   UNL     1     101.718 132.685  49.213  1.00  0.00     0.211 HD
ENDBRANCH   5  11
ENDBRANCH   1   5
BRANCH   1  13
ATOM     13  O   UNL     1     101.681 135.997  51.947  1.00  0.00    -0.388 OA
ATOM     14  H   UNL     1     101.789 135.560  52.831  1.00  0.00     0.211 HD
ENDBRANCH   1  13
TORSDOF 8
ENDMDL
