MODEL 1
REMARK VINA RESULT:    -2.858      0.000      0.000
REMARK INTER + INTRA:          -3.453
REMARK INTER:                  -3.359
REMARK INTRA:                  -0.094
REMARK UNBOUND:                -0.094
REMARK SMILES O=C([O-])CCC(=O)[O-]
REMARK SMILES IDX 4 1 2 2 1 3 3 4 5 5 6 6 7 7 8 8
REMARK H PARENT
REMARK Flexibility Score: inf
ROOT
ATOM      1  C   UNL     1      -8.616  -5.846   3.415  1.00  0.00     0.059 C 
ENDROOT
BRANCH   1   2
ATOM      2  C   UNL     1      -8.422  -7.211   2.834  1.00  0.00     0.042 C 
ATOM      3  O   UNL     1      -8.778  -8.231   3.481  1.00  0.00    -0.550 OA
ATOM      4  O   UNL     1      -7.895  -7.354   1.557  1.00  0.00    -0.550 OA
ENDBRANCH   1   2
BRANCH   1   5
ATOM      5  C   UNL     1      -7.983  -5.761   4.806  1.00  0.00     0.059 C 
BRANCH   5   6
ATOM      6  C   UNL     1      -6.523  -5.453   4.698  1.00  0.00     0.042 C 
ATOM      7  O   UNL     1      -6.117  -4.267   4.799  1.00  0.00    -0.550 OA
ATOM      8  O   UNL     1      -5.606  -6.484   4.535  1.00  0.00    -0.550 OA
ENDBRANCH   5   6
ENDBRANCH   1   5
TORSDOF 3
ENDMDL
MODEL 2
REMARK VINA RESULT:    -2.774      1.265      1.953
REMARK INTER + INTRA:          -3.354
REMARK INTER:                  -3.211
REMARK INTRA:                  -0.143
REMARK UNBOUND:                -0.094
REMARK SMILES O=C([O-])CCC(=O)[O-]
REMARK SMILES IDX 4 1 2 2 1 3 3 4 5 5 6 6 7 7 8 8
REMARK H PARENT
REMARK Flexibility Score: inf
ROOT
ATOM      1  C   UNL     1      -9.047  -7.178   3.204  1.00  0.00     0.059 C 
ENDROOT
BRANCH   1   2
ATOM      2  C   UNL     1      -7.972  -7.817   2.383  1.00  0.00     0.042 C 
ATOM      3  O   UNL     1      -7.869  -7.553   1.157  1.00  0.00    -0.550 OA
ATOM      4  O   UNL     1      -7.052  -8.667   2.985  1.00  0.00    -0.550 OA
ENDBRANCH   1   2
BRANCH   1   5
ATOM      5  C   UNL     1      -8.694  -5.720   3.506  1.00  0.00     0.059 C 
BRANCH   5   6
ATOM      6  C   UNL     1      -7.791  -5.636   4.695  1.00  0.00     0.042 C 
ATOM      7  O   UNL     1      -8.008  -6.351   5.708  1.00  0.00    -0.550 OA
ATOM      8  O   UNL     1      -6.679  -4.803   4.666  1.00  0.00    -0.550 OA
ENDBRANCH   5   6
ENDBRANCH   1   5
TORSDOF 3
ENDMDL
MODEL 3
REMARK VINA RESULT:    -2.744      0.446      3.629
REMARK INTER + INTRA:          -3.320
REMARK INTER:                  -3.202
REMARK INTRA:                  -0.118
REMARK UNBOUND:                -0.094
REMARK SMILES O=C([O-])CCC(=O)[O-]
REMARK SMILES IDX 4 1 2 2 1 3 3 4 5 5 6 6 7 7 8 8
REMARK H PARENT
REMARK Flexibility Score: inf
ROOT
ATOM      1  C   UNL     1      -7.891  -5.863   4.872  1.00  0.00     0.059 C 
ENDROOT
BRANCH   1   2
ATOM      2  C   UNL     1      -6.429  -5.565   4.759  1.00  0.00     0.042 C 
ATOM      3  O   UNL     1      -5.608  -6.493   4.535  1.00  0.00    -0.550 OA
ATOM      4  O   UNL     1      -5.978  -4.254   4.852  1.00  0.00    -0.550 OA
ENDBRANCH   1   2
BRANCH   1   5
ATOM      5  C   UNL     1      -8.568  -5.748   3.505  1.00  0.00     0.059 C 
BRANCH   5   6
ATOM      6  C   UNL     1      -8.650  -7.088   2.847  1.00  0.00     0.042 C 
ATOM      7  O   UNL     1      -7.729  -7.476   2.082  1.00  0.00    -0.550 OA
ATOM      8  O   UNL     1      -9.722  -7.930   3.116  1.00  0.00    -0.550 OA
ENDBRANCH   5   6
ENDBRANCH   1   5
TORSDOF 3
ENDMDL
MODEL 4
REMARK VINA RESULT:    -2.721     14.557     15.061
REMARK INTER + INTRA:          -3.292
REMARK INTER:                  -3.187
REMARK INTRA:                  -0.105
REMARK UNBOUND:                -0.094
REMARK SMILES O=C([O-])CCC(=O)[O-]
REMARK SMILES IDX 4 1 2 2 1 3 3 4 5 5 6 6 7 7 8 8
REMARK H PARENT
REMARK Flexibility Score: inf
ROOT
ATOM      1  C   UNL     1       6.357  -4.195   3.295  1.00  0.00     0.059 C 
ENDROOT
BRANCH   1   2
ATOM      2  C   UNL     1       7.171  -4.446   2.066  1.00  0.00     0.042 C 
ATOM      3  O   UNL     1       7.176  -3.607   1.126  1.00  0.00    -0.550 OA
ATOM      4  O   UNL     1       7.965  -5.583   1.977  1.00  0.00    -0.550 OA
ENDBRANCH   1   2
BRANCH   1   5
ATOM      5  C   UNL     1       6.597  -5.296   4.330  1.00  0.00     0.059 C 
BRANCH   5   6
ATOM      6  C   UNL     1       7.489  -4.802   5.423  1.00  0.00     0.042 C 
ATOM      7  O   UNL     1       7.086  -4.795   6.616  1.00  0.00    -0.550 OA
ATOM      8  O   UNL     1       8.785  -4.393   5.132  1.00  0.00    -0.550 OA
ENDBRANCH   5   6
ENDBRANCH   1   5
TORSDOF 3
ENDMDL
MODEL 5
REMARK VINA RESULT:    -2.710     14.559     15.244
REMARK INTER + INTRA:          -3.279
REMARK INTER:                  -3.170
REMARK INTRA:                  -0.110
REMARK UNBOUND:                -0.094
REMARK SMILES O=C([O-])CCC(=O)[O-]
REMARK SMILES IDX 4 1 2 2 1 3 3 4 5 5 6 6 7 7 8 8
REMARK H PARENT
REMARK Flexibility Score: inf
ROOT
ATOM      1  C   UNL     1       6.637  -5.348   4.330  1.00  0.00     0.059 C 
ENDROOT
BRANCH   1   2
ATOM      2  C   UNL     1       7.499  -4.819   5.432  1.00  0.00     0.042 C 
ATOM      3  O   UNL     1       7.076  -4.806   6.618  1.00  0.00    -0.550 OA
ATOM      4  O   UNL     1       8.790  -4.385   5.156  1.00  0.00    -0.550 OA
ENDBRANCH   1   2
BRANCH   1   5
ATOM      5  C   UNL     1       6.366  -4.259   3.291  1.00  0.00     0.059 C 
BRANCH   5   6
ATOM      6  C   UNL     1       7.158  -4.513   2.048  1.00  0.00     0.042 C 
ATOM      7  O   UNL     1       7.227  -3.635   1.150  1.00  0.00    -0.550 OA
ATOM      8  O   UNL     1       7.862  -5.703   1.904  1.00  0.00    -0.550 OA
ENDBRANCH   5   6
ENDBRANCH   1   5
TORSDOF 3
ENDMDL
MODEL 6
REMARK VINA RESULT:    -2.654      2.361      3.001
REMARK INTER + INTRA:          -3.214
REMARK INTER:                  -3.103
REMARK INTRA:                  -0.111
REMARK UNBOUND:                -0.094
REMARK SMILES O=C([O-])CCC(=O)[O-]
REMARK SMILES IDX 4 1 2 2 1 3 3 4 5 5 6 6 7 7 8 8
REMARK H PARENT
REMARK Flexibility Score: inf
ROOT
ATOM      1  C   UNL     1      -9.409  -7.780   3.038  1.00  0.00     0.059 C 
ENDROOT
BRANCH   1   2
ATOM      2  C   UNL     1      -8.041  -7.760   2.434  1.00  0.00     0.042 C 
ATOM      3  O   UNL     1      -7.023  -7.879   3.166  1.00  0.00    -0.550 OA
ATOM      4  O   UNL     1      -7.891  -7.662   1.057  1.00  0.00    -0.550 OA
ENDBRANCH   1   2
BRANCH   1   5
ATOM      5  C   UNL     1      -9.695  -6.462   3.761  1.00  0.00     0.059 C 
BRANCH   5   6
ATOM      6  C   UNL     1      -9.945  -6.706   5.215  1.00  0.00     0.042 C 
ATOM      7  O   UNL     1     -11.123  -6.745   5.657  1.00  0.00    -0.550 OA
ATOM      8  O   UNL     1      -8.879  -6.938   6.075  1.00  0.00    -0.550 OA
ENDBRANCH   5   6
ENDBRANCH   1   5
TORSDOF 3
ENDMDL
MODEL 7
REMARK VINA RESULT:    -2.612      2.557      3.695
REMARK INTER + INTRA:          -3.163
REMARK INTER:                  -3.041
REMARK INTRA:                  -0.122
REMARK UNBOUND:                -0.094
REMARK SMILES O=C([O-])CCC(=O)[O-]
REMARK SMILES IDX 4 1 2 2 1 3 3 4 5 5 6 6 7 7 8 8
REMARK H PARENT
REMARK Flexibility Score: inf
ROOT
ATOM      1  C   UNL     1      -9.632  -7.207   5.205  1.00  0.00     0.059 C 
ENDROOT
BRANCH   1   2
ATOM      2  C   UNL     1      -9.867  -6.315   6.383  1.00  0.00     0.042 C 
ATOM      3  O   UNL     1      -8.960  -5.536   6.778  1.00  0.00    -0.550 OA
ATOM      4  O   UNL     1     -11.104  -6.308   7.013  1.00  0.00    -0.550 OA
ENDBRANCH   1   2
BRANCH   1   5
ATOM      5  C   UNL     1      -9.629  -6.394   3.909  1.00  0.00     0.059 C 
BRANCH   5   6
ATOM      6  C   UNL     1      -8.277  -6.433   3.271  1.00  0.00     0.042 C 
ATOM      7  O   UNL     1      -7.263  -6.050   3.910  1.00  0.00    -0.550 OA
ATOM      8  O   UNL     1      -8.129  -6.938   1.984  1.00  0.00    -0.550 OA
ENDBRANCH   5   6
ENDBRANCH   1   5
TORSDOF 3
ENDMDL
MODEL 8
REMARK VINA RESULT:    -2.564      2.021      2.244
REMARK INTER + INTRA:          -3.107
REMARK INTER:                  -2.994
REMARK INTRA:                  -0.113
REMARK UNBOUND:                -0.094
REMARK SMILES O=C([O-])CCC(=O)[O-]
REMARK SMILES IDX 4 1 2 2 1 3 3 4 5 5 6 6 7 7 8 8
REMARK H PARENT
REMARK Flexibility Score: inf
ROOT
ATOM      1  C   UNL     1      -7.838  -4.979   4.201  1.00  0.00     0.059 C 
ENDROOT
BRANCH   1   2
ATOM      2  C   UNL     1      -8.647  -5.960   3.414  1.00  0.00     0.042 C 
ATOM      3  O   UNL     1      -9.841  -6.200   3.735  1.00  0.00    -0.550 OA
ATOM      4  O   UNL     1      -8.099  -6.573   2.294  1.00  0.00    -0.550 OA
ENDBRANCH   1   2
BRANCH   1   5
ATOM      5  C   UNL     1      -6.998  -5.702   5.256  1.00  0.00     0.059 C 
BRANCH   5   6
ATOM      6  C   UNL     1      -7.443  -5.318   6.631  1.00  0.00     0.042 C 
ATOM      7  O   UNL     1      -8.669  -5.211   6.894  1.00  0.00    -0.550 OA
ATOM      8  O   UNL     1      -6.504  -5.126   7.638  1.00  0.00    -0.550 OA
ENDBRANCH   5   6
ENDBRANCH   1   5
TORSDOF 3
ENDMDL
MODEL 9
REMARK VINA RESULT:    -2.505     10.144     11.362
REMARK INTER + INTRA:          -3.038
REMARK INTER:                  -2.932
REMARK INTRA:                  -0.106
REMARK UNBOUND:                -0.094
REMARK SMILES O=C([O-])CCC(=O)[O-]
REMARK SMILES IDX 4 1 2 2 1 3 3 4 5 5 6 6 7 7 8 8
REMARK H PARENT
REMARK Flexibility Score: inf
ROOT
ATOM      1  C   UNL     1       0.136  -1.125   8.170  1.00  0.00     0.059 C 
ENDROOT
BRANCH   1   2
ATOM      2  C   UNL     1       1.505  -1.103   8.771  1.00  0.00     0.042 C 
ATOM      3  O   UNL     1       2.097  -2.181   9.040  1.00  0.00    -0.550 OA
ATOM      4  O   UNL     1       2.149   0.108   8.988  1.00  0.00    -0.550 OA
ENDBRANCH   1   2
BRANCH   1   5
ATOM      5  C   UNL     1      -0.253   0.268   7.671  1.00  0.00     0.059 C 
BRANCH   5   6
ATOM      6  C   UNL     1      -1.386   0.816   8.479  1.00  0.00     0.042 C 
ATOM      7  O   UNL     1      -2.571   0.486   8.213  1.00  0.00    -0.550 OA
ATOM      8  O   UNL     1      -1.129   1.653   9.557  1.00  0.00    -0.550 OA
ENDBRANCH   5   6
ENDBRANCH   1   5
TORSDOF 3
ENDMDL
