MODEL 1
REMARK VINA RESULT:    -2.214      0.000      0.000
REMARK INTER + INTRA:          -5.061
REMARK INTER:                  -3.897
REMARK INTRA:                  -1.164
REMARK UNBOUND:                -1.164
REMARK SMILES CCCCCCC=CCCCCCCCC(=O)[O-]
REMARK SMILES IDX 10 1 11 2 12 3 13 4 14 5 15 6 16 7 17 8 18 9 9 10 8 11 7 12
REMARK SMILES IDX 6 13 5 14 4 15 3 16 2 17 1 18
REMARK H PARENT
REMARK Flexibility Score: inf
ROOT
ATOM      1  C   UNL     1     -21.991   2.675   8.350  1.00  0.00     0.004 C 
ENDROOT
BRANCH   1   2
ATOM      2  C   UNL     1     -22.310   1.723   9.512  1.00  0.00     0.000 C 
BRANCH   2   3
ATOM      3  C   UNL     1     -21.728   2.200  10.854  1.00  0.00     0.000 C 
BRANCH   3   4
ATOM      4  C   UNL     1     -21.806   1.174  12.003  1.00  0.00     0.000 C 
BRANCH   4   5
ATOM      5  C   UNL     1     -21.610  -0.293  11.581  1.00  0.00     0.006 C 
BRANCH   5   6
ATOM      6  C   UNL     1     -21.034  -1.163  12.704  1.00  0.00     0.053 C 
BRANCH   6   7
ATOM      7  C   UNL     1     -21.463  -0.643  14.040  1.00  0.00     0.041 C 
ATOM      8  O   UNL     1     -20.613  -0.168  14.837  1.00  0.00    -0.550 OA
ATOM      9  O   UNL     1     -22.795  -0.732  14.425  1.00  0.00    -0.550 OA
ENDBRANCH   6   7
ENDBRANCH   5   6
ENDBRANCH   4   5
ENDBRANCH   3   4
ENDBRANCH   2   3
ENDBRANCH   1   2
BRANCH   1  10
ATOM     10  C   UNL     1     -21.372   1.914   7.171  1.00  0.00     0.027 C 
BRANCH  10  11
ATOM     11  C   UNL     1     -21.014   0.507   7.560  1.00  0.00    -0.031 C 
ATOM     12  C   UNL     1     -21.374  -0.543   6.806  1.00  0.00    -0.031 C 
BRANCH  12  13
ATOM     13  C   UNL     1     -20.998  -1.950   7.183  1.00  0.00     0.027 C 
BRANCH  13  14
ATOM     14  C   UNL     1     -20.647  -2.046   8.675  1.00  0.00     0.004 C 
BRANCH  14  15
ATOM     15  C   UNL     1     -19.881  -3.334   9.020  1.00  0.00     0.000 C 
BRANCH  15  16
ATOM     16  C   UNL     1     -19.869  -4.344   7.859  1.00  0.00    -0.000 C 
BRANCH  16  17
ATOM     17  C   UNL     1     -20.152  -5.780   8.324  1.00  0.00    -0.003 C 
ATOM     18  C   UNL     1     -21.646  -6.083   8.432  1.00  0.00     0.004 C 
ENDBRANCH  16  17
ENDBRANCH  15  16
ENDBRANCH  14  15
ENDBRANCH  13  14
ENDBRANCH  12  13
ENDBRANCH  10  11
ENDBRANCH   1  10
TORSDOF 13
ENDMDL
MODEL 2
REMARK VINA RESULT:    -2.210      1.812      5.193
REMARK INTER + INTRA:          -5.053
REMARK INTER:                  -4.396
REMARK INTRA:                  -0.657
REMARK UNBOUND:                -1.164
REMARK SMILES CCCCCCC=CCCCCCCCC(=O)[O-]
REMARK SMILES IDX 10 1 11 2 12 3 13 4 14 5 15 6 16 7 17 8 18 9 9 10 8 11 7 12
REMARK SMILES IDX 6 13 5 14 4 15 3 16 2 17 1 18
REMARK H PARENT
REMARK Flexibility Score: inf
ROOT
ATOM      1  C   UNL     1     -20.160  -2.846   8.818  1.00  0.00     0.004 C 
ENDROOT
BRANCH   1   2
ATOM      2  C   UNL     1     -20.792  -1.811   9.760  1.00  0.00     0.000 C 
BRANCH   2   3
ATOM      3  C   UNL     1     -20.213  -1.865  11.184  1.00  0.00     0.000 C 
BRANCH   3   4
ATOM      4  C   UNL     1     -21.253  -2.056  12.307  1.00  0.00     0.000 C 
BRANCH   4   5
ATOM      5  C   UNL     1     -20.973  -1.266  13.597  1.00  0.00     0.006 C 
BRANCH   5   6
ATOM      6  C   UNL     1     -22.037  -0.201  13.886  1.00  0.00     0.053 C 
BRANCH   6   7
ATOM      7  C   UNL     1     -21.822   1.000  13.019  1.00  0.00     0.041 C 
ATOM      8  O   UNL     1     -21.234   2.015  13.476  1.00  0.00    -0.550 OA
ATOM      9  O   UNL     1     -22.319   1.017  11.722  1.00  0.00    -0.550 OA
ENDBRANCH   6   7
ENDBRANCH   5   6
ENDBRANCH   4   5
ENDBRANCH   3   4
ENDBRANCH   2   3
ENDBRANCH   1   2
BRANCH   1  10
ATOM     10  C   UNL     1     -20.643  -2.645   7.376  1.00  0.00     0.027 C 
BRANCH  10  11
ATOM     11  C   UNL     1     -21.307  -1.306   7.207  1.00  0.00    -0.031 C 
ATOM     12  C   UNL     1     -20.862  -0.409   6.313  1.00  0.00    -0.031 C 
BRANCH  12  13
ATOM     13  C   UNL     1     -21.538   0.921   6.129  1.00  0.00     0.027 C 
BRANCH  13  14
ATOM     14  C   UNL     1     -21.099   1.918   7.212  1.00  0.00     0.004 C 
BRANCH  14  15
ATOM     15  C   UNL     1     -21.764   1.645   8.571  1.00  0.00     0.000 C 
BRANCH  15  16
ATOM     16  C   UNL     1     -22.418   2.901   9.173  1.00  0.00    -0.000 C 
BRANCH  16  17
ATOM     17  C   UNL     1     -22.422   4.088   8.198  1.00  0.00    -0.003 C 
ATOM     18  C   UNL     1     -21.915   5.380   8.838  1.00  0.00     0.004 C 
ENDBRANCH  16  17
ENDBRANCH  15  16
ENDBRANCH  14  15
ENDBRANCH  13  14
ENDBRANCH  12  13
ENDBRANCH  10  11
ENDBRANCH   1  10
TORSDOF 13
ENDMDL
MODEL 3
REMARK VINA RESULT:    -2.095      3.231      7.183
REMARK INTER + INTRA:          -4.851
REMARK INTER:                  -3.551
REMARK INTRA:                  -1.300
REMARK UNBOUND:                -1.164
REMARK SMILES CCCCCCC=CCCCCCCCC(=O)[O-]
REMARK SMILES IDX 10 1 11 2 12 3 13 4 14 5 15 6 16 7 17 8 18 9 9 10 8 11 7 12
REMARK SMILES IDX 6 13 5 14 4 15 3 16 2 17 1 18
REMARK H PARENT
REMARK Flexibility Score: inf
ROOT
ATOM      1  C   UNL     1     -20.986  -1.197  13.345  1.00  0.00     0.004 C 
ENDROOT
BRANCH   1   2
ATOM      2  C   UNL     1     -21.304  -2.090  12.137  1.00  0.00     0.000 C 
BRANCH   2   3
ATOM      3  C   UNL     1     -20.212  -2.042  11.053  1.00  0.00     0.000 C 
BRANCH   3   4
ATOM      4  C   UNL     1     -20.715  -2.238   9.609  1.00  0.00     0.000 C 
BRANCH   4   5
ATOM      5  C   UNL     1     -21.000  -0.939   8.835  1.00  0.00     0.006 C 
BRANCH   5   6
ATOM      6  C   UNL     1     -20.947  -1.127   7.315  1.00  0.00     0.053 C 
BRANCH   6   7
ATOM      7  C   UNL     1     -21.055   0.195   6.621  1.00  0.00     0.041 C 
ATOM      8  O   UNL     1     -21.970   0.396   5.780  1.00  0.00    -0.550 OA
ATOM      9  O   UNL     1     -20.114   1.187   6.866  1.00  0.00    -0.550 OA
ENDBRANCH   6   7
ENDBRANCH   5   6
ENDBRANCH   4   5
ENDBRANCH   3   4
ENDBRANCH   2   3
ENDBRANCH   1   2
BRANCH   1  10
ATOM     10  C   UNL     1     -22.037  -0.092  13.503  1.00  0.00     0.027 C 
BRANCH  10  11
ATOM     11  C   UNL     1     -21.708   1.098  12.645  1.00  0.00    -0.031 C 
ATOM     12  C   UNL     1     -22.091   1.166  11.361  1.00  0.00    -0.031 C 
BRANCH  12  13
ATOM     13  C   UNL     1     -21.780   2.366  10.508  1.00  0.00     0.027 C 
BRANCH  13  14
ATOM     14  C   UNL     1     -22.631   2.370   9.230  1.00  0.00     0.004 C 
BRANCH  14  15
ATOM     15  C   UNL     1     -22.205   3.467   8.241  1.00  0.00     0.000 C 
BRANCH  15  16
ATOM     16  C   UNL     1     -22.594   4.877   8.719  1.00  0.00    -0.000 C 
BRANCH  16  17
ATOM     17  C   UNL     1     -21.445   5.886   8.571  1.00  0.00    -0.003 C 
ATOM     18  C   UNL     1     -20.563   5.965   9.818  1.00  0.00     0.004 C 
ENDBRANCH  16  17
ENDBRANCH  15  16
ENDBRANCH  14  15
ENDBRANCH  13  14
ENDBRANCH  12  13
ENDBRANCH  10  11
ENDBRANCH   1  10
TORSDOF 13
ENDMDL
MODEL 4
REMARK VINA RESULT:    -2.064      1.131      1.376
REMARK INTER + INTRA:          -4.796
REMARK INTER:                  -3.926
REMARK INTRA:                  -0.870
REMARK UNBOUND:                -1.164
REMARK SMILES CCCCCCC=CCCCCCCCC(=O)[O-]
REMARK SMILES IDX 10 1 11 2 12 3 13 4 14 5 15 6 16 7 17 8 18 9 9 10 8 11 7 12
REMARK SMILES IDX 6 13 5 14 4 15 3 16 2 17 1 18
REMARK H PARENT
REMARK Flexibility Score: inf
ROOT
ATOM      1  C   UNL     1     -21.882   2.782   8.450  1.00  0.00     0.004 C 
ENDROOT
BRANCH   1   2
ATOM      2  C   UNL     1     -22.493   1.864   9.519  1.00  0.00     0.000 C 
BRANCH   2   3
ATOM      3  C   UNL     1     -21.673   1.834  10.821  1.00  0.00     0.000 C 
BRANCH   3   4
ATOM      4  C   UNL     1     -22.391   1.203  12.032  1.00  0.00     0.000 C 
BRANCH   4   5
ATOM      5  C   UNL     1     -21.465   0.739  13.170  1.00  0.00     0.006 C 
BRANCH   5   6
ATOM      6  C   UNL     1     -21.867  -0.623  13.747  1.00  0.00     0.053 C 
BRANCH   6   7
ATOM      7  C   UNL     1     -21.414  -1.727  12.845  1.00  0.00     0.041 C 
ATOM      8  O   UNL     1     -21.834  -2.901  13.018  1.00  0.00    -0.550 OA
ATOM      9  O   UNL     1     -20.485  -1.469  11.844  1.00  0.00    -0.550 OA
ENDBRANCH   6   7
ENDBRANCH   5   6
ENDBRANCH   4   5
ENDBRANCH   3   4
ENDBRANCH   2   3
ENDBRANCH   1   2
BRANCH   1  10
ATOM     10  C   UNL     1     -21.363   1.967   7.259  1.00  0.00     0.027 C 
BRANCH  10  11
ATOM     11  C   UNL     1     -21.134   0.531   7.641  1.00  0.00    -0.031 C 
ATOM     12  C   UNL     1     -21.201  -0.456   6.735  1.00  0.00    -0.031 C 
BRANCH  12  13
ATOM     13  C   UNL     1     -20.951  -1.891   7.113  1.00  0.00     0.027 C 
BRANCH  13  14
ATOM     14  C   UNL     1     -20.616  -2.018   8.606  1.00  0.00     0.004 C 
BRANCH  14  15
ATOM     15  C   UNL     1     -20.234  -3.453   9.006  1.00  0.00     0.000 C 
BRANCH  15  16
ATOM     16  C   UNL     1     -19.823  -4.313   7.798  1.00  0.00    -0.000 C 
BRANCH  16  17
ATOM     17  C   UNL     1     -20.176  -5.797   7.985  1.00  0.00    -0.003 C 
ATOM     18  C   UNL     1     -21.546  -6.001   8.630  1.00  0.00     0.004 C 
ENDBRANCH  16  17
ENDBRANCH  15  16
ENDBRANCH  14  15
ENDBRANCH  13  14
ENDBRANCH  12  13
ENDBRANCH  10  11
ENDBRANCH   1  10
TORSDOF 13
ENDMDL
MODEL 5
REMARK VINA RESULT:    -2.055      2.962      4.772
REMARK INTER + INTRA:          -4.781
REMARK INTER:                  -3.477
REMARK INTRA:                  -1.305
REMARK UNBOUND:                -1.164
REMARK SMILES CCCCCCC=CCCCCCCCC(=O)[O-]
REMARK SMILES IDX 10 1 11 2 12 3 13 4 14 5 15 6 16 7 17 8 18 9 9 10 8 11 7 12
REMARK SMILES IDX 6 13 5 14 4 15 3 16 2 17 1 18
REMARK H PARENT
REMARK Flexibility Score: inf
ROOT
ATOM      1  C   UNL     1     -22.125   0.471  13.444  1.00  0.00     0.004 C 
ENDROOT
BRANCH   1   2
ATOM      2  C   UNL     1     -21.708   1.468  12.353  1.00  0.00     0.000 C 
BRANCH   2   3
ATOM      3  C   UNL     1     -22.674   1.483  11.155  1.00  0.00     0.000 C 
BRANCH   3   4
ATOM      4  C   UNL     1     -22.067   1.993   9.832  1.00  0.00     0.000 C 
BRANCH   4   5
ATOM      5  C   UNL     1     -21.451   0.905   8.935  1.00  0.00     0.006 C 
BRANCH   5   6
ATOM      6  C   UNL     1     -21.373   1.322   7.462  1.00  0.00     0.053 C 
BRANCH   6   7
ATOM      7  C   UNL     1     -21.200   0.121   6.587  1.00  0.00     0.041 C 
ATOM      8  O   UNL     1     -22.148  -0.694   6.435  1.00  0.00    -0.550 OA
ATOM      9  O   UNL     1     -19.974  -0.128   5.982  1.00  0.00    -0.550 OA
ENDBRANCH   6   7
ENDBRANCH   5   6
ENDBRANCH   4   5
ENDBRANCH   3   4
ENDBRANCH   2   3
ENDBRANCH   1   2
BRANCH   1  10
ATOM     10  C   UNL     1     -21.124  -0.688  13.541  1.00  0.00     0.027 C 
BRANCH  10  11
ATOM     11  C   UNL     1     -21.382  -1.719  12.478  1.00  0.00    -0.031 C 
ATOM     12  C   UNL     1     -20.653  -1.764  11.352  1.00  0.00    -0.031 C 
BRANCH  12  13
ATOM     13  C   UNL     1     -20.897  -2.809  10.297  1.00  0.00     0.027 C 
BRANCH  13  14
ATOM     14  C   UNL     1     -20.351  -2.355   8.935  1.00  0.00     0.004 C 
BRANCH  14  15
ATOM     15  C   UNL     1     -20.465  -3.449   7.860  1.00  0.00     0.000 C 
BRANCH  15  16
ATOM     16  C   UNL     1     -19.634  -4.699   8.197  1.00  0.00    -0.000 C 
BRANCH  16  17
ATOM     17  C   UNL     1     -20.408  -6.004   7.956  1.00  0.00    -0.003 C 
ATOM     18  C   UNL     1     -21.710  -6.074   8.754  1.00  0.00     0.004 C 
ENDBRANCH  16  17
ENDBRANCH  15  16
ENDBRANCH  14  15
ENDBRANCH  13  14
ENDBRANCH  12  13
ENDBRANCH  10  11
ENDBRANCH   1  10
TORSDOF 13
ENDMDL
MODEL 6
REMARK VINA RESULT:    -2.039      2.900      5.666
REMARK INTER + INTRA:          -4.753
REMARK INTER:                  -3.475
REMARK INTRA:                  -1.279
REMARK UNBOUND:                -1.164
REMARK SMILES CCCCCCC=CCCCCCCCC(=O)[O-]
REMARK SMILES IDX 10 1 11 2 12 3 13 4 14 5 15 6 16 7 17 8 18 9 9 10 8 11 7 12
REMARK SMILES IDX 6 13 5 14 4 15 3 16 2 17 1 18
REMARK H PARENT
REMARK Flexibility Score: inf
ROOT
ATOM      1  C   UNL     1     -20.568   0.789   7.258  1.00  0.00     0.004 C 
ENDROOT
BRANCH   1   2
ATOM      2  C   UNL     1     -21.311  -0.252   6.408  1.00  0.00     0.000 C 
BRANCH   2   3
ATOM      3  C   UNL     1     -21.094  -1.693   6.902  1.00  0.00     0.000 C 
BRANCH   3   4
ATOM      4  C   UNL     1     -20.668  -1.822   8.378  1.00  0.00     0.000 C 
BRANCH   4   5
ATOM      5  C   UNL     1     -20.121  -3.203   8.781  1.00  0.00     0.006 C 
BRANCH   5   6
ATOM      6  C   UNL     1     -20.255  -4.245   7.665  1.00  0.00     0.053 C 
BRANCH   6   7
ATOM      7  C   UNL     1     -20.484  -5.605   8.246  1.00  0.00     0.041 C 
ATOM      8  O   UNL     1     -19.523  -6.406   8.382  1.00  0.00    -0.550 OA
ATOM      9  O   UNL     1     -21.769  -6.006   8.589  1.00  0.00    -0.550 OA
ENDBRANCH   6   7
ENDBRANCH   5   6
ENDBRANCH   4   5
ENDBRANCH   3   4
ENDBRANCH   2   3
ENDBRANCH   1   2
BRANCH   1  10
ATOM     10  C   UNL     1     -21.400   2.068   7.411  1.00  0.00     0.027 C 
BRANCH  10  11
ATOM     11  C   UNL     1     -22.121   2.093   8.731  1.00  0.00    -0.031 C 
ATOM     12  C   UNL     1     -21.774   1.274   9.736  1.00  0.00    -0.031 C 
BRANCH  12  13
ATOM     13  C   UNL     1     -22.481   1.313  11.063  1.00  0.00     0.027 C 
BRANCH  13  14
ATOM     14  C   UNL     1     -21.509   1.678  12.195  1.00  0.00     0.004 C 
BRANCH  14  15
ATOM     15  C   UNL     1     -21.874   1.001  13.527  1.00  0.00     0.000 C 
BRANCH  15  16
ATOM     16  C   UNL     1     -20.988  -0.219  13.832  1.00  0.00    -0.000 C 
BRANCH  16  17
ATOM     17  C   UNL     1     -21.591  -1.531  13.307  1.00  0.00    -0.003 C 
ATOM     18  C   UNL     1     -20.953  -1.992  11.997  1.00  0.00     0.004 C 
ENDBRANCH  16  17
ENDBRANCH  15  16
ENDBRANCH  14  15
ENDBRANCH  13  14
ENDBRANCH  12  13
ENDBRANCH  10  11
ENDBRANCH   1  10
TORSDOF 13
ENDMDL
MODEL 7
REMARK VINA RESULT:    -1.935      3.094      5.825
REMARK INTER + INTRA:          -4.570
REMARK INTER:                  -3.368
REMARK INTRA:                  -1.202
REMARK UNBOUND:                -1.164
REMARK SMILES CCCCCCC=CCCCCCCCC(=O)[O-]
REMARK SMILES IDX 10 1 11 2 12 3 13 4 14 5 15 6 16 7 17 8 18 9 9 10 8 11 7 12
REMARK SMILES IDX 6 13 5 14 4 15 3 16 2 17 1 18
REMARK H PARENT
REMARK Flexibility Score: inf
ROOT
ATOM      1  C   UNL     1     -21.747  -0.661   6.947  1.00  0.00     0.004 C 
ENDROOT
BRANCH   1   2
ATOM      2  C   UNL     1     -20.861   0.502   6.476  1.00  0.00     0.000 C 
BRANCH   2   3
ATOM      3  C   UNL     1     -21.136   1.810   7.238  1.00  0.00     0.000 C 
BRANCH   3   4
ATOM      4  C   UNL     1     -21.763   1.634   8.636  1.00  0.00     0.000 C 
BRANCH   4   5
ATOM      5  C   UNL     1     -22.136   2.944   9.353  1.00  0.00     0.006 C 
BRANCH   5   6
ATOM      6  C   UNL     1     -22.638   4.027   8.392  1.00  0.00     0.053 C 
BRANCH   6   7
ATOM      7  C   UNL     1     -22.029   5.351   8.733  1.00  0.00     0.041 C 
ATOM      8  O   UNL     1     -22.373   6.387   8.106  1.00  0.00    -0.550 OA
ATOM      9  O   UNL     1     -21.044   5.431   9.709  1.00  0.00    -0.550 OA
ENDBRANCH   6   7
ENDBRANCH   5   6
ENDBRANCH   4   5
ENDBRANCH   3   4
ENDBRANCH   2   3
ENDBRANCH   1   2
BRANCH   1  10
ATOM     10  C   UNL     1     -20.965  -1.980   6.950  1.00  0.00     0.027 C 
BRANCH  10  11
ATOM     11  C   UNL     1     -20.319  -2.226   8.285  1.00  0.00    -0.031 C 
ATOM     12  C   UNL     1     -20.813  -1.694   9.414  1.00  0.00    -0.031 C 
BRANCH  12  13
ATOM     13  C   UNL     1     -20.180  -1.957  10.752  1.00  0.00     0.027 C 
BRANCH  13  14
ATOM     14  C   UNL     1     -21.247  -2.196  11.830  1.00  0.00     0.004 C 
BRANCH  14  15
ATOM     15  C   UNL     1     -20.858  -1.593  13.190  1.00  0.00     0.000 C 
BRANCH  15  16
ATOM     16  C   UNL     1     -21.986  -0.749  13.808  1.00  0.00    -0.000 C 
BRANCH  16  17
ATOM     17  C   UNL     1     -21.664   0.753  13.809  1.00  0.00    -0.003 C 
ATOM     18  C   UNL     1     -21.768   1.380  12.419  1.00  0.00     0.004 C 
ENDBRANCH  16  17
ENDBRANCH  15  16
ENDBRANCH  14  15
ENDBRANCH  13  14
ENDBRANCH  12  13
ENDBRANCH  10  11
ENDBRANCH   1  10
TORSDOF 13
ENDMDL
MODEL 8
REMARK VINA RESULT:    -1.910      1.489      5.604
REMARK INTER + INTRA:          -4.527
REMARK INTER:                  -3.521
REMARK INTRA:                  -1.005
REMARK UNBOUND:                -1.164
REMARK SMILES CCCCCCC=CCCCCCCCC(=O)[O-]
REMARK SMILES IDX 10 1 11 2 12 3 13 4 14 5 15 6 16 7 17 8 18 9 9 10 8 11 7 12
REMARK SMILES IDX 6 13 5 14 4 15 3 16 2 17 1 18
REMARK H PARENT
REMARK Flexibility Score: inf
ROOT
ATOM      1  C   UNL     1     -20.590  -2.619   8.088  1.00  0.00     0.004 C 
ENDROOT
BRANCH   1   2
ATOM      2  C   UNL     1     -20.589  -1.767   9.365  1.00  0.00     0.000 C 
BRANCH   2   3
ATOM      3  C   UNL     1     -20.662  -2.611  10.649  1.00  0.00     0.000 C 
BRANCH   3   4
ATOM      4  C   UNL     1     -21.053  -1.834  11.922  1.00  0.00     0.000 C 
BRANCH   4   5
ATOM      5  C   UNL     1     -21.226  -0.317  11.733  1.00  0.00     0.006 C 
BRANCH   5   6
ATOM      6  C   UNL     1     -21.911   0.358  12.927  1.00  0.00     0.053 C 
BRANCH   6   7
ATOM      7  C   UNL     1     -21.623  -0.394  14.188  1.00  0.00     0.041 C 
ATOM      8  O   UNL     1     -22.527  -1.073  14.741  1.00  0.00    -0.550 OA
ATOM      9  O   UNL     1     -20.369  -0.302  14.780  1.00  0.00    -0.550 OA
ENDBRANCH   6   7
ENDBRANCH   5   6
ENDBRANCH   4   5
ENDBRANCH   3   4
ENDBRANCH   2   3
ENDBRANCH   1   2
BRANCH   1  10
ATOM     10  C   UNL     1     -20.968  -1.776   6.864  1.00  0.00     0.027 C 
BRANCH  10  11
ATOM     11  C   UNL     1     -21.437  -0.407   7.271  1.00  0.00    -0.031 C 
ATOM     12  C   UNL     1     -20.814   0.703   6.848  1.00  0.00    -0.031 C 
BRANCH  12  13
ATOM     13  C   UNL     1     -21.296   2.074   7.238  1.00  0.00     0.027 C 
BRANCH  13  14
ATOM     14  C   UNL     1     -21.756   2.101   8.703  1.00  0.00     0.004 C 
BRANCH  14  15
ATOM     15  C   UNL     1     -22.796   3.201   8.975  1.00  0.00     0.000 C 
BRANCH  15  16
ATOM     16  C   UNL     1     -22.536   4.476   8.154  1.00  0.00    -0.000 C 
BRANCH  16  17
ATOM     17  C   UNL     1     -22.190   5.685   9.037  1.00  0.00    -0.003 C 
ATOM     18  C   UNL     1     -20.704   6.042   8.992  1.00  0.00     0.004 C 
ENDBRANCH  16  17
ENDBRANCH  15  16
ENDBRANCH  14  15
ENDBRANCH  13  14
ENDBRANCH  12  13
ENDBRANCH  10  11
ENDBRANCH   1  10
TORSDOF 13
ENDMDL
MODEL 9
REMARK VINA RESULT:    -1.633      2.982      5.857
REMARK INTER + INTRA:          -4.039
REMARK INTER:                  -2.897
REMARK INTRA:                  -1.142
REMARK UNBOUND:                -1.164
REMARK SMILES CCCCCCC=CCCCCCCCC(=O)[O-]
REMARK SMILES IDX 10 1 11 2 12 3 13 4 14 5 15 6 16 7 17 8 18 9 9 10 8 11 7 12
REMARK SMILES IDX 6 13 5 14 4 15 3 16 2 17 1 18
REMARK H PARENT
REMARK Flexibility Score: inf
ROOT
ATOM      1  C   UNL     1     -21.430  -1.110  13.789  1.00  0.00     0.004 C 
ENDROOT
BRANCH   1   2
ATOM      2  C   UNL     1     -21.583  -1.908  12.486  1.00  0.00     0.000 C 
BRANCH   2   3
ATOM      3  C   UNL     1     -20.267  -2.025  11.697  1.00  0.00     0.000 C 
BRANCH   3   4
ATOM      4  C   UNL     1     -20.407  -1.889  10.167  1.00  0.00     0.000 C 
BRANCH   4   5
ATOM      5  C   UNL     1     -21.013  -3.112   9.457  1.00  0.00     0.006 C 
BRANCH   5   6
ATOM      6  C   UNL     1     -20.066  -3.729   8.421  1.00  0.00     0.053 C 
BRANCH   6   7
ATOM      7  C   UNL     1     -20.352  -5.189   8.257  1.00  0.00     0.041 C 
ATOM      8  O   UNL     1     -21.330  -5.713   8.850  1.00  0.00    -0.550 OA
ATOM      9  O   UNL     1     -19.506  -5.980   7.490  1.00  0.00    -0.550 OA
ENDBRANCH   6   7
ENDBRANCH   5   6
ENDBRANCH   4   5
ENDBRANCH   3   4
ENDBRANCH   2   3
ENDBRANCH   1   2
BRANCH   1  10
ATOM     10  C   UNL     1     -21.210   0.379  13.498  1.00  0.00     0.027 C 
BRANCH  10  11
ATOM     11  C   UNL     1     -22.222   0.896  12.513  1.00  0.00    -0.031 C 
ATOM     12  C   UNL     1     -21.853   1.392  11.322  1.00  0.00    -0.031 C 
BRANCH  12  13
ATOM     13  C   UNL     1     -22.865   1.889  10.328  1.00  0.00     0.027 C 
BRANCH  13  14
ATOM     14  C   UNL     1     -22.193   2.279   9.003  1.00  0.00     0.004 C 
BRANCH  14  15
ATOM     15  C   UNL     1     -21.445   1.103   8.352  1.00  0.00     0.000 C 
BRANCH  15  16
ATOM     16  C   UNL     1     -21.050   1.389   6.893  1.00  0.00    -0.000 C 
BRANCH  16  17
ATOM     17  C   UNL     1     -20.804   0.104   6.088  1.00  0.00    -0.003 C 
ATOM     18  C   UNL     1     -21.480  -1.120   6.707  1.00  0.00     0.004 C 
ENDBRANCH  16  17
ENDBRANCH  15  16
ENDBRANCH  14  15
ENDBRANCH  13  14
ENDBRANCH  12  13
ENDBRANCH  10  11
ENDBRANCH   1  10
TORSDOF 13
ENDMDL
