MODEL 1
REMARK VINA RESULT:    -3.773      0.000      0.000
REMARK INTER + INTRA:          -5.134
REMARK INTER:                  -4.876
REMARK INTRA:                  -0.258
REMARK UNBOUND:                -0.258
REMARK SMILES CCCCCCC(=O)[O-]
REMARK SMILES IDX 5 1 6 2 7 3 8 4 9 5 4 6 3 7 2 8 1 9
REMARK H PARENT
REMARK Flexibility Score: inf
ROOT
ATOM      1  C   UNL     1      54.501  39.251  47.605  1.00  0.00     0.006 C 
ENDROOT
BRANCH   1   2
ATOM      2  C   UNL     1      54.400  39.424  49.127  1.00  0.00     0.053 C 
BRANCH   2   3
ATOM      3  C   UNL     1      55.334  38.507  49.855  1.00  0.00     0.041 C 
ATOM      4  O   UNL     1      54.880  37.652  50.660  1.00  0.00    -0.550 OA
ATOM      5  O   UNL     1      56.706  38.618  49.670  1.00  0.00    -0.550 OA
ENDBRANCH   2   3
ENDBRANCH   1   2
BRANCH   1   6
ATOM      6  C   UNL     1      53.243  39.749  46.877  1.00  0.00     0.000 C 
BRANCH   6   7
ATOM      7  C   UNL     1      52.264  40.406  47.860  1.00  0.00    -0.000 C 
BRANCH   7   8
ATOM      8  C   UNL     1      52.047  41.899  47.568  1.00  0.00    -0.003 C 
ATOM      9  C   UNL     1      52.667  42.806  48.630  1.00  0.00     0.004 C 
ENDBRANCH   7   8
ENDBRANCH   6   7
ENDBRANCH   1   6
TORSDOF 5
ENDMDL
MODEL 2
REMARK VINA RESULT:    -3.733      1.526      2.361
REMARK INTER + INTRA:          -5.082
REMARK INTER:                  -4.657
REMARK INTRA:                  -0.426
REMARK UNBOUND:                -0.258
REMARK SMILES CCCCCCC(=O)[O-]
REMARK SMILES IDX 5 1 6 2 7 3 8 4 9 5 4 6 3 7 2 8 1 9
REMARK H PARENT
REMARK Flexibility Score: inf
ROOT
ATOM      1  C   UNL     1      52.228  40.570  50.116  1.00  0.00     0.006 C 
ENDROOT
BRANCH   1   2
ATOM      2  C   UNL     1      52.963  39.372  50.731  1.00  0.00     0.053 C 
BRANCH   2   3
ATOM      3  C   UNL     1      54.376  39.276  50.244  1.00  0.00     0.041 C 
ATOM      4  O   UNL     1      54.878  38.154  49.975  1.00  0.00    -0.550 OA
ATOM      5  O   UNL     1      55.150  40.423  50.119  1.00  0.00    -0.550 OA
ENDBRANCH   2   3
ENDBRANCH   1   2
BRANCH   1   6
ATOM      6  C   UNL     1      51.867  40.338  48.641  1.00  0.00     0.000 C 
BRANCH   6   7
ATOM      7  C   UNL     1      52.277  41.541  47.780  1.00  0.00    -0.000 C 
BRANCH   7   8
ATOM      8  C   UNL     1      53.373  41.192  46.760  1.00  0.00    -0.003 C 
ATOM      9  C   UNL     1      53.649  39.691  46.680  1.00  0.00     0.004 C 
ENDBRANCH   7   8
ENDBRANCH   6   7
ENDBRANCH   1   6
TORSDOF 5
ENDMDL
MODEL 3
REMARK VINA RESULT:    -3.687      2.727      3.917
REMARK INTER + INTRA:          -5.023
REMARK INTER:                  -4.759
REMARK INTRA:                  -0.265
REMARK UNBOUND:                -0.258
REMARK SMILES CCCCCCC(=O)[O-]
REMARK SMILES IDX 5 1 6 2 7 3 8 4 9 5 4 6 3 7 2 8 1 9
REMARK H PARENT
REMARK Flexibility Score: inf
ROOT
ATOM      1  C   UNL     1      52.633  42.658  49.074  1.00  0.00     0.006 C 
ENDROOT
BRANCH   1   2
ATOM      2  C   UNL     1      53.189  41.670  50.108  1.00  0.00     0.053 C 
BRANCH   2   3
ATOM      3  C   UNL     1      52.308  41.574  51.316  1.00  0.00     0.041 C 
ATOM      4  O   UNL     1      51.591  40.555  51.496  1.00  0.00    -0.550 OA
ATOM      5  O   UNL     1      52.253  42.623  52.225  1.00  0.00    -0.550 OA
ENDBRANCH   2   3
ENDBRANCH   1   2
BRANCH   1   6
ATOM      6  C   UNL     1      52.247  41.967  47.758  1.00  0.00     0.000 C 
BRANCH   6   7
ATOM      7  C   UNL     1      52.283  40.440  47.908  1.00  0.00    -0.000 C 
BRANCH   7   8
ATOM      8  C   UNL     1      53.224  39.768  46.895  1.00  0.00    -0.003 C 
ATOM      9  C   UNL     1      54.508  39.244  47.538  1.00  0.00     0.004 C 
ENDBRANCH   7   8
ENDBRANCH   6   7
ENDBRANCH   1   6
TORSDOF 5
ENDMDL
MODEL 4
REMARK VINA RESULT:    -3.633      2.842      4.333
REMARK INTER + INTRA:          -4.954
REMARK INTER:                  -4.693
REMARK INTRA:                  -0.260
REMARK UNBOUND:                -0.258
REMARK SMILES CCCCCCC(=O)[O-]
REMARK SMILES IDX 5 1 6 2 7 3 8 4 9 5 4 6 3 7 2 8 1 9
REMARK H PARENT
REMARK Flexibility Score: inf
ROOT
ATOM      1  C   UNL     1      52.342  40.486  47.995  1.00  0.00     0.006 C 
ENDROOT
BRANCH   1   2
ATOM      2  C   UNL     1      52.210  41.988  47.712  1.00  0.00     0.053 C 
BRANCH   2   3
ATOM      3  C   UNL     1      52.651  42.816  48.879  1.00  0.00     0.041 C 
ATOM      4  O   UNL     1      52.684  42.315  50.034  1.00  0.00    -0.550 OA
ATOM      5  O   UNL     1      52.994  44.150  48.699  1.00  0.00    -0.550 OA
ENDBRANCH   2   3
ENDBRANCH   1   2
BRANCH   1   6
ATOM      6  C   UNL     1      53.295  39.789  47.012  1.00  0.00     0.000 C 
BRANCH   6   7
ATOM      7  C   UNL     1      54.491  39.171  47.750  1.00  0.00    -0.000 C 
BRANCH   7   8
ATOM      8  C   UNL     1      54.406  39.360  49.273  1.00  0.00    -0.003 C 
ATOM      9  C   UNL     1      55.070  38.222  50.048  1.00  0.00     0.004 C 
ENDBRANCH   7   8
ENDBRANCH   6   7
ENDBRANCH   1   6
TORSDOF 5
ENDMDL
MODEL 5
REMARK VINA RESULT:    -3.623      1.603      2.303
REMARK INTER + INTRA:          -4.940
REMARK INTER:                  -4.479
REMARK INTRA:                  -0.461
REMARK UNBOUND:                -0.258
REMARK SMILES CCCCCCC(=O)[O-]
REMARK SMILES IDX 5 1 6 2 7 3 8 4 9 5 4 6 3 7 2 8 1 9
REMARK H PARENT
REMARK Flexibility Score: inf
ROOT
ATOM      1  C   UNL     1      53.342  40.798  46.784  1.00  0.00     0.006 C 
ENDROOT
BRANCH   1   2
ATOM      2  C   UNL     1      54.017  39.431  46.962  1.00  0.00     0.053 C 
BRANCH   2   3
ATOM      3  C   UNL     1      54.911  39.405  48.163  1.00  0.00     0.041 C 
ATOM      4  O   UNL     1      54.855  38.442  48.972  1.00  0.00    -0.550 OA
ATOM      5  O   UNL     1      55.782  40.459  48.407  1.00  0.00    -0.550 OA
ENDBRANCH   2   3
ENDBRANCH   1   2
BRANCH   1   6
ATOM      6  C   UNL     1      52.225  41.034  47.812  1.00  0.00     0.000 C 
BRANCH   6   7
ATOM      7  C   UNL     1      52.612  42.147  48.797  1.00  0.00    -0.000 C 
BRANCH   7   8
ATOM      8  C   UNL     1      52.683  41.651  50.250  1.00  0.00    -0.003 C 
ATOM      9  C   UNL     1      52.056  40.269  50.435  1.00  0.00     0.004 C 
ENDBRANCH   7   8
ENDBRANCH   6   7
ENDBRANCH   1   6
TORSDOF 5
ENDMDL
MODEL 6
REMARK VINA RESULT:    -3.615      3.365      3.873
REMARK INTER + INTRA:          -4.930
REMARK INTER:                  -4.750
REMARK INTRA:                  -0.181
REMARK UNBOUND:                -0.258
REMARK SMILES CCCCCCC(=O)[O-]
REMARK SMILES IDX 5 1 6 2 7 3 8 4 9 5 4 6 3 7 2 8 1 9
REMARK H PARENT
REMARK Flexibility Score: inf
ROOT
ATOM      1  C   UNL     1      52.720  40.599  49.976  1.00  0.00     0.006 C 
ENDROOT
BRANCH   1   2
ATOM      2  C   UNL     1      51.905  40.681  51.274  1.00  0.00     0.053 C 
BRANCH   2   3
ATOM      3  C   UNL     1      52.258  41.895  52.077  1.00  0.00     0.041 C 
ATOM      4  O   UNL     1      52.634  41.775  53.273  1.00  0.00    -0.550 OA
ATOM      5  O   UNL     1      52.139  43.160  51.517  1.00  0.00    -0.550 OA
ENDBRANCH   2   3
ENDBRANCH   1   2
BRANCH   1   6
ATOM      6  C   UNL     1      51.847  40.242  48.763  1.00  0.00     0.000 C 
BRANCH   6   7
ATOM      7  C   UNL     1      52.340  40.964  47.501  1.00  0.00    -0.000 C 
BRANCH   7   8
ATOM      8  C   UNL     1      52.358  42.492  47.663  1.00  0.00    -0.003 C 
ATOM      9  C   UNL     1      51.770  43.221  46.455  1.00  0.00     0.004 C 
ENDBRANCH   7   8
ENDBRANCH   6   7
ENDBRANCH   1   6
TORSDOF 5
ENDMDL
MODEL 7
REMARK VINA RESULT:    -3.614      2.567      3.660
REMARK INTER + INTRA:          -4.929
REMARK INTER:                  -4.756
REMARK INTRA:                  -0.173
REMARK UNBOUND:                -0.258
REMARK SMILES CCCCCCC(=O)[O-]
REMARK SMILES IDX 5 1 6 2 7 3 8 4 9 5 4 6 3 7 2 8 1 9
REMARK H PARENT
REMARK Flexibility Score: inf
ROOT
ATOM      1  C   UNL     1      52.235  42.085  47.746  1.00  0.00     0.006 C 
ENDROOT
BRANCH   1   2
ATOM      2  C   UNL     1      52.192  40.625  48.216  1.00  0.00     0.053 C 
BRANCH   2   3
ATOM      3  C   UNL     1      53.288  39.810  47.602  1.00  0.00     0.041 C 
ATOM      4  O   UNL     1      53.273  39.555  46.369  1.00  0.00    -0.550 OA
ATOM      5  O   UNL     1      54.309  39.302  48.397  1.00  0.00    -0.550 OA
ENDBRANCH   2   3
ENDBRANCH   1   2
BRANCH   1   6
ATOM      6  C   UNL     1      52.711  43.039  48.851  1.00  0.00     0.000 C 
BRANCH   6   7
ATOM      7  C   UNL     1      52.976  42.277  50.157  1.00  0.00    -0.000 C 
BRANCH   7   8
ATOM      8  C   UNL     1      52.420  43.007  51.391  1.00  0.00    -0.003 C 
ATOM      9  C   UNL     1      52.342  42.107  52.624  1.00  0.00     0.004 C 
ENDBRANCH   7   8
ENDBRANCH   6   7
ENDBRANCH   1   6
TORSDOF 5
ENDMDL
MODEL 8
REMARK VINA RESULT:    -3.601      2.542      4.177
REMARK INTER + INTRA:          -4.912
REMARK INTER:                  -4.480
REMARK INTRA:                  -0.432
REMARK UNBOUND:                -0.258
REMARK SMILES CCCCCCC(=O)[O-]
REMARK SMILES IDX 5 1 6 2 7 3 8 4 9 5 4 6 3 7 2 8 1 9
REMARK H PARENT
REMARK Flexibility Score: inf
ROOT
ATOM      1  C   UNL     1      51.780  39.987  49.467  1.00  0.00     0.006 C 
ENDROOT
BRANCH   1   2
ATOM      2  C   UNL     1      52.118  40.790  48.204  1.00  0.00     0.053 C 
BRANCH   2   3
ATOM      3  C   UNL     1      53.359  40.282  47.537  1.00  0.00     0.041 C 
ATOM      4  O   UNL     1      54.492  40.657  47.938  1.00  0.00    -0.550 OA
ATOM      5  O   UNL     1      53.265  39.421  46.451  1.00  0.00    -0.550 OA
ENDBRANCH   2   3
ENDBRANCH   1   2
BRANCH   1   6
ATOM      6  C   UNL     1      52.242  40.697  50.749  1.00  0.00     0.000 C 
BRANCH   6   7
ATOM      7  C   UNL     1      53.467  39.997  51.353  1.00  0.00    -0.000 C 
BRANCH   7   8
ATOM      8  C   UNL     1      53.601  38.536  50.891  1.00  0.00    -0.003 C 
ATOM      9  C   UNL     1      55.025  38.180  50.464  1.00  0.00     0.004 C 
ENDBRANCH   7   8
ENDBRANCH   6   7
ENDBRANCH   1   6
TORSDOF 5
ENDMDL
MODEL 9
REMARK VINA RESULT:    -3.567      1.621      2.249
REMARK INTER + INTRA:          -4.868
REMARK INTER:                  -4.560
REMARK INTRA:                  -0.308
REMARK UNBOUND:                -0.258
REMARK SMILES CCCCCCC(=O)[O-]
REMARK SMILES IDX 5 1 6 2 7 3 8 4 9 5 4 6 3 7 2 8 1 9
REMARK H PARENT
REMARK Flexibility Score: inf
ROOT
ATOM      1  C   UNL     1      53.890  40.362  51.012  1.00  0.00     0.006 C 
ENDROOT
BRANCH   1   2
ATOM      2  C   UNL     1      53.971  38.854  50.741  1.00  0.00     0.053 C 
BRANCH   2   3
ATOM      3  C   UNL     1      55.101  38.514  49.818  1.00  0.00     0.041 C 
ATOM      4  O   UNL     1      54.928  38.537  48.572  1.00  0.00    -0.550 OA
ATOM      5  O   UNL     1      56.335  38.139  50.335  1.00  0.00    -0.550 OA
ENDBRANCH   2   3
ENDBRANCH   1   2
BRANCH   1   6
ATOM      6  C   UNL     1      52.558  40.967  50.543  1.00  0.00     0.000 C 
BRANCH   6   7
ATOM      7  C   UNL     1      51.802  39.990  49.631  1.00  0.00    -0.000 C 
BRANCH   7   8
ATOM      8  C   UNL     1      51.898  40.375  48.146  1.00  0.00    -0.003 C 
ATOM      9  C   UNL     1      52.224  41.853  47.938  1.00  0.00     0.004 C 
ENDBRANCH   7   8
ENDBRANCH   6   7
ENDBRANCH   1   6
TORSDOF 5
ENDMDL
