MODEL 1
REMARK VINA RESULT:    -3.431      0.000      0.000
REMARK INTER + INTRA:          -4.793
REMARK INTER:                  -5.035
REMARK INTRA:                   0.242
REMARK UNBOUND:                 0.242
REMARK SMILES C=C1CC=CC(C)(C)CC=C(C)CCC1
REMARK SMILES IDX 2 1 1 2 15 3 14 4 13 5 11 6 12 7 10 8 3 10 4 11 5 12 6 13
REMARK SMILES IDX 7 14 8 15 9 16
REMARK H PARENT
REMARK Flexibility Score: 60.00
ROOT
ATOM      1  C   UNL     1     132.239 135.819 134.538  1.00  0.00    -0.074 C 
ATOM      2  C   UNL     1     132.732 135.034 133.566  1.00  0.00     0.008 C 
ENDROOT
BRANCH   1   3
ATOM      3  C   UNL     1     131.983 137.282 134.223  1.00  0.00     0.031 C 
BRANCH   3   4
ATOM      4  C   UNL     1     132.696 138.291 135.176  1.00  0.00     0.009 C 
BRANCH   4   5
ATOM      5  C   UNL     1     134.220 138.082 135.394  1.00  0.00     0.030 C 
BRANCH   5   6
ATOM      6  C   UNL     1     134.731 138.313 136.813  1.00  0.00    -0.077 C 
ATOM      7  C   UNL     1     134.889 139.732 137.301  1.00  0.00     0.039 C 
ATOM      8  C   UNL     1     134.931 137.318 137.713  1.00  0.00    -0.027 CG0
ATOM      9  G   UNL     1     134.994 135.848 137.382  1.00  0.00     0.000 G0
ENDBRANCH   5   6
ENDBRANCH   4   5
ENDBRANCH   3   4
ENDBRANCH   1   3
BRANCH   1  10
ATOM     10  C   UNL     1     131.842 135.173 135.862  1.00  0.00     0.057 C 
BRANCH  10  11
ATOM     11  C   UNL     1     132.649 133.963 136.277  1.00  0.00    -0.026 C 
ATOM     12  C   UNL     1     133.482 133.811 137.339  1.00  0.00    -0.024 C 
BRANCH  12  13
ATOM     13  C   UNL     1     134.116 134.863 138.270  1.00  0.00    -0.014 C 
ATOM     14  C   UNL     1     133.078 135.572 139.176  1.00  0.00     0.016 C 
ATOM     15  C   UNL     1     135.069 134.103 139.229  1.00  0.00     0.016 C 
BRANCH  13  16
ATOM     16  C   UNL     1     134.985 135.828 137.397  1.00  0.00     0.038 CG0
ATOM     17  G   UNL     1     134.923 137.303 137.708  1.00  0.00     0.000 G0
ENDBRANCH  13  16
ENDBRANCH  12  13
ENDBRANCH  10  11
ENDBRANCH   1  10
TORSDOF 0
ENDMDL
MODEL 2
REMARK VINA RESULT:    -3.353      3.957      6.372
REMARK INTER + INTRA:          -4.680
REMARK INTER:                  -4.649
REMARK INTRA:                  -0.031
REMARK UNBOUND:                 0.242
REMARK SMILES C=C1CC=CC(C)(C)CC=C(C)CCC1
REMARK SMILES IDX 2 1 1 2 15 3 14 4 13 5 11 6 12 7 10 8 3 10 4 11 5 12 6 13
REMARK SMILES IDX 7 14 8 15 9 16
REMARK H PARENT
REMARK Flexibility Score: 60.00
ROOT
ATOM      1  C   UNL     1     139.982 138.484 135.422  1.00  0.00    -0.074 C 
ATOM      2  C   UNL     1     140.557 137.662 136.316  1.00  0.00     0.008 C 
ENDROOT
BRANCH   1   3
ATOM      3  C   UNL     1     140.101 138.144 133.948  1.00  0.00     0.031 C 
BRANCH   3   4
ATOM      4  C   UNL     1     139.676 136.690 133.576  1.00  0.00     0.009 C 
BRANCH   4   5
ATOM      5  C   UNL     1     138.150 136.421 133.456  1.00  0.00     0.030 C 
BRANCH   5   6
ATOM      6  C   UNL     1     137.444 135.994 134.739  1.00  0.00    -0.077 C 
ATOM      7  C   UNL     1     137.894 134.728 135.425  1.00  0.00     0.039 C 
ATOM      8  C   UNL     1     136.518 136.754 135.378  1.00  0.00    -0.027 CG0
ATOM      9  G   UNL     1     135.818 137.950 134.783  1.00  0.00     0.000 G0
ENDBRANCH   5   6
ENDBRANCH   4   5
ENDBRANCH   3   4
ENDBRANCH   1   3
BRANCH   1  10
ATOM     10  C   UNL     1     139.132 139.641 135.942  1.00  0.00     0.057 C 
BRANCH  10  11
ATOM     11  C   UNL     1     138.200 140.281 134.938  1.00  0.00    -0.026 C 
ATOM     12  C   UNL     1     136.843 140.237 134.877  1.00  0.00    -0.024 C 
BRANCH  12  13
ATOM     13  C   UNL     1     135.841 139.305 135.587  1.00  0.00    -0.014 C 
ATOM     14  C   UNL     1     136.119 139.165 137.106  1.00  0.00     0.016 C 
ATOM     15  C   UNL     1     134.445 139.968 135.469  1.00  0.00     0.016 C 
BRANCH  13  16
ATOM     16  C   UNL     1     135.797 137.950 134.807  1.00  0.00     0.038 CG0
ATOM     17  G   UNL     1     136.516 136.768 135.408  1.00  0.00     0.000 G0
ENDBRANCH  13  16
ENDBRANCH  12  13
ENDBRANCH  10  11
ENDBRANCH   1  10
TORSDOF 0
ENDMDL
MODEL 3
REMARK VINA RESULT:    -3.329      4.540      6.204
REMARK INTER + INTRA:          -4.644
REMARK INTER:                  -4.621
REMARK INTRA:                  -0.022
REMARK UNBOUND:                 0.242
REMARK SMILES C=C1CC=CC(C)(C)CC=C(C)CCC1
REMARK SMILES IDX 2 1 1 2 15 3 14 4 13 5 11 6 12 7 10 8 3 10 4 11 5 12 6 13
REMARK SMILES IDX 7 14 8 15 9 16
REMARK H PARENT
REMARK Flexibility Score: 60.00
ROOT
ATOM      1  C   UNL     1     139.714 138.075 135.325  1.00  0.00    -0.074 C 
ATOM      2  C   UNL     1     138.912 139.142 135.175  1.00  0.00     0.008 C 
ENDROOT
BRANCH   1   3
ATOM      3  C   UNL     1     140.488 137.932 136.623  1.00  0.00     0.031 C 
BRANCH   3   4
ATOM      4  C   UNL     1     139.647 138.162 137.916  1.00  0.00     0.009 C 
BRANCH   4   5
ATOM      5  C   UNL     1     138.917 136.921 138.499  1.00  0.00     0.030 C 
BRANCH   5   6
ATOM      6  C   UNL     1     137.592 136.551 137.839  1.00  0.00    -0.077 C 
ATOM      7  C   UNL     1     136.395 137.440 138.074  1.00  0.00     0.039 C 
ATOM      8  C   UNL     1     137.453 135.541 136.943  1.00  0.00    -0.027 CG0
ATOM      9  G   UNL     1     138.465 134.449 136.703  1.00  0.00     0.000 G0
ENDBRANCH   5   6
ENDBRANCH   4   5
ENDBRANCH   3   4
ENDBRANCH   1   3
BRANCH   1  10
ATOM     10  C   UNL     1     139.703 137.000 134.241  1.00  0.00     0.057 C 
BRANCH  10  11
ATOM     11  C   UNL     1     140.533 135.767 134.522  1.00  0.00    -0.026 C 
ATOM     12  C   UNL     1     140.122 134.504 134.807  1.00  0.00    -0.024 C 
BRANCH  12  13
ATOM     13  C   UNL     1     138.739 133.976 135.236  1.00  0.00    -0.014 C 
ATOM     14  C   UNL     1     137.618 134.329 134.227  1.00  0.00     0.016 C 
ATOM     15  C   UNL     1     138.830 132.428 135.248  1.00  0.00     0.016 C 
BRANCH  13  16
ATOM     16  C   UNL     1     138.468 134.451 136.702  1.00  0.00     0.038 CG0
ATOM     17  G   UNL     1     137.433 135.529 136.911  1.00  0.00     0.000 G0
ENDBRANCH  13  16
ENDBRANCH  12  13
ENDBRANCH  10  11
ENDBRANCH   1  10
TORSDOF 0
ENDMDL
MODEL 4
REMARK VINA RESULT:    -3.320      3.143      4.633
REMARK INTER + INTRA:          -4.631
REMARK INTER:                  -4.862
REMARK INTRA:                   0.231
REMARK UNBOUND:                 0.242
REMARK SMILES C=C1CC=CC(C)(C)CC=C(C)CCC1
REMARK SMILES IDX 2 1 1 2 15 3 14 4 13 5 11 6 12 7 10 8 3 10 4 11 5 12 6 13
REMARK SMILES IDX 7 14 8 15 9 16
REMARK H PARENT
REMARK Flexibility Score: 60.00
ROOT
ATOM      1  C   UNL     1     135.802 140.405 134.495  1.00  0.00    -0.074 C 
ATOM      2  C   UNL     1     135.097 140.003 133.425  1.00  0.00     0.008 C 
ENDROOT
BRANCH   1   3
ATOM      3  C   UNL     1     137.301 140.591 134.343  1.00  0.00     0.031 C 
BRANCH   3   4
ATOM      4  C   UNL     1     138.161 139.892 135.441  1.00  0.00     0.009 C 
BRANCH   4   5
ATOM      5  C   UNL     1     138.208 138.340 135.402  1.00  0.00     0.030 C 
BRANCH   5   6
ATOM      6  C   UNL     1     138.338 137.641 136.753  1.00  0.00    -0.077 C 
ATOM      7  C   UNL     1     139.718 137.300 137.260  1.00  0.00     0.039 C 
ATOM      8  C   UNL     1     137.294 137.421 137.591  1.00  0.00    -0.027 CG0
ATOM      9  G   UNL     1     135.839 137.529 137.210  1.00  0.00     0.000 G0
ENDBRANCH   5   6
ENDBRANCH   4   5
ENDBRANCH   3   4
ENDBRANCH   1   3
BRANCH   1  10
ATOM     10  C   UNL     1     135.044 140.778 135.766  1.00  0.00     0.057 C 
BRANCH  10  11
ATOM     11  C   UNL     1     133.894 139.870 136.142  1.00  0.00    -0.026 C 
ATOM     12  C   UNL     1     133.797 138.990 137.172  1.00  0.00    -0.024 C 
BRANCH  12  13
ATOM     13  C   UNL     1     134.888 138.401 138.088  1.00  0.00    -0.014 C 
ATOM     14  C   UNL     1     135.602 139.477 138.945  1.00  0.00     0.016 C 
ATOM     15  C   UNL     1     134.174 137.462 139.094  1.00  0.00     0.016 C 
BRANCH  13  16
ATOM     16  C   UNL     1     135.844 137.527 137.211  1.00  0.00     0.038 CG0
ATOM     17  G   UNL     1     137.294 137.448 137.618  1.00  0.00     0.000 G0
ENDBRANCH  13  16
ENDBRANCH  12  13
ENDBRANCH  10  11
ENDBRANCH   1  10
TORSDOF 0
ENDMDL
MODEL 5
REMARK VINA RESULT:    -3.164      2.534      3.140
REMARK INTER + INTRA:          -4.402
REMARK INTER:                  -4.774
REMARK INTRA:                   0.372
REMARK UNBOUND:                 0.242
REMARK SMILES C=C1CC=CC(C)(C)CC=C(C)CCC1
REMARK SMILES IDX 2 1 1 2 15 3 14 4 13 5 11 6 12 7 10 8 3 10 4 11 5 12 6 13
REMARK SMILES IDX 7 14 8 15 9 16
REMARK H PARENT
REMARK Flexibility Score: 60.00
ROOT
ATOM      1  C   UNL     1     132.678 134.220 135.764  1.00  0.00    -0.074 C 
ATOM      2  C   UNL     1     132.155 134.936 136.773  1.00  0.00     0.008 C 
ENDROOT
BRANCH   1   3
ATOM      3  C   UNL     1     132.703 134.838 134.377  1.00  0.00     0.031 C 
BRANCH   3   4
ATOM      4  C   UNL     1     133.536 136.152 134.263  1.00  0.00     0.009 C 
BRANCH   4   5
ATOM      5  C   UNL     1     135.038 135.993 133.900  1.00  0.00     0.030 C 
BRANCH   5   6
ATOM      6  C   UNL     1     136.033 136.579 134.897  1.00  0.00    -0.077 C 
ATOM      7  C   UNL     1     135.927 138.043 135.246  1.00  0.00     0.039 C 
ATOM      8  C   UNL     1     136.930 135.835 135.592  1.00  0.00    -0.027 CG0
ATOM      9  G   UNL     1     137.306 134.410 135.273  1.00  0.00     0.000 G0
ENDBRANCH   5   6
ENDBRANCH   4   5
ENDBRANCH   3   4
ENDBRANCH   1   3
BRANCH   1  10
ATOM     10  C   UNL     1     133.333 132.880 136.087  1.00  0.00     0.057 C 
BRANCH  10  11
ATOM     11  C   UNL     1     134.372 132.395 135.100  1.00  0.00    -0.026 C 
ATOM     12  C   UNL     1     135.727 132.450 135.185  1.00  0.00    -0.024 C 
BRANCH  12  13
ATOM     13  C   UNL     1     136.637 133.269 136.121  1.00  0.00    -0.014 C 
ATOM     14  C   UNL     1     135.906 133.762 137.395  1.00  0.00     0.016 C 
ATOM     15  C   UNL     1     137.754 132.313 136.615  1.00  0.00     0.016 C 
BRANCH  13  16
ATOM     16  C   UNL     1     137.313 134.401 135.279  1.00  0.00     0.038 CG0
ATOM     17  G   UNL     1     136.939 135.828 135.593  1.00  0.00     0.000 G0
ENDBRANCH  13  16
ENDBRANCH  12  13
ENDBRANCH  10  11
ENDBRANCH   1  10
TORSDOF 0
ENDMDL
MODEL 6
REMARK VINA RESULT:    -3.144      3.577      5.484
REMARK INTER + INTRA:          -4.373
REMARK INTER:                  -4.817
REMARK INTRA:                   0.445
REMARK UNBOUND:                 0.242
REMARK SMILES C=C1CC=CC(C)(C)CC=C(C)CCC1
REMARK SMILES IDX 2 1 1 2 15 3 14 4 13 5 11 6 12 7 10 8 3 10 4 11 5 12 6 13
REMARK SMILES IDX 7 14 8 15 9 16
REMARK H PARENT
REMARK Flexibility Score: 60.00
ROOT
ATOM      1  C   UNL     1     139.326 138.809 137.054  1.00  0.00    -0.074 C 
ATOM      2  C   UNL     1     140.126 137.730 137.037  1.00  0.00     0.008 C 
ENDROOT
BRANCH   1   3
ATOM      3  C   UNL     1     139.356 139.749 135.861  1.00  0.00     0.031 C 
BRANCH   3   4
ATOM      4  C   UNL     1     138.251 139.483 134.792  1.00  0.00     0.009 C 
BRANCH   4   5
ATOM      5  C   UNL     1     137.092 140.515 134.722  1.00  0.00     0.030 C 
BRANCH   5   6
ATOM      6  C   UNL     1     135.681 139.935 134.704  1.00  0.00    -0.077 C 
ATOM      7  C   UNL     1     135.047 139.616 133.373  1.00  0.00     0.039 C 
ATOM      8  C   UNL     1     135.005 139.566 135.821  1.00  0.00    -0.027 CG0
ATOM      9  G   UNL     1     135.382 139.950 137.230  1.00  0.00     0.000 G0
ENDBRANCH   5   6
ENDBRANCH   4   5
ENDBRANCH   3   4
ENDBRANCH   1   3
BRANCH   1  10
ATOM     10  C   UNL     1     138.339 138.964 138.208  1.00  0.00     0.057 C 
BRANCH  10  11
ATOM     11  C   UNL     1     137.377 137.815 138.415  1.00  0.00    -0.026 C 
ATOM     12  C   UNL     1     136.019 137.816 138.373  1.00  0.00    -0.024 C 
BRANCH  12  13
ATOM     13  C   UNL     1     135.019 138.988 138.412  1.00  0.00    -0.014 C 
ATOM     14  C   UNL     1     133.541 138.520 138.440  1.00  0.00     0.016 C 
ATOM     15  C   UNL     1     135.253 139.738 139.749  1.00  0.00     0.016 C 
BRANCH  13  16
ATOM     16  C   UNL     1     135.369 139.968 137.245  1.00  0.00     0.038 CG0
ATOM     17  G   UNL     1     135.003 139.550 135.842  1.00  0.00     0.000 G0
ENDBRANCH  13  16
ENDBRANCH  12  13
ENDBRANCH  10  11
ENDBRANCH   1  10
TORSDOF 0
ENDMDL
MODEL 7
REMARK VINA RESULT:    -3.087      3.808      5.514
REMARK INTER + INTRA:          -4.290
REMARK INTER:                  -4.529
REMARK INTRA:                   0.239
REMARK UNBOUND:                 0.242
REMARK SMILES C=C1CC=CC(C)(C)CC=C(C)CCC1
REMARK SMILES IDX 2 1 1 2 15 3 14 4 13 5 11 6 12 7 10 8 3 10 4 11 5 12 6 13
REMARK SMILES IDX 7 14 8 15 9 16
REMARK H PARENT
REMARK Flexibility Score: 60.00
ROOT
ATOM      1  C   UNL     1     139.971 136.306 135.830  1.00  0.00    -0.074 C 
ATOM      2  C   UNL     1     140.206 135.785 134.614  1.00  0.00     0.008 C 
ENDROOT
BRANCH   1   3
ATOM      3  C   UNL     1     140.731 137.556 136.238  1.00  0.00     0.031 C 
BRANCH   3   4
ATOM      4  C   UNL     1     140.309 138.853 135.482  1.00  0.00     0.009 C 
BRANCH   4   5
ATOM      5  C   UNL     1     139.155 139.680 136.112  1.00  0.00     0.030 C 
BRANCH   5   6
ATOM      6  C   UNL     1     137.806 139.594 135.403  1.00  0.00    -0.077 C 
ATOM      7  C   UNL     1     137.735 139.956 133.939  1.00  0.00     0.039 C 
ATOM      8  C   UNL     1     136.685 139.085 135.974  1.00  0.00    -0.027 CG0
ATOM      9  G   UNL     1     136.504 138.830 137.450  1.00  0.00     0.000 G0
ENDBRANCH   5   6
ENDBRANCH   4   5
ENDBRANCH   3   4
ENDBRANCH   1   3
BRANCH   1  10
ATOM     10  C   UNL     1     138.864 135.692 136.681  1.00  0.00     0.057 C 
BRANCH  10  11
ATOM     11  C   UNL     1     138.673 136.294 138.056  1.00  0.00    -0.026 C 
ATOM     12  C   UNL     1     137.564 136.863 138.596  1.00  0.00    -0.024 C 
BRANCH  12  13
ATOM     13  C   UNL     1     136.268 137.359 137.925  1.00  0.00    -0.014 C 
ATOM     14  C   UNL     1     135.753 136.398 136.823  1.00  0.00     0.016 C 
ATOM     15  C   UNL     1     135.171 137.376 139.020  1.00  0.00     0.016 C 
BRANCH  13  16
ATOM     16  C   UNL     1     136.495 138.832 137.450  1.00  0.00     0.038 CG0
ATOM     17  G   UNL     1     136.668 139.074 135.972  1.00  0.00     0.000 G0
ENDBRANCH  13  16
ENDBRANCH  12  13
ENDBRANCH  10  11
ENDBRANCH   1  10
TORSDOF 0
ENDMDL
MODEL 8
REMARK VINA RESULT:    -3.042      3.174      5.505
REMARK INTER + INTRA:          -4.222
REMARK INTER:                  -4.526
REMARK INTRA:                   0.304
REMARK UNBOUND:                 0.242
REMARK SMILES C=C1CC=CC(C)(C)CC=C(C)CCC1
REMARK SMILES IDX 2 1 1 2 15 3 14 4 13 5 11 6 12 7 10 8 3 10 4 11 5 12 6 13
REMARK SMILES IDX 7 14 8 15 9 16
REMARK H PARENT
REMARK Flexibility Score: 60.00
ROOT
ATOM      1  C   UNL     1     134.696 140.108 135.385  1.00  0.00    -0.074 C 
ATOM      2  C   UNL     1     134.856 140.880 136.472  1.00  0.00     0.008 C 
ENDROOT
BRANCH   1   3
ATOM      3  C   UNL     1     133.402 139.329 135.237  1.00  0.00     0.031 C 
BRANCH   3   4
ATOM      4  C   UNL     1     133.583 137.797 135.009  1.00  0.00     0.009 C 
BRANCH   4   5
ATOM      5  C   UNL     1     134.538 137.058 135.987  1.00  0.00     0.030 C 
BRANCH   5   6
ATOM      6  C   UNL     1     135.488 136.044 135.355  1.00  0.00    -0.077 C 
ATOM      7  C   UNL     1     134.932 134.714 134.909  1.00  0.00     0.039 C 
ATOM      8  C   UNL     1     136.782 136.313 135.049  1.00  0.00    -0.027 CG0
ATOM      9  G   UNL     1     137.565 137.499 135.556  1.00  0.00     0.000 G0
ENDBRANCH   5   6
ENDBRANCH   4   5
ENDBRANCH   3   4
ENDBRANCH   1   3
BRANCH   1  10
ATOM     10  C   UNL     1     135.765 140.156 134.297  1.00  0.00     0.057 C 
BRANCH  10  11
ATOM     11  C   UNL     1     137.160 140.525 134.753  1.00  0.00    -0.026 C 
ATOM     12  C   UNL     1     138.295 139.779 134.730  1.00  0.00    -0.024 C 
BRANCH  12  13
ATOM     13  C   UNL     1     138.490 138.262 134.536  1.00  0.00    -0.014 C 
ATOM     14  C   UNL     1     138.313 137.814 133.063  1.00  0.00     0.016 C 
ATOM     15  C   UNL     1     139.963 137.946 134.903  1.00  0.00     0.016 C 
BRANCH  13  16
ATOM     16  C   UNL     1     137.570 137.517 135.558  1.00  0.00     0.038 CG0
ATOM     17  G   UNL     1     136.779 136.334 135.058  1.00  0.00     0.000 G0
ENDBRANCH  13  16
ENDBRANCH  12  13
ENDBRANCH  10  11
ENDBRANCH   1  10
TORSDOF 0
ENDMDL
MODEL 9
REMARK VINA RESULT:    -3.041      2.574      3.903
REMARK INTER + INTRA:          -4.222
REMARK INTER:                  -4.360
REMARK INTRA:                   0.138
REMARK UNBOUND:                 0.242
REMARK SMILES C=C1CC=CC(C)(C)CC=C(C)CCC1
REMARK SMILES IDX 2 1 1 2 15 3 14 4 13 5 11 6 12 7 10 8 3 10 4 11 5 12 6 13
REMARK SMILES IDX 7 14 8 15 9 16
REMARK H PARENT
REMARK Flexibility Score: 60.00
ROOT
ATOM      1  C   UNL     1     132.992 134.355 136.635  1.00  0.00    -0.074 C 
ATOM      2  C   UNL     1     132.208 135.199 135.944  1.00  0.00     0.008 C 
ENDROOT
BRANCH   1   3
ATOM      3  C   UNL     1     133.223 132.963 136.076  1.00  0.00     0.031 C 
BRANCH   3   4
ATOM      4  C   UNL     1     134.256 132.890 134.909  1.00  0.00     0.009 C 
BRANCH   4   5
ATOM      5  C   UNL     1     135.745 132.704 135.310  1.00  0.00     0.030 C 
BRANCH   5   6
ATOM      6  C   UNL     1     136.535 133.985 135.559  1.00  0.00    -0.077 C 
ATOM      7  C   UNL     1     136.717 134.955 134.417  1.00  0.00     0.039 C 
ATOM      8  C   UNL     1     136.977 134.373 136.782  1.00  0.00    -0.027 CG0
ATOM      9  G   UNL     1     137.047 133.486 138.000  1.00  0.00     0.000 G0
ENDBRANCH   5   6
ENDBRANCH   4   5
ENDBRANCH   3   4
ENDBRANCH   1   3
BRANCH   1  10
ATOM     10  C   UNL     1     133.711 134.882 137.874  1.00  0.00     0.057 C 
BRANCH  10  11
ATOM     11  C   UNL     1     133.991 133.867 138.960  1.00  0.00    -0.026 C 
ATOM     12  C   UNL     1     135.138 133.647 139.653  1.00  0.00    -0.024 C 
BRANCH  12  13
ATOM     13  C   UNL     1     136.580 134.114 139.374  1.00  0.00    -0.014 C 
ATOM     14  C   UNL     1     136.747 135.652 139.479  1.00  0.00     0.016 C 
ATOM     15  C   UNL     1     137.475 133.511 140.487  1.00  0.00     0.016 C 
BRANCH  13  16
ATOM     16  C   UNL     1     137.035 133.503 138.008  1.00  0.00     0.038 CG0
ATOM     17  G   UNL     1     136.982 134.389 136.788  1.00  0.00     0.000 G0
ENDBRANCH  13  16
ENDBRANCH  12  13
ENDBRANCH  10  11
ENDBRANCH   1  10
TORSDOF 0
ENDMDL
