MODEL 1
REMARK VINA RESULT:   110.382      0.000      0.000
REMARK INTER + INTRA:         164.822
REMARK INTER:                 162.006
REMARK INTRA:                   2.817
REMARK UNBOUND:                 2.817
REMARK SMILES Cc1cc2c(C(C)C)c(O)c(O)c(C=O)c2c(O)c1-c1c(C)cc2c(C(C)C)c(O)c(O)c(C=O)c2c1O
REMARK SMILES IDX 1 1 2 2 3 3 4 4 16 5 13 6 11 7 9 8 5 9 17 10 19 11 20 12
REMARK SMILES IDX 37 13 21 14 36 15 23 16 22 17 24 18 33 19 25 20 31 21 29 22
REMARK SMILES IDX 38 23 34 25 35 26 26 27 27 28 28 29 32 30 30 32 18 34 6 36
REMARK SMILES IDX 7 37 8 38 14 39 15 40 10 41 12 43
REMARK H PARENT 38 24 32 31 30 33 18 35 10 42 12 44
REMARK Flexibility Score: inf
ROOT
ATOM      1  C   UNL     1      -8.149 -13.926  12.662  1.00  0.00     0.045 C 
ATOM      2  C   UNL     1      -8.796 -13.563  13.978  1.00  0.00    -0.039 A 
ATOM      3  C   UNL     1      -8.441 -14.262  15.132  1.00  0.00     0.013 A 
ATOM      4  C   UNL     1      -9.042 -13.998  16.381  1.00  0.00    -0.006 A 
ATOM      5  C   UNL     1      -9.969 -12.916  16.484  1.00  0.00     0.039 A 
ATOM      6  C   UNL     1     -10.475 -12.562  17.772  1.00  0.00     0.072 A 
ATOM      7  C   UNL     1     -10.008 -13.234  18.920  1.00  0.00     0.169 A 
ATOM      8  C   UNL     1      -9.107 -14.296  18.804  1.00  0.00     0.162 A 
ATOM      9  C   UNL     1      -8.706 -14.769  17.537  1.00  0.00     0.008 A 
ATOM     10  C   UNL     1     -10.327 -12.199  15.300  1.00  0.00     0.132 A 
ATOM     11  C   UNL     1      -9.752 -12.538  14.056  1.00  0.00     0.031 A 
ENDROOT
BRANCH  11  12
ATOM     12  C   UNL     1     -10.135 -11.792  12.828  1.00  0.00     0.031 A 
ATOM     13  C   UNL     1     -10.802 -12.454  11.776  1.00  0.00     0.132 A 
ATOM     14  C   UNL     1      -9.795 -10.436  12.703  1.00  0.00    -0.039 A 
ATOM     15  C   UNL     1     -11.194 -11.739  10.604  1.00  0.00     0.039 A 
ATOM     16  C   UNL     1     -10.110  -9.752  11.528  1.00  0.00     0.013 A 
ATOM     17  C   UNL     1      -9.051  -9.713  13.801  1.00  0.00     0.045 C 
ATOM     18  C   UNL     1     -10.839 -10.361  10.481  1.00  0.00    -0.006 A 
ATOM     19  C   UNL     1     -11.885 -12.370   9.526  1.00  0.00     0.072 A 
ATOM     20  C   UNL     1     -11.184  -9.632   9.301  1.00  0.00     0.008 A 
ATOM     21  C   UNL     1     -12.038 -11.692   8.302  1.00  0.00     0.169 A 
ATOM     22  C   UNL     1     -11.657 -10.352   8.181  1.00  0.00     0.162 A 
BRANCH  13  23
ATOM     23  O   UNL     1     -11.040 -13.829  11.877  1.00  0.00    -0.507 OA
ATOM     24  H   UNL     1     -11.883 -14.231  12.268  1.00  0.00     0.293 HD
ENDBRANCH  13  23
BRANCH  19  25
ATOM     25  C   UNL     1     -12.491 -13.712   9.650  1.00  0.00     0.264 C 
ATOM     26  O   UNL     1     -12.931 -14.307   8.631  1.00  0.00    -0.298 OA
ENDBRANCH  19  25
BRANCH  20  27
ATOM     27  C   UNL     1     -11.019  -8.105   9.210  1.00  0.00     0.017 C 
ATOM     28  C   UNL     1      -9.754  -7.648   9.943  1.00  0.00     0.012 C 
ATOM     29  C   UNL     1     -11.058  -7.557   7.770  1.00  0.00     0.012 C 
ENDBRANCH  20  27
BRANCH  21  30
ATOM     30  O   UNL     1     -12.601 -12.318   7.183  1.00  0.00    -0.504 OA
ATOM     31  H   UNL     1     -13.272 -11.880   6.566  1.00  0.00     0.293 HD
ENDBRANCH  21  30
BRANCH  22  32
ATOM     32  O   UNL     1     -11.756  -9.722   6.938  1.00  0.00    -0.504 OA
ATOM     33  H   UNL     1     -10.983  -9.231   6.505  1.00  0.00     0.293 HD
ENDBRANCH  22  32
ENDBRANCH  11  12
BRANCH  10  34
ATOM     34  O   UNL     1     -11.243 -11.142  15.358  1.00  0.00    -0.507 OA
ATOM     35  H   UNL     1     -11.697 -10.830  16.206  1.00  0.00     0.293 HD
ENDBRANCH  10  34
BRANCH   9  36
ATOM     36  C   UNL     1      -7.906 -16.082  17.432  1.00  0.00     0.017 C 
ATOM     37  C   UNL     1      -8.843 -17.292  17.399  1.00  0.00     0.012 C 
ATOM     38  C   UNL     1      -6.910 -16.113  16.256  1.00  0.00     0.012 C 
ENDBRANCH   9  36
BRANCH   6  39
ATOM     39  C   UNL     1     -11.474 -11.490  17.955  1.00  0.00     0.264 C 
ATOM     40  O   UNL     1     -12.702 -11.763  18.021  1.00  0.00    -0.298 OA
ENDBRANCH   6  39
BRANCH   8  41
ATOM     41  O   UNL     1      -8.604 -14.895  19.962  1.00  0.00    -0.504 OA
ATOM     42  H   UNL     1      -8.700 -15.885  20.160  1.00  0.00     0.293 HD
ENDBRANCH   8  41
BRANCH   7  43
ATOM     43  O   UNL     1     -10.449 -12.888  20.204  1.00  0.00    -0.504 OA
ATOM     44  H   UNL     1      -9.841 -12.571  20.947  1.00  0.00     0.293 HD
ENDBRANCH   7  43
TORSDOF 11
ENDMDL
MODEL 2
REMARK VINA RESULT:   111.186      0.184      9.216
REMARK INTER + INTRA:         166.002
REMARK INTER:                 163.306
REMARK INTRA:                   2.696
REMARK UNBOUND:                 2.817
REMARK SMILES Cc1cc2c(C(C)C)c(O)c(O)c(C=O)c2c(O)c1-c1c(C)cc2c(C(C)C)c(O)c(O)c(C=O)c2c1O
REMARK SMILES IDX 1 1 2 2 3 3 4 4 16 5 13 6 11 7 9 8 5 9 17 10 19 11 20 12
REMARK SMILES IDX 37 13 21 14 36 15 23 16 22 17 24 18 33 19 25 20 31 21 29 22
REMARK SMILES IDX 38 23 34 25 35 26 26 27 27 28 28 29 32 30 30 32 18 34 6 36
REMARK SMILES IDX 7 37 8 38 14 39 15 40 10 41 12 43
REMARK H PARENT 38 24 32 31 30 33 18 35 10 42 12 44
REMARK Flexibility Score: inf
ROOT
ATOM      1  C   UNL     1      -8.987  -9.739  13.751  1.00  0.00     0.045 C 
ATOM      2  C   UNL     1      -9.730 -10.439  12.637  1.00  0.00    -0.039 A 
ATOM      3  C   UNL     1     -10.046  -9.734  11.476  1.00  0.00     0.013 A 
ATOM      4  C   UNL     1     -10.775 -10.320  10.419  1.00  0.00    -0.006 A 
ATOM      5  C   UNL     1     -11.113 -11.706  10.503  1.00  0.00     0.039 A 
ATOM      6  C   UNL     1     -11.732 -12.333   9.378  1.00  0.00     0.072 A 
ATOM      7  C   UNL     1     -11.939 -11.602   8.190  1.00  0.00     0.169 A 
ATOM      8  C   UNL     1     -11.611 -10.244   8.127  1.00  0.00     0.162 A 
ATOM      9  C   UNL     1     -11.141  -9.559   9.266  1.00  0.00     0.008 A 
ATOM     10  C   UNL     1     -10.783 -12.426  11.692  1.00  0.00     0.132 A 
ATOM     11  C   UNL     1     -10.110 -11.785  12.755  1.00  0.00     0.031 A 
ENDROOT
BRANCH  11  12
ATOM     12  C   UNL     1      -9.776 -12.540  13.992  1.00  0.00     0.031 A 
ATOM     13  C   UNL     1     -10.344 -12.162  15.227  1.00  0.00     0.132 A 
ATOM     14  C   UNL     1      -8.865 -13.606  13.933  1.00  0.00    -0.039 A 
ATOM     15  C   UNL     1     -10.048 -12.896  16.415  1.00  0.00     0.039 A 
ATOM     16  C   UNL     1      -8.514 -14.278  15.105  1.00  0.00     0.013 A 
ATOM     17  C   UNL     1      -8.218 -14.008  12.628  1.00  0.00     0.045 C 
ATOM     18  C   UNL     1      -9.113 -13.975  16.348  1.00  0.00    -0.006 A 
ATOM     19  C   UNL     1     -10.614 -12.555  17.679  1.00  0.00     0.072 A 
ATOM     20  C   UNL     1      -8.768 -14.701  17.531  1.00  0.00     0.008 A 
ATOM     21  C   UNL     1     -10.114 -13.150  18.854  1.00  0.00     0.169 A 
ATOM     22  C   UNL     1      -9.175 -14.183  18.780  1.00  0.00     0.162 A 
BRANCH  13  23
ATOM     23  O   UNL     1     -11.170 -11.034  15.282  1.00  0.00    -0.507 OA
ATOM     24  H   UNL     1     -11.865 -10.876  16.001  1.00  0.00     0.293 HD
ENDBRANCH  13  23
BRANCH  19  25
ATOM     25  C   UNL     1     -11.749 -11.617  17.812  1.00  0.00     0.264 C 
ATOM     26  O   UNL     1     -12.934 -12.041  17.755  1.00  0.00    -0.298 OA
ENDBRANCH  19  25
BRANCH  20  27
ATOM     27  C   UNL     1      -7.941 -15.998  17.476  1.00  0.00     0.017 C 
ATOM     28  C   UNL     1      -8.855 -17.224  17.373  1.00  0.00     0.012 C 
ATOM     29  C   UNL     1      -6.868 -16.008  16.370  1.00  0.00     0.012 C 
ENDBRANCH  20  27
BRANCH  21  30
ATOM     30  O   UNL     1     -10.558 -12.755  20.122  1.00  0.00    -0.504 OA
ATOM     31  H   UNL     1     -10.860 -11.818  20.351  1.00  0.00     0.293 HD
ENDBRANCH  21  30
BRANCH  22  32
ATOM     32  O   UNL     1      -8.644 -14.710  19.959  1.00  0.00    -0.504 OA
ATOM     33  H   UNL     1      -9.141 -15.373  20.541  1.00  0.00     0.293 HD
ENDBRANCH  22  32
ENDBRANCH  11  12
BRANCH  10  34
ATOM     34  O   UNL     1     -11.110 -13.782  11.817  1.00  0.00    -0.507 OA
ATOM     35  H   UNL     1     -10.961 -14.471  11.092  1.00  0.00     0.293 HD
ENDBRANCH  10  34
BRANCH   9  36
ATOM     36  C   UNL     1     -11.014  -8.024   9.233  1.00  0.00     0.017 C 
ATOM     37  C   UNL     1      -9.870  -7.550  10.135  1.00  0.00     0.012 C 
ATOM     38  C   UNL     1     -10.885  -7.440   7.813  1.00  0.00     0.012 C 
ENDBRANCH   9  36
BRANCH   6  39
ATOM     39  C   UNL     1     -12.156 -13.748   9.404  1.00  0.00     0.264 C 
ATOM     40  O   UNL     1     -13.227 -14.105   8.847  1.00  0.00    -0.298 OA
ENDBRANCH   6  39
BRANCH   8  41
ATOM     41  O   UNL     1     -11.758  -9.563   6.916  1.00  0.00    -0.504 OA
ATOM     42  H   UNL     1     -12.434  -8.821   6.777  1.00  0.00     0.293 HD
ENDBRANCH   8  41
BRANCH   7  43
ATOM     43  O   UNL     1     -12.504 -12.193   7.053  1.00  0.00    -0.504 OA
ATOM     44  H   UNL     1     -12.231 -11.974   6.105  1.00  0.00     0.293 HD
ENDBRANCH   7  43
TORSDOF 11
ENDMDL
