MODEL 1
REMARK VINA RESULT:    -2.765      0.000      0.000
REMARK INTER + INTRA:          -7.494
REMARK INTER:                  -5.998
REMARK INTRA:                  -1.496
REMARK UNBOUND:                -1.496
REMARK SMILES CCCCCCCCCCCCCCCCCCCCCC(=O)[O-]
REMARK SMILES IDX 12 1 11 2 10 3 9 4 8 5 7 6 6 7 5 8 4 9 3 10 2 11 1 12 13 13
REMARK SMILES IDX 14 14 15 15 16 16 17 17 18 18 19 19 20 20 21 21 22 22 23 23
REMARK SMILES IDX 24 24
REMARK H PARENT
REMARK Flexibility Score: inf
ROOT
ATOM      1  C   UNL     1      -2.613 -50.323   2.103  1.00  0.00     0.000 C 
ENDROOT
BRANCH   1   2
ATOM      2  C   UNL     1      -2.102 -51.310   3.168  1.00  0.00     0.000 C 
BRANCH   2   3
ATOM      3  C   UNL     1      -3.231 -52.122   3.825  1.00  0.00     0.000 C 
BRANCH   3   4
ATOM      4  C   UNL     1      -3.398 -51.811   5.324  1.00  0.00    -0.000 C 
BRANCH   4   5
ATOM      5  C   UNL     1      -2.177 -51.155   5.994  1.00  0.00    -0.000 C 
BRANCH   5   6
ATOM      6  C   UNL     1      -2.060 -51.492   7.489  1.00  0.00    -0.000 C 
BRANCH   6   7
ATOM      7  C   UNL     1      -3.446 -51.744   8.101  1.00  0.00    -0.000 C 
BRANCH   7   8
ATOM      8  C   UNL     1      -3.751 -50.824   9.297  1.00  0.00    -0.000 C 
BRANCH   8   9
ATOM      9  C   UNL     1      -5.236 -50.452   9.471  1.00  0.00    -0.000 C 
BRANCH   9  10
ATOM     10  C   UNL     1      -6.132 -51.578  10.023  1.00  0.00    -0.000 C 
BRANCH  10  11
ATOM     11  C   UNL     1      -7.433 -51.790   9.221  1.00  0.00    -0.003 C 
ATOM     12  C   UNL     1      -8.679 -51.365   9.996  1.00  0.00     0.004 C 
ENDBRANCH  10  11
ENDBRANCH   9  10
ENDBRANCH   8   9
ENDBRANCH   7   8
ENDBRANCH   6   7
ENDBRANCH   5   6
ENDBRANCH   4   5
ENDBRANCH   3   4
ENDBRANCH   2   3
ENDBRANCH   1   2
BRANCH   1  13
ATOM     13  C   UNL     1      -2.323 -50.717   0.640  1.00  0.00     0.000 C 
BRANCH  13  14
ATOM     14  C   UNL     1      -3.566 -50.881  -0.253  1.00  0.00     0.000 C 
BRANCH  14  15
ATOM     15  C   UNL     1      -4.846 -51.152   0.551  1.00  0.00     0.000 C 
BRANCH  15  16
ATOM     16  C   UNL     1      -5.768 -52.125  -0.202  1.00  0.00     0.000 C 
BRANCH  16  17
ATOM     17  C   UNL     1      -7.252 -51.923   0.143  1.00  0.00     0.000 C 
BRANCH  17  18
ATOM     18  C   UNL     1      -7.520 -50.586   0.857  1.00  0.00     0.000 C 
BRANCH  18  19
ATOM     19  C   UNL     1      -8.748 -50.654   1.791  1.00  0.00     0.000 C 
BRANCH  19  20
ATOM     20  C   UNL     1      -8.956 -52.036   2.444  1.00  0.00     0.006 C 
BRANCH  20  21
ATOM     21  C   UNL     1      -8.932 -52.019   3.978  1.00  0.00     0.053 C 
BRANCH  21  22
ATOM     22  C   UNL     1      -7.768 -51.241   4.515  1.00  0.00     0.041 C 
ATOM     23  O   UNL     1      -7.964 -50.206   5.207  1.00  0.00    -0.550 OA
ATOM     24  O   UNL     1      -6.470 -51.668   4.272  1.00  0.00    -0.550 OA
ENDBRANCH  21  22
ENDBRANCH  20  21
ENDBRANCH  19  20
ENDBRANCH  18  19
ENDBRANCH  17  18
ENDBRANCH  16  17
ENDBRANCH  15  16
ENDBRANCH  14  15
ENDBRANCH  13  14
ENDBRANCH   1  13
TORSDOF 20
ENDMDL
MODEL 2
REMARK VINA RESULT:    -2.352      1.280      2.470
REMARK INTER + INTRA:          -6.598
REMARK INTER:                  -5.879
REMARK INTRA:                  -0.719
REMARK UNBOUND:                -1.496
REMARK SMILES CCCCCCCCCCCCCCCCCCCCCC(=O)[O-]
REMARK SMILES IDX 12 1 11 2 10 3 9 4 8 5 7 6 6 7 5 8 4 9 3 10 2 11 1 12 13 13
REMARK SMILES IDX 14 14 15 15 16 16 17 17 18 18 19 19 20 20 21 21 22 22 23 23
REMARK SMILES IDX 24 24
REMARK H PARENT
REMARK Flexibility Score: inf
ROOT
ATOM      1  C   UNL     1      -3.017 -51.308   4.111  1.00  0.00     0.000 C 
ENDROOT
BRANCH   1   2
ATOM      2  C   UNL     1      -2.916 -51.760   5.580  1.00  0.00     0.000 C 
BRANCH   2   3
ATOM      3  C   UNL     1      -1.871 -50.966   6.382  1.00  0.00     0.000 C 
BRANCH   3   4
ATOM      4  C   UNL     1      -2.236 -50.834   7.873  1.00  0.00    -0.000 C 
BRANCH   4   5
ATOM      5  C   UNL     1      -2.087 -52.125   8.698  1.00  0.00    -0.000 C 
BRANCH   5   6
ATOM      6  C   UNL     1      -2.937 -52.120   9.978  1.00  0.00    -0.000 C 
BRANCH   6   7
ATOM      7  C   UNL     1      -4.065 -51.083   9.879  1.00  0.00    -0.000 C 
BRANCH   7   8
ATOM      8  C   UNL     1      -5.023 -51.347   8.702  1.00  0.00    -0.000 C 
BRANCH   8   9
ATOM      9  C   UNL     1      -6.383 -51.958   9.094  1.00  0.00    -0.000 C 
BRANCH   9  10
ATOM     10  C   UNL     1      -7.610 -51.088   8.760  1.00  0.00    -0.000 C 
BRANCH  10  11
ATOM     11  C   UNL     1      -7.974 -50.073   9.864  1.00  0.00    -0.003 C 
ATOM     12  C   UNL     1      -8.445 -48.733   9.301  1.00  0.00     0.004 C 
ENDBRANCH  10  11
ENDBRANCH   9  10
ENDBRANCH   8   9
ENDBRANCH   7   8
ENDBRANCH   6   7
ENDBRANCH   5   6
ENDBRANCH   4   5
ENDBRANCH   3   4
ENDBRANCH   2   3
ENDBRANCH   1   2
BRANCH   1  13
ATOM     13  C   UNL     1      -1.722 -51.445   3.284  1.00  0.00     0.000 C 
BRANCH  13  14
ATOM     14  C   UNL     1      -1.716 -50.686   1.945  1.00  0.00     0.000 C 
BRANCH  14  15
ATOM     15  C   UNL     1      -3.041 -49.963   1.663  1.00  0.00     0.000 C 
BRANCH  15  16
ATOM     16  C   UNL     1      -3.786 -50.623   0.492  1.00  0.00     0.000 C 
BRANCH  16  17
ATOM     17  C   UNL     1      -4.230 -52.061   0.806  1.00  0.00     0.000 C 
BRANCH  17  18
ATOM     18  C   UNL     1      -5.314 -52.124   1.896  1.00  0.00     0.000 C 
BRANCH  18  19
ATOM     19  C   UNL     1      -6.466 -51.127   1.640  1.00  0.00     0.000 C 
BRANCH  19  20
ATOM     20  C   UNL     1      -7.770 -51.795   1.161  1.00  0.00     0.006 C 
BRANCH  20  21
ATOM     21  C   UNL     1      -8.935 -51.690   2.154  1.00  0.00     0.053 C 
BRANCH  21  22
ATOM     22  C   UNL     1      -8.606 -50.804   3.318  1.00  0.00     0.041 C 
ATOM     23  O   UNL     1      -7.858 -51.223   4.241  1.00  0.00    -0.550 OA
ATOM     24  O   UNL     1      -9.104 -49.510   3.373  1.00  0.00    -0.550 OA
ENDBRANCH  21  22
ENDBRANCH  20  21
ENDBRANCH  19  20
ENDBRANCH  18  19
ENDBRANCH  17  18
ENDBRANCH  16  17
ENDBRANCH  15  16
ENDBRANCH  14  15
ENDBRANCH  13  14
ENDBRANCH   1  13
TORSDOF 20
ENDMDL
MODEL 3
REMARK VINA RESULT:    -1.754      1.936      3.718
REMARK INTER + INTRA:          -5.300
REMARK INTER:                  -4.837
REMARK INTRA:                  -0.463
REMARK UNBOUND:                -1.496
REMARK SMILES CCCCCCCCCCCCCCCCCCCCCC(=O)[O-]
REMARK SMILES IDX 12 1 11 2 10 3 9 4 8 5 7 6 6 7 5 8 4 9 3 10 2 11 1 12 13 13
REMARK SMILES IDX 14 14 15 15 16 16 17 17 18 18 19 19 20 20 21 21 22 22 23 23
REMARK SMILES IDX 24 24
REMARK H PARENT
REMARK Flexibility Score: inf
ROOT
ATOM      1  C   UNL     1      -4.981 -51.300   4.154  1.00  0.00     0.000 C 
ENDROOT
BRANCH   1   2
ATOM      2  C   UNL     1      -4.109 -51.478   5.410  1.00  0.00     0.000 C 
BRANCH   2   3
ATOM      3  C   UNL     1      -2.722 -52.066   5.101  1.00  0.00     0.000 C 
BRANCH   3   4
ATOM      4  C   UNL     1      -1.740 -51.934   6.280  1.00  0.00    -0.000 C 
BRANCH   4   5
ATOM      5  C   UNL     1      -2.254 -51.100   7.468  1.00  0.00    -0.000 C 
BRANCH   5   6
ATOM      6  C   UNL     1      -1.598 -51.488   8.802  1.00  0.00    -0.000 C 
BRANCH   6   7
ATOM      7  C   UNL     1      -2.625 -52.124   9.750  1.00  0.00    -0.000 C 
BRANCH   7   8
ATOM      8  C   UNL     1      -4.080 -51.915   9.289  1.00  0.00    -0.000 C 
BRANCH   8   9
ATOM      9  C   UNL     1      -4.796 -50.707   9.923  1.00  0.00    -0.000 C 
BRANCH   9  10
ATOM     10  C   UNL     1      -6.320 -50.864  10.089  1.00  0.00    -0.000 C 
BRANCH  10  11
ATOM     11  C   UNL     1      -7.031 -51.409   8.832  1.00  0.00    -0.003 C 
ATOM     12  C   UNL     1      -8.405 -52.001   9.143  1.00  0.00     0.004 C 
ENDBRANCH  10  11
ENDBRANCH   9  10
ENDBRANCH   8   9
ENDBRANCH   7   8
ENDBRANCH   6   7
ENDBRANCH   5   6
ENDBRANCH   4   5
ENDBRANCH   3   4
ENDBRANCH   2   3
ENDBRANCH   1   2
BRANCH   1  13
ATOM     13  C   UNL     1      -6.309 -52.085   4.151  1.00  0.00     0.000 C 
BRANCH  13  14
ATOM     14  C   UNL     1      -7.066 -52.088   2.811  1.00  0.00     0.000 C 
BRANCH  14  15
ATOM     15  C   UNL     1      -8.510 -51.582   2.941  1.00  0.00     0.000 C 
BRANCH  15  16
ATOM     16  C   UNL     1      -8.772 -50.421   1.968  1.00  0.00     0.000 C 
BRANCH  16  17
ATOM     17  C   UNL     1      -7.858 -50.465   0.733  1.00  0.00     0.000 C 
BRANCH  17  18
ATOM     18  C   UNL     1      -7.727 -51.879   0.139  1.00  0.00     0.000 C 
BRANCH  18  19
ATOM     19  C   UNL     1      -6.345 -52.121  -0.506  1.00  0.00     0.000 C 
BRANCH  19  20
ATOM     20  C   UNL     1      -5.161 -51.850   0.444  1.00  0.00     0.006 C 
BRANCH  20  21
ATOM     21  C   UNL     1      -4.347 -50.596   0.097  1.00  0.00     0.053 C 
BRANCH  21  22
ATOM     22  C   UNL     1      -2.903 -50.739   0.476  1.00  0.00     0.041 C 
ATOM     23  O   UNL     1      -2.052 -51.079  -0.388  1.00  0.00    -0.550 OA
ATOM     24  O   UNL     1      -2.493 -50.476   1.776  1.00  0.00    -0.550 OA
ENDBRANCH  21  22
ENDBRANCH  20  21
ENDBRANCH  19  20
ENDBRANCH  18  19
ENDBRANCH  17  18
ENDBRANCH  16  17
ENDBRANCH  15  16
ENDBRANCH  14  15
ENDBRANCH  13  14
ENDBRANCH   1  13
TORSDOF 20
ENDMDL
MODEL 4
REMARK VINA RESULT:    -1.753      2.296      4.573
REMARK INTER + INTRA:          -5.298
REMARK INTER:                  -5.022
REMARK INTRA:                  -0.276
REMARK UNBOUND:                -1.496
REMARK SMILES CCCCCCCCCCCCCCCCCCCCCC(=O)[O-]
REMARK SMILES IDX 12 1 11 2 10 3 9 4 8 5 7 6 6 7 5 8 4 9 3 10 2 11 1 12 13 13
REMARK SMILES IDX 14 14 15 15 16 16 17 17 18 18 19 19 20 20 21 21 22 22 23 23
REMARK SMILES IDX 24 24
REMARK H PARENT
REMARK Flexibility Score: inf
ROOT
ATOM      1  C   UNL     1      -5.303 -51.885   3.903  1.00  0.00     0.000 C 
ENDROOT
BRANCH   1   2
ATOM      2  C   UNL     1      -3.931 -51.987   4.595  1.00  0.00     0.000 C 
BRANCH   2   3
ATOM      3  C   UNL     1      -4.038 -52.125   6.123  1.00  0.00     0.000 C 
BRANCH   3   4
ATOM      4  C   UNL     1      -3.399 -50.943   6.877  1.00  0.00    -0.000 C 
BRANCH   4   5
ATOM      5  C   UNL     1      -3.663 -50.917   8.393  1.00  0.00    -0.000 C 
BRANCH   5   6
ATOM      6  C   UNL     1      -4.623 -52.024   8.854  1.00  0.00    -0.000 C 
BRANCH   6   7
ATOM      7  C   UNL     1      -5.748 -51.444   9.723  1.00  0.00    -0.000 C 
BRANCH   7   8
ATOM      8  C   UNL     1      -7.027 -51.135   8.924  1.00  0.00    -0.000 C 
BRANCH   8   9
ATOM      9  C   UNL     1      -7.072 -51.740   7.507  1.00  0.00    -0.000 C 
BRANCH   9  10
ATOM     10  C   UNL     1      -8.175 -51.177   6.590  1.00  0.00    -0.000 C 
BRANCH  10  11
ATOM     11  C   UNL     1      -8.573 -52.125   5.439  1.00  0.00    -0.003 C 
ATOM     12  C   UNL     1      -8.845 -51.383   4.132  1.00  0.00     0.004 C 
ENDBRANCH  10  11
ENDBRANCH   9  10
ENDBRANCH   8   9
ENDBRANCH   7   8
ENDBRANCH   6   7
ENDBRANCH   5   6
ENDBRANCH   4   5
ENDBRANCH   3   4
ENDBRANCH   2   3
ENDBRANCH   1   2
BRANCH   1  13
ATOM     13  C   UNL     1      -5.272 -51.913   2.361  1.00  0.00     0.000 C 
BRANCH  13  14
ATOM     14  C   UNL     1      -6.487 -51.268   1.669  1.00  0.00     0.000 C 
BRANCH  14  15
ATOM     15  C   UNL     1      -6.867 -51.967   0.357  1.00  0.00     0.000 C 
BRANCH  15  16
ATOM     16  C   UNL     1      -5.728 -51.859  -0.670  1.00  0.00     0.000 C 
BRANCH  16  17
ATOM     17  C   UNL     1      -4.345 -52.116  -0.051  1.00  0.00     0.000 C 
BRANCH  17  18
ATOM     18  C   UNL     1      -3.288 -51.097  -0.513  1.00  0.00     0.000 C 
BRANCH  18  19
ATOM     19  C   UNL     1      -1.882 -51.417   0.039  1.00  0.00     0.000 C 
BRANCH  19  20
ATOM     20  C   UNL     1      -1.894 -52.020   1.458  1.00  0.00     0.006 C 
BRANCH  20  21
ATOM     21  C   UNL     1      -1.993 -50.982   2.584  1.00  0.00     0.053 C 
BRANCH  21  22
ATOM     22  C   UNL     1      -0.792 -51.008   3.482  1.00  0.00     0.041 C 
ATOM     23  O   UNL     1       0.000 -50.028   3.508  1.00  0.00    -0.550 OA
ATOM     24  O   UNL     1      -0.558 -52.101   4.304  1.00  0.00    -0.550 OA
ENDBRANCH  21  22
ENDBRANCH  20  21
ENDBRANCH  19  20
ENDBRANCH  18  19
ENDBRANCH  17  18
ENDBRANCH  16  17
ENDBRANCH  15  16
ENDBRANCH  14  15
ENDBRANCH  13  14
ENDBRANCH   1  13
TORSDOF 20
ENDMDL
MODEL 5
REMARK VINA RESULT:    -1.319      1.444      7.022
REMARK INTER + INTRA:          -4.358
REMARK INTER:                  -3.331
REMARK INTRA:                  -1.027
REMARK UNBOUND:                -1.496
REMARK SMILES CCCCCCCCCCCCCCCCCCCCCC(=O)[O-]
REMARK SMILES IDX 12 1 11 2 10 3 9 4 8 5 7 6 6 7 5 8 4 9 3 10 2 11 1 12 13 13
REMARK SMILES IDX 14 14 15 15 16 16 17 17 18 18 19 19 20 20 21 21 22 22 23 23
REMARK SMILES IDX 24 24
REMARK H PARENT
REMARK Flexibility Score: inf
ROOT
ATOM      1  C   UNL     1      -2.513 -51.143   5.130  1.00  0.00     0.000 C 
ENDROOT
BRANCH   1   2
ATOM      2  C   UNL     1      -3.022 -50.841   3.709  1.00  0.00     0.000 C 
BRANCH   2   3
ATOM      3  C   UNL     1      -1.885 -50.644   2.693  1.00  0.00     0.000 C 
BRANCH   3   4
ATOM      4  C   UNL     1      -2.117 -51.412   1.379  1.00  0.00    -0.000 C 
BRANCH   4   5
ATOM      5  C   UNL     1      -3.503 -52.069   1.243  1.00  0.00    -0.000 C 
BRANCH   5   6
ATOM      6  C   UNL     1      -4.602 -51.073   0.842  1.00  0.00    -0.000 C 
BRANCH   6   7
ATOM      7  C   UNL     1      -5.418 -51.609  -0.342  1.00  0.00    -0.000 C 
BRANCH   7   8
ATOM      8  C   UNL     1      -6.809 -52.125   0.070  1.00  0.00    -0.000 C 
BRANCH   8   9
ATOM      9  C   UNL     1      -7.275 -51.690   1.473  1.00  0.00    -0.000 C 
BRANCH   9  10
ATOM     10  C   UNL     1      -8.436 -50.677   1.492  1.00  0.00    -0.000 C 
BRANCH  10  11
ATOM     11  C   UNL     1      -9.061 -50.471   2.888  1.00  0.00    -0.003 C 
ATOM     12  C   UNL     1      -8.493 -51.427   3.935  1.00  0.00     0.004 C 
ENDBRANCH  10  11
ENDBRANCH   9  10
ENDBRANCH   8   9
ENDBRANCH   7   8
ENDBRANCH   6   7
ENDBRANCH   5   6
ENDBRANCH   4   5
ENDBRANCH   3   4
ENDBRANCH   2   3
ENDBRANCH   1   2
BRANCH   1  13
ATOM     13  C   UNL     1      -1.286 -50.326   5.584  1.00  0.00     0.000 C 
BRANCH  13  14
ATOM     14  C   UNL     1      -0.856 -50.546   7.045  1.00  0.00     0.000 C 
BRANCH  14  15
ATOM     15  C   UNL     1      -1.505 -51.784   7.679  1.00  0.00     0.000 C 
BRANCH  15  16
ATOM     16  C   UNL     1      -1.407 -51.729   9.211  1.00  0.00     0.000 C 
BRANCH  16  17
ATOM     17  C   UNL     1      -2.762 -51.956   9.900  1.00  0.00     0.000 C 
BRANCH  17  18
ATOM     18  C   UNL     1      -3.928 -52.059   8.901  1.00  0.00     0.000 C 
BRANCH  18  19
ATOM     19  C   UNL     1      -5.166 -51.256   9.357  1.00  0.00     0.000 C 
BRANCH  19  20
ATOM     20  C   UNL     1      -6.272 -52.125   9.989  1.00  0.00     0.006 C 
BRANCH  20  21
ATOM     21  C   UNL     1      -7.686 -51.541   9.859  1.00  0.00     0.053 C 
BRANCH  21  22
ATOM     22  C   UNL     1      -7.742 -50.418   8.867  1.00  0.00     0.041 C 
ATOM     23  O   UNL     1      -7.933 -49.236   9.260  1.00  0.00    -0.550 OA
ATOM     24  O   UNL     1      -7.564 -50.671   7.514  1.00  0.00    -0.550 OA
ENDBRANCH  21  22
ENDBRANCH  20  21
ENDBRANCH  19  20
ENDBRANCH  18  19
ENDBRANCH  17  18
ENDBRANCH  16  17
ENDBRANCH  15  16
ENDBRANCH  14  15
ENDBRANCH  13  14
ENDBRANCH   1  13
TORSDOF 20
ENDMDL
MODEL 6
REMARK VINA RESULT:    -1.068      1.697      5.544
REMARK INTER + INTRA:          -3.813
REMARK INTER:                  -3.027
REMARK INTRA:                  -0.786
REMARK UNBOUND:                -1.496
REMARK SMILES CCCCCCCCCCCCCCCCCCCCCC(=O)[O-]
REMARK SMILES IDX 12 1 11 2 10 3 9 4 8 5 7 6 6 7 5 8 4 9 3 10 2 11 1 12 13 13
REMARK SMILES IDX 14 14 15 15 16 16 17 17 18 18 19 19 20 20 21 21 22 22 23 23
REMARK SMILES IDX 24 24
REMARK H PARENT
REMARK Flexibility Score: inf
ROOT
ATOM      1  C   UNL     1      -1.484 -50.137   7.130  1.00  0.00     0.000 C 
ENDROOT
BRANCH   1   2
ATOM      2  C   UNL     1      -1.879 -50.669   8.520  1.00  0.00     0.000 C 
BRANCH   2   3
ATOM      3  C   UNL     1      -3.177 -51.494   8.500  1.00  0.00     0.000 C 
BRANCH   3   4
ATOM      4  C   UNL     1      -4.352 -50.777   9.191  1.00  0.00    -0.000 C 
BRANCH   4   5
ATOM      5  C   UNL     1      -5.633 -51.619   9.338  1.00  0.00    -0.000 C 
BRANCH   5   6
ATOM      6  C   UNL     1      -6.915 -50.809   9.087  1.00  0.00    -0.000 C 
BRANCH   6   7
ATOM      7  C   UNL     1      -7.886 -51.591   8.190  1.00  0.00    -0.000 C 
BRANCH   7   8
ATOM      8  C   UNL     1      -7.223 -52.124   6.906  1.00  0.00    -0.000 C 
BRANCH   8   9
ATOM      9  C   UNL     1      -8.089 -52.022   5.636  1.00  0.00    -0.000 C 
BRANCH   9  10
ATOM     10  C   UNL     1      -7.690 -50.897   4.662  1.00  0.00    -0.000 C 
BRANCH  10  11
ATOM     11  C   UNL     1      -8.837 -50.437   3.737  1.00  0.00    -0.003 C 
ATOM     12  C   UNL     1      -8.743 -51.040   2.336  1.00  0.00     0.004 C 
ENDBRANCH  10  11
ENDBRANCH   9  10
ENDBRANCH   8   9
ENDBRANCH   7   8
ENDBRANCH   6   7
ENDBRANCH   5   6
ENDBRANCH   4   5
ENDBRANCH   3   4
ENDBRANCH   2   3
ENDBRANCH   1   2
BRANCH   1  13
ATOM     13  C   UNL     1      -2.561 -50.279   6.035  1.00  0.00     0.000 C 
BRANCH  13  14
ATOM     14  C   UNL     1      -2.968 -51.725   5.700  1.00  0.00     0.000 C 
BRANCH  14  15
ATOM     15  C   UNL     1      -4.110 -51.802   4.676  1.00  0.00     0.000 C 
BRANCH  15  16
ATOM     16  C   UNL     1      -3.559 -52.017   3.258  1.00  0.00     0.000 C 
BRANCH  16  17
ATOM     17  C   UNL     1      -2.083 -51.607   3.126  1.00  0.00     0.000 C 
BRANCH  17  18
ATOM     18  C   UNL     1      -1.810 -50.763   1.868  1.00  0.00     0.000 C 
BRANCH  18  19
ATOM     19  C   UNL     1      -1.859 -51.604   0.574  1.00  0.00     0.000 C 
BRANCH  19  20
ATOM     20  C   UNL     1      -2.877 -51.089  -0.463  1.00  0.00     0.006 C 
BRANCH  20  21
ATOM     21  C   UNL     1      -3.952 -52.112  -0.855  1.00  0.00     0.053 C 
BRANCH  21  22
ATOM     22  C   UNL     1      -5.323 -51.680  -0.429  1.00  0.00     0.041 C 
ATOM     23  O   UNL     1      -6.238 -51.543  -1.284  1.00  0.00    -0.550 OA
ATOM     24  O   UNL     1      -5.597 -51.449   0.912  1.00  0.00    -0.550 OA
ENDBRANCH  21  22
ENDBRANCH  20  21
ENDBRANCH  19  20
ENDBRANCH  18  19
ENDBRANCH  17  18
ENDBRANCH  16  17
ENDBRANCH  15  16
ENDBRANCH  14  15
ENDBRANCH  13  14
ENDBRANCH   1  13
TORSDOF 20
ENDMDL
MODEL 7
REMARK VINA RESULT:    -0.960      1.612      6.806
REMARK INTER + INTRA:          -3.579
REMARK INTER:                  -2.485
REMARK INTRA:                  -1.094
REMARK UNBOUND:                -1.496
REMARK SMILES CCCCCCCCCCCCCCCCCCCCCC(=O)[O-]
REMARK SMILES IDX 12 1 11 2 10 3 9 4 8 5 7 6 6 7 5 8 4 9 3 10 2 11 1 12 13 13
REMARK SMILES IDX 14 14 15 15 16 16 17 17 18 18 19 19 20 20 21 21 22 22 23 23
REMARK SMILES IDX 24 24
REMARK H PARENT
REMARK Flexibility Score: inf
ROOT
ATOM      1  C   UNL     1      -1.276 -50.587   5.652  1.00  0.00     0.000 C 
ENDROOT
BRANCH   1   2
ATOM      2  C   UNL     1      -0.698 -50.832   4.246  1.00  0.00     0.000 C 
BRANCH   2   3
ATOM      3  C   UNL     1      -1.247 -52.107   3.584  1.00  0.00     0.000 C 
BRANCH   3   4
ATOM      4  C   UNL     1      -1.982 -51.825   2.260  1.00  0.00    -0.000 C 
BRANCH   4   5
ATOM      5  C   UNL     1      -1.287 -50.814   1.331  1.00  0.00    -0.000 C 
BRANCH   5   6
ATOM      6  C   UNL     1      -0.546 -51.483   0.163  1.00  0.00    -0.000 C 
BRANCH   6   7
ATOM      7  C   UNL     1      -1.539 -52.122  -0.818  1.00  0.00    -0.000 C 
BRANCH   7   8
ATOM      8  C   UNL     1      -2.881 -51.369  -0.892  1.00  0.00    -0.000 C 
BRANCH   8   9
ATOM      9  C   UNL     1      -4.069 -52.091  -0.229  1.00  0.00    -0.000 C 
BRANCH   9  10
ATOM     10  C   UNL     1      -5.071 -51.172   0.496  1.00  0.00    -0.000 C 
BRANCH  10  11
ATOM     11  C   UNL     1      -6.328 -51.904   1.013  1.00  0.00    -0.003 C 
ATOM     12  C   UNL     1      -7.382 -52.106  -0.075  1.00  0.00     0.004 C 
ENDBRANCH  10  11
ENDBRANCH   9  10
ENDBRANCH   8   9
ENDBRANCH   7   8
ENDBRANCH   6   7
ENDBRANCH   5   6
ENDBRANCH   4   5
ENDBRANCH   3   4
ENDBRANCH   2   3
ENDBRANCH   1   2
BRANCH   1  13
ATOM     13  C   UNL     1      -0.541 -51.302   6.805  1.00  0.00     0.000 C 
BRANCH  13  14
ATOM     14  C   UNL     1      -1.452 -52.003   7.828  1.00  0.00     0.000 C 
BRANCH  14  15
ATOM     15  C   UNL     1      -2.945 -51.773   7.553  1.00  0.00     0.000 C 
BRANCH  15  16
ATOM     16  C   UNL     1      -3.648 -51.201   8.795  1.00  0.00     0.000 C 
BRANCH  16  17
ATOM     17  C   UNL     1      -5.116 -51.644   8.902  1.00  0.00     0.000 C 
BRANCH  17  18
ATOM     18  C   UNL     1      -5.718 -52.043   7.543  1.00  0.00     0.000 C 
BRANCH  18  19
ATOM     19  C   UNL     1      -7.150 -51.497   7.350  1.00  0.00     0.000 C 
BRANCH  19  20
ATOM     20  C   UNL     1      -7.758 -51.822   5.971  1.00  0.00     0.006 C 
BRANCH  20  21
ATOM     21  C   UNL     1      -7.630 -50.691   4.942  1.00  0.00     0.053 C 
BRANCH  21  22
ATOM     22  C   UNL     1      -8.588 -50.857   3.801  1.00  0.00     0.041 C 
ATOM     23  O   UNL     1      -9.122 -49.846   3.270  1.00  0.00    -0.550 OA
ATOM     24  O   UNL     1      -8.876 -52.123   3.309  1.00  0.00    -0.550 OA
ENDBRANCH  21  22
ENDBRANCH  20  21
ENDBRANCH  19  20
ENDBRANCH  18  19
ENDBRANCH  17  18
ENDBRANCH  16  17
ENDBRANCH  15  16
ENDBRANCH  14  15
ENDBRANCH  13  14
ENDBRANCH   1  13
TORSDOF 20
ENDMDL
