MODEL 1
REMARK VINA RESULT:    -4.123      0.000      0.000
REMARK INTER + INTRA:          -5.004
REMARK INTER:                  -4.846
REMARK INTRA:                  -0.157
REMARK UNBOUND:                -0.157
REMARK SMILES O=C([O-])CCC(=O)[O-]
REMARK SMILES IDX 4 1 2 2 1 3 3 4 5 5 6 6 7 7 8 8
REMARK H PARENT
REMARK Flexibility Score: inf
ROOT
ATOM      1  C   UNL     1     -16.593  -7.134 -21.349  1.00  0.00     0.059 C 
ENDROOT
BRANCH   1   2
ATOM      2  C   UNL     1     -16.311  -8.558 -20.992  1.00  0.00     0.042 C 
ATOM      3  O   UNL     1     -15.203  -8.877 -20.486  1.00  0.00    -0.550 OA
ATOM      4  O   UNL     1     -17.290  -9.527 -21.171  1.00  0.00    -0.550 OA
ENDBRANCH   1   2
BRANCH   1   5
ATOM      5  C   UNL     1     -15.733  -6.700 -22.537  1.00  0.00     0.059 C 
BRANCH   5   6
ATOM      6  C   UNL     1     -15.962  -7.603 -23.708  1.00  0.00     0.042 C 
ATOM      7  O   UNL     1     -17.061  -7.578 -24.322  1.00  0.00    -0.550 OA
ATOM      8  O   UNL     1     -14.945  -8.438 -24.152  1.00  0.00    -0.550 OA
ENDBRANCH   5   6
ENDBRANCH   1   5
TORSDOF 3
ENDMDL
MODEL 2
REMARK VINA RESULT:    -4.070      0.132      3.390
REMARK INTER + INTRA:          -4.942
REMARK INTER:                  -4.799
REMARK INTRA:                  -0.143
REMARK UNBOUND:                -0.157
REMARK SMILES O=C([O-])CCC(=O)[O-]
REMARK SMILES IDX 4 1 2 2 1 3 3 4 5 5 6 6 7 7 8 8
REMARK H PARENT
REMARK Flexibility Score: inf
ROOT
ATOM      1  C   UNL     1     -15.856  -6.739 -22.581  1.00  0.00     0.059 C 
ENDROOT
BRANCH   1   2
ATOM      2  C   UNL     1     -16.046  -7.705 -23.706  1.00  0.00     0.042 C 
ATOM      3  O   UNL     1     -17.176  -7.831 -24.248  1.00  0.00    -0.550 OA
ATOM      4  O   UNL     1     -14.966  -8.432 -24.190  1.00  0.00    -0.550 OA
ENDBRANCH   1   2
BRANCH   1   5
ATOM      5  C   UNL     1     -16.653  -7.182 -21.353  1.00  0.00     0.059 C 
BRANCH   5   6
ATOM      6  C   UNL     1     -16.300  -8.586 -20.978  1.00  0.00     0.042 C 
ATOM      7  O   UNL     1     -15.170  -8.846 -20.488  1.00  0.00    -0.550 OA
ATOM      8  O   UNL     1     -17.237  -9.602 -21.123  1.00  0.00    -0.550 OA
ENDBRANCH   5   6
ENDBRANCH   1   5
TORSDOF 3
ENDMDL
MODEL 3
REMARK VINA RESULT:    -3.986      1.486      3.577
REMARK INTER + INTRA:          -4.842
REMARK INTER:                  -4.671
REMARK INTRA:                  -0.171
REMARK UNBOUND:                -0.157
REMARK SMILES O=C([O-])CCC(=O)[O-]
REMARK SMILES IDX 4 1 2 2 1 3 3 4 5 5 6 6 7 7 8 8
REMARK H PARENT
REMARK Flexibility Score: inf
ROOT
ATOM      1  C   UNL     1     -17.884  -8.540 -22.804  1.00  0.00     0.059 C 
ENDROOT
BRANCH   1   2
ATOM      2  C   UNL     1     -16.861  -8.358 -23.879  1.00  0.00     0.042 C 
ATOM      3  O   UNL     1     -16.279  -9.359 -24.374  1.00  0.00    -0.550 OA
ATOM      4  O   UNL     1     -16.586  -7.089 -24.371  1.00  0.00    -0.550 OA
ENDBRANCH   1   2
BRANCH   1   5
ATOM      5  C   UNL     1     -17.276  -9.267 -21.603  1.00  0.00     0.059 C 
BRANCH   5   6
ATOM      6  C   UNL     1     -16.297  -8.383 -20.897  1.00  0.00     0.042 C 
ATOM      7  O   UNL     1     -15.158  -8.820 -20.586  1.00  0.00    -0.550 OA
ATOM      8  O   UNL     1     -16.623  -7.060 -20.626  1.00  0.00    -0.550 OA
ENDBRANCH   5   6
ENDBRANCH   1   5
TORSDOF 3
ENDMDL
MODEL 4
REMARK VINA RESULT:    -3.948      1.851      2.463
REMARK INTER + INTRA:          -4.797
REMARK INTER:                  -4.652
REMARK INTRA:                  -0.145
REMARK UNBOUND:                -0.157
REMARK SMILES O=C([O-])CCC(=O)[O-]
REMARK SMILES IDX 4 1 2 2 1 3 3 4 5 5 6 6 7 7 8 8
REMARK H PARENT
REMARK Flexibility Score: inf
ROOT
ATOM      1  C   UNL     1     -15.682  -8.631 -21.522  1.00  0.00     0.059 C 
ENDROOT
BRANCH   1   2
ATOM      2  C   UNL     1     -16.103  -7.203 -21.378  1.00  0.00     0.042 C 
ATOM      3  O   UNL     1     -16.996  -6.886 -20.549  1.00  0.00    -0.550 OA
ATOM      4  O   UNL     1     -15.475  -6.214 -22.124  1.00  0.00    -0.550 OA
ENDBRANCH   1   2
BRANCH   1   5
ATOM      5  C   UNL     1     -15.668  -9.040 -22.995  1.00  0.00     0.059 C 
BRANCH   5   6
ATOM      6  C   UNL     1     -17.019  -8.838 -23.607  1.00  0.00     0.042 C 
ATOM      7  O   UNL     1     -17.156  -8.087 -24.608  1.00  0.00    -0.550 OA
ATOM      8  O   UNL     1     -18.120  -9.519 -23.102  1.00  0.00    -0.550 OA
ENDBRANCH   5   6
ENDBRANCH   1   5
TORSDOF 3
ENDMDL
MODEL 5
REMARK VINA RESULT:    -3.935      1.811      3.163
REMARK INTER + INTRA:          -4.782
REMARK INTER:                  -4.631
REMARK INTRA:                  -0.151
REMARK UNBOUND:                -0.157
REMARK SMILES O=C([O-])CCC(=O)[O-]
REMARK SMILES IDX 4 1 2 2 1 3 3 4 5 5 6 6 7 7 8 8
REMARK H PARENT
REMARK Flexibility Score: inf
ROOT
ATOM      1  C   UNL     1     -15.579  -8.867 -23.193  1.00  0.00     0.059 C 
ENDROOT
BRANCH   1   2
ATOM      2  C   UNL     1     -16.979  -8.801 -23.716  1.00  0.00     0.042 C 
ATOM      3  O   UNL     1     -17.872  -9.542 -23.228  1.00  0.00    -0.550 OA
ATOM      4  O   UNL     1     -17.309  -7.886 -24.708  1.00  0.00    -0.550 OA
ENDBRANCH   1   2
BRANCH   1   5
ATOM      5  C   UNL     1     -15.553  -8.571 -21.693  1.00  0.00     0.059 C 
BRANCH   5   6
ATOM      6  C   UNL     1     -16.053  -7.186 -21.423  1.00  0.00     0.042 C 
ATOM      7  O   UNL     1     -16.887  -6.981 -20.503  1.00  0.00    -0.550 OA
ATOM      8  O   UNL     1     -15.561  -6.114 -22.157  1.00  0.00    -0.550 OA
ENDBRANCH   5   6
ENDBRANCH   1   5
TORSDOF 3
ENDMDL
MODEL 6
REMARK VINA RESULT:    -3.654      1.923      2.917
REMARK INTER + INTRA:          -4.452
REMARK INTER:                  -4.337
REMARK INTRA:                  -0.115
REMARK UNBOUND:                -0.157
REMARK SMILES O=C([O-])CCC(=O)[O-]
REMARK SMILES IDX 4 1 2 2 1 3 3 4 5 5 6 6 7 7 8 8
REMARK H PARENT
REMARK Flexibility Score: inf
ROOT
ATOM      1  C   UNL     1     -16.403  -8.833 -23.242  1.00  0.00     0.059 C 
ENDROOT
BRANCH   1   2
ATOM      2  C   UNL     1     -17.682  -9.329 -22.648  1.00  0.00     0.042 C 
ATOM      3  O   UNL     1     -18.758  -9.237 -23.296  1.00  0.00    -0.550 OA
ATOM      4  O   UNL     1     -17.680  -9.937 -21.400  1.00  0.00    -0.550 OA
ENDBRANCH   1   2
BRANCH   1   5
ATOM      5  C   UNL     1     -15.438  -8.388 -22.142  1.00  0.00     0.059 C 
BRANCH   5   6
ATOM      6  C   UNL     1     -15.886  -7.092 -21.544  1.00  0.00     0.042 C 
ATOM      7  O   UNL     1     -15.896  -6.042 -22.240  1.00  0.00    -0.550 OA
ATOM      8  O   UNL     1     -16.342  -7.051 -20.232  1.00  0.00    -0.550 OA
ENDBRANCH   5   6
ENDBRANCH   1   5
TORSDOF 3
ENDMDL
MODEL 7
REMARK VINA RESULT:    -2.700     18.158     19.151
REMARK INTER + INTRA:          -3.330
REMARK INTER:                  -3.221
REMARK INTRA:                  -0.109
REMARK UNBOUND:                -0.157
REMARK SMILES O=C([O-])CCC(=O)[O-]
REMARK SMILES IDX 4 1 2 2 1 3 3 4 5 5 6 6 7 7 8 8
REMARK H PARENT
REMARK Flexibility Score: inf
ROOT
ATOM      1  C   UNL     1      -4.774  -8.528  -8.228  1.00  0.00     0.059 C 
ENDROOT
BRANCH   1   2
ATOM      2  C   UNL     1      -4.518  -8.089  -6.822  1.00  0.00     0.042 C 
ATOM      3  O   UNL     1      -5.066  -8.692  -5.861  1.00  0.00    -0.550 OA
ATOM      4  O   UNL     1      -3.635  -7.047  -6.568  1.00  0.00    -0.550 OA
ENDBRANCH   1   2
BRANCH   1   5
ATOM      5  C   UNL     1      -5.019 -10.037  -8.282  1.00  0.00     0.059 C 
BRANCH   5   6
ATOM      6  C   UNL     1      -3.743 -10.766  -8.561  1.00  0.00     0.042 C 
ATOM      7  O   UNL     1      -3.434 -11.076  -9.741  1.00  0.00    -0.550 OA
ATOM      8  O   UNL     1      -2.869 -11.060  -7.521  1.00  0.00    -0.550 OA
ENDBRANCH   5   6
ENDBRANCH   1   5
TORSDOF 3
ENDMDL
MODEL 8
REMARK VINA RESULT:    -2.690     18.277     19.263
REMARK INTER + INTRA:          -3.319
REMARK INTER:                  -3.197
REMARK INTRA:                  -0.123
REMARK UNBOUND:                -0.157
REMARK SMILES O=C([O-])CCC(=O)[O-]
REMARK SMILES IDX 4 1 2 2 1 3 3 4 5 5 6 6 7 7 8 8
REMARK H PARENT
REMARK Flexibility Score: inf
ROOT
ATOM      1  C   UNL     1      -4.970 -10.101  -8.199  1.00  0.00     0.059 C 
ENDROOT
BRANCH   1   2
ATOM      2  C   UNL     1      -3.675 -10.819  -8.410  1.00  0.00     0.042 C 
ATOM      3  O   UNL     1      -3.297 -11.113  -9.575  1.00  0.00    -0.550 OA
ATOM      4  O   UNL     1      -2.860 -11.118  -7.326  1.00  0.00    -0.550 OA
ENDBRANCH   1   2
BRANCH   1   5
ATOM      5  C   UNL     1      -4.764  -8.588  -8.281  1.00  0.00     0.059 C 
BRANCH   5   6
ATOM      6  C   UNL     1      -4.469  -8.025  -6.927  1.00  0.00     0.042 C 
ATOM      7  O   UNL     1      -3.767  -6.986  -6.811  1.00  0.00    -0.550 OA
ATOM      8  O   UNL     1      -5.010  -8.619  -5.794  1.00  0.00    -0.550 OA
ENDBRANCH   5   6
ENDBRANCH   1   5
TORSDOF 3
ENDMDL
