MODEL 1
REMARK VINA RESULT:    -5.362      0.000      0.000
REMARK INTER + INTRA:          -9.468
REMARK INTER:                  -8.496
REMARK INTRA:                  -0.972
REMARK UNBOUND:                -0.972
REMARK SMILES CCCCCCCCCCCC(=O)[O-]
REMARK SMILES IDX 7 1 8 2 9 3 10 4 11 5 12 6 13 7 14 8 6 9 5 10 4 11 3 12 2 13
REMARK SMILES IDX 1 14
REMARK H PARENT
REMARK Flexibility Score: inf
ROOT
ATOM      1  C   UNL     1     135.832 132.486 133.286  1.00  0.00     0.000 C 
ENDROOT
BRANCH   1   2
ATOM      2  C   UNL     1     134.829 131.333 133.103  1.00  0.00     0.000 C 
BRANCH   2   3
ATOM      3  C   UNL     1     133.431 131.663 133.656  1.00  0.00     0.000 C 
BRANCH   3   4
ATOM      4  C   UNL     1     132.314 131.754 132.600  1.00  0.00     0.006 C 
BRANCH   4   5
ATOM      5  C   UNL     1     130.976 132.224 133.183  1.00  0.00     0.053 C 
BRANCH   5   6
ATOM      6  C   UNL     1     129.839 131.499 132.533  1.00  0.00     0.041 C 
ATOM      7  O   UNL     1     129.050 130.806 133.228  1.00  0.00    -0.550 OA
ATOM      8  O   UNL     1     129.621 131.629 131.168  1.00  0.00    -0.550 OA
ENDBRANCH   5   6
ENDBRANCH   4   5
ENDBRANCH   3   4
ENDBRANCH   2   3
ENDBRANCH   1   2
BRANCH   1   9
ATOM      9  C   UNL     1     135.437 133.743 132.493  1.00  0.00     0.000 C 
BRANCH   9  10
ATOM     10  C   UNL     1     135.580 135.034 133.316  1.00  0.00    -0.000 C 
BRANCH  10  11
ATOM     11  C   UNL     1     134.327 135.912 133.177  1.00  0.00    -0.000 C 
BRANCH  11  12
ATOM     12  C   UNL     1     133.068 135.244 133.749  1.00  0.00    -0.000 C 
BRANCH  12  13
ATOM     13  C   UNL     1     131.773 135.800 133.139  1.00  0.00    -0.003 C 
ATOM     14  C   UNL     1     131.725 137.322 133.246  1.00  0.00     0.004 C 
ENDBRANCH  12  13
ENDBRANCH  11  12
ENDBRANCH  10  11
ENDBRANCH   9  10
ENDBRANCH   1   9
TORSDOF 10
ENDMDL
MODEL 2
REMARK VINA RESULT:    -5.297      2.807      4.561
REMARK INTER + INTRA:          -9.365
REMARK INTER:                  -8.398
REMARK INTRA:                  -0.968
REMARK UNBOUND:                -0.972
REMARK SMILES CCCCCCCCCCCC(=O)[O-]
REMARK SMILES IDX 7 1 8 2 9 3 10 4 11 5 12 6 13 7 14 8 6 9 5 10 4 11 3 12 2 13
REMARK SMILES IDX 1 14
REMARK H PARENT
REMARK Flexibility Score: inf
ROOT
ATOM      1  C   UNL     1     134.822 135.775 132.972  1.00  0.00     0.000 C 
ENDROOT
BRANCH   1   2
ATOM      2  C   UNL     1     136.051 134.850 133.037  1.00  0.00     0.000 C 
BRANCH   2   3
ATOM      3  C   UNL     1     135.726 133.462 133.615  1.00  0.00     0.000 C 
BRANCH   3   4
ATOM      4  C   UNL     1     135.465 132.362 132.569  1.00  0.00     0.006 C 
BRANCH   4   5
ATOM      5  C   UNL     1     135.078 131.018 133.197  1.00  0.00     0.053 C 
BRANCH   5   6
ATOM      6  C   UNL     1     135.812 129.898 132.527  1.00  0.00     0.041 C 
ATOM      7  O   UNL     1     136.459 129.065 133.214  1.00  0.00    -0.550 OA
ATOM      8  O   UNL     1     135.740 129.745 131.148  1.00  0.00    -0.550 OA
ENDBRANCH   5   6
ENDBRANCH   4   5
ENDBRANCH   3   4
ENDBRANCH   2   3
ENDBRANCH   1   2
BRANCH   1   9
ATOM      9  C   UNL     1     133.647 135.252 133.815  1.00  0.00     0.000 C 
BRANCH   9  10
ATOM     10  C   UNL     1     132.282 135.522 133.161  1.00  0.00    -0.000 C 
BRANCH  10  11
ATOM     11  C   UNL     1     131.352 134.308 133.317  1.00  0.00    -0.000 C 
BRANCH  11  12
ATOM     12  C   UNL     1     131.797 133.107 132.469  1.00  0.00    -0.000 C 
BRANCH  12  13
ATOM     13  C   UNL     1     131.463 131.761 133.128  1.00  0.00    -0.003 C 
ATOM     14  C   UNL     1     129.960 131.497 133.107  1.00  0.00     0.004 C 
ENDBRANCH  12  13
ENDBRANCH  11  12
ENDBRANCH  10  11
ENDBRANCH   9  10
ENDBRANCH   1   9
TORSDOF 10
ENDMDL
MODEL 3
REMARK VINA RESULT:    -5.296      2.801      4.608
REMARK INTER + INTRA:          -9.364
REMARK INTER:                  -8.155
REMARK INTRA:                  -1.209
REMARK UNBOUND:                -0.972
REMARK SMILES CCCCCCCCCCCC(=O)[O-]
REMARK SMILES IDX 7 1 8 2 9 3 10 4 11 5 12 6 13 7 14 8 6 9 5 10 4 11 3 12 2 13
REMARK SMILES IDX 1 14
REMARK H PARENT
REMARK Flexibility Score: inf
ROOT
ATOM      1  C   UNL     1     135.720 134.241 132.073  1.00  0.00     0.000 C 
ENDROOT
BRANCH   1   2
ATOM      2  C   UNL     1     134.732 135.418 131.972  1.00  0.00     0.000 C 
BRANCH   2   3
ATOM      3  C   UNL     1     134.338 135.989 133.347  1.00  0.00     0.000 C 
BRANCH   3   4
ATOM      4  C   UNL     1     132.847 135.854 133.708  1.00  0.00     0.006 C 
BRANCH   4   5
ATOM      5  C   UNL     1     131.925 135.933 132.486  1.00  0.00     0.053 C 
BRANCH   5   6
ATOM      6  C   UNL     1     131.560 137.356 132.197  1.00  0.00     0.041 C 
ATOM      7  O   UNL     1     131.157 138.107 133.124  1.00  0.00    -0.550 OA
ATOM      8  O   UNL     1     131.713 137.867 130.915  1.00  0.00    -0.550 OA
ENDBRANCH   5   6
ENDBRANCH   4   5
ENDBRANCH   3   4
ENDBRANCH   2   3
ENDBRANCH   1   2
BRANCH   1   9
ATOM      9  C   UNL     1     135.541 133.432 133.368  1.00  0.00     0.000 C 
BRANCH   9  10
ATOM     10  C   UNL     1     135.698 131.918 133.149  1.00  0.00    -0.000 C 
BRANCH  10  11
ATOM     11  C   UNL     1     134.375 131.186 133.424  1.00  0.00    -0.000 C 
BRANCH  11  12
ATOM     12  C   UNL     1     133.208 132.150 133.688  1.00  0.00    -0.000 C 
BRANCH  12  13
ATOM     13  C   UNL     1     131.951 131.791 132.883  1.00  0.00    -0.003 C 
ATOM     14  C   UNL     1     130.719 132.495 133.445  1.00  0.00     0.004 C 
ENDBRANCH  12  13
ENDBRANCH  11  12
ENDBRANCH  10  11
ENDBRANCH   9  10
ENDBRANCH   1   9
TORSDOF 10
ENDMDL
MODEL 4
REMARK VINA RESULT:    -5.291      3.598      6.256
REMARK INTER + INTRA:          -9.355
REMARK INTER:                  -8.353
REMARK INTRA:                  -1.002
REMARK UNBOUND:                -0.972
REMARK SMILES CCCCCCCCCCCC(=O)[O-]
REMARK SMILES IDX 7 1 8 2 9 3 10 4 11 5 12 6 13 7 14 8 6 9 5 10 4 11 3 12 2 13
REMARK SMILES IDX 1 14
REMARK H PARENT
REMARK Flexibility Score: inf
ROOT
ATOM      1  C   UNL     1     131.692 134.114 132.258  1.00  0.00     0.000 C 
ENDROOT
BRANCH   1   2
ATOM      2  C   UNL     1     132.197 135.499 132.704  1.00  0.00     0.000 C 
BRANCH   2   3
ATOM      3  C   UNL     1     133.319 135.417 133.754  1.00  0.00     0.000 C 
BRANCH   3   4
ATOM      4  C   UNL     1     134.664 136.033 133.324  1.00  0.00     0.006 C 
BRANCH   4   5
ATOM      5  C   UNL     1     135.767 134.985 133.132  1.00  0.00     0.053 C 
BRANCH   5   6
ATOM      6  C   UNL     1     136.981 135.612 132.520  1.00  0.00     0.041 C 
ATOM      7  O   UNL     1     137.819 136.208 133.245  1.00  0.00    -0.550 OA
ATOM      8  O   UNL     1     137.212 135.493 131.155  1.00  0.00    -0.550 OA
ENDBRANCH   5   6
ENDBRANCH   4   5
ENDBRANCH   3   4
ENDBRANCH   2   3
ENDBRANCH   1   2
BRANCH   1   9
ATOM      9  C   UNL     1     131.349 133.202 133.447  1.00  0.00     0.000 C 
BRANCH   9  10
ATOM     10  C   UNL     1     131.828 131.755 133.244  1.00  0.00    -0.000 C 
BRANCH  10  11
ATOM     11  C   UNL     1     133.242 131.726 132.643  1.00  0.00    -0.000 C 
BRANCH  11  12
ATOM     12  C   UNL     1     134.338 131.595 133.711  1.00  0.00    -0.000 C 
BRANCH  12  13
ATOM     13  C   UNL     1     135.715 131.279 133.111  1.00  0.00    -0.003 C 
ATOM     14  C   UNL     1     135.888 129.779 132.892  1.00  0.00     0.004 C 
ENDBRANCH  12  13
ENDBRANCH  11  12
ENDBRANCH  10  11
ENDBRANCH   9  10
ENDBRANCH   1   9
TORSDOF 10
ENDMDL
MODEL 5
REMARK VINA RESULT:    -5.280      2.803      4.374
REMARK INTER + INTRA:          -9.339
REMARK INTER:                  -8.472
REMARK INTRA:                  -0.868
REMARK UNBOUND:                -0.972
REMARK SMILES CCCCCCCCCCCC(=O)[O-]
REMARK SMILES IDX 7 1 8 2 9 3 10 4 11 5 12 6 13 7 14 8 6 9 5 10 4 11 3 12 2 13
REMARK SMILES IDX 1 14
REMARK H PARENT
REMARK Flexibility Score: inf
ROOT
ATOM      1  C   UNL     1     133.292 131.734 132.449  1.00  0.00     0.000 C 
ENDROOT
BRANCH   1   2
ATOM      2  C   UNL     1     131.870 131.664 133.036  1.00  0.00     0.000 C 
BRANCH   2   3
ATOM      3  C   UNL     1     131.478 132.937 133.807  1.00  0.00     0.000 C 
BRANCH   3   4
ATOM      4  C   UNL     1     132.293 134.194 133.452  1.00  0.00     0.006 C 
BRANCH   4   5
ATOM      5  C   UNL     1     131.449 135.286 132.784  1.00  0.00     0.053 C 
BRANCH   5   6
ATOM      6  C   UNL     1     131.910 136.642 133.219  1.00  0.00     0.041 C 
ATOM      7  O   UNL     1     131.138 137.632 133.128  1.00  0.00    -0.550 OA
ATOM      8  O   UNL     1     133.175 136.804 133.770  1.00  0.00    -0.550 OA
ENDBRANCH   5   6
ENDBRANCH   4   5
ENDBRANCH   3   4
ENDBRANCH   2   3
ENDBRANCH   1   2
BRANCH   1   9
ATOM      9  C   UNL     1     134.345 131.112 133.381  1.00  0.00     0.000 C 
BRANCH   9  10
ATOM     10  C   UNL     1     135.720 131.789 133.258  1.00  0.00    -0.000 C 
BRANCH  10  11
ATOM     11  C   UNL     1     135.588 133.186 132.632  1.00  0.00    -0.000 C 
BRANCH  11  12
ATOM     12  C   UNL     1     136.093 134.301 133.560  1.00  0.00    -0.000 C 
BRANCH  12  13
ATOM     13  C   UNL     1     136.473 135.579 132.797  1.00  0.00    -0.003 C 
ATOM     14  C   UNL     1     137.902 136.007 133.119  1.00  0.00     0.004 C 
ENDBRANCH  12  13
ENDBRANCH  11  12
ENDBRANCH  10  11
ENDBRANCH   9  10
ENDBRANCH   1   9
TORSDOF 10
ENDMDL
MODEL 6
REMARK VINA RESULT:    -5.241      2.672      4.347
REMARK INTER + INTRA:          -9.277
REMARK INTER:                  -8.370
REMARK INTRA:                  -0.906
REMARK UNBOUND:                -0.972
REMARK SMILES CCCCCCCCCCCC(=O)[O-]
REMARK SMILES IDX 7 1 8 2 9 3 10 4 11 5 12 6 13 7 14 8 6 9 5 10 4 11 3 12 2 13
REMARK SMILES IDX 1 14
REMARK H PARENT
REMARK Flexibility Score: inf
ROOT
ATOM      1  C   UNL     1     131.904 134.348 132.569  1.00  0.00     0.000 C 
ENDROOT
BRANCH   1   2
ATOM      2  C   UNL     1     131.050 133.400 133.431  1.00  0.00     0.000 C 
BRANCH   2   3
ATOM      3  C   UNL     1     131.501 131.931 133.332  1.00  0.00     0.000 C 
BRANCH   3   4
ATOM      4  C   UNL     1     132.847 131.707 132.619  1.00  0.00     0.006 C 
BRANCH   4   5
ATOM      5  C   UNL     1     133.897 131.043 133.517  1.00  0.00     0.053 C 
BRANCH   5   6
ATOM      6  C   UNL     1     135.164 130.806 132.754  1.00  0.00     0.041 C 
ATOM      7  O   UNL     1     135.505 131.594 131.834  1.00  0.00    -0.550 OA
ATOM      8  O   UNL     1     135.991 129.743 133.093  1.00  0.00    -0.550 OA
ENDBRANCH   5   6
ENDBRANCH   4   5
ENDBRANCH   3   4
ENDBRANCH   2   3
ENDBRANCH   1   2
BRANCH   1   9
ATOM      9  C   UNL     1     132.355 135.600 133.340  1.00  0.00     0.000 C 
BRANCH   9  10
ATOM     10  C   UNL     1     133.882 135.776 133.347  1.00  0.00    -0.000 C 
BRANCH  10  11
ATOM     11  C   UNL     1     134.580 134.482 133.794  1.00  0.00    -0.000 C 
BRANCH  11  12
ATOM     12  C   UNL     1     136.111 134.572 133.704  1.00  0.00    -0.000 C 
BRANCH  12  13
ATOM     13  C   UNL     1     136.584 135.466 132.549  1.00  0.00    -0.003 C 
ATOM     14  C   UNL     1     137.824 136.263 132.942  1.00  0.00     0.004 C 
ENDBRANCH  12  13
ENDBRANCH  11  12
ENDBRANCH  10  11
ENDBRANCH   9  10
ENDBRANCH   1   9
TORSDOF 10
ENDMDL
MODEL 7
REMARK VINA RESULT:    -5.217      2.637      4.781
REMARK INTER + INTRA:          -9.238
REMARK INTER:                  -8.160
REMARK INTRA:                  -1.078
REMARK UNBOUND:                -0.972
REMARK SMILES CCCCCCCCCCCC(=O)[O-]
REMARK SMILES IDX 7 1 8 2 9 3 10 4 11 5 12 6 13 7 14 8 6 9 5 10 4 11 3 12 2 13
REMARK SMILES IDX 1 14
REMARK H PARENT
REMARK Flexibility Score: inf
ROOT
ATOM      1  C   UNL     1     134.996 134.635 133.737  1.00  0.00     0.000 C 
ENDROOT
BRANCH   1   2
ATOM      2  C   UNL     1     134.255 135.751 132.978  1.00  0.00     0.000 C 
BRANCH   2   3
ATOM      3  C   UNL     1     132.921 136.142 133.640  1.00  0.00     0.000 C 
BRANCH   3   4
ATOM      4  C   UNL     1     131.822 136.614 132.670  1.00  0.00     0.006 C 
BRANCH   4   5
ATOM      5  C   UNL     1     131.843 135.865 131.332  1.00  0.00     0.053 C 
BRANCH   5   6
ATOM      6  C   UNL     1     131.475 136.787 130.211  1.00  0.00     0.041 C 
ATOM      7  O   UNL     1     130.824 136.355 129.224  1.00  0.00    -0.550 OA
ATOM      8  O   UNL     1     131.809 138.133 130.280  1.00  0.00    -0.550 OA
ENDBRANCH   5   6
ENDBRANCH   4   5
ENDBRANCH   3   4
ENDBRANCH   2   3
ENDBRANCH   1   2
BRANCH   1   9
ATOM      9  C   UNL     1     134.042 133.556 134.277  1.00  0.00     0.000 C 
BRANCH   9  10
ATOM     10  C   UNL     1     134.265 132.184 133.621  1.00  0.00    -0.000 C 
BRANCH  10  11
ATOM     11  C   UNL     1     132.926 131.474 133.370  1.00  0.00    -0.000 C 
BRANCH  11  12
ATOM     12  C   UNL     1     131.903 132.373 132.659  1.00  0.00    -0.000 C 
BRANCH  12  13
ATOM     13  C   UNL     1     130.598 132.527 133.454  1.00  0.00    -0.003 C 
ATOM     14  C   UNL     1     129.606 131.422 133.101  1.00  0.00     0.004 C 
ENDBRANCH  12  13
ENDBRANCH  11  12
ENDBRANCH  10  11
ENDBRANCH   9  10
ENDBRANCH   1   9
TORSDOF 10
ENDMDL
MODEL 8
REMARK VINA RESULT:    -5.157      3.229      4.885
REMARK INTER + INTRA:          -9.144
REMARK INTER:                  -8.153
REMARK INTRA:                  -0.991
REMARK UNBOUND:                -0.972
REMARK SMILES CCCCCCCCCCCC(=O)[O-]
REMARK SMILES IDX 7 1 8 2 9 3 10 4 11 5 12 6 13 7 14 8 6 9 5 10 4 11 3 12 2 13
REMARK SMILES IDX 1 14
REMARK H PARENT
REMARK Flexibility Score: inf
ROOT
ATOM      1  C   UNL     1     133.092 131.836 132.440  1.00  0.00     0.000 C 
ENDROOT
BRANCH   1   2
ATOM      2  C   UNL     1     134.206 131.526 133.458  1.00  0.00     0.000 C 
BRANCH   2   3
ATOM      3  C   UNL     1     135.467 132.382 133.243  1.00  0.00     0.000 C 
BRANCH   3   4
ATOM      4  C   UNL     1     135.360 133.839 133.730  1.00  0.00     0.006 C 
BRANCH   4   5
ATOM      5  C   UNL     1     136.641 134.647 133.489  1.00  0.00     0.053 C 
BRANCH   5   6
ATOM      6  C   UNL     1     136.533 135.432 132.219  1.00  0.00     0.041 C 
ATOM      7  O   UNL     1     137.570 135.877 131.660  1.00  0.00    -0.550 OA
ATOM      8  O   UNL     1     135.293 135.630 131.627  1.00  0.00    -0.550 OA
ENDBRANCH   5   6
ENDBRANCH   4   5
ENDBRANCH   3   4
ENDBRANCH   2   3
ENDBRANCH   1   2
BRANCH   1   9
ATOM      9  C   UNL     1     131.690 131.783 133.068  1.00  0.00     0.000 C 
BRANCH   9  10
ATOM     10  C   UNL     1     131.184 133.167 133.509  1.00  0.00    -0.000 C 
BRANCH  10  11
ATOM     11  C   UNL     1     131.793 134.275 132.636  1.00  0.00    -0.000 C 
BRANCH  11  12
ATOM     12  C   UNL     1     132.156 135.532 133.442  1.00  0.00    -0.000 C 
BRANCH  12  13
ATOM     13  C   UNL     1     131.853 136.831 132.680  1.00  0.00    -0.003 C 
ATOM     14  C   UNL     1     131.840 136.594 131.173  1.00  0.00     0.004 C 
ENDBRANCH  12  13
ENDBRANCH  11  12
ENDBRANCH  10  11
ENDBRANCH   9  10
ENDBRANCH   1   9
TORSDOF 10
ENDMDL
MODEL 9
REMARK VINA RESULT:    -5.136      1.149      3.460
REMARK INTER + INTRA:          -9.111
REMARK INTER:                  -7.857
REMARK INTRA:                  -1.254
REMARK UNBOUND:                -0.972
REMARK SMILES CCCCCCCCCCCC(=O)[O-]
REMARK SMILES IDX 7 1 8 2 9 3 10 4 11 5 12 6 13 7 14 8 6 9 5 10 4 11 3 12 2 13
REMARK SMILES IDX 1 14
REMARK H PARENT
REMARK Flexibility Score: inf
ROOT
ATOM      1  C   UNL     1     133.462 135.857 131.953  1.00  0.00     0.000 C 
ENDROOT
BRANCH   1   2
ATOM      2  C   UNL     1     132.049 135.247 131.975  1.00  0.00     0.000 C 
BRANCH   2   3
ATOM      3  C   UNL     1     131.628 134.764 133.375  1.00  0.00     0.000 C 
BRANCH   3   4
ATOM      4  C   UNL     1     131.376 133.249 133.496  1.00  0.00     0.006 C 
BRANCH   4   5
ATOM      5  C   UNL     1     131.469 132.518 132.151  1.00  0.00     0.053 C 
BRANCH   5   6
ATOM      6  C   UNL     1     130.212 131.749 131.886  1.00  0.00     0.041 C 
ATOM      7  O   UNL     1     129.831 131.547 130.703  1.00  0.00    -0.550 OA
ATOM      8  O   UNL     1     129.488 131.214 132.944  1.00  0.00    -0.550 OA
ENDBRANCH   5   6
ENDBRANCH   4   5
ENDBRANCH   3   4
ENDBRANCH   2   3
ENDBRANCH   1   2
BRANCH   1   9
ATOM      9  C   UNL     1     134.139 135.828 133.333  1.00  0.00     0.000 C 
BRANCH   9  10
ATOM     10  C   UNL     1     135.673 135.875 133.244  1.00  0.00    -0.000 C 
BRANCH  10  11
ATOM     11  C   UNL     1     136.272 134.466 133.375  1.00  0.00    -0.000 C 
BRANCH  11  12
ATOM     12  C   UNL     1     135.219 133.404 133.728  1.00  0.00    -0.000 C 
BRANCH  12  13
ATOM     13  C   UNL     1     135.197 132.237 132.730  1.00  0.00    -0.003 C 
ATOM     14  C   UNL     1     134.640 130.972 133.376  1.00  0.00     0.004 C 
ENDBRANCH  12  13
ENDBRANCH  11  12
ENDBRANCH  10  11
ENDBRANCH   9  10
ENDBRANCH   1   9
TORSDOF 10
ENDMDL
