MODEL 1
REMARK VINA RESULT:    -3.189      0.000      0.000
REMARK INTER + INTRA:          -8.239
REMARK INTER:                  -5.799
REMARK INTRA:                  -2.440
REMARK UNBOUND:                -2.440
REMARK SMILES CCCCCCCCCCCCCC[C@H](C)C(=O)[O-]
REMARK SMILES IDX 9 1 10 2 11 3 12 4 13 5 14 6 15 7 16 8 17 9 18 10 19 11 8 12
REMARK SMILES IDX 7 13 6 14 5 15 4 16 3 17 2 18 1 19
REMARK H PARENT
REMARK Flexibility Score: inf
ROOT
ATOM      1  C   UNL     1      56.813  26.341  50.594  1.00  0.00     0.000 C 
ENDROOT
BRANCH   1   2
ATOM      2  C   UNL     1      55.326  25.984  50.721  1.00  0.00     0.000 C 
BRANCH   2   3
ATOM      3  C   UNL     1      54.516  26.333  49.458  1.00  0.00     0.000 C 
BRANCH   3   4
ATOM      4  C   UNL     1      53.370  27.339  49.679  1.00  0.00     0.000 C 
BRANCH   4   5
ATOM      5  C   UNL     1      53.814  28.766  50.056  1.00  0.00     0.001 C 
BRANCH   5   6
ATOM      6  C   UNL     1      53.407  29.224  51.472  1.00  0.00     0.009 C 
BRANCH   6   7
ATOM      7  C   UNL     1      54.589  29.381  52.454  1.00  0.00     0.032 C 
ATOM      8  C   UNL     1      54.458  28.386  53.611  1.00  0.00     0.014 C 
BRANCH   7   9
ATOM      9  C   UNL     1      54.672  30.782  52.998  1.00  0.00     0.044 C 
ATOM     10  O   UNL     1      55.504  31.062  53.899  1.00  0.00    -0.550 OA
ATOM     11  O   UNL     1      53.831  31.776  52.509  1.00  0.00    -0.550 OA
ENDBRANCH   7   9
ENDBRANCH   6   7
ENDBRANCH   5   6
ENDBRANCH   4   5
ENDBRANCH   3   4
ENDBRANCH   2   3
ENDBRANCH   1   2
BRANCH   1  12
ATOM     12  C   UNL     1      57.326  27.012  51.877  1.00  0.00     0.000 C 
BRANCH  12  13
ATOM     13  C   UNL     1      57.989  28.374  51.613  1.00  0.00    -0.000 C 
BRANCH  13  14
ATOM     14  C   UNL     1      57.658  28.931  50.217  1.00  0.00    -0.000 C 
BRANCH  14  15
ATOM     15  C   UNL     1      58.906  29.130  49.339  1.00  0.00    -0.000 C 
BRANCH  15  16
ATOM     16  C   UNL     1      60.254  29.005  50.073  1.00  0.00    -0.000 C 
BRANCH  16  17
ATOM     17  C   UNL     1      61.151  27.896  49.495  1.00  0.00    -0.000 C 
BRANCH  17  18
ATOM     18  C   UNL     1      61.238  26.670  50.418  1.00  0.00    -0.003 C 
ATOM     19  C   UNL     1      60.232  25.579  50.053  1.00  0.00     0.004 C 
ENDBRANCH  17  18
ENDBRANCH  16  17
ENDBRANCH  15  16
ENDBRANCH  14  15
ENDBRANCH  13  14
ENDBRANCH  12  13
ENDBRANCH   1  12
TORSDOF 14
ENDMDL
MODEL 2
REMARK VINA RESULT:    -3.182      3.285      6.461
REMARK INTER + INTRA:          -8.226
REMARK INTER:                  -5.765
REMARK INTRA:                  -2.460
REMARK UNBOUND:                -2.440
REMARK SMILES CCCCCCCCCCCCCC[C@H](C)C(=O)[O-]
REMARK SMILES IDX 9 1 10 2 11 3 12 4 13 5 14 6 15 7 16 8 17 9 18 10 19 11 8 12
REMARK SMILES IDX 7 13 6 14 5 15 4 16 3 17 2 18 1 19
REMARK H PARENT
REMARK Flexibility Score: inf
ROOT
ATOM      1  C   UNL     1      56.254  26.556  50.043  1.00  0.00     0.000 C 
ENDROOT
BRANCH   1   2
ATOM      2  C   UNL     1      56.401  27.174  51.442  1.00  0.00     0.000 C 
BRANCH   2   3
ATOM      3  C   UNL     1      57.342  28.393  51.461  1.00  0.00     0.000 C 
BRANCH   3   4
ATOM      4  C   UNL     1      57.516  29.101  50.104  1.00  0.00     0.000 C 
BRANCH   4   5
ATOM      5  C   UNL     1      58.885  28.894  49.427  1.00  0.00     0.001 C 
BRANCH   5   6
ATOM      6  C   UNL     1      59.944  28.186  50.300  1.00  0.00     0.009 C 
BRANCH   6   7
ATOM      7  C   UNL     1      60.460  26.852  49.717  1.00  0.00     0.032 C 
ATOM      8  C   UNL     1      59.817  25.667  50.444  1.00  0.00     0.014 C 
BRANCH   7   9
ATOM      9  C   UNL     1      61.959  26.752  49.813  1.00  0.00     0.044 C 
ATOM     10  O   UNL     1      62.492  25.773  50.397  1.00  0.00    -0.550 OA
ATOM     11  O   UNL     1      62.765  27.740  49.258  1.00  0.00    -0.550 OA
ENDBRANCH   7   9
ENDBRANCH   6   7
ENDBRANCH   5   6
ENDBRANCH   4   5
ENDBRANCH   3   4
ENDBRANCH   2   3
ENDBRANCH   1   2
BRANCH   1  12
ATOM     12  C   UNL     1      54.780  26.515  49.616  1.00  0.00     0.000 C 
BRANCH  12  13
ATOM     13  C   UNL     1      53.852  27.233  50.609  1.00  0.00    -0.000 C 
BRANCH  13  14
ATOM     14  C   UNL     1      53.154  28.455  49.988  1.00  0.00    -0.000 C 
BRANCH  14  15
ATOM     15  C   UNL     1      53.801  29.791  50.400  1.00  0.00    -0.000 C 
BRANCH  15  16
ATOM     16  C   UNL     1      53.521  30.239  51.847  1.00  0.00    -0.000 C 
BRANCH  16  17
ATOM     17  C   UNL     1      54.777  30.761  52.566  1.00  0.00    -0.000 C 
BRANCH  17  18
ATOM     18  C   UNL     1      54.995  30.088  53.931  1.00  0.00    -0.003 C 
ATOM     19  C   UNL     1      54.308  28.727  54.038  1.00  0.00     0.004 C 
ENDBRANCH  17  18
ENDBRANCH  16  17
ENDBRANCH  15  16
ENDBRANCH  14  15
ENDBRANCH  13  14
ENDBRANCH  12  13
ENDBRANCH   1  12
TORSDOF 14
ENDMDL
MODEL 3
REMARK VINA RESULT:    -3.177      4.332      6.904
REMARK INTER + INTRA:          -8.218
REMARK INTER:                  -6.044
REMARK INTRA:                  -2.174
REMARK UNBOUND:                -2.440
REMARK SMILES CCCCCCCCCCCCCC[C@H](C)C(=O)[O-]
REMARK SMILES IDX 9 1 10 2 11 3 12 4 13 5 14 6 15 7 16 8 17 9 18 10 19 11 8 12
REMARK SMILES IDX 7 13 6 14 5 15 4 16 3 17 2 18 1 19
REMARK H PARENT
REMARK Flexibility Score: inf
ROOT
ATOM      1  C   UNL     1      56.078  26.340  49.976  1.00  0.00     0.000 C 
ENDROOT
BRANCH   1   2
ATOM      2  C   UNL     1      57.545  25.910  50.125  1.00  0.00     0.000 C 
BRANCH   2   3
ATOM      3  C   UNL     1      57.916  25.543  51.574  1.00  0.00     0.000 C 
BRANCH   3   4
ATOM      4  C   UNL     1      59.347  25.003  51.760  1.00  0.00     0.000 C 
BRANCH   4   5
ATOM      5  C   UNL     1      59.987  24.392  50.497  1.00  0.00     0.001 C 
BRANCH   5   6
ATOM      6  C   UNL     1      61.472  23.996  50.643  1.00  0.00     0.009 C 
BRANCH   6   7
ATOM      7  C   UNL     1      61.783  22.536  50.247  1.00  0.00     0.032 C 
ATOM      8  C   UNL     1      60.733  22.013  49.262  1.00  0.00     0.014 C 
BRANCH   7   9
ATOM      9  C   UNL     1      61.837  21.638  51.453  1.00  0.00     0.044 C 
ATOM     10  O   UNL     1      62.086  22.119  52.590  1.00  0.00    -0.550 OA
ATOM     11  O   UNL     1      61.614  20.272  51.323  1.00  0.00    -0.550 OA
ENDBRANCH   7   9
ENDBRANCH   6   7
ENDBRANCH   5   6
ENDBRANCH   4   5
ENDBRANCH   3   4
ENDBRANCH   2   3
ENDBRANCH   1   2
BRANCH   1  12
ATOM     12  C   UNL     1      55.695  27.361  51.058  1.00  0.00     0.000 C 
BRANCH  12  13
ATOM     13  C   UNL     1      56.188  28.781  50.736  1.00  0.00    -0.000 C 
BRANCH  13  14
ATOM     14  C   UNL     1      57.279  29.262  51.708  1.00  0.00    -0.000 C 
BRANCH  14  15
ATOM     15  C   UNL     1      58.599  29.620  51.000  1.00  0.00    -0.000 C 
BRANCH  15  16
ATOM     16  C   UNL     1      58.625  29.351  49.484  1.00  0.00    -0.000 C 
BRANCH  16  17
ATOM     17  C   UNL     1      59.784  28.434  49.057  1.00  0.00    -0.000 C 
BRANCH  17  18
ATOM     18  C   UNL     1      60.709  28.071  50.229  1.00  0.00    -0.003 C 
ATOM     19  C   UNL     1      62.029  27.450  49.773  1.00  0.00     0.004 C 
ENDBRANCH  17  18
ENDBRANCH  16  17
ENDBRANCH  15  16
ENDBRANCH  14  15
ENDBRANCH  13  14
ENDBRANCH  12  13
ENDBRANCH   1  12
TORSDOF 14
ENDMDL
MODEL 4
REMARK VINA RESULT:    -3.161      2.639      6.070
REMARK INTER + INTRA:          -8.188
REMARK INTER:                  -6.118
REMARK INTRA:                  -2.069
REMARK UNBOUND:                -2.440
REMARK SMILES CCCCCCCCCCCCCC[C@H](C)C(=O)[O-]
REMARK SMILES IDX 9 1 10 2 11 3 12 4 13 5 14 6 15 7 16 8 17 9 18 10 19 11 8 12
REMARK SMILES IDX 7 13 6 14 5 15 4 16 3 17 2 18 1 19
REMARK H PARENT
REMARK Flexibility Score: inf
ROOT
ATOM      1  C   UNL     1      57.818  29.529  52.877  1.00  0.00     0.000 C 
ENDROOT
BRANCH   1   2
ATOM      2  C   UNL     1      58.521  30.003  51.596  1.00  0.00     0.000 C 
BRANCH   2   3
ATOM      3  C   UNL     1      57.965  29.334  50.326  1.00  0.00     0.000 C 
BRANCH   3   4
ATOM      4  C   UNL     1      58.967  29.217  49.161  1.00  0.00     0.000 C 
BRANCH   4   5
ATOM      5  C   UNL     1      59.990  28.071  49.289  1.00  0.00     0.001 C 
BRANCH   5   6
ATOM      6  C   UNL     1      59.380  26.678  49.553  1.00  0.00     0.009 C 
BRANCH   6   7
ATOM      7  C   UNL     1      60.266  25.748  50.411  1.00  0.00     0.032 C 
ATOM      8  C   UNL     1      59.423  24.631  51.034  1.00  0.00     0.014 C 
BRANCH   7   9
ATOM      9  C   UNL     1      60.977  26.512  51.496  1.00  0.00     0.044 C 
ATOM     10  O   UNL     1      62.218  26.708  51.421  1.00  0.00    -0.550 OA
ATOM     11  O   UNL     1      60.270  27.005  52.587  1.00  0.00    -0.550 OA
ENDBRANCH   7   9
ENDBRANCH   6   7
ENDBRANCH   5   6
ENDBRANCH   4   5
ENDBRANCH   3   4
ENDBRANCH   2   3
ENDBRANCH   1   2
BRANCH   1  12
ATOM     12  C   UNL     1      56.801  28.422  52.564  1.00  0.00     0.000 C 
BRANCH  12  13
ATOM     13  C   UNL     1      55.360  28.817  52.927  1.00  0.00    -0.000 C 
BRANCH  13  14
ATOM     14  C   UNL     1      54.851  30.013  52.104  1.00  0.00    -0.000 C 
BRANCH  14  15
ATOM     15  C   UNL     1      54.220  29.593  50.763  1.00  0.00    -0.000 C 
BRANCH  15  16
ATOM     16  C   UNL     1      53.399  28.291  50.801  1.00  0.00    -0.000 C 
BRANCH  16  17
ATOM     17  C   UNL     1      53.530  27.461  49.512  1.00  0.00    -0.000 C 
BRANCH  17  18
ATOM     18  C   UNL     1      54.237  26.118  49.746  1.00  0.00    -0.003 C 
ATOM     19  C   UNL     1      55.746  26.266  49.936  1.00  0.00     0.004 C 
ENDBRANCH  17  18
ENDBRANCH  16  17
ENDBRANCH  15  16
ENDBRANCH  14  15
ENDBRANCH  13  14
ENDBRANCH  12  13
ENDBRANCH   1  12
TORSDOF 14
ENDMDL
MODEL 5
REMARK VINA RESULT:    -3.153      5.634      8.495
REMARK INTER + INTRA:          -8.174
REMARK INTER:                  -7.190
REMARK INTRA:                  -0.984
REMARK UNBOUND:                -2.440
REMARK SMILES CCCCCCCCCCCCCC[C@H](C)C(=O)[O-]
REMARK SMILES IDX 9 1 10 2 11 3 12 4 13 5 14 6 15 7 16 8 17 9 18 10 19 11 8 12
REMARK SMILES IDX 7 13 6 14 5 15 4 16 3 17 2 18 1 19
REMARK H PARENT
REMARK Flexibility Score: inf
ROOT
ATOM      1  C   UNL     1      59.953  25.600  49.939  1.00  0.00     0.000 C 
ENDROOT
BRANCH   1   2
ATOM      2  C   UNL     1      60.015  24.190  50.544  1.00  0.00     0.000 C 
BRANCH   2   3
ATOM      3  C   UNL     1      61.159  23.339  49.963  1.00  0.00     0.000 C 
BRANCH   3   4
ATOM      4  C   UNL     1      60.707  22.099  49.167  1.00  0.00     0.000 C 
BRANCH   4   5
ATOM      5  C   UNL     1      60.759  20.768  49.943  1.00  0.00     0.001 C 
BRANCH   5   6
ATOM      6  C   UNL     1      59.595  19.798  49.654  1.00  0.00     0.009 C 
BRANCH   6   7
ATOM      7  C   UNL     1      59.462  18.642  50.670  1.00  0.00     0.032 C 
ATOM      8  C   UNL     1      59.962  17.330  50.056  1.00  0.00     0.014 C 
BRANCH   7   9
ATOM      9  C   UNL     1      58.040  18.475  51.132  1.00  0.00     0.044 C 
ATOM     10  O   UNL     1      57.091  18.911  50.429  1.00  0.00    -0.550 OA
ATOM     11  O   UNL     1      57.763  17.841  52.338  1.00  0.00    -0.550 OA
ENDBRANCH   7   9
ENDBRANCH   6   7
ENDBRANCH   5   6
ENDBRANCH   4   5
ENDBRANCH   3   4
ENDBRANCH   2   3
ENDBRANCH   1   2
BRANCH   1  12
ATOM     12  C   UNL     1      60.969  26.532  50.618  1.00  0.00     0.000 C 
BRANCH  12  13
ATOM     13  C   UNL     1      60.738  28.013  50.277  1.00  0.00    -0.000 C 
BRANCH  13  14
ATOM     14  C   UNL     1      59.652  28.210  49.205  1.00  0.00    -0.000 C 
BRANCH  14  15
ATOM     15  C   UNL     1      58.556  29.202  49.635  1.00  0.00    -0.000 C 
BRANCH  15  16
ATOM     16  C   UNL     1      57.711  28.765  50.846  1.00  0.00    -0.000 C 
BRANCH  16  17
ATOM     17  C   UNL     1      56.346  28.181  50.445  1.00  0.00    -0.000 C 
BRANCH  17  18
ATOM     18  C   UNL     1      56.401  26.663  50.213  1.00  0.00    -0.003 C 
ATOM     19  C   UNL     1      55.058  26.081  49.773  1.00  0.00     0.004 C 
ENDBRANCH  17  18
ENDBRANCH  16  17
ENDBRANCH  15  16
ENDBRANCH  14  15
ENDBRANCH  13  14
ENDBRANCH  12  13
ENDBRANCH   1  12
TORSDOF 14
ENDMDL
MODEL 6
REMARK VINA RESULT:    -3.134     10.111     11.699
REMARK INTER + INTRA:          -8.139
REMARK INTER:                  -6.485
REMARK INTRA:                  -1.655
REMARK UNBOUND:                -2.440
REMARK SMILES CCCCCCCCCCCCCC[C@H](C)C(=O)[O-]
REMARK SMILES IDX 9 1 10 2 11 3 12 4 13 5 14 6 15 7 16 8 17 9 18 10 19 11 8 12
REMARK SMILES IDX 7 13 6 14 5 15 4 16 3 17 2 18 1 19
REMARK H PARENT
REMARK Flexibility Score: inf
ROOT
ATOM      1  C   UNL     1      62.255  29.860  61.635  1.00  0.00     0.000 C 
ENDROOT
BRANCH   1   2
ATOM      2  C   UNL     1      62.097  28.406  61.166  1.00  0.00     0.000 C 
BRANCH   2   3
ATOM      3  C   UNL     1      62.296  28.242  59.648  1.00  0.00     0.000 C 
BRANCH   3   4
ATOM      4  C   UNL     1      61.011  28.366  58.807  1.00  0.00     0.000 C 
BRANCH   4   5
ATOM      5  C   UNL     1      59.844  27.464  59.256  1.00  0.00     0.001 C 
BRANCH   5   6
ATOM      6  C   UNL     1      58.584  28.215  59.734  1.00  0.00     0.009 C 
BRANCH   6   7
ATOM      7  C   UNL     1      58.135  27.855  61.168  1.00  0.00     0.032 C 
ATOM      8  C   UNL     1      58.772  26.535  61.613  1.00  0.00     0.014 C 
BRANCH   7   9
ATOM      9  C   UNL     1      56.637  27.754  61.266  1.00  0.00     0.044 C 
ATOM     10  O   UNL     1      55.962  27.368  60.276  1.00  0.00    -0.550 OA
ATOM     11  O   UNL     1      55.986  28.085  62.450  1.00  0.00    -0.550 OA
ENDBRANCH   7   9
ENDBRANCH   6   7
ENDBRANCH   5   6
ENDBRANCH   4   5
ENDBRANCH   3   4
ENDBRANCH   2   3
ENDBRANCH   1   2
BRANCH   1  12
ATOM     12  C   UNL     1      60.923  30.618  61.526  1.00  0.00     0.000 C 
BRANCH  12  13
ATOM     13  C   UNL     1      61.077  31.999  60.868  1.00  0.00    -0.000 C 
BRANCH  13  14
ATOM     14  C   UNL     1      62.331  32.095  59.983  1.00  0.00    -0.000 C 
BRANCH  14  15
ATOM     15  C   UNL     1      62.826  33.542  59.797  1.00  0.00    -0.000 C 
BRANCH  15  16
ATOM     16  C   UNL     1      61.853  34.636  60.275  1.00  0.00    -0.000 C 
BRANCH  16  17
ATOM     17  C   UNL     1      62.561  35.791  61.005  1.00  0.00    -0.000 C 
BRANCH  17  18
ATOM     18  C   UNL     1      64.092  35.692  60.916  1.00  0.00    -0.003 C 
ATOM     19  C   UNL     1      64.802  36.478  62.017  1.00  0.00     0.004 C 
ENDBRANCH  17  18
ENDBRANCH  16  17
ENDBRANCH  15  16
ENDBRANCH  14  15
ENDBRANCH  13  14
ENDBRANCH  12  13
ENDBRANCH   1  12
TORSDOF 14
ENDMDL
MODEL 7
REMARK VINA RESULT:    -3.118      2.638      4.444
REMARK INTER + INTRA:          -8.111
REMARK INTER:                  -5.715
REMARK INTRA:                  -2.396
REMARK UNBOUND:                -2.440
REMARK SMILES CCCCCCCCCCCCCC[C@H](C)C(=O)[O-]
REMARK SMILES IDX 9 1 10 2 11 3 12 4 13 5 14 6 15 7 16 8 17 9 18 10 19 11 8 12
REMARK SMILES IDX 7 13 6 14 5 15 4 16 3 17 2 18 1 19
REMARK H PARENT
REMARK Flexibility Score: inf
ROOT
ATOM      1  C   UNL     1      60.460  24.929  52.040  1.00  0.00     0.000 C 
ENDROOT
BRANCH   1   2
ATOM      2  C   UNL     1      59.309  25.768  52.615  1.00  0.00     0.000 C 
BRANCH   2   3
ATOM      3  C   UNL     1      57.921  25.217  52.240  1.00  0.00     0.000 C 
BRANCH   3   4
ATOM      4  C   UNL     1      56.844  26.289  51.985  1.00  0.00     0.000 C 
BRANCH   4   5
ATOM      5  C   UNL     1      56.308  26.349  50.541  1.00  0.00     0.001 C 
BRANCH   5   6
ATOM      6  C   UNL     1      55.282  27.470  50.271  1.00  0.00     0.009 C 
BRANCH   6   7
ATOM      7  C   UNL     1      53.978  26.991  49.595  1.00  0.00     0.032 C 
ATOM      8  C   UNL     1      52.905  28.082  49.668  1.00  0.00     0.014 C 
BRANCH   7   9
ATOM      9  C   UNL     1      53.461  25.728  50.228  1.00  0.00     0.044 C 
ATOM     10  O   UNL     1      53.421  24.659  49.566  1.00  0.00    -0.550 OA
ATOM     11  O   UNL     1      53.025  25.732  51.549  1.00  0.00    -0.550 OA
ENDBRANCH   7   9
ENDBRANCH   6   7
ENDBRANCH   5   6
ENDBRANCH   4   5
ENDBRANCH   3   4
ENDBRANCH   2   3
ENDBRANCH   1   2
BRANCH   1  12
ATOM     12  C   UNL     1      61.223  25.713  50.962  1.00  0.00     0.000 C 
BRANCH  12  13
ATOM     13  C   UNL     1      60.313  26.194  49.820  1.00  0.00    -0.000 C 
BRANCH  13  14
ATOM     14  C   UNL     1      60.376  27.718  49.616  1.00  0.00    -0.000 C 
BRANCH  14  15
ATOM     15  C   UNL     1      59.016  28.330  49.235  1.00  0.00    -0.000 C 
BRANCH  15  16
ATOM     16  C   UNL     1      58.494  29.420  50.190  1.00  0.00    -0.000 C 
BRANCH  16  17
ATOM     17  C   UNL     1      59.344  29.557  51.465  1.00  0.00    -0.000 C 
BRANCH  17  18
ATOM     18  C   UNL     1      58.506  29.429  52.746  1.00  0.00    -0.003 C 
ATOM     19  C   UNL     1      57.067  29.913  52.566  1.00  0.00     0.004 C 
ENDBRANCH  17  18
ENDBRANCH  16  17
ENDBRANCH  15  16
ENDBRANCH  14  15
ENDBRANCH  13  14
ENDBRANCH  12  13
ENDBRANCH   1  12
TORSDOF 14
ENDMDL
MODEL 8
REMARK VINA RESULT:    -3.109      1.387      2.499
REMARK INTER + INTRA:          -8.093
REMARK INTER:                  -5.688
REMARK INTRA:                  -2.405
REMARK UNBOUND:                -2.440
REMARK SMILES CCCCCCCCCCCCCC[C@H](C)C(=O)[O-]
REMARK SMILES IDX 9 1 10 2 11 3 12 4 13 5 14 6 15 7 16 8 17 9 18 10 19 11 8 12
REMARK SMILES IDX 7 13 6 14 5 15 4 16 3 17 2 18 1 19
REMARK H PARENT
REMARK Flexibility Score: inf
ROOT
ATOM      1  C   UNL     1      57.180  28.233  50.989  1.00  0.00     0.000 C 
ENDROOT
BRANCH   1   2
ATOM      2  C   UNL     1      57.053  26.888  50.259  1.00  0.00     0.000 C 
BRANCH   2   3
ATOM      3  C   UNL     1      55.724  26.170  50.554  1.00  0.00     0.000 C 
BRANCH   3   4
ATOM      4  C   UNL     1      54.657  26.299  49.450  1.00  0.00     0.000 C 
BRANCH   4   5
ATOM      5  C   UNL     1      53.647  27.448  49.645  1.00  0.00     0.001 C 
BRANCH   5   6
ATOM      6  C   UNL     1      53.119  27.615  51.086  1.00  0.00     0.009 C 
BRANCH   6   7
ATOM      7  C   UNL     1      53.321  29.028  51.677  1.00  0.00     0.032 C 
ATOM      8  C   UNL     1      53.927  29.965  50.629  1.00  0.00     0.014 C 
BRANCH   7   9
ATOM      9  C   UNL     1      54.201  28.994  52.897  1.00  0.00     0.044 C 
ATOM     10  O   UNL     1      54.478  27.897  53.447  1.00  0.00    -0.550 OA
ATOM     11  O   UNL     1      54.715  30.174  53.425  1.00  0.00    -0.550 OA
ENDBRANCH   7   9
ENDBRANCH   6   7
ENDBRANCH   5   6
ENDBRANCH   4   5
ENDBRANCH   3   4
ENDBRANCH   2   3
ENDBRANCH   1   2
BRANCH   1  12
ATOM     12  C   UNL     1      57.989  29.236  50.152  1.00  0.00     0.000 C 
BRANCH  12  13
ATOM     13  C   UNL     1      59.093  28.562  49.321  1.00  0.00    -0.000 C 
BRANCH  13  14
ATOM     14  C   UNL     1      60.499  28.816  49.890  1.00  0.00    -0.000 C 
BRANCH  14  15
ATOM     15  C   UNL     1      61.409  27.575  49.818  1.00  0.00    -0.000 C 
BRANCH  15  16
ATOM     16  C   UNL     1      60.693  26.223  49.997  1.00  0.00    -0.000 C 
BRANCH  16  17
ATOM     17  C   UNL     1      60.952  25.585  51.373  1.00  0.00    -0.000 C 
BRANCH  17  18
ATOM     18  C   UNL     1      59.794  25.818  52.356  1.00  0.00    -0.003 C 
ATOM     19  C   UNL     1      59.982  27.072  53.209  1.00  0.00     0.004 C 
ENDBRANCH  17  18
ENDBRANCH  16  17
ENDBRANCH  15  16
ENDBRANCH  14  15
ENDBRANCH  13  14
ENDBRANCH  12  13
ENDBRANCH   1  12
TORSDOF 14
ENDMDL
MODEL 9
REMARK VINA RESULT:    -3.103     10.645     12.244
REMARK INTER + INTRA:          -8.084
REMARK INTER:                  -5.443
REMARK INTRA:                  -2.640
REMARK UNBOUND:                -2.440
REMARK SMILES CCCCCCCCCCCCCC[C@H](C)C(=O)[O-]
REMARK SMILES IDX 9 1 10 2 11 3 12 4 13 5 14 6 15 7 16 8 17 9 18 10 19 11 8 12
REMARK SMILES IDX 7 13 6 14 5 15 4 16 3 17 2 18 1 19
REMARK H PARENT
REMARK Flexibility Score: inf
ROOT
ATOM      1  C   UNL     1      60.583  30.532  58.849  1.00  0.00     0.000 C 
ENDROOT
BRANCH   1   2
ATOM      2  C   UNL     1      61.665  30.858  57.809  1.00  0.00     0.000 C 
BRANCH   2   3
ATOM      3  C   UNL     1      62.156  32.315  57.894  1.00  0.00     0.000 C 
BRANCH   3   4
ATOM      4  C   UNL     1      63.685  32.479  58.001  1.00  0.00     0.000 C 
BRANCH   4   5
ATOM      5  C   UNL     1      64.158  33.616  58.928  1.00  0.00     0.001 C 
BRANCH   5   6
ATOM      6  C   UNL     1      63.711  33.489  60.399  1.00  0.00     0.009 C 
BRANCH   6   7
ATOM      7  C   UNL     1      62.991  34.736  60.956  1.00  0.00     0.032 C 
ATOM      8  C   UNL     1      61.818  35.126  60.052  1.00  0.00     0.014 C 
BRANCH   7   9
ATOM      9  C   UNL     1      63.934  35.901  61.093  1.00  0.00     0.044 C 
ATOM     10  O   UNL     1      63.779  36.927  60.380  1.00  0.00    -0.550 OA
ATOM     11  O   UNL     1      64.982  35.854  62.006  1.00  0.00    -0.550 OA
ENDBRANCH   7   9
ENDBRANCH   6   7
ENDBRANCH   5   6
ENDBRANCH   4   5
ENDBRANCH   3   4
ENDBRANCH   2   3
ENDBRANCH   1   2
BRANCH   1  12
ATOM     12  C   UNL     1      60.561  31.588  59.965  1.00  0.00     0.000 C 
BRANCH  12  13
ATOM     13  C   UNL     1      60.766  30.981  61.362  1.00  0.00    -0.000 C 
BRANCH  13  14
ATOM     14  C   UNL     1      62.202  30.474  61.581  1.00  0.00    -0.000 C 
BRANCH  14  15
ATOM     15  C   UNL     1      62.322  28.943  61.466  1.00  0.00    -0.000 C 
BRANCH  15  16
ATOM     16  C   UNL     1      63.518  28.436  60.639  1.00  0.00    -0.000 C 
BRANCH  16  17
ATOM     17  C   UNL     1      64.758  29.339  60.763  1.00  0.00    -0.000 C 
BRANCH  17  18
ATOM     18  C   UNL     1      65.429  29.605  59.406  1.00  0.00    -0.003 C 
ATOM     19  C   UNL     1      64.756  28.860  58.254  1.00  0.00     0.004 C 
ENDBRANCH  17  18
ENDBRANCH  16  17
ENDBRANCH  15  16
ENDBRANCH  14  15
ENDBRANCH  13  14
ENDBRANCH  12  13
ENDBRANCH   1  12
TORSDOF 14
ENDMDL
